REMARK  5 active torsions:
REMARK  status: ('A' for Active; 'I' for Inactive)
REMARK    1  A    between atoms: C2_2  and  C3_3 
REMARK    2  A    between atoms: C3_3  and  C4_4 
REMARK    3  A    between atoms: C4_4  and  C5_5 
REMARK    4  A    between atoms: N1_16  and  C15_17 
REMARK    5  A    between atoms: C15_17  and  C16_18 
ROOT
HETATM    1  C4  UNL     1      -1.845   0.005  -0.366  1.00  0.00    -0.026 C 
HETATM    2  C6  UNL     1      -2.365  -1.446  -0.313  1.00  0.00     0.015 C 
HETATM    3  C7  UNL     1      -1.305  -1.692   0.739  1.00  0.00    -0.008 C 
HETATM    4  C8  UNL     1      -0.472  -2.855   0.298  1.00  0.00     0.006 C 
HETATM    5  C9  UNL     1       0.326  -2.283  -0.883  1.00  0.00     0.013 C 
HETATM    6  C10 UNL     1       0.578  -0.912  -0.386  1.00  0.00     0.001 C 
HETATM    7  C11 UNL     1       1.665  -1.083   0.716  1.00  0.00     0.025 C 
HETATM    8  C12 UNL     1       2.847  -1.555  -0.101  1.00  0.00     0.009 C 
HETATM    9  C13 UNL     1       2.641  -0.896  -1.423  1.00  0.00     0.037 C 
HETATM   10  C14 UNL     1       1.400  -0.006  -1.204  1.00  0.00     0.233 C 
HETATM   11  N1  UNL     1       1.703   1.050  -0.218  1.00  0.00     0.104 N 
HETATM   12  C17 UNL     1       1.962   0.370   1.013  1.00  0.00     0.279 C 
HETATM   13  C18 UNL     1      -0.631  -0.410   0.291  1.00  0.00     0.010 C 
ENDROOT
BRANCH  11  14
HETATM   14  C15 UNL     1       2.743   1.916  -0.667  1.00  0.00     0.385 C 
BRANCH  14  15
HETATM   15  C16 UNL     1       2.992   2.955   0.347  1.00  0.00     0.202 C 
HETATM   16  O1  UNL     1       2.342   3.007   1.414  1.00  0.00    -0.647 OA
HETATM   17  O2  UNL     1       3.968   3.911   0.134  1.00  0.00    -0.647 OA
ENDBRANCH  14  15
ENDBRANCH  11  14
BRANCH   1  18
HETATM   18  C3  UNL     1      -2.861   0.897   0.210  1.00  0.00     0.010 C 
BRANCH  18  19
HETATM   19  C2  UNL     1      -3.247   0.883   1.617  1.00  0.00    -0.004 C 
HETATM   20  C1  UNL     1      -2.181   1.244   2.603  1.00  0.00     0.005 C 
ENDBRANCH  18  19
ENDBRANCH   1  18
BRANCH   1  21
HETATM   21  C5  UNL     1      -1.764   0.353  -1.868  1.00  0.00     0.096 C 
HETATM   22  S1  UNL     1      -3.476   0.033  -2.474  1.00  0.00    -0.097 SA
ENDBRANCH   1  21
TORSDOF 5
