REMARK  13 active torsions:
REMARK  status: ('A' for Active; 'I' for Inactive)
REMARK    1  A    between atoms: C1_2  and  O2_4 
REMARK    2  A    between atoms: O2_4  and  C2_5 
REMARK    3  A    between atoms: C2_5  and  C3_6 
REMARK    4  A    between atoms: C3_6  and  N2_7 
REMARK    5  A    between atoms: C3_6  and  O3_11 
REMARK    6  A    between atoms: C3_6  and  C5_21 
REMARK    7  A    between atoms: O3_11  and  C4_12 
REMARK    8  A    between atoms: C4_12  and  N3_13 
REMARK    9  A    between atoms: C4_12  and  N4_17 
REMARK   10  A    between atoms: C6_23  and  C7_24 
REMARK   11  A    between atoms: C8_27  and  N5_28 
REMARK   12  A    between atoms: C10_33  and  N6_34 
REMARK   13  A    between atoms: C10_33  and  C11_38 
ROOT
HETATM    1  C5  UNL     1      -0.649  -0.012  -0.177  1.00  0.00     0.235 C 
HETATM    2  O4  UNL     1      -1.035   0.596   0.986  1.00  0.00    -0.360 OA
HETATM    3  C6  UNL     1      -2.366   0.944   1.056  1.00  0.00     0.253 C 
HETATM    4  C8  UNL     1      -3.294  -0.210   0.787  1.00  0.00     0.225 C 
HETATM    5  C9  UNL     1      -2.873  -0.921  -0.440  1.00  0.00     0.089 C 
HETATM    6  C10 UNL     1      -1.400  -1.266  -0.358  1.00  0.00     0.242 C 
ENDROOT
BRANCH   1   7
HETATM    7  C3  UNL     1       0.847  -0.034  -0.334  1.00  0.00     0.278 C 
BRANCH   7   8
HETATM    8  C2  UNL     1       1.608  -0.685   0.728  1.00  0.00     0.251 C 
BRANCH   8   9
HETATM    9  O2  UNL     1       3.005  -0.688   0.582  1.00  0.00    -0.301 OA
BRANCH   9  10
HETATM   10  C1  UNL     1       3.888  -1.243   1.461  1.00  0.00     0.372 C 
HETATM   11  N1  UNL     1       5.288  -1.197   1.228  1.00  0.00    -0.032 NA
HETATM   12  O1  UNL     1       3.438  -1.797   2.486  1.00  0.00    -0.242 OA
ENDBRANCH   9  10
ENDBRANCH   8   9
ENDBRANCH   7   8
BRANCH   7  13
HETATM   13  N2  UNL     1       1.144  -0.711  -1.621  1.00  0.00    -0.042 N 
ATOM     14  H23 UNL     1       2.143  -0.744  -1.822  1.00  0.00     0.278 HD
ATOM     15  H22 UNL     1       0.974  -1.716  -1.580  1.00  0.00     0.278 HD
ATOM     16  H21 UNL     1       0.612  -0.256  -2.363  1.00  0.00     0.278 HD
ENDBRANCH   7  13
BRANCH   7  17
HETATM   17  O3  UNL     1       1.221   1.270  -0.502  1.00  0.00    -0.296 OA
BRANCH  17  18
HETATM   18  C4  UNL     1       2.433   1.644  -0.894  1.00  0.00     0.521 C 
BRANCH  18  19
HETATM   19  N3  UNL     1       3.014   2.491   0.169  1.00  0.00    -0.027 N 
ATOM     20  H33 UNL     1       2.417   3.281   0.415  1.00  0.00     0.279 HD
ATOM     21  H32 UNL     1       3.017   2.034   1.081  1.00  0.00     0.279 HD
ATOM     22  H31 UNL     1       3.945   2.778  -0.132  1.00  0.00     0.279 HD
ENDBRANCH  18  19
BRANCH  18  23
HETATM   23  N4  UNL     1       2.398   2.568  -2.065  1.00  0.00    -0.027 N 
ATOM     24  H43 UNL     1       1.873   2.160  -2.838  1.00  0.00     0.279 HD
ATOM     25  H42 UNL     1       1.808   3.378  -1.875  1.00  0.00     0.279 HD
ATOM     26  H41 UNL     1       3.329   2.855  -2.366  1.00  0.00     0.279 HD
ENDBRANCH  18  23
ENDBRANCH  17  18
ENDBRANCH   7  17
ENDBRANCH   1   7
BRANCH   6  27
HETATM   27  N6  UNL     1      -1.177  -1.864  -1.692  1.00  0.00    -0.057 N 
ATOM     28  H63 UNL     1      -1.388  -1.197  -2.435  1.00  0.00     0.276 HD
ATOM     29  H62 UNL     1      -0.183  -2.000  -1.874  1.00  0.00     0.276 HD
ATOM     30  H61 UNL     1      -1.697  -2.732  -1.817  1.00  0.00     0.276 HD
ENDBRANCH   6  27
BRANCH   6  31
HETATM   31  C11 UNL     1      -1.268  -2.275   0.697  1.00  0.00     0.213 C 
HETATM   32  O7  UNL     1      -1.323  -2.083   1.928  1.00  0.00    -0.646 OA
HETATM   33  O8  UNL     1      -1.058  -3.608   0.306  1.00  0.00    -0.646 OA
ENDBRANCH   6  31
BRANCH   3  34
HETATM   34  C7  UNL     1      -2.731   2.133   0.305  1.00  0.00     0.205 C 
HETATM   35  O5  UNL     1      -3.912   2.563   0.318  1.00  0.00    -0.646 OA
HETATM   36  O6  UNL     1      -1.860   2.892  -0.473  1.00  0.00    -0.646 OA
ENDBRANCH   3  34
BRANCH   4  37
HETATM   37  N5  UNL     1      -4.670   0.315   0.649  1.00  0.00    -0.072 N 
ATOM     38  H53 UNL     1      -4.959   0.870   1.454  1.00  0.00     0.274 HD
ATOM     39  H52 UNL     1      -4.740   1.047  -0.058  1.00  0.00     0.274 HD
ATOM     40  H51 UNL     1      -5.299  -0.467   0.467  1.00  0.00     0.274 HD
ENDBRANCH   4  37
TORSDOF 13
