REMARK  11 active torsions:
REMARK  status: ('A' for Active; 'I' for Inactive)
REMARK    1  A    between atoms: N1_1  and  C1_4 
REMARK    2  A    between atoms: N5_18  and  C7_19 
REMARK    3  A    between atoms: C8_23  and  C9_24 
REMARK    4  A    between atoms: C9_24  and  N7_25 
REMARK    5  A    between atoms: N7_25  and  C10_28 
REMARK    6  A    between atoms: C10_28  and  C11_29 
REMARK    7  A    between atoms: C11_29  and  N8_30 
REMARK    8  A    between atoms: N8_30  and  N9_31 
REMARK    9  A    between atoms: N9_31  and  N10_32 
REMARK   10  A    between atoms: C12_35  and  C13_36 
REMARK   11  A    between atoms: C13_36  and  O3_37 
ROOT
HETATM    1  C7  UNL     1      -2.249  -1.011  -1.206  1.00  0.00     0.441 C 
HETATM    2  N6  UNL     1      -0.999  -1.226  -1.807  1.00  0.00    -0.022 N 
ATOM      3  H61 UNL     1      -0.920  -0.843  -2.749  1.00  0.00     0.283 HD
ATOM      4  H62 UNL     1      -0.823  -2.198  -2.062  1.00  0.00     0.283 HD
HETATM    5  C8  UNL     1      -0.067  -0.696  -0.894  1.00  0.00     0.247 C 
HETATM    6  C12 UNL     1      -0.670  -1.084   0.413  1.00  0.00     0.182 C 
HETATM    7  O4  UNL     1      -2.028  -1.136   0.171  1.00  0.00    -0.334 OA
ENDROOT
BRANCH   1   8
HETATM    8  N5  UNL     1      -2.883   0.262  -1.420  1.00  0.00    -0.232 N 
HETATM    9  C2  UNL     1      -3.509   0.849  -0.354  1.00  0.00     0.148 A 
HETATM   10  N2  UNL     1      -3.539   0.274   0.847  1.00  0.00    -0.175 N 
HETATM   11  C3  UNL     1      -4.128   2.061  -0.510  1.00  0.00     0.093 A 
HETATM   12  C1  UNL     1      -4.149   0.831   1.908  1.00  0.00     0.677 A 
ATOM     13  H2  UNL     1      -3.079  -0.628   0.967  1.00  0.00     0.186 HD
HETATM   14  N3  UNL     1      -4.752   2.022   1.735  1.00  0.00    -0.201 N 
HETATM   15  C4  UNL     1      -4.767   2.665   0.565  1.00  0.00     0.127 A 
ATOM     16  H3  UNL     1      -5.218   2.453   2.534  1.00  0.00     0.183 HD
HETATM   17  C5  UNL     1      -4.100   2.659  -1.754  1.00  0.00     0.264 A 
HETATM   18  O1  UNL     1      -4.673   3.776  -1.891  1.00  0.00    -0.267 OA
HETATM   19  N4  UNL     1      -3.472   2.035  -2.759  1.00  0.00    -0.274 N 
HETATM   20  C6  UNL     1      -2.855   0.840  -2.630  1.00  0.00     0.334 A 
ATOM     21  H4  UNL     1      -3.459   2.487  -3.673  1.00  0.00     0.173 HD
HETATM   22  O2  UNL     1      -2.277   0.309  -3.640  1.00  0.00    -0.246 OA
BRANCH  12  23
HETATM   23  N1  UNL     1      -4.165   0.251   3.068  1.00  0.00    -0.234 N 
ATOM     24  H12 UNL     1      -3.708  -0.651   3.199  1.00  0.00     0.174 HD
ATOM     25  H11 UNL     1      -4.628   0.674   3.873  1.00  0.00     0.174 HD
ENDBRANCH  12  23
ENDBRANCH   1   8
BRANCH   5  26
HETATM   26  C9  UNL     1       1.350  -1.117  -1.091  1.00  0.00     0.268 C 
BRANCH  26  27
HETATM   27  N7  UNL     1       2.170  -0.493  -0.085  1.00  0.00    -0.072 N 
ATOM     28  H72 UNL     1       2.063   0.521  -0.075  1.00  0.00     0.277 HD
ATOM     29  H71 UNL     1       1.834  -0.684   0.859  1.00  0.00     0.277 HD
BRANCH  27  30
HETATM   30  C10 UNL     1       3.551  -0.898  -0.269  1.00  0.00     0.249 C 
BRANCH  30  31
HETATM   31  C11 UNL     1       4.451  -0.257   0.780  1.00  0.00     0.159 C 
BRANCH  31  32
HETATM   32  N8  UNL     1       5.829  -0.697   0.550  1.00  0.00    -0.125 NA
BRANCH  32  33
HETATM   33  N9  UNL     1       6.695  -0.134   1.488  1.00  0.00    -0.039 NA
BRANCH  33  34
HETATM   34  N10 UNL     1       7.602   0.700   0.824  1.00  0.00    -0.332 N 
ATOM     35 2H10 UNL     1       7.615   0.860  -0.183  1.00  0.00     0.173 HD
ATOM     36 1H10 UNL     1       8.235   1.112   1.510  1.00  0.00     0.173 HD
ENDBRANCH  33  34
ENDBRANCH  32  33
ENDBRANCH  31  32
ENDBRANCH  30  31
ENDBRANCH  27  30
ENDBRANCH  26  27
ENDBRANCH   5  26
BRANCH   6  37
HETATM   37  C13 UNL     1      -0.240  -2.432   0.917  1.00  0.00     0.198 C 
BRANCH  37  38
HETATM   38  O3  UNL     1      -0.507  -3.432  -0.024  1.00  0.00    -0.398 OA
ATOM     39  H3  UNL     1      -0.235  -4.285   0.295  1.00  0.00     0.209 HD
ENDBRANCH  37  38
ENDBRANCH   6  37
TORSDOF 11
