REMARK  6 active torsions:
REMARK  status: ('A' for Active; 'I' for Inactive)
REMARK    1  A    between atoms: C3_3  and  C4_4 
REMARK    2  A    between atoms: C4_4  and  C5_5 
REMARK    3  A    between atoms: C5_5  and  C6_6 
REMARK    4  A    between atoms: C6_6  and  C12_20 
REMARK    5  A    between atoms: N1_7  and  N2_9 
REMARK       I    between atoms: N2_9  and  C7_11 
REMARK    6  A    between atoms: C7_11  and  C8_13 
ROOT
HETATM    1  C1  UNL     1       0.545   3.915  -1.449  1.00  0.00     0.012 C 
HETATM    2  C2  UNL     1      -0.548   3.648  -1.017  1.00  0.00    -0.117 C 
HETATM    3  C3  UNL     1      -1.869   3.299  -0.497  1.00  0.00     0.093 C 
ENDROOT
BRANCH   3   4
HETATM    4  C4  UNL     1      -1.785   2.015   0.301  1.00  0.00     0.018 C 
BRANCH   4   5
HETATM    5  C5  UNL     1      -1.290   0.877  -0.566  1.00  0.00     0.055 C 
BRANCH   5   6
HETATM    6  C6  UNL     1      -1.188  -0.392   0.152  1.00  0.00     0.008 C 
HETATM    7  N1  UNL     1      -0.017  -0.963   0.224  1.00  0.00    -0.306 N 
ATOM      8  H1  UNL     1       0.052  -1.848   0.726  1.00  0.00     0.186 HD
BRANCH   7   9
HETATM    9  N2  UNL     1       1.129  -0.448  -0.333  1.00  0.00    -0.268 N 
HETATM   10  C7  UNL     1       1.954   0.528   0.240  1.00  0.00     0.267 C 
HETATM   11  O1  UNL     1       1.624   0.985   1.373  1.00  0.00    -0.269 OA
ATOM     12  H2  UNL     1       1.404  -0.809  -1.246  1.00  0.00     0.190 HD
BRANCH  10  13
HETATM   13  C8  UNL     1       3.178   1.067  -0.373  1.00  0.00     0.278 C 
HETATM   14  C9  UNL     1       4.228  -0.024  -0.591  1.00  0.00     0.044 C 
HETATM   15  C10 UNL     1       5.468   0.827  -0.776  1.00  0.00     0.030 C 
HETATM   16  C11 UNL     1       5.255   1.883   0.290  1.00  0.00     0.233 C 
HETATM   17  N3  UNL     1       3.834   2.055   0.423  1.00  0.00    -0.062 N 
ATOM     18  H32 UNL     1       3.532   3.003   0.196  1.00  0.00     0.278 HD
ATOM     19  H31 UNL     1       3.528   2.039   1.396  1.00  0.00     0.278 HD
ENDBRANCH  10  13
ENDBRANCH   7   9
BRANCH   6  20
HETATM   20  C12 UNL     1      -2.333  -1.043   0.789  1.00  0.00     0.033 C 
HETATM   21  C13 UNL     1      -3.438  -1.383  -0.200  1.00  0.00     0.010 C 
HETATM   22  C14 UNL     1      -4.198  -2.608   0.256  1.00  0.00     0.001 C 
HETATM   23  C15 UNL     1      -3.357  -3.861   0.161  1.00  0.00     0.000 C 
HETATM   24  C16 UNL     1      -1.918  -3.483   0.438  1.00  0.00     0.001 C 
HETATM   25  C17 UNL     1      -1.926  -2.349   1.442  1.00  0.00     0.010 C 
ENDBRANCH   6  20
ENDBRANCH   5   6
ENDBRANCH   4   5
ENDBRANCH   3   4
TORSDOF 6
