REMARK  8 active torsions:
REMARK  status: ('A' for Active; 'I' for Inactive)
REMARK    1  A    between atoms: C2_2  and  C3_3 
REMARK    2  A    between atoms: C3_3  and  C4_4 
REMARK    3  A    between atoms: C4_4  and  C5_5 
REMARK    4  A    between atoms: C5_5  and  C6_6 
REMARK    5  A    between atoms: C6_6  and  C7_7 
REMARK    6  A    between atoms: C7_7  and  N1_8 
REMARK    7  A    between atoms: N1_8  and  C8_10 
REMARK    8  A    between atoms: C8_10  and  N2_12 
ROOT
HETATM    1  C8  UNL     1      -0.683   1.408   0.049  1.00  0.00     0.169 C 
HETATM    2  S1  UNL     1      -0.259   3.031   0.276  1.00  0.00    -0.041 SA
ENDROOT
BRANCH   1   3
HETATM    3  N1  UNL     1       0.373   0.591  -0.311  1.00  0.00    -0.367 N 
ATOM      4  H1  UNL     1       1.283   1.040  -0.416  1.00  0.00     0.161 HD
BRANCH   3   5
HETATM    5  C7  UNL     1       0.322  -0.803  -0.549  1.00  0.00     0.122 C 
BRANCH   5   6
HETATM    6  C6  UNL     1       1.746  -1.267  -0.949  1.00  0.00     0.020 C 
BRANCH   6   7
HETATM    7  C5  UNL     1       2.643  -0.982   0.232  1.00  0.00     0.002 C 
BRANCH   7   8
HETATM    8  C4  UNL     1       4.028  -1.440  -0.171  1.00  0.00     0.000 C 
BRANCH   8   9
HETATM    9  C3  UNL     1       5.034  -1.232   0.902  1.00  0.00    -0.000 C 
BRANCH   9  10
HETATM   10  C2  UNL     1       5.131   0.232   1.241  1.00  0.00    -0.005 C 
HETATM   11  C1  UNL     1       5.540   0.957  -0.032  1.00  0.00     0.005 C 
ENDBRANCH   9  10
ENDBRANCH   8   9
ENDBRANCH   7   8
ENDBRANCH   6   7
ENDBRANCH   5   6
ENDBRANCH   3   5
ENDBRANCH   1   3
BRANCH   1  12
HETATM   12  N2  UNL     1      -2.006   1.050   0.241  1.00  0.00    -0.358 N 
HETATM   13  C9  UNL     1      -2.937   2.135   0.633  1.00  0.00     0.128 C 
HETATM   14  C10 UNL     1      -4.196   2.107  -0.187  1.00  0.00     0.054 C 
HETATM   15  C11 UNL     1      -4.614   0.725  -0.575  1.00  0.00     0.155 C 
HETATM   16  O1  UNL     1      -5.934   0.417  -0.366  1.00  0.00    -0.281 OA
HETATM   17  C13 UNL     1      -3.988  -0.195   0.490  1.00  0.00     0.051 C 
HETATM   18  N3  UNL     1      -5.974  -0.937  -0.402  1.00  0.00    -0.100 NA
HETATM   19  C12 UNL     1      -4.765  -1.431   0.231  1.00  0.00     0.151 C 
HETATM   20  C14 UNL     1      -2.518  -0.285   0.072  1.00  0.00     0.133 C 
ENDBRANCH   1  12
TORSDOF 8
