REMARK  6 active torsions:
REMARK  status: ('A' for Active; 'I' for Inactive)
REMARK    1  A    between atoms: C1_2  and  C2_3 
REMARK       I    between atoms: C1_2  and  N1_9 
REMARK    2  A    between atoms: C2_3  and  C3_4 
REMARK    3  A    between atoms: N1_9  and  C8_11 
REMARK    4  A    between atoms: C12_18  and  O2_19 
REMARK    5  A    between atoms: O2_19  and  C13_20 
REMARK    6  A    between atoms: C13_20  and  C14_21 
ROOT
HETATM    1  C8  UNL     1      -0.879  -1.193   1.084  1.00  0.00     0.116 C 
HETATM    2  C9  UNL     1      -1.258  -1.461   2.542  1.00  0.00     0.055 C 
HETATM    3  C10 UNL     1      -2.154  -2.655   2.611  1.00  0.00     0.234 C 
HETATM    4  N2  UNL     1      -3.088  -2.607   1.514  1.00  0.00    -0.073 N 
ATOM      5  H21 UNL     1      -3.965  -3.071   1.751  1.00  0.00     0.277 HD
ATOM      6  H22 UNL     1      -2.792  -3.210   0.747  1.00  0.00     0.277 HD
HETATM    7  C11 UNL     1      -3.315  -1.243   1.060  1.00  0.00     0.266 C 
HETATM    8  C12 UNL     1      -2.128  -0.686   0.363  1.00  0.00     0.169 C 
ENDROOT
BRANCH   1   9
HETATM    9  N1  UNL     1       0.131  -0.156   1.150  1.00  0.00    -0.354 N 
HETATM   10  C1  UNL     1       1.426  -0.462   0.647  1.00  0.00     0.218 C 
HETATM   11  O1  UNL     1       1.713  -1.574   0.157  1.00  0.00    -0.274 OA
ATOM     12  H1  UNL     1      -0.079   0.761   1.543  1.00  0.00     0.162 HD
BRANCH  10  13
HETATM   13  C2  UNL     1       2.460   0.591   0.715  1.00  0.00     0.107 C 
BRANCH  13  14
HETATM   14  C3  UNL     1       3.732   0.067   0.078  1.00  0.00    -0.006 C 
HETATM   15  C4  UNL     1       4.790   1.147   0.165  1.00  0.00     0.005 C 
HETATM   16  C5  UNL     1       4.838   1.807  -1.176  1.00  0.00     0.000 C 
HETATM   17  C6  UNL     1       4.360   0.744  -2.112  1.00  0.00     0.000 C 
HETATM   18  C7  UNL     1       3.468  -0.192  -1.368  1.00  0.00     0.005 C 
ENDBRANCH  13  14
ENDBRANCH  10  13
ENDBRANCH   1   9
BRANCH   8  19
HETATM   19  O2  UNL     1      -2.098   0.684   0.245  1.00  0.00    -0.382 OA
BRANCH  19  20
HETATM   20  C13 UNL     1      -1.954   1.134  -1.057  1.00  0.00     0.172 C 
BRANCH  20  21
HETATM   21  C14 UNL     1      -3.103   0.728  -1.904  1.00  0.00     0.009 A 
HETATM   22  C15 UNL     1      -4.458   1.247  -1.475  1.00  0.00     0.007 A 
HETATM   23  C16 UNL     1      -3.858   1.683  -2.747  1.00  0.00     0.007 A 
ENDBRANCH  20  21
ENDBRANCH  19  20
ENDBRANCH   8  19
TORSDOF 6
