REMARK  7 active torsions:
REMARK  status: ('A' for Active; 'I' for Inactive)
REMARK    1  A    between atoms: N1_1  and  C1_4 
REMARK       I    between atoms: N3_8  and  C3_10 
REMARK       I    between atoms: C3_10  and  N4_11 
REMARK       I    between atoms: C3_10  and  N5_15 
REMARK    2  A    between atoms: C6_24  and  N7_25 
REMARK    3  A    between atoms: N7_25  and  C7_26 
REMARK    4  A    between atoms: C7_26  and  O2_27 
REMARK    5  A    between atoms: C7_26  and  C8_29 
REMARK    6  A    between atoms: C8_29  and  N8_30 
REMARK    7  A    between atoms: N9_35  and  C10_36 
ROOT
HETATM    1  C1  UNL     1      -0.773   1.794  -0.107  1.00  0.00     0.143 C 
HETATM    2  N2  UNL     1      -1.802   1.215  -0.751  1.00  0.00    -0.175 N 
ATOM      3  H2  UNL     1      -2.613   1.808  -0.926  1.00  0.00     0.186 HD
HETATM    4  C2  UNL     1      -1.891  -0.076  -1.200  1.00  0.00     0.685 C 
HETATM    5  N3  UNL     1      -3.052  -0.576  -1.395  1.00  0.00    -0.173 N 
ATOM      6  H3  UNL     1      -3.099  -1.538  -1.730  1.00  0.00     0.181 HD
HETATM    7  C3  UNL     1      -4.289   0.107  -1.180  1.00  0.00     0.494 C 
HETATM    8  N4  UNL     1      -5.392  -0.827  -0.956  1.00  0.00    -0.032 N 
ATOM      9  H41 UNL     1      -6.275  -0.340  -0.803  1.00  0.00     0.278 HD
ATOM     10  H42 UNL     1      -5.185  -1.470  -0.192  1.00  0.00     0.278 HD
ATOM     11  H43 UNL     1      -5.468  -1.502  -1.717  1.00  0.00     0.278 HD
HETATM   12  N5  UNL     1      -4.616   0.866  -2.369  1.00  0.00    -0.032 N 
ATOM     13  H51 UNL     1      -5.499   1.353  -2.216  1.00  0.00     0.278 HD
ATOM     14  H52 UNL     1      -4.631   0.287  -3.209  1.00  0.00     0.278 HD
ATOM     15  H53 UNL     1      -3.865   1.498  -2.646  1.00  0.00     0.278 HD
HETATM   16  N6  UNL     1      -0.856  -0.927  -1.472  1.00  0.00    -0.155 N 
ATOM     17  H6  UNL     1      -1.094  -1.771  -1.994  1.00  0.00     0.187 HD
HETATM   18  C4  UNL     1       0.450  -0.784  -1.131  1.00  0.00     0.275 C 
HETATM   19  O1  UNL     1       1.295  -1.380  -1.782  1.00  0.00    -0.267 OA
HETATM   20  C5  UNL     1       0.935  -0.025  -0.114  1.00  0.00     0.106 A 
HETATM   21  C6  UNL     1       2.095  -0.322   0.620  1.00  0.00     0.144 A 
HETATM   22  C9  UNL     1       2.173   0.732   1.511  1.00  0.00     0.161 A 
HETATM   23  N9  UNL     1       1.144   1.597   1.331  1.00  0.00    -0.147 N 
HETATM   24  C11 UNL     1       0.371   1.158   0.342  1.00  0.00     0.119 A 
ENDROOT
BRANCH   1  25
HETATM   25  N1  UNL     1      -0.831   3.050   0.113  1.00  0.00    -0.383 N 
ATOM     26  H12 UNL     1      -1.674   3.519  -0.218  1.00  0.00     0.157 HD
ATOM     27  H11 UNL     1      -0.051   3.489   0.601  1.00  0.00     0.157 HD
ENDBRANCH   1  25
BRANCH  23  28
HETATM   28  C10 UNL     1       0.924   2.795   2.082  1.00  0.00     0.720 A 
HETATM   29  N10 UNL     1       1.508   3.995   1.941  1.00  0.00    -0.114 N 
HETATM   30  N11 UNL     1       1.016   4.811   2.840  1.00  0.00    -0.213 N 
ATOM     31  H10 UNL     1       2.218   4.233   1.248  1.00  0.00     0.207 HD
HETATM   32  N12 UNL     1       0.128   4.176   3.565  1.00  0.00    -0.213 N 
ATOM     33  H11 UNL     1       1.283   5.789   2.957  1.00  0.00     0.210 HD
HETATM   34  N13 UNL     1       0.062   2.941   3.110  1.00  0.00    -0.114 N 
ATOM     35  H12 UNL     1      -0.412   4.565   4.338  1.00  0.00     0.210 HD
ATOM     36  H13 UNL     1      -0.546   2.209   3.478  1.00  0.00     0.207 HD
ENDBRANCH  23  28
BRANCH  21  37
HETATM   37  N7  UNL     1       2.894  -1.431   0.376  1.00  0.00    -0.381 NA
BRANCH  37  38
HETATM   38  C7  UNL     1       3.652  -2.481   0.145  1.00  0.00     0.216 C 
BRANCH  38  39
HETATM   39  O2  UNL     1       4.662  -2.816   0.927  1.00  0.00    -0.338 OA
ATOM     40  H2  UNL     1       5.209  -3.574   0.760  1.00  0.00     0.220 HD
ENDBRANCH  38  39
BRANCH  38  41
HETATM   41  C8  UNL     1       3.574  -3.490  -0.973  1.00  0.00     0.329 C 
BRANCH  41  42
HETATM   42  N8  UNL     1       4.613  -4.443  -0.813  1.00  0.00    -0.071 N 
ATOM     43  H83 UNL     1       5.533  -4.007  -0.748  1.00  0.00     0.274 HD
ATOM     44  H82 UNL     1       4.597  -4.882   0.107  1.00  0.00     0.274 HD
ATOM     45  H81 UNL     1       4.560  -5.125  -1.569  1.00  0.00     0.274 HD
ENDBRANCH  41  42
ENDBRANCH  38  41
ENDBRANCH  37  38
ENDBRANCH  21  37
TORSDOF 7
