REMARK  8 active torsions:
REMARK  status: ('A' for Active; 'I' for Inactive)
REMARK    1  A    between atoms: N1_2  and  C2_5 
REMARK    2  A    between atoms: N4_11  and  N5_12 
REMARK       I    between atoms: N5_12  and  C4_14 
REMARK    3  A    between atoms: C4_14  and  C5_16 
REMARK    4  A    between atoms: C5_16  and  C6_17 
REMARK    5  A    between atoms: C7_21  and  C8_22 
REMARK    6  A    between atoms: C8_22  and  O2_23 
REMARK    7  A    between atoms: N8_25  and  O3_27 
REMARK    8  A    between atoms: C10_32  and  O4_33 
ROOT
HETATM    1  N5  UNL     1      -0.650  -1.674   0.428  1.00  0.00    -0.252 N 
ATOM      2  H5  UNL     1      -0.611  -2.693   0.420  1.00  0.00     0.191 HD
HETATM    3  C4  UNL     1       0.558  -0.972   0.232  1.00  0.00     0.244 C 
HETATM    4  O1  UNL     1       0.579   0.262   0.229  1.00  0.00    -0.271 OA
ENDROOT
BRANCH   1   5
HETATM    5  N4  UNL     1      -1.901  -1.073   0.633  1.00  0.00    -0.216 N 
HETATM    6  N3  UNL     1      -2.605  -1.496   1.751  1.00  0.00    -0.279 N 
HETATM    7  C3  UNL     1      -3.583  -0.843   2.200  1.00  0.00     0.198 C 
ATOM      8  H3  UNL     1      -2.323  -2.357   2.220  1.00  0.00     0.189 HD
HETATM    9  N2  UNL     1      -4.029   0.339   1.618  1.00  0.00    -0.328 N 
HETATM   10  C2  UNL     1      -3.625   0.640   0.300  1.00  0.00     0.333 C 
ATOM     11  H2  UNL     1      -4.636   0.976   2.134  1.00  0.00     0.165 HD
HETATM   12  C9  UNL     1      -2.460  -0.091  -0.237  1.00  0.00     0.243 C 
HETATM   13  O5  UNL     1      -4.723   0.391  -0.558  1.00  0.00    -0.334 OA
HETATM   14  C10 UNL     1      -3.033  -0.732  -1.512  1.00  0.00     0.175 C 
HETATM   15  C11 UNL     1      -4.129   0.269  -1.814  1.00  0.00     0.207 C 
BRANCH  10  16
HETATM   16  N1  UNL     1      -3.427   2.098   0.178  1.00  0.00    -0.025 N 
HETATM   17  C1  UNL     1      -2.303   2.553   0.939  1.00  0.00     0.273 C 
ATOM     18  H12 UNL     1      -4.274   2.609   0.428  1.00  0.00     0.282 HD
ATOM     19  H11 UNL     1      -3.351   2.380  -0.799  1.00  0.00     0.282 HD
ENDBRANCH  10  16
BRANCH  14  20
HETATM   20  O4  UNL     1      -3.601  -1.956  -1.246  1.00  0.00    -0.391 OA
ATOM     21  H4  UNL     1      -3.955  -2.352  -2.034  1.00  0.00     0.210 HD
ENDBRANCH  14  20
ENDBRANCH   1   5
BRANCH   3  22
HETATM   22  C5  UNL     1       1.800  -1.743   0.027  1.00  0.00     0.181 C 
BRANCH  22  23
HETATM   23  C6  UNL     1       2.923  -0.862  -0.346  1.00  0.00     0.099 C 
HETATM   24  N6  UNL     1       2.845   0.374  -0.727  1.00  0.00    -0.290 N 
HETATM   25  N7  UNL     1       4.116   0.877  -0.995  1.00  0.00    -0.106 NA
ATOM     26  H6  UNL     1       1.977   0.903  -0.818  1.00  0.00     0.183 HD
HETATM   27  C7  UNL     1       5.033   0.034  -0.260  1.00  0.00     0.275 C 
HETATM   28  N9  UNL     1       4.306  -1.243  -0.356  1.00  0.00    -0.352 N 
ATOM     29  H9  UNL     1       4.696  -2.183  -0.416  1.00  0.00     0.163 HD
BRANCH  27  30
HETATM   30  C8  UNL     1       6.355  -0.112  -0.939  1.00  0.00     0.176 C 
HETATM   31  N8  UNL     1       7.338   0.523  -0.436  1.00  0.00    -0.248 N 
ATOM     32  H8  UNL     1       8.242   0.426  -0.898  1.00  0.00     0.196 HD
BRANCH  30  33
HETATM   33  O2  UNL     1       6.435  -0.912  -2.063  1.00  0.00    -0.345 OA
ATOM     34  H2  UNL     1       7.276  -1.005  -2.495  1.00  0.00     0.219 HD
ENDBRANCH  30  33
BRANCH  31  35
HETATM   35  O3  UNL     1       7.283   1.312   0.655  1.00  0.00    -0.288 OA
ATOM     36  H3  UNL     1       8.016   1.786   1.030  1.00  0.00     0.244 HD
ENDBRANCH  31  35
ENDBRANCH  27  30
ENDBRANCH  22  23
ENDBRANCH   3  22
TORSDOF 8
