REMARK  8 active torsions:
REMARK  status: ('A' for Active; 'I' for Inactive)
REMARK       I    between atoms: C1_4  and  N3_6 
REMARK    1  A    between atoms: N3_6  and  C2_8 
REMARK    2  A    between atoms: C2_8  and  C3_9 
REMARK    3  A    between atoms: C2_8  and  C5_13 
REMARK    4  A    between atoms: C3_9  and  C4_10 
REMARK    5  A    between atoms: C5_13  and  C6_15 
REMARK    6  A    between atoms: C6_15  and  N5_16 
REMARK       I    between atoms: N5_16  and  C7_18 
REMARK    7  A    between atoms: C7_18  and  C8_20 
REMARK    8  A    between atoms: C13_25  and  N6_26 
ROOT
HETATM    1  C6  UNL     1       0.801  -0.734  -0.445  1.00  0.00     0.203 C 
ENDROOT
BRANCH   1   2
HETATM    2  C5  UNL     1       1.904  -0.148   0.358  1.00  0.00     0.167 C 
HETATM    3  O2  UNL     1       1.624   0.438   1.381  1.00  0.00    -0.294 OA
BRANCH   2   4
HETATM    4  C2  UNL     1       3.324  -0.255  -0.046  1.00  0.00     0.164 C 
BRANCH   4   5
HETATM    5  N3  UNL     1       4.157   0.408   0.937  1.00  0.00    -0.353 N 
HETATM    6  C1  UNL     1       4.066   1.804   1.183  1.00  0.00     0.182 C 
HETATM    7  N1  UNL     1       4.181   2.270   2.401  1.00  0.00    -0.374 N 
HETATM    8  N2  UNL     1       3.850   2.753   0.156  1.00  0.00    -0.064 NA
ATOM      9  H12 UNL     1       4.116   3.272   2.578  1.00  0.00     0.158 HD
ATOM     10  H11 UNL     1       4.337   1.586   3.141  1.00  0.00     0.158 HD
ATOM     11  H3  UNL     1       4.829  -0.145   1.469  1.00  0.00     0.163 HD
ENDBRANCH   4   5
BRANCH   4  12
HETATM   12  C3  UNL     1       3.657  -1.750  -0.070  1.00  0.00     0.132 C 
BRANCH  12  13
HETATM   13  C4  UNL     1       5.083  -1.946  -0.427  1.00  0.00     0.233 C 
HETATM   14  N4  UNL     1       5.987  -0.900  -0.700  1.00  0.00    -0.062 NA
HETATM   15  O1  UNL     1       5.502  -3.143  -0.486  1.00  0.00    -0.277 OA
ENDBRANCH  12  13
ENDBRANCH   4  12
ENDBRANCH   2   4
ENDBRANCH   1   2
BRANCH   1  16
HETATM   16  N5  UNL     1      -0.479  -0.477   0.191  1.00  0.00    -0.354 N 
HETATM   17  C7  UNL     1      -1.676  -0.939  -0.388  1.00  0.00     0.224 C 
HETATM   18  O3  UNL     1      -1.623  -1.593  -1.483  1.00  0.00    -0.273 OA
ATOM     19  H5  UNL     1      -0.511   0.044   1.067  1.00  0.00     0.162 HD
BRANCH  17  20
HETATM   20  C8  UNL     1      -3.020  -0.716   0.192  1.00  0.00     0.108 C 
HETATM   21  C9  UNL     1      -4.070  -1.512  -0.545  1.00  0.00     0.016 C 
HETATM   22  C10 UNL     1      -4.923  -0.706  -1.469  1.00  0.00     0.001 C 
HETATM   23  C11 UNL     1      -5.518   0.517  -0.822  1.00  0.00     0.002 C 
HETATM   24  C12 UNL     1      -4.861   0.817   0.509  1.00  0.00     0.033 C 
HETATM   25  C13 UNL     1      -3.351   0.759   0.234  1.00  0.00     0.196 C 
BRANCH  25  26
HETATM   26  N6  UNL     1      -2.618   1.394   1.286  1.00  0.00    -0.074 N 
ATOM     27  H63 UNL     1      -2.772   0.941   2.187  1.00  0.00     0.274 HD
ATOM     28  H62 UNL     1      -1.615   1.229   1.207  1.00  0.00     0.274 HD
ATOM     29  H61 UNL     1      -2.841   2.389   1.314  1.00  0.00     0.274 HD
ENDBRANCH  25  26
ENDBRANCH  17  20
ENDBRANCH   1  16
TORSDOF 8
