REMARK  10 active torsions:
REMARK  status: ('A' for Active; 'I' for Inactive)
REMARK       I    between atoms: C1_4  and  N3_6 
REMARK       I    between atoms: N3_6  and  C2_8 
REMARK    1  A    between atoms: C2_8  and  C3_10 
REMARK    2  A    between atoms: C3_10  and  N4_11 
REMARK    3  A    between atoms: C3_10  and  C4_15 
REMARK    4  A    between atoms: C4_15  and  N5_16 
REMARK    5  A    between atoms: C4_15  and  C13_31 
REMARK       I    between atoms: N5_16  and  C5_18 
REMARK    6  A    between atoms: C5_18  and  C6_20 
REMARK    7  A    between atoms: C6_20  and  N6_21 
REMARK    8  A    between atoms: C6_20  and  C7_25 
REMARK    9  A    between atoms: C13_31  and  N7_32 
REMARK   10  A    between atoms: C13_31  and  O3_36 
ROOT
HETATM    1  C4  UNL     1       1.536  -0.659   0.411  1.00  0.00     0.085 C 
ENDROOT
BRANCH   1   2
HETATM    2  C3  UNL     1       2.208   0.118  -0.664  1.00  0.00     0.324 C 
BRANCH   2   3
HETATM    3  C2  UNL     1       3.541   0.652  -0.390  1.00  0.00     0.260 C 
HETATM    4  N3  UNL     1       4.676   0.408  -1.145  1.00  0.00    -0.299 N 
HETATM    5  C1  UNL     1       5.953   0.977  -0.788  1.00  0.00     0.188 C 
ATOM      6  H3  UNL     1       4.608  -0.187  -1.971  1.00  0.00     0.171 HD
HETATM    7  N1  UNL     1       7.017   0.756  -1.484  1.00  0.00    -0.373 N 
HETATM    8  N2  UNL     1       6.050   1.799   0.352  1.00  0.00    -0.064 NA
ATOM      9  H12 UNL     1       7.920   1.158  -1.232  1.00  0.00     0.158 HD
ATOM     10  H11 UNL     1       6.947   0.161  -2.309  1.00  0.00     0.158 HD
HETATM   11  O1  UNL     1       3.666   1.414   0.631  1.00  0.00    -0.270 OA
ENDBRANCH   2   3
BRANCH   2  12
HETATM   12  N4  UNL     1       2.511  -0.941  -1.716  1.00  0.00    -0.061 N 
ATOM     13  H43 UNL     1       3.022  -0.607  -2.534  1.00  0.00     0.275 HD
ATOM     14  H42 UNL     1       3.209  -1.634  -1.446  1.00  0.00     0.275 HD
ATOM     15  H41 UNL     1       1.581  -1.314  -1.907  1.00  0.00     0.275 HD
ENDBRANCH   2  12
ENDBRANCH   1   2
BRANCH   1  16
HETATM   16  N5  UNL     1       0.181  -1.000   0.086  1.00  0.00    -0.326 N 
HETATM   17  C5  UNL     1      -0.590  -0.870  -1.063  1.00  0.00     0.253 C 
HETATM   18  O2  UNL     1      -0.292  -0.376  -2.172  1.00  0.00    -0.271 OA
ATOM     19  H5  UNL     1      -0.323  -1.428   0.862  1.00  0.00     0.168 HD
BRANCH  17  20
HETATM   20  C6  UNL     1      -2.039  -1.386  -1.052  1.00  0.00     0.279 C 
BRANCH  20  21
HETATM   21  N6  UNL     1      -2.664  -1.162  -2.326  1.00  0.00    -0.066 N 
ATOM     22  H63 UNL     1      -2.613  -0.183  -2.606  1.00  0.00     0.275 HD
ATOM     23  H62 UNL     1      -2.123  -1.568  -3.090  1.00  0.00     0.275 HD
ATOM     24  H61 UNL     1      -3.625  -1.504  -2.319  1.00  0.00     0.275 HD
ENDBRANCH  20  21
BRANCH  20  25
HETATM   25  C7  UNL     1      -2.803  -0.615   0.016  1.00  0.00     0.025 C 
HETATM   26  C8  UNL     1      -2.783   0.863  -0.300  1.00  0.00     0.007 C 
HETATM   27  C9  UNL     1      -3.991   1.560   0.269  1.00  0.00     0.000 C 
HETATM   28  C10 UNL     1      -4.576   0.829   1.458  1.00  0.00     0.000 C 
HETATM   29  C11 UNL     1      -5.067  -0.547   1.086  1.00  0.00     0.000 C 
HETATM   30  C12 UNL     1      -4.237  -1.086  -0.059  1.00  0.00     0.007 C 
ENDBRANCH  20  25
ENDBRANCH  17  20
ENDBRANCH   1  16
BRANCH   1  31
HETATM   31  C13 UNL     1       1.722  -0.236   1.815  1.00  0.00     0.365 C 
BRANCH  31  32
HETATM   32  N7  UNL     1       1.064   0.954   2.224  1.00  0.00    -0.048 N 
ATOM     33  H73 UNL     1       1.326   1.718   1.601  1.00  0.00     0.277 HD
ATOM     34  H72 UNL     1       0.067   0.878   2.021  1.00  0.00     0.277 HD
ATOM     35  H71 UNL     1       1.192   1.246   3.193  1.00  0.00     0.277 HD
ENDBRANCH  31  32
BRANCH  31  36
HETATM   36  O3  UNL     1       1.285  -1.279   2.693  1.00  0.00    -0.365 OA
ATOM     37  H3  UNL     1       1.405  -1.007   3.595  1.00  0.00     0.212 HD
ENDBRANCH  31  36
ENDBRANCH   1  31
TORSDOF 10
