REMARK  8 active torsions:
REMARK  status: ('A' for Active; 'I' for Inactive)
REMARK    1  A    between atoms: C2_4  and  N2_5 
REMARK    2  A    between atoms: C2_4  and  C7_11 
REMARK    3  A    between atoms: N2_5  and  C3_7 
REMARK    4  A    between atoms: C7_11  and  N3_12 
REMARK    5  A    between atoms: C7_11  and  C9_23 
REMARK       I    between atoms: N3_12  and  C8_14 
REMARK       I    between atoms: C8_14  and  N4_15 
REMARK       I    between atoms: C8_14  and  N5_19 
REMARK       I    between atoms: C9_23  and  N6_25 
REMARK    6  A    between atoms: N6_25  and  C10_27 
REMARK    7  A    between atoms: C10_27  and  C11_28 
REMARK    8  A    between atoms: C10_27  and  C12_30 
ROOT
HETATM    1  C7  UNL     1       0.038   0.852  -0.580  1.00  0.00     0.143 C 
ENDROOT
BRANCH   1   2
HETATM    2  C2  UNL     1      -0.453   0.136   0.625  1.00  0.00     0.130 C 
HETATM    3  N1  UNL     1       0.372  -0.126   1.593  1.00  0.00    -0.379 N 
HETATM    4  C1  UNL     1      -0.002  -0.781   2.794  1.00  0.00     0.147 C 
ATOM      5  H1  UNL     1       1.346   0.156   1.483  1.00  0.00     0.160 HD
BRANCH   2   6
HETATM    6  N2  UNL     1      -1.787  -0.250   0.773  1.00  0.00    -0.366 N 
ATOM      7  H2  UNL     1      -2.294   0.233   1.515  1.00  0.00     0.162 HD
BRANCH   6   8
HETATM    8  C3  UNL     1      -2.548  -1.206   0.056  1.00  0.00     0.021 C 
HETATM    9  C4  UNL     1      -1.928  -2.581  -0.055  1.00  0.00     0.037 C 
HETATM   10  C5  UNL     1      -2.908  -0.707  -1.317  1.00  0.00     0.037 C 
HETATM   11  C6  UNL     1      -3.894  -1.435   0.795  1.00  0.00     0.037 C 
ENDBRANCH   6   8
ENDBRANCH   2   6
ENDBRANCH   1   2
BRANCH   1  12
HETATM   12  N3  UNL     1      -0.523   2.136  -0.773  1.00  0.00    -0.334 N 
HETATM   13  C8  UNL     1      -0.360   3.125   0.217  1.00  0.00     0.481 C 
HETATM   14  N4  UNL     1       0.957   3.537   0.563  1.00  0.00    -0.033 N 
HETATM   15  N5  UNL     1      -1.024   4.343  -0.297  1.00  0.00    -0.033 N 
ATOM     16  H43 UNL     1       1.501   2.715   0.825  1.00  0.00     0.278 HD
ATOM     17  H42 UNL     1       1.443   3.834  -0.283  1.00  0.00     0.278 HD
ATOM     18  H41 UNL     1       1.075   4.253   1.280  1.00  0.00     0.278 HD
ATOM     19  H53 UNL     1      -0.687   4.631  -1.216  1.00  0.00     0.278 HD
ATOM     20  H52 UNL     1      -1.997   4.192  -0.562  1.00  0.00     0.278 HD
ATOM     21  H51 UNL     1      -0.906   5.059   0.420  1.00  0.00     0.278 HD
ATOM     22  H3  UNL     1      -1.043   2.345  -1.625  1.00  0.00     0.163 HD
ENDBRANCH   1  12
BRANCH   1  23
HETATM   23  C9  UNL     1       1.473   0.694  -0.849  1.00  0.00     0.272 C 
HETATM   24  O1  UNL     1       2.161   1.650  -1.282  1.00  0.00    -0.266 OA
HETATM   25  N6  UNL     1       2.176  -0.520  -0.647  1.00  0.00    -0.335 N 
ATOM     26  H6  UNL     1       1.657  -1.325  -0.297  1.00  0.00     0.164 HD
BRANCH  25  27
HETATM   27  C10 UNL     1       3.587  -0.680  -0.910  1.00  0.00     0.247 C 
BRANCH  27  28
HETATM   28  C11 UNL     1       3.845  -1.667  -1.991  1.00  0.00     0.267 C 
HETATM   29  O2  UNL     1       2.971  -2.262  -2.576  1.00  0.00    -0.304 OA
ENDBRANCH  27  28
BRANCH  27  30
HETATM   30  C12 UNL     1       4.359  -1.047   0.288  1.00  0.00     0.203 C 
HETATM   31  O3  UNL     1       3.755  -1.183   1.377  1.00  0.00    -0.646 OA
HETATM   32  O4  UNL     1       5.715  -1.229   0.172  1.00  0.00    -0.646 OA
ENDBRANCH  27  30
ENDBRANCH  25  27
ENDBRANCH   1  23
TORSDOF 8
