REMARK  5 active torsions:
REMARK  status: ('A' for Active; 'I' for Inactive)
REMARK    1  A    between atoms: C5_6  and  C6_7 
REMARK    2  A    between atoms: N5_14  and  C7_15 
REMARK    3  A    between atoms: C7_15  and  C10_18 
REMARK    4  A    between atoms: C11_19  and  C12_20 
REMARK    5  A    between atoms: C13_21  and  C14_22 
ROOT
HETATM    1  C6  UNL     1       2.481  -1.124   0.626  1.00  0.00     0.152 A 
HETATM    2  N2  UNL     1       2.383  -2.517   0.605  1.00  0.00    -0.268 N 
ATOM      3  H2  UNL     1       3.157  -3.176   0.522  1.00  0.00     0.190 HD
HETATM    4  N3  UNL     1       1.137  -2.815   0.710  1.00  0.00    -0.226 N 
ATOM      5  H3  UNL     1       0.757  -3.762   0.725  1.00  0.00     0.210 HD
HETATM    6  N4  UNL     1       0.447  -1.741   0.793  1.00  0.00    -0.223 N 
ATOM      7  H4  UNL     1      -0.568  -1.711   0.884  1.00  0.00     0.210 HD
HETATM    8  N5  UNL     1       1.250  -0.647   0.743  1.00  0.00    -0.237 N 
ENDROOT
BRANCH   8   9
HETATM    9  C7  UNL     1       0.655   0.654   0.769  1.00  0.00     0.113 C 
HETATM   10  C8  UNL     1       1.139   1.639  -0.230  1.00  0.00     0.055 C 
HETATM   11  C9  UNL     1       0.609   1.279   2.145  1.00  0.00     0.055 C 
BRANCH   9  12
HETATM   12  C10 UNL     1      -0.809   0.469   0.402  1.00  0.00    -0.059 C 
HETATM   13  C11 UNL     1      -1.967   0.304   0.126  1.00  0.00    -0.012 C 
BRANCH  13  14
HETATM   14  C12 UNL     1      -3.331   0.116  -0.176  1.00  0.00    -0.014 C 
HETATM   15  C13 UNL     1      -4.502  -0.026  -0.424  1.00  0.00    -0.084 C 
BRANCH  15  16
HETATM   16  C14 UNL     1      -5.925  -0.173  -0.725  1.00  0.00     0.013 C 
HETATM   17  C15 UNL     1      -6.458   1.133  -1.213  1.00  0.00     0.028 C 
HETATM   18  C16 UNL     1      -6.712  -0.610   0.491  1.00  0.00     0.028 C 
HETATM   19  C17 UNL     1      -6.066  -1.199  -1.821  1.00  0.00     0.028 C 
ENDBRANCH  15  16
ENDBRANCH  13  14
ENDBRANCH   9  12
ENDBRANCH   8   9
BRANCH   1  20
HETATM   20  C5  UNL     1       3.745  -0.477   0.465  1.00  0.00     0.026 A 
HETATM   21  C4  UNL     1       4.107   0.750   0.894  1.00  0.00     0.018 A 
HETATM   22  C3  UNL     1       5.357   1.304   0.585  1.00  0.00     0.018 A 
HETATM   23  C2  UNL     1       6.245   0.591  -0.169  1.00  0.00     0.090 A 
HETATM   24  N1  UNL     1       5.900  -0.628  -0.599  1.00  0.00    -0.370 N 
HETATM   25  C1  UNL     1       6.878  -1.344  -1.397  1.00  0.00     0.154 C 
HETATM   26  C18 UNL     1       4.706  -1.165  -0.309  1.00  0.00     0.105 A 
ENDBRANCH   1  20
TORSDOF 5
