REMARK  2 active torsions:
REMARK  status: ('A' for Active; 'I' for Inactive)
REMARK    1  A    between atoms: C4_6  and  N2_7 
REMARK    2  A    between atoms: C12_18  and  N5_19 
ROOT
HETATM    1  N2  UNL     1      -0.520   0.929   0.685  1.00  0.00    -0.087 N 
HETATM    2  N3  UNL     1       0.772   0.996   1.297  1.00  0.00    -0.086 NA
HETATM    3  C5  UNL     1       1.531   0.023   0.489  1.00  0.00     0.139 C 
HETATM    4  C6  UNL     1       2.101   0.757  -0.673  1.00  0.00     0.051 C 
HETATM    5  C7  UNL     1       3.580   1.004  -0.574  1.00  0.00     0.004 C 
HETATM    6  C8  UNL     1       4.312  -0.192  -1.122  1.00  0.00     0.000 C 
HETATM    7  C9  UNL     1       4.576  -1.220  -0.045  1.00  0.00     0.000 C 
HETATM    8  C10 UNL     1       3.256  -1.701   0.515  1.00  0.00     0.004 C 
HETATM    9  C11 UNL     1       2.562  -0.674   1.341  1.00  0.00     0.051 C 
HETATM   10  N4  UNL     1       0.544  -0.971   0.130  1.00  0.00    -0.199 N 
ATOM     11  H4  UNL     1       0.729  -1.929  -0.166  1.00  0.00     0.180 HD
HETATM   12  C12 UNL     1      -0.645  -0.404   0.258  1.00  0.00     0.697 C 
ENDROOT
BRANCH   1  13
HETATM   13  C4  UNL     1      -1.404   2.059   0.559  1.00  0.00     0.086 A 
HETATM   14  C3  UNL     1      -0.862   3.310   0.294  1.00  0.00     0.119 A 
HETATM   15  N1  UNL     1      -1.646   4.386   0.196  1.00  0.00    -0.373 N 
HETATM   16  C2  UNL     1      -2.970   4.342   0.340  1.00  0.00     0.088 A 
ATOM     17  H1  UNL     1      -1.210   5.287   0.001  1.00  0.00     0.164 HD
HETATM   18  C1  UNL     1      -3.544   3.123   0.602  1.00  0.00     0.019 A 
HETATM   19  C17 UNL     1      -2.768   1.984   0.712  1.00  0.00     0.034 A 
ENDBRANCH   1  13
BRANCH  12  20
HETATM   20  N5  UNL     1      -1.874  -1.090  -0.017  1.00  0.00    -0.212 N 
HETATM   21  C13 UNL     1      -2.513  -0.990  -1.308  1.00  0.00     0.167 C 
HETATM   22  C14 UNL     1      -2.875  -2.357  -1.857  1.00  0.00     0.188 C 
HETATM   23  O1  UNL     1      -2.976  -3.300  -0.832  1.00  0.00    -0.388 OA
HETATM   24  C15 UNL     1      -3.530  -2.784   0.316  1.00  0.00     0.188 C 
HETATM   25  C16 UNL     1      -2.476  -1.923   0.993  1.00  0.00     0.167 C 
ENDBRANCH  12  20
TORSDOF 2
