REMARK  3 active torsions:
REMARK  status: ('A' for Active; 'I' for Inactive)
REMARK    1  A    between atoms: C5_5  and  N1_6 
REMARK    2  A    between atoms: N2_9  and  C8_10 
REMARK    3  A    between atoms: C9_11  and  C10_12 
ROOT
HETATM    1  C1  UNL     1       7.782   1.250   1.112  1.00  0.00     0.019 C 
HETATM    2  C2  UNL     1       6.897   0.530   0.708  1.00  0.00    -0.059 C 
HETATM    3  C3  UNL     1       5.854  -0.341   0.209  1.00  0.00     0.091 A 
HETATM    4  C4  UNL     1       4.544  -0.011   0.426  1.00  0.00     0.087 A 
HETATM    5  C5  UNL     1       3.559  -0.829  -0.043  1.00  0.00     0.108 A 
HETATM    6  N3  UNL     1       3.880  -1.969  -0.724  1.00  0.00    -0.320 N 
ATOM      7  H3  UNL     1       3.152  -2.589  -1.080  1.00  0.00     0.169 HD
HETATM    8  C17 UNL     1       5.167  -2.250  -0.911  1.00  0.00     0.190 A 
HETATM    9  C18 UNL     1       5.597  -3.439  -1.623  1.00  0.00     0.137 C 
HETATM   10  N4  UNL     1       5.922  -4.391  -2.198  1.00  0.00    -0.188 NA
HETATM   11  N5  UNL     1       6.168  -1.469  -0.464  1.00  0.00    -0.326 N 
ATOM     12  H5  UNL     1       7.142  -1.723  -0.630  1.00  0.00     0.169 HD
ENDROOT
BRANCH   5  13
HETATM   13  N1  UNL     1       2.175  -0.521   0.157  1.00  0.00    -0.364 N 
HETATM   14  C6  UNL     1       1.208  -1.502  -0.292  1.00  0.00     0.145 C 
HETATM   15  C7  UNL     1       0.296  -0.802  -1.278  1.00  0.00     0.152 C 
HETATM   16  N2  UNL     1      -0.373   0.236  -0.536  1.00  0.00    -0.339 N 
HETATM   17  C15 UNL     1       0.445   1.248   0.078  1.00  0.00     0.152 C 
HETATM   18  C16 UNL     1       1.682   0.677   0.764  1.00  0.00     0.145 C 
BRANCH  16  19
HETATM   19  C8  UNL     1      -1.755   0.231  -0.436  1.00  0.00     0.008 C 
HETATM   20  C9  UNL     1      -2.960   0.226  -0.370  1.00  0.00    -0.079 C 
BRANCH  20  21
HETATM   21  C10 UNL     1      -4.428   0.213  -0.314  1.00  0.00     0.067 C 
HETATM   22  C11 UNL     1      -4.826  -0.277   1.038  1.00  0.00     0.017 C 
HETATM   23  C12 UNL     1      -6.163   0.415   1.270  1.00  0.00     0.001 C 
HETATM   24  C13 UNL     1      -6.166   1.653   0.434  1.00  0.00     0.001 C 
HETATM   25  C14 UNL     1      -4.930   1.629  -0.430  1.00  0.00     0.017 C 
ENDBRANCH  20  21
ENDBRANCH  16  19
ENDBRANCH   5  13
TORSDOF 3
