REMARK  1 active torsions:
REMARK  status: ('A' for Active; 'I' for Inactive)
REMARK    1  A    between atoms: C2_3  and  C3_4 
REMARK       I    between atoms: C3_4  and  N2_6 
ROOT
HETATM    1  N1  UNL     1      -2.645  -2.715  -1.313  1.00  0.00    -0.196 NA
HETATM    2  C1  UNL     1      -2.544  -1.756  -0.650  1.00  0.00     0.079 C 
HETATM    3  C2  UNL     1      -2.442  -0.540   0.202  1.00  0.00     0.131 C 
HETATM    4  C11 UNL     1      -3.723  -0.528   1.007  1.00  0.00     0.045 C 
HETATM    5  C12 UNL     1      -3.990   0.804   1.670  1.00  0.00     0.076 C 
HETATM    6  S1  UNL     1      -4.449   1.941   0.301  1.00  0.00    -0.169 SA
HETATM    7  C13 UNL     1      -3.707   1.156  -1.184  1.00  0.00     0.076 C 
HETATM    8  C14 UNL     1      -2.360   0.616  -0.755  1.00  0.00     0.045 C 
ENDROOT
BRANCH   3   9
HETATM    9  C3  UNL     1      -1.289  -0.633   1.110  1.00  0.00     0.242 C 
HETATM   10  O1  UNL     1      -1.541  -0.712   2.366  1.00  0.00    -0.271 OA
HETATM   11  N2  UNL     1       0.071  -0.649   0.770  1.00  0.00    -0.350 N 
HETATM   12  C4  UNL     1       1.124  -0.758   1.770  1.00  0.00     0.131 C 
HETATM   13  C8  UNL     1       0.495  -0.551  -0.600  1.00  0.00     0.131 C 
HETATM   14  C5  UNL     1       2.239   0.244   1.485  1.00  0.00     0.088 C 
HETATM   15  C6  UNL     1       2.827   0.019   0.107  1.00  0.00     0.167 C 
HETATM   16  C7  UNL     1       1.956  -0.972  -0.661  1.00  0.00     0.088 C 
HETATM   17  O2  UNL     1       2.915   1.235  -0.521  1.00  0.00    -0.353 OA
HETATM   18  O3  UNL     1       4.096  -0.534   0.167  1.00  0.00    -0.353 OA
HETATM   19  C9  UNL     1       4.257   1.498  -0.771  1.00  0.00     0.197 C 
HETATM   20  C10 UNL     1       4.804   0.068  -0.874  1.00  0.00     0.197 C 
ENDBRANCH   3   9
TORSDOF 1
