REMARK  7 active torsions:
REMARK  status: ('A' for Active; 'I' for Inactive)
REMARK    1  A    between atoms: N2_5  and  C3_6 
REMARK    2  A    between atoms: C5_10  and  N4_11 
REMARK    3  A    between atoms: N4_11  and  C6_13 
REMARK    4  A    between atoms: C11_20  and  N6_21 
REMARK    5  A    between atoms: N9_31  and  C14_32 
REMARK    6  A    between atoms: C14_32  and  C15_33 
REMARK    7  A    between atoms: C15_33  and  N10_34 
ROOT
HETATM    1  C3  UNL     1       1.241   0.273  -1.048  1.00  0.00     0.710 A 
HETATM    2  N3  UNL     1       0.159   0.288  -0.217  1.00  0.00    -0.182 N 
ATOM      3  H3  UNL     1       0.184   0.513   0.778  1.00  0.00     0.184 HD
HETATM    4  C4  UNL     1      -0.934  -0.036  -0.903  1.00  0.00     0.138 A 
HETATM    5  C5  UNL     1      -2.287  -0.170  -0.546  1.00  0.00     0.148 A 
HETATM    6  N5  UNL     1      -3.164  -0.521  -1.501  1.00  0.00    -0.175 N 
ATOM      7  H5  UNL     1      -4.148  -0.622  -1.250  1.00  0.00     0.186 HD
HETATM    8  C11 UNL     1      -2.791  -0.747  -2.789  1.00  0.00     0.679 A 
HETATM    9  N7  UNL     1      -1.505  -0.618  -3.121  1.00  0.00    -0.174 N 
ATOM     10  H7  UNL     1      -1.217  -0.786  -4.085  1.00  0.00     0.186 HD
HETATM   11  C12 UNL     1      -0.583  -0.270  -2.206  1.00  0.00     0.167 A 
HETATM   12  N8  UNL     1       0.760  -0.069  -2.253  1.00  0.00    -0.172 N 
ATOM     13  H8  UNL     1       1.328  -0.166  -3.094  1.00  0.00     0.186 HD
ENDROOT
BRANCH   1  14
HETATM   14  N2  UNL     1       2.574   0.568  -0.650  1.00  0.00    -0.029 N 
HETATM   15  N1  UNL     1       3.108   1.769  -0.434  1.00  0.00    -0.263 N 
HETATM   16  C2  UNL     1       4.395   1.661  -0.072  1.00  0.00     0.103 A 
ATOM     17  H1  UNL     1       2.606   2.652  -0.531  1.00  0.00     0.189 HD
HETATM   18  C1  UNL     1       5.407   2.676   0.271  1.00  0.00     0.091 C 
HETATM   19  N9  UNL     1       4.671   0.340  -0.065  1.00  0.00    -0.263 N 
HETATM   20  C13 UNL     1       3.546  -0.311  -0.421  1.00  0.00     0.368 A 
HETATM   21  O1  UNL     1       3.366  -1.564  -0.539  1.00  0.00    -0.243 OA
BRANCH  19  22
HETATM   22  C14 UNL     1       5.865  -0.340   0.235  1.00  0.00     0.103 C 
BRANCH  22  23
HETATM   23  C15 UNL     1       6.151  -0.750   1.609  1.00  0.00     0.274 C 
BRANCH  23  24
HETATM   24  N10 UNL     1       5.128  -1.651   2.110  1.00  0.00    -0.075 N 
ATOM     25 3H10 UNL     1       4.196  -1.245   2.026  1.00  0.00     0.274 HD
ATOM     26 2H10 UNL     1       5.003  -2.456   1.496  1.00  0.00     0.274 HD
ATOM     27 1H10 UNL     1       5.328  -1.937   3.069  1.00  0.00     0.274 HD
ENDBRANCH  23  24
ENDBRANCH  22  23
ENDBRANCH  19  22
ENDBRANCH   1  14
BRANCH   5  28
HETATM   28  N4  UNL     1      -2.581   0.052   0.653  1.00  0.00    -0.369 N 
ATOM     29  H4  UNL     1      -1.777   0.309   1.226  1.00  0.00     0.161 HD
BRANCH  28  30
HETATM   30  C6  UNL     1      -3.805   0.020   1.381  1.00  0.00     0.083 C 
HETATM   31  C7  UNL     1      -4.843   0.950   0.851  1.00  0.00     0.025 C 
HETATM   32  C8  UNL     1      -6.165   0.264   0.939  1.00  0.00     0.002 C 
HETATM   33  C9  UNL     1      -5.920  -1.105   1.502  1.00  0.00     0.002 C 
HETATM   34  C10 UNL     1      -4.455  -1.326   1.412  1.00  0.00     0.025 C 
ENDBRANCH  28  30
ENDBRANCH   5  28
BRANCH   8  35
HETATM   35  N6  UNL     1      -3.698  -1.084  -3.658  1.00  0.00    -0.234 N 
ATOM     36  H62 UNL     1      -4.681  -1.183  -3.404  1.00  0.00     0.174 HD
ATOM     37  H61 UNL     1      -3.418  -1.254  -4.624  1.00  0.00     0.174 HD
ENDBRANCH   8  35
TORSDOF 7
