REMARK  7 active torsions:
REMARK  status: ('A' for Active; 'I' for Inactive)
REMARK    1  A    between atoms: O1_2  and  C2_3 
REMARK    2  A    between atoms: C3_6  and  N2_7 
REMARK    3  A    between atoms: N2_7  and  N3_9 
REMARK    4  A    between atoms: N3_9  and  C4_10 
REMARK    5  A    between atoms: C5_13  and  N5_14 
REMARK    6  A    between atoms: C6_19  and  S1_20 
REMARK    7  A    between atoms: C11_29  and  O3_30 
ROOT
HETATM    1  C4  UNL     1       2.149   0.492   0.455  1.00  0.00     0.242 A 
HETATM    2  N4  UNL     1       2.596   1.626   1.084  1.00  0.00    -0.161 N 
ATOM      3  H4  UNL     1       1.954   2.113   1.709  1.00  0.00     0.187 HD
HETATM    4  C5  UNL     1       3.822   2.130   0.926  1.00  0.00     0.679 A 
HETATM    5  N6  UNL     1       4.664   1.491   0.106  1.00  0.00    -0.184 N 
ATOM      6  H6  UNL     1       5.605   1.861  -0.028  1.00  0.00     0.185 HD
HETATM    7  C6  UNL     1       4.298   0.368  -0.549  1.00  0.00     0.111 A 
HETATM    8  C8  UNL     1       3.046  -0.162  -0.400  1.00  0.00     0.139 A 
HETATM    9  C9  UNL     1       2.624  -1.357  -1.085  1.00  0.00     0.107 C 
HETATM   10  N7  UNL     1       2.296  -2.322  -1.637  1.00  0.00    -0.191 NA
ENDROOT
BRANCH   1  11
HETATM   11  N3  UNL     1       1.028   0.094   0.669  1.00  0.00    -0.290 NA
BRANCH  11  12
HETATM   12  N2  UNL     1      -0.127  -0.321   0.885  1.00  0.00    -0.063 N 
ATOM     13  H2  UNL     1      -0.110  -1.056   1.592  1.00  0.00     0.221 HD
BRANCH  12  14
HETATM   14  C3  UNL     1      -1.311  -0.115   0.501  1.00  0.00     0.712 A 
HETATM   15  N1  UNL     1      -2.311  -0.874   1.070  1.00  0.00    -0.165 N 
HETATM   16  C2  UNL     1      -3.593  -0.734   0.733  1.00  0.00     0.196 A 
ATOM     17  H1  UNL     1      -2.061  -1.568   1.774  1.00  0.00     0.186 HD
HETATM   18  C11 UNL     1      -3.910   0.211  -0.226  1.00  0.00     0.189 A 
HETATM   19  C10 UNL     1      -2.888   0.968  -0.790  1.00  0.00     0.297 A 
HETATM   20  N8  UNL     1      -1.607   0.803  -0.427  1.00  0.00    -0.151 N 
HETATM   21  O2  UNL     1      -3.176   1.829  -1.661  1.00  0.00    -0.264 OA
ATOM     22  H8  UNL     1      -0.871   1.368  -0.851  1.00  0.00     0.188 HD
BRANCH  16  23
HETATM   23  O1  UNL     1      -4.607  -1.486   1.295  1.00  0.00    -0.338 OA
HETATM   24  C1  UNL     1      -4.893  -2.781   0.768  1.00  0.00     0.211 C 
ENDBRANCH  16  23
BRANCH  18  25
HETATM   25  O3  UNL     1      -5.237   0.371  -0.593  1.00  0.00    -0.347 OA
HETATM   26  C12 UNL     1      -5.973   1.339   0.173  1.00  0.00     0.210 C 
ENDBRANCH  18  25
ENDBRANCH  12  14
ENDBRANCH  11  12
ENDBRANCH   1  11
BRANCH   7  27
HETATM   27  S1  UNL     1       5.456  -0.456  -1.644  1.00  0.00    -0.115 SA
HETATM   28  C7  UNL     1       6.513  -1.619  -0.746  1.00  0.00     0.097 C 
ENDBRANCH   7  27
BRANCH   4  29
HETATM   29  N5  UNL     1       4.181   3.218   1.570  1.00  0.00    -0.234 N 
ATOM     30  H52 UNL     1       3.539   3.705   2.195  1.00  0.00     0.174 HD
ATOM     31  H51 UNL     1       5.118   3.603   1.449  1.00  0.00     0.174 HD
ENDBRANCH   4  29
TORSDOF 7
