REMARK  6 active torsions:
REMARK  status: ('A' for Active; 'I' for Inactive)
REMARK    1  A    between atoms: C3_7  and  N3_8 
REMARK    2  A    between atoms: N3_8  and  C4_10 
REMARK    3  A    between atoms: C8_16  and  N5_17 
REMARK    4  A    between atoms: C12_23  and  N7_24 
REMARK    5  A    between atoms: N7_24  and  N8_26 
REMARK    6  A    between atoms: N9_29  and  C13_30 
ROOT
HETATM    1  C1  UNL     1       4.125   3.783  -0.206  1.00  0.00     0.165 C 
HETATM    2  N1  UNL     1       4.154   2.350  -0.235  1.00  0.00    -0.230 N 
ATOM      3  H1  UNL     1       5.065   1.902  -0.336  1.00  0.00     0.177 HD
HETATM    4  C2  UNL     1       3.122   1.580  -0.144  1.00  0.00     0.681 A 
HETATM    5  N2  UNL     1       3.339   0.227  -0.190  1.00  0.00    -0.175 N 
ATOM      6  H2  UNL     1       4.287  -0.134  -0.298  1.00  0.00     0.186 HD
HETATM    7  C3  UNL     1       2.309  -0.618  -0.093  1.00  0.00     0.148 A 
HETATM    8  C7  UNL     1       1.002  -0.146   0.057  1.00  0.00     0.138 A 
HETATM    9  N4  UNL     1      -0.178  -0.754   0.179  1.00  0.00    -0.184 N 
ATOM     10  H4  UNL     1      -0.320  -1.764   0.180  1.00  0.00     0.184 HD
HETATM   11  C8  UNL     1      -1.172   0.182   0.303  1.00  0.00     0.687 A 
HETATM   12  N9  UNL     1      -0.550   1.383   0.253  1.00  0.00    -0.160 N 
HETATM   13  C16 UNL     1       0.785   1.210   0.102  1.00  0.00     0.170 A 
HETATM   14  N10 UNL     1       1.859   2.010  -0.001  1.00  0.00    -0.173 N 
ATOM     15  H10 UNL     1       1.703   3.017   0.032  1.00  0.00     0.186 HD
ENDROOT
BRANCH  11  16
HETATM   16  N5  UNL     1      -2.558  -0.029   0.473  1.00  0.00    -0.192 N 
HETATM   17  C9  UNL     1      -3.109   0.327   1.795  1.00  0.00     0.163 C 
HETATM   18  C10 UNL     1      -3.523  -1.032   2.376  1.00  0.00     0.134 C 
HETATM   19  N6  UNL     1      -4.497  -1.596   1.501  1.00  0.00    -0.416 N 
HETATM   20  C11 UNL     1      -4.090  -1.831   0.156  1.00  0.00     0.162 C 
ATOM     21  H6  UNL     1      -5.439  -1.820   1.822  1.00  0.00     0.153 HD
HETATM   22  C12 UNL     1      -3.500  -0.555  -0.449  1.00  0.00     0.233 C 
BRANCH  22  23
HETATM   23  N7  UNL     1      -3.111  -0.697  -1.799  1.00  0.00    -0.317 N 
ATOM     24  H7  UNL     1      -3.585  -0.178  -2.538  1.00  0.00     0.182 HD
BRANCH  23  25
HETATM   25  N8  UNL     1      -2.082  -1.550  -2.088  1.00  0.00    -0.347 N 
ATOM     26  H82 UNL     1      -1.619  -2.062  -1.337  1.00  0.00     0.176 HD
ATOM     27  H81 UNL     1      -1.801  -1.653  -3.063  1.00  0.00     0.176 HD
ENDBRANCH  23  25
ENDBRANCH  22  23
ENDBRANCH  11  16
BRANCH  12  28
HETATM   28  C13 UNL     1      -1.200   2.672   0.362  1.00  0.00     0.110 A 
HETATM   29  C14 UNL     1      -2.436   3.013  -0.336  1.00  0.00     0.028 A 
HETATM   30  C15 UNL     1      -1.133   3.667  -0.717  1.00  0.00     0.028 A 
ENDBRANCH  12  28
BRANCH   7  31
HETATM   31  N3  UNL     1       2.468  -1.880  -0.144  1.00  0.00    -0.370 N 
ATOM     32  H3  UNL     1       1.626  -2.450  -0.062  1.00  0.00     0.161 HD
BRANCH  31  33
HETATM   33  C4  UNL     1       3.708  -2.583  -0.305  1.00  0.00     0.075 C 
HETATM   34  C5  UNL     1       3.536  -3.810  -1.202  1.00  0.00     0.031 C 
HETATM   35  C6  UNL     1       4.259  -3.096   1.010  1.00  0.00     0.031 C 
ENDBRANCH  31  33
ENDBRANCH   7  31
TORSDOF 6
