REMARK  8 active torsions:
REMARK  status: ('A' for Active; 'I' for Inactive)
REMARK    1  A    between atoms: C2_2  and  C3_3 
REMARK    2  A    between atoms: C3_3  and  S1_4 
REMARK    3  A    between atoms: S1_4  and  C4_5 
REMARK    4  A    between atoms: C5_8  and  C6_9 
REMARK    5  A    between atoms: N2_11  and  N3_13 
REMARK    6  A    between atoms: N3_13  and  C8_15 
REMARK    7  A    between atoms: N7_22  and  N8_24 
REMARK    8  A    between atoms: N8_24  and  N9_25 
ROOT
HETATM    1  N8  UNL     1      -5.162  -1.079   0.350  1.00  0.00    -0.133 N 
HETATM    2  C10 UNL     1      -5.054  -2.167  -0.511  1.00  0.00     0.221 C 
HETATM    3  N10 UNL     1      -4.959  -3.083  -1.243  1.00  0.00    -0.169 NA
ENDROOT
BRANCH   1   4
HETATM    4  N7  UNL     1      -5.366   0.179  -0.168  1.00  0.00    -0.278 N 
HETATM    5  C2  UNL     1      -4.460   0.946  -0.659  1.00  0.00     0.012 C 
HETATM    6  C1  UNL     1      -4.875   2.272  -1.172  1.00  0.00     0.066 C 
ATOM      7  H7  UNL     1      -6.322   0.534  -0.162  1.00  0.00     0.189 HD
BRANCH   5   8
HETATM    8  C3  UNL     1      -3.064   0.538  -0.717  1.00  0.00     0.136 C 
BRANCH   8   9
HETATM    9  S1  UNL     1      -1.974   1.657   0.216  1.00  0.00    -0.088 SA
BRANCH   9  10
HETATM   10  C4  UNL     1      -0.282   1.037   0.060  1.00  0.00     0.146 A 
HETATM   11  N1  UNL     1       0.817   1.564   0.591  1.00  0.00    -0.332 N 
HETATM   12  C5  UNL     1       1.935   0.834   0.270  1.00  0.00     0.099 A 
ATOM     13  H1  UNL     1       0.828   2.407   1.166  1.00  0.00     0.168 HD
HETATM   14  C9  UNL     1       1.440  -0.183  -0.501  1.00  0.00     0.147 A 
HETATM   15  N5  UNL     1       2.158  -1.244  -1.112  1.00  0.00    -0.080 NA
HETATM   16  N6  UNL     1       0.094  -0.042  -0.617  1.00  0.00    -0.323 N 
ATOM     17  H6  UNL     1      -0.526  -0.662  -1.138  1.00  0.00     0.169 HD
BRANCH  12  18
HETATM   18  C6  UNL     1       3.290   1.146   0.696  1.00  0.00     0.052 C 
HETATM   19  C7  UNL     1       3.369   2.419   1.573  1.00  0.00     0.072 C 
HETATM   20  N2  UNL     1       4.348   0.615   0.504  1.00  0.00    -0.301 N 
ATOM     21  H2  UNL     1       5.073   1.150   0.983  1.00  0.00     0.186 HD
BRANCH  20  22
HETATM   22  N3  UNL     1       4.912  -0.411  -0.103  1.00  0.00    -0.278 N 
ATOM     23  H3  UNL     1       4.972  -0.413  -1.121  1.00  0.00     0.189 HD
BRANCH  22  24
HETATM   24  C8  UNL     1       5.445  -1.529   0.631  1.00  0.00     0.199 C 
HETATM   25  N4  UNL     1       6.057  -2.648   0.006  1.00  0.00    -0.068 NA
HETATM   26  S2  UNL     1       5.351  -1.531   2.260  1.00  0.00    -0.043 SA
ENDBRANCH  22  24
ENDBRANCH  20  22
ENDBRANCH  12  18
ENDBRANCH   9  10
ENDBRANCH   8   9
ENDBRANCH   5   8
ENDBRANCH   1   4
BRANCH   1  27
HETATM   27  N9  UNL     1      -5.063  -1.281   1.719  1.00  0.00    -0.315 N 
ATOM     28  H92 UNL     1      -5.142  -0.484   2.350  1.00  0.00     0.179 HD
ATOM     29  H91 UNL     1      -4.912  -2.214   2.103  1.00  0.00     0.179 HD
ENDBRANCH   1  27
TORSDOF 8
