REMARK  7 active torsions:
REMARK  status: ('A' for Active; 'I' for Inactive)
REMARK    1  A    between atoms: C2_2  and  C3_3 
REMARK    2  A    between atoms: C3_3  and  N1_4 
REMARK    3  A    between atoms: C9_14  and  N4_15 
REMARK    4  A    between atoms: C10_20  and  N6_21 
REMARK    5  A    between atoms: N7_24  and  C13_25 
REMARK    6  A    between atoms: C13_25  and  C14_26 
REMARK    7  A    between atoms: C14_26  and  O1_27 
ROOT
HETATM    1  N1  UNL     1      -2.159   1.226  -0.305  1.00  0.00    -0.316 N 
HETATM    2  C4  UNL     1      -3.366   0.794  -0.734  1.00  0.00     0.137 A 
HETATM    3  N2  UNL     1      -4.648   1.117  -0.920  1.00  0.00    -0.284 N 
ATOM      4  H2  UNL     1      -5.054   2.027  -0.701  1.00  0.00     0.188 HD
HETATM    5  N3  UNL     1      -5.318   0.098  -1.426  1.00  0.00    -0.303 N 
ATOM      6  H3  UNL     1      -6.312   0.110  -1.652  1.00  0.00     0.186 HD
HETATM    7  C5  UNL     1      -4.492  -0.972  -1.603  1.00  0.00     0.037 A 
HETATM    8  C6  UNL     1      -4.866  -2.294  -2.142  1.00  0.00     0.070 C 
HETATM    9  C7  UNL     1      -3.260  -0.533  -1.166  1.00  0.00     0.051 A 
HETATM   10  C8  UNL     1      -1.939  -0.868  -0.975  1.00  0.00     0.069 A 
HETATM   11  C9  UNL     1      -1.265  -2.021  -1.217  1.00  0.00     0.130 A 
HETATM   12  N5  UNL     1       0.064  -2.070  -0.924  1.00  0.00    -0.175 N 
ATOM     13  H5  UNL     1       0.574  -2.935  -1.104  1.00  0.00     0.186 HD
HETATM   14  C10 UNL     1       0.731  -1.023  -0.407  1.00  0.00     0.700 A 
HETATM   15  N9  UNL     1       0.036   0.118  -0.175  1.00  0.00    -0.174 N 
ATOM     16  H9  UNL     1       0.524   0.923   0.217  1.00  0.00     0.186 HD
HETATM   17  C15 UNL     1      -1.277   0.220  -0.446  1.00  0.00     0.140 A 
ENDROOT
BRANCH  14  18
HETATM   18  N6  UNL     1       2.121  -1.080  -0.105  1.00  0.00    -0.111 N 
HETATM   19  C11 UNL     1       2.666  -1.628   1.101  1.00  0.00     0.181 C 
HETATM   20  C12 UNL     1       4.165  -1.487   0.869  1.00  0.00     0.133 C 
HETATM   21  N7  UNL     1       4.253  -0.523  -0.173  1.00  0.00    -0.210 NA
HETATM   22  N8  UNL     1       3.124  -0.618  -0.919  1.00  0.00    -0.031 NA
BRANCH  21  23
HETATM   23  C13 UNL     1       4.700   0.766   0.221  1.00  0.00     0.137 C 
BRANCH  23  24
HETATM   24  C14 UNL     1       6.170   0.718   0.610  1.00  0.00     0.180 C 
BRANCH  24  25
HETATM   25  O1  UNL     1       6.627   1.990   1.003  1.00  0.00    -0.400 OA
ATOM     26  H1  UNL     1       7.545   1.960   1.246  1.00  0.00     0.209 HD
ENDBRANCH  24  25
ENDBRANCH  23  24
ENDBRANCH  21  23
ENDBRANCH  14  18
BRANCH  11  27
HETATM   27  N4  UNL     1      -1.778  -3.085  -1.705  1.00  0.00    -0.384 N 
ATOM     28  H42 UNL     1      -2.773  -3.048  -1.924  1.00  0.00     0.157 HD
ATOM     29  H41 UNL     1      -1.271  -3.951  -1.887  1.00  0.00     0.157 HD
ENDBRANCH  11  27
BRANCH   1  30
HETATM   30  C3  UNL     1      -1.799   2.521   0.219  1.00  0.00     0.132 C 
BRANCH  30  31
HETATM   31  C2  UNL     1      -1.957   2.600   1.722  1.00  0.00     0.016 C 
HETATM   32  C1  UNL     1      -3.393   2.342   2.139  1.00  0.00     0.006 C 
ENDBRANCH  30  31
ENDBRANCH   1  30
TORSDOF 7
