REMARK  9 active torsions:
REMARK  status: ('A' for Active; 'I' for Inactive)
REMARK    1  A    between atoms: C2_5  and  N3_6 
REMARK    2  A    between atoms: C6_16  and  N6_17 
REMARK    3  A    between atoms: N6_17  and  C7_19 
REMARK    4  A    between atoms: C7_19  and  C8_20 
REMARK    5  A    between atoms: C8_20  and  C9_21 
REMARK    6  A    between atoms: C11_23  and  O1_24 
REMARK    7  A    between atoms: C12_26  and  C13_27 
REMARK    8  A    between atoms: C13_27  and  O2_28 
REMARK    9  A    between atoms: C16_35  and  C17_36 
ROOT
HETATM    1  N3  UNL     1      -2.849  -1.013   0.241  1.00  0.00    -0.270 N 
HETATM    2  C3  UNL     1      -3.514  -2.140  -0.049  1.00  0.00     0.272 A 
HETATM    3  F1  UNL     1      -4.788  -2.202  -0.552  1.00  0.00    -0.165 F 
HETATM    4  N4  UNL     1      -2.738  -3.209   0.231  1.00  0.00    -0.312 N 
ATOM      5  H4  UNL     1      -3.003  -4.186   0.103  1.00  0.00     0.170 HD
HETATM    6  C4  UNL     1      -1.577  -2.779   0.699  1.00  0.00     0.120 A 
HETATM    7  C5  UNL     1      -0.412  -3.350   1.144  1.00  0.00     0.149 A 
HETATM    8 CL1  UNL     1      -0.301  -5.095   1.144  1.00  0.00    -0.061 Cl
HETATM    9  N5  UNL     1       0.595  -2.562   1.560  1.00  0.00    -0.179 N 
ATOM     10  H5  UNL     1       1.451  -3.010   1.886  1.00  0.00     0.185 HD
HETATM   11  C6  UNL     1       0.540  -1.225   1.571  1.00  0.00     0.680 A 
HETATM   12  N7  UNL     1      -0.606  -0.642   1.134  1.00  0.00    -0.174 N 
ATOM     13  H7  UNL     1      -0.684   0.375   1.128  1.00  0.00     0.186 HD
HETATM   14  C14 UNL     1      -1.631  -1.386   0.712  1.00  0.00     0.158 A 
ENDROOT
BRANCH  11  15
HETATM   15  N6  UNL     1       1.519  -0.459   1.980  1.00  0.00    -0.226 N 
ATOM     16  H6  UNL     1       1.371   0.550   1.946  1.00  0.00     0.177 HD
BRANCH  15  17
HETATM   17  C7  UNL     1       2.779  -0.921   2.471  1.00  0.00     0.140 C 
BRANCH  17  18
HETATM   18  C8  UNL     1       3.882  -0.973   1.460  1.00  0.00     0.052 C 
BRANCH  18  19
HETATM   19  C9  UNL     1       4.239   0.350   0.844  1.00  0.00     0.126 C 
HETATM   20  C10 UNL     1       3.076   0.948   0.124  1.00  0.00     0.066 C 
HETATM   21  C11 UNL     1       3.792   1.850  -0.875  1.00  0.00     0.151 C 
HETATM   22  C12 UNL     1       5.182   1.259  -0.959  1.00  0.00     0.174 C 
HETATM   23  O3  UNL     1       5.243   0.170  -0.106  1.00  0.00    -0.376 OA
BRANCH  21  24
HETATM   24  O1  UNL     1       3.147   1.859  -2.111  1.00  0.00    -0.393 OA
ATOM     25  H1  UNL     1       3.593   2.421  -2.734  1.00  0.00     0.210 HD
ENDBRANCH  21  24
BRANCH  22  26
HETATM   26  C13 UNL     1       5.411   0.814  -2.392  1.00  0.00     0.198 C 
BRANCH  26  27
HETATM   27  O2  UNL     1       4.426  -0.120  -2.779  1.00  0.00    -0.398 OA
ATOM     28  H2  UNL     1       4.569  -0.399  -3.676  1.00  0.00     0.209 HD
ENDBRANCH  26  27
ENDBRANCH  22  26
ENDBRANCH  18  19
ENDBRANCH  17  18
ENDBRANCH  15  17
ENDBRANCH  11  15
BRANCH   1  29
HETATM   29  C2  UNL     1      -3.331   0.354   0.085  1.00  0.00     0.202 A 
HETATM   30  N2  UNL     1      -4.310   0.691   1.076  1.00  0.00    -0.342 N 
HETATM   31  C1  UNL     1      -5.463   1.192   0.845  1.00  0.00     0.190 A 
ATOM     32  H2  UNL     1      -4.065   0.516   2.051  1.00  0.00     0.164 HD
HETATM   33  N1  UNL     1      -6.371   1.491   1.940  1.00  0.00    -0.063 NA
HETATM   34  N8  UNL     1      -5.847   1.451  -0.491  1.00  0.00    -0.337 N 
HETATM   35  C16 UNL     1      -5.098   1.208  -1.472  1.00  0.00     0.006 A 
ATOM     36  H8  UNL     1      -6.769   1.851  -0.666  1.00  0.00     0.168 HD
HETATM   37  C15 UNL     1      -3.757   0.634  -1.324  1.00  0.00     0.101 A 
BRANCH  35  38
HETATM   38  C17 UNL     1      -5.584   1.514  -2.866  1.00  0.00     0.167 C 
HETATM   39 CL2  UNL     1      -4.518   2.683  -3.663  1.00  0.00    -0.124 Cl
ENDBRANCH  35  38
ENDBRANCH   1  29
TORSDOF 9
