REMARK  7 active torsions:
REMARK  status: ('A' for Active; 'I' for Inactive)
REMARK    1  A    between atoms: C5_7  and  S1_8 
REMARK    2  A    between atoms: S1_8  and  O4_11 
REMARK    3  A    between atoms: O4_11  and  C6_12 
REMARK    4  A    between atoms: C7_13  and  C8_14 
REMARK    5  A    between atoms: C8_14  and  N1_15 
REMARK    6  A    between atoms: N1_15  and  C9_17 
REMARK    7  A    between atoms: N5_32  and  O7_33 
ROOT
HETATM    1  C6  UNL     1       0.698  -1.611   0.237  1.00  0.00     0.219 A 
HETATM    2  C7  UNL     1      -0.641  -1.274   0.599  1.00  0.00     0.085 A 
HETATM    3  C14 UNL     1      -1.207  -2.462   0.974  1.00  0.00     0.274 A 
HETATM    4  O6  UNL     1      -2.384  -2.612   1.380  1.00  0.00    -0.266 OA
HETATM    5  N4  UNL     1      -0.287  -3.478   0.850  1.00  0.00    -0.237 N 
ATOM      6  H4  UNL     1      -0.437  -4.465   1.058  1.00  0.00     0.193 HD
HETATM    7  N5  UNL     1       0.827  -2.924   0.409  1.00  0.00    -0.135 N 
ENDROOT
BRANCH   2   8
HETATM    8  C8  UNL     1      -1.044   0.130   0.585  1.00  0.00     0.169 C 
BRANCH   8   9
HETATM    9  N1  UNL     1      -1.875   0.526  -0.533  1.00  0.00    -0.379 N 
ATOM     10  H1  UNL     1      -1.379   0.857  -1.361  1.00  0.00     0.160 HD
BRANCH   9  11
HETATM   11  C9  UNL     1      -3.268   0.513  -0.622  1.00  0.00     0.125 A 
HETATM   12  C10 UNL     1      -3.945   1.664  -0.171  1.00  0.00     0.121 A 
HETATM   13  N2  UNL     1      -3.139   2.787   0.180  1.00  0.00    -0.096 NA
HETATM   14  C11 UNL     1      -5.299   1.746  -0.153  1.00  0.00     0.198 A 
HETATM   15  F1  UNL     1      -5.976   2.819   0.275  1.00  0.00    -0.199 F 
HETATM   16  C12 UNL     1      -6.030   0.669  -0.591  1.00  0.00     0.232 A 
HETATM   17  F2  UNL     1      -7.412   0.713  -0.612  1.00  0.00    -0.183 F 
HETATM   18  N3  UNL     1      -5.397  -0.429  -1.024  1.00  0.00    -0.295 N 
HETATM   19  C13 UNL     1      -4.057  -0.512  -1.045  1.00  0.00     0.276 A 
ATOM     20  H3  UNL     1      -5.948  -1.224  -1.347  1.00  0.00     0.171 HD
HETATM   21  O5  UNL     1      -3.498  -1.560  -1.477  1.00  0.00    -0.266 OA
ENDBRANCH   9  11
ENDBRANCH   8   9
ENDBRANCH   2   8
BRANCH   1  22
HETATM   22  O4  UNL     1       1.675  -0.740  -0.206  1.00  0.00    -0.206 OA
BRANCH  22  23
HETATM   23  S1  UNL     1       2.883  -0.214   0.917  1.00  0.00     0.308 S 
HETATM   24  O2  UNL     1       2.285   0.940   1.680  1.00  0.00    -0.193 OA
HETATM   25  O3  UNL     1       3.156  -1.392   1.780  1.00  0.00    -0.193 OA
BRANCH  23  26
HETATM   26  C5  UNL     1       4.323   0.264   0.068  1.00  0.00     0.139 A 
HETATM   27  C2  UNL     1       4.895   1.497  -0.024  1.00  0.00     0.074 A 
HETATM   28  C1  UNL     1       4.453   2.739   0.673  1.00  0.00     0.078 C 
HETATM   29  O1  UNL     1       5.926   1.410  -0.839  1.00  0.00    -0.324 OA
HETATM   30  C3  UNL     1       6.062   0.208  -1.283  1.00  0.00     0.167 A 
HETATM   31  C4  UNL     1       5.043  -0.590  -0.724  1.00  0.00     0.082 A 
HETATM   32 CL1  UNL     1       4.887  -2.283  -1.099  1.00  0.00    -0.081 Cl
ENDBRANCH  23  26
ENDBRANCH  22  23
ENDBRANCH   1  22
BRANCH   7  33
HETATM   33  O7  UNL     1       1.996  -3.647   0.176  1.00  0.00    -0.266 OA
ATOM     34  H7  UNL     1       2.088  -4.585   0.299  1.00  0.00     0.247 HD
ENDBRANCH   7  33
TORSDOF 7
