REMARK  8 active torsions:
REMARK  status: ('A' for Active; 'I' for Inactive)
REMARK    1  A    between atoms: O1_2  and  C2_3 
REMARK    2  A    between atoms: C2_3  and  C3_4 
REMARK    3  A    between atoms: C3_4  and  O2_5 
REMARK    4  A    between atoms: O2_5  and  C4_6 
REMARK    5  A    between atoms: C6_11  and  N2_12 
REMARK    6  A    between atoms: C10_22  and  S2_23 
REMARK    7  A    between atoms: S2_23  and  C11_24 
REMARK    8  A    between atoms: C12_27  and  N6_28 
ROOT
HETATM    1  C11 UNL     1       3.419  -2.021  -0.396  1.00  0.00     0.100 A 
HETATM    2  N5  UNL     1       4.126  -1.703  -1.451  1.00  0.00    -0.330 N 
ATOM      3  H5  UNL     1       3.669  -1.388  -2.307  1.00  0.00     0.168 HD
HETATM    4  C12 UNL     1       5.452  -1.798  -1.385  1.00  0.00     0.144 A 
HETATM    5  S3  UNL     1       5.725  -2.350   0.203  1.00  0.00    -0.041 SA
HETATM    6  C13 UNL     1       4.104  -2.435   0.718  1.00  0.00     0.122 A 
HETATM    7  C14 UNL     1       3.549  -2.840   2.006  1.00  0.00     0.110 C 
HETATM    8  N7  UNL     1       3.128  -3.168   3.030  1.00  0.00    -0.191 NA
ENDROOT
BRANCH   1   9
HETATM    9  S2  UNL     1       1.591  -1.924  -0.382  1.00  0.00    -0.093 SA
BRANCH   9  10
HETATM   10  C10 UNL     1       1.153  -0.296   0.181  1.00  0.00     0.173 C 
HETATM   11  C9  UNL     1       1.534   0.848  -0.730  1.00  0.00     0.241 C 
HETATM   12  N4  UNL     1       0.378   1.477  -0.192  1.00  0.00    -0.303 N 
HETATM   13  O3  UNL     1       2.440   1.111  -1.561  1.00  0.00    -0.272 OA
HETATM   14  C8  UNL     1      -0.228   2.681   0.239  1.00  0.00     0.088 A 
HETATM   15  C15 UNL     1      -0.236   0.191  -0.176  1.00  0.00     0.156 C 
HETATM   16  C5  UNL     1      -1.075   2.727   1.324  1.00  0.00     0.117 A 
HETATM   17  C7  UNL     1       0.025   3.849  -0.436  1.00  0.00     0.138 A 
HETATM   18  S1  UNL     1      -1.345   1.162   2.143  1.00  0.00    -0.075 SA
HETATM   19  N1  UNL     1      -1.629   3.844   1.707  1.00  0.00    -0.184 N 
HETATM   20  C4  UNL     1      -1.327  -0.061   0.774  1.00  0.00     0.214 C 
HETATM   21  C6  UNL     1      -1.395   4.996   1.061  1.00  0.00     0.676 A 
ATOM     22  H1  UNL     1      -2.253   3.841   2.514  1.00  0.00     0.185 HD
HETATM   23  N3  UNL     1      -0.572   4.977   0.001  1.00  0.00    -0.200 N 
ATOM     24  H3  UNL     1      -0.391   5.850  -0.494  1.00  0.00     0.183 HD
BRANCH  20  25
HETATM   25  O2  UNL     1      -1.306  -1.344   1.245  1.00  0.00    -0.371 OA
BRANCH  25  26
HETATM   26  C3  UNL     1      -2.414  -2.113   0.964  1.00  0.00     0.195 C 
BRANCH  26  27
HETATM   27  C2  UNL     1      -2.658  -2.305  -0.499  1.00  0.00     0.193 C 
BRANCH  27  28
HETATM   28  O1  UNL     1      -3.768  -3.078  -0.786  1.00  0.00    -0.394 OA
HETATM   29  C1  UNL     1      -4.963  -2.585  -0.321  1.00  0.00     0.201 C 
ENDBRANCH  27  28
ENDBRANCH  26  27
ENDBRANCH  25  26
ENDBRANCH  20  25
BRANCH  21  30
HETATM   30  N2  UNL     1      -1.955   6.117   1.452  1.00  0.00    -0.234 N 
ATOM     31  H22 UNL     1      -2.580   6.131   2.258  1.00  0.00     0.174 HD
ATOM     32  H21 UNL     1      -1.777   6.993   0.961  1.00  0.00     0.174 HD
ENDBRANCH  21  30
ENDBRANCH   9  10
ENDBRANCH   1   9
BRANCH   4  33
HETATM   33  N6  UNL     1       6.326  -1.527  -2.330  1.00  0.00    -0.380 N 
ATOM     34  H62 UNL     1       6.163  -1.196  -3.281  1.00  0.00     0.158 HD
ATOM     35  H61 UNL     1       7.342  -1.600  -2.279  1.00  0.00     0.158 HD
ENDBRANCH   4  33
TORSDOF 8
