REMARK  11 active torsions:
REMARK  status: ('A' for Active; 'I' for Inactive)
REMARK    1  A    between atoms: C2_3  and  S1_4 
REMARK    2  A    between atoms: S1_4  and  C3_5 
REMARK    3  A    between atoms: C3_5  and  C4_6 
REMARK    4  A    between atoms: C4_6  and  O1_7 
REMARK    5  A    between atoms: C4_6  and  C5_9 
REMARK    6  A    between atoms: C6_13  and  N3_14 
REMARK    7  A    between atoms: C10_25  and  C11_26 
REMARK    8  A    between atoms: C11_26  and  C12_27 
REMARK    9  A    between atoms: C12_27  and  C13_28 
REMARK   10  A    between atoms: C13_28  and  C14_29 
REMARK   11  A    between atoms: C14_29  and  O2_30 
ROOT
HETATM    1  N1  UNL     1      -3.797   4.592  -0.076  1.00  0.00    -0.197 NA
HETATM    2  C1  UNL     1      -4.283   3.554  -0.027  1.00  0.00     0.069 C 
HETATM    3  C2  UNL     1      -4.884   2.232   0.020  1.00  0.00     0.197 C 
ENDROOT
BRANCH   3   4
HETATM    4  S1  UNL     1      -4.052   1.153  -1.178  1.00  0.00    -0.152 SA
BRANCH   4   5
HETATM    5  C3  UNL     1      -4.776  -0.492  -1.132  1.00  0.00     0.108 C 
BRANCH   5   6
HETATM    6  C4  UNL     1      -4.497  -1.132   0.188  1.00  0.00     0.158 C 
BRANCH   6   7
HETATM    7  O1  UNL     1      -5.069  -2.431   0.251  1.00  0.00    -0.393 OA
ATOM      8  H1  UNL     1      -4.892  -2.838   1.091  1.00  0.00     0.210 HD
ENDBRANCH   6   7
BRANCH   6   9
HETATM    9  C5  UNL     1      -3.033  -1.307   0.442  1.00  0.00     0.224 C 
HETATM   10  N2  UNL     1      -2.370  -0.040   0.402  1.00  0.00    -0.044 N 
HETATM   11  C6  UNL     1      -0.972  -0.265   0.074  1.00  0.00     0.323 C 
ATOM     12  H22 UNL     1      -2.821   0.619  -0.233  1.00  0.00     0.280 HD
ATOM     13  H21 UNL     1      -2.490   0.493   1.263  1.00  0.00     0.280 HD
HETATM   14  C16 UNL     1      -0.852  -1.617  -0.527  1.00  0.00     0.178 C 
HETATM   15  O3  UNL     1      -0.141  -2.540   0.195  1.00  0.00    -0.382 OA
HETATM   16  C19 UNL     1      -2.298  -2.118  -0.573  1.00  0.00     0.054 C 
HETATM   17  C17 UNL     1      -0.634  -3.762  -0.306  1.00  0.00     0.168 C 
HETATM   18  C18 UNL     1      -2.125  -3.559  -0.134  1.00  0.00     0.035 C 
BRANCH  11  19
HETATM   19  N3  UNL     1      -0.136  -0.034   1.230  1.00  0.00    -0.296 N 
HETATM   20  C7  UNL     1      -0.475  -0.207   2.512  1.00  0.00     0.187 A 
HETATM   21  N4  UNL     1       0.557   0.110   3.306  1.00  0.00    -0.346 N 
HETATM   22  C8  UNL     1       1.566   0.489   2.516  1.00  0.00     0.122 A 
ATOM     23  H4  UNL     1       0.570   0.069   4.325  1.00  0.00     0.167 HD
HETATM   24  C9  UNL     1       2.859   0.917   2.818  1.00  0.00     0.132 A 
HETATM   25  C15 UNL     1       1.151   0.406   1.202  1.00  0.00     0.143 A 
HETATM   26  N5  UNL     1       3.239   0.993   4.039  1.00  0.00    -0.383 N 
HETATM   27  N6  UNL     1       3.635   1.228   1.766  1.00  0.00    -0.320 N 
ATOM     28  H52 UNL     1       2.650   0.757   4.838  1.00  0.00     0.157 HD
ATOM     29  H51 UNL     1       4.184   1.306   4.260  1.00  0.00     0.157 HD
HETATM   30  C10 UNL     1       3.227   1.146   0.479  1.00  0.00     0.164 A 
ATOM     31  H6  UNL     1       4.587   1.544   1.949  1.00  0.00     0.169 HD
HETATM   32  N7  UNL     1       1.976   0.732   0.189  1.00  0.00    -0.319 N 
ATOM     33  H7  UNL     1       1.661   0.667  -0.779  1.00  0.00     0.169 HD
BRANCH  30  34
HETATM   34  C11 UNL     1       4.139   1.505  -0.600  1.00  0.00    -0.030 C 
BRANCH  34  35
HETATM   35  C12 UNL     1       4.907   1.809  -1.478  1.00  0.00    -0.096 C 
BRANCH  35  36
HETATM   36  C13 UNL     1       5.846   2.192  -2.532  1.00  0.00     0.120 C 
BRANCH  36  37
HETATM   37  C14 UNL     1       7.280   2.228  -1.989  1.00  0.00     0.176 C 
BRANCH  37  38
HETATM   38  O2  UNL     1       8.171   2.588  -2.971  1.00  0.00    -0.400 OA
ATOM     39  H2  UNL     1       9.059   2.610  -2.635  1.00  0.00     0.209 HD
ENDBRANCH  37  38
ENDBRANCH  36  37
ENDBRANCH  35  36
ENDBRANCH  34  35
ENDBRANCH  30  34
ENDBRANCH  11  19
ENDBRANCH   6   9
ENDBRANCH   5   6
ENDBRANCH   4   5
ENDBRANCH   3   4
TORSDOF 11
