REMARK  9 active torsions:
REMARK  status: ('A' for Active; 'I' for Inactive)
REMARK    1  A    between atoms: C2_2  and  O1_3 
REMARK    2  A    between atoms: O1_3  and  C3_4 
REMARK    3  A    between atoms: C3_4  and  C4_6 
REMARK    4  A    between atoms: C5_7  and  C6_8 
REMARK    5  A    between atoms: C6_8  and  N1_9 
REMARK    6  A    between atoms: C7_10  and  N2_11 
REMARK    7  A    between atoms: C10_19  and  N4_20 
REMARK    8  A    between atoms: C13_25  and  N6_26 
REMARK    9  A    between atoms: C17_37  and  C18_38 
ROOT
HETATM    1  C4  UNL     1      -2.547  -0.794  -0.204  1.00  0.00     0.077 A 
HETATM    2  C5  UNL     1      -1.548  -0.931  -1.105  1.00  0.00     0.067 A 
HETATM    3  N8  UNL     1      -1.385  -2.286  -1.295  1.00  0.00    -0.345 N 
ATOM      4  H8  UNL     1      -0.700  -2.703  -1.925  1.00  0.00     0.167 HD
HETATM    5  C15 UNL     1      -2.244  -2.982  -0.544  1.00  0.00     0.122 A 
HETATM    6  C16 UNL     1      -2.360  -4.434  -0.484  1.00  0.00     0.118 C 
HETATM    7  N9  UNL     1      -2.463  -5.585  -0.425  1.00  0.00    -0.190 NA
HETATM    8  C17 UNL     1      -2.991  -2.079   0.156  1.00  0.00     0.011 A 
ENDROOT
BRANCH   8   9
HETATM    9  C18 UNL     1      -4.085  -2.400   1.130  1.00  0.00     0.166 C 
HETATM   10  C19 UNL     1      -5.404  -2.172   0.565  1.00  0.00     0.063 C 
HETATM   11  N10 UNL     1      -6.454  -1.982   0.132  1.00  0.00    -0.197 NA
ENDBRANCH   8   9
BRANCH   2  12
HETATM   12  C6  UNL     1      -0.709   0.038  -1.830  1.00  0.00     0.147 C 
BRANCH  12  13
HETATM   13  N1  UNL     1       0.354   0.683  -1.176  1.00  0.00    -0.139 N 
HETATM   14  C7  UNL     1       0.309   1.905  -0.660  1.00  0.00     0.686 A 
HETATM   15  N3  UNL     1       1.364   2.458   0.007  1.00  0.00    -0.155 N 
HETATM   16  C8  UNL     1       2.505   1.816   0.183  1.00  0.00     0.277 A 
ATOM     17  H3  UNL     1       1.268   3.401   0.383  1.00  0.00     0.187 HD
HETATM   18  O3  UNL     1       3.434   2.390   0.808  1.00  0.00    -0.266 OA
HETATM   19  C9  UNL     1       2.623   0.557  -0.324  1.00  0.00     0.122 A 
HETATM   20  C10 UNL     1       3.782  -0.169  -0.190  1.00  0.00     0.138 A 
HETATM   21  C14 UNL     1       1.546   0.030  -0.987  1.00  0.00     0.163 A 
HETATM   22  N5  UNL     1       3.839  -1.424  -0.729  1.00  0.00    -0.176 N 
HETATM   23  C13 UNL     1       2.783  -1.936  -1.378  1.00  0.00     0.679 A 
ATOM     24  H5  UNL     1       4.692  -1.976  -0.637  1.00  0.00     0.186 HD
HETATM   25  N7  UNL     1       1.670  -1.188  -1.484  1.00  0.00    -0.175 N 
ATOM     26  H7  UNL     1       0.872  -1.586  -1.979  1.00  0.00     0.186 HD
BRANCH  14  27
HETATM   27  N2  UNL     1      -0.682   2.681  -0.789  1.00  0.00    -0.234 N 
ATOM     28  H22 UNL     1      -1.470   2.268  -1.287  1.00  0.00     0.174 HD
ATOM     29  H21 UNL     1      -0.717   3.620  -0.392  1.00  0.00     0.174 HD
ENDBRANCH  14  27
BRANCH  20  30
HETATM   30  N4  UNL     1       4.919   0.345   0.492  1.00  0.00    -0.375 N 
HETATM   31  C11 UNL     1       5.987   1.092  -0.144  1.00  0.00     0.150 C 
HETATM   32  C12 UNL     1       5.058   0.097   1.928  1.00  0.00     0.150 C 
ENDBRANCH  20  30
BRANCH  23  33
HETATM   33  N6  UNL     1       2.849  -3.135  -1.889  1.00  0.00    -0.234 N 
ATOM     34  H62 UNL     1       3.693  -3.702  -1.809  1.00  0.00     0.174 HD
ATOM     35  H61 UNL     1       2.046  -3.524  -2.383  1.00  0.00     0.174 HD
ENDBRANCH  23  33
ENDBRANCH  12  13
ENDBRANCH   2  12
BRANCH   1  36
HETATM   36  C3  UNL     1      -3.207   0.386   0.381  1.00  0.00     0.296 C 
HETATM   37  O2  UNL     1      -2.711   0.852   1.436  1.00  0.00    -0.259 OA
BRANCH  36  38
HETATM   38  O1  UNL     1      -4.310   0.967  -0.167  1.00  0.00    -0.318 OA
BRANCH  38  39
HETATM   39  C2  UNL     1      -4.929   2.071   0.418  1.00  0.00     0.174 C 
HETATM   40  C1  UNL     1      -4.095   3.295   0.570  1.00  0.00     0.034 C 
ENDBRANCH  38  39
ENDBRANCH  36  38
ENDBRANCH   1  36
TORSDOF 9
