REMARK  10 active torsions:
REMARK  status: ('A' for Active; 'I' for Inactive)
REMARK    1  A    between atoms: C2_2  and  C3_3 
REMARK    2  A    between atoms: C3_3  and  C4_4 
REMARK    3  A    between atoms: C4_4  and  C5_5 
REMARK    4  A    between atoms: C5_5  and  O1_6 
REMARK    5  A    between atoms: C5_5  and  C6_8 
REMARK    6  A    between atoms: C6_8  and  O2_9 
REMARK    7  A    between atoms: O2_9  and  O3_10 
REMARK    8  A    between atoms: C15_24  and  N2_25 
REMARK    9  A    between atoms: C16_29  and  C17_30 
REMARK   10  A    between atoms: C18_34  and  O7_35 
ROOT
HETATM    1  C6  UNL     1       1.032   0.271  -0.210  1.00  0.00     0.205 C 
HETATM    2  C7  UNL     1       0.731  -1.114   0.413  1.00  0.00     0.053 C 
HETATM    3  C8  UNL     1      -0.309  -1.137   1.464  1.00  0.00     0.010 C 
HETATM    4  C9  UNL     1      -1.502  -1.973   1.205  1.00  0.00     0.015 C 
HETATM    5  C10 UNL     1      -2.166  -2.242   2.555  1.00  0.00     0.012 C 
HETATM    6  C11 UNL     1      -2.482  -1.780   0.168  1.00  0.00     0.231 C 
HETATM    7  N1  UNL     1      -1.896  -2.238  -1.117  1.00  0.00    -0.017 N 
ATOM      8  H11 UNL     1      -2.439  -2.947  -1.610  1.00  0.00     0.283 HD
ATOM      9  H12 UNL     1      -1.053  -2.805  -1.028  1.00  0.00     0.283 HD
HETATM   10  C12 UNL     1      -1.720  -0.978  -1.844  1.00  0.00     0.475 C 
HETATM   11  O4  UNL     1      -2.836  -0.303  -1.537  1.00  0.00    -0.324 OA
HETATM   12  C13 UNL     1      -3.239  -0.657  -0.213  1.00  0.00     0.122 C 
HETATM   13  C14 UNL     1      -4.711  -1.071  -0.499  1.00  0.00     0.051 C 
HETATM   14  C15 UNL     1      -3.316   0.627   0.480  1.00  0.00     0.257 C 
HETATM   15  C16 UNL     1      -2.189   1.560  -0.037  1.00  0.00     0.250 C 
HETATM   16  O6  UNL     1      -1.064   0.897   0.140  1.00  0.00    -0.313 OA
HETATM   17  C18 UNL     1      -0.235   0.639  -0.946  1.00  0.00     0.325 C 
HETATM   18  O8  UNL     1      -0.522  -0.466  -1.674  1.00  0.00    -0.275 OA
ENDROOT
BRANCH   1  19
HETATM   19  C5  UNL     1       2.258   0.153  -1.032  1.00  0.00     0.164 C 
BRANCH  19  20
HETATM   20  C4  UNL     1       3.431  -0.361  -0.215  1.00  0.00     0.035 C 
BRANCH  20  21
HETATM   21  C3  UNL     1       4.735  -0.175  -1.020  1.00  0.00     0.002 C 
BRANCH  21  22
HETATM   22  C2  UNL     1       5.838  -0.721  -0.111  1.00  0.00    -0.004 C 
HETATM   23  C1  UNL     1       5.852   0.075   1.184  1.00  0.00     0.005 C 
ENDBRANCH  21  22
ENDBRANCH  20  21
ENDBRANCH  19  20
BRANCH  19  24
HETATM   24  O1  UNL     1       2.187  -0.590  -2.176  1.00  0.00    -0.392 OA
ATOM     25  H1  UNL     1       1.453  -0.269  -2.687  1.00  0.00     0.210 HD
ENDBRANCH  19  24
ENDBRANCH   1  19
BRANCH   1  26
HETATM   26  O2  UNL     1       1.290   1.078   0.900  1.00  0.00    -0.221 OA
BRANCH  26  27
HETATM   27  O3  UNL     1       1.685   2.268   0.587  1.00  0.00    -0.249 OA
ATOM     28  H3  UNL     1       1.861   2.817   1.342  1.00  0.00     0.253 HD
ENDBRANCH  26  27
ENDBRANCH   1  26
BRANCH  17  29
HETATM   29  O7  UNL     1      -0.279   1.730  -1.722  1.00  0.00    -0.335 OA
HETATM   30  C19 UNL     1       0.325   1.940  -2.875  1.00  0.00     0.208 C 
ENDBRANCH  17  29
BRANCH  15  31
HETATM   31  C17 UNL     1      -2.384   2.851   0.643  1.00  0.00     0.262 C 
HETATM   32  N3  UNL     1      -1.472   3.470   1.518  1.00  0.00    -0.060 NA
HETATM   33  O5  UNL     1      -3.472   3.460   0.419  1.00  0.00    -0.274 OA
ENDBRANCH  15  31
BRANCH  14  34
HETATM   34  N2  UNL     1      -3.429   0.654   1.885  1.00  0.00    -0.069 N 
ATOM     35  H23 UNL     1      -4.233   0.089   2.157  1.00  0.00     0.275 HD
ATOM     36  H22 UNL     1      -2.660   0.115   2.283  1.00  0.00     0.275 HD
ATOM     37  H21 UNL     1      -3.483   1.550   2.369  1.00  0.00     0.275 HD
ENDBRANCH  14  34
TORSDOF 10
