REMARK  8 active torsions:
REMARK  status: ('A' for Active; 'I' for Inactive)
REMARK    1  A    between atoms: C2_2  and  C3_3 
REMARK    2  A    between atoms: C3_3  and  N1_4 
REMARK    3  A    between atoms: N1_4  and  C4_6 
REMARK    4  A    between atoms: C5_9  and  S1_10 
REMARK    5  A    between atoms: S1_10  and  C6_11 
REMARK    6  A    between atoms: C6_11  and  C7_12 
REMARK    7  A    between atoms: C11_28  and  N9_29 
REMARK    8  A    between atoms: N9_29  and  C12_31 
ROOT
HETATM    1  C7  UNL     1       5.164   0.328  -0.117  1.00  0.00     0.109 A 
HETATM    2  N3  UNL     1       5.869  -0.119   0.941  1.00  0.00    -0.322 N 
ATOM      3  H3  UNL     1       5.392  -0.653   1.668  1.00  0.00     0.169 HD
HETATM    4  C8  UNL     1       7.202   0.125   1.063  1.00  0.00     0.204 A 
HETATM    5  C9  UNL     1       7.931  -0.363   2.202  1.00  0.00     0.137 C 
HETATM    6  N4  UNL     1       8.529  -0.767   3.122  1.00  0.00    -0.188 NA
HETATM    7  N5  UNL     1       7.839   0.833   0.102  1.00  0.00    -0.167 N 
ATOM      8  H5  UNL     1       8.838   1.022   0.184  1.00  0.00     0.186 HD
HETATM    9  C10 UNL     1       7.161   1.282  -0.950  1.00  0.00     0.679 A 
HETATM   10  N6  UNL     1       7.802   1.965  -1.865  1.00  0.00    -0.234 N 
ATOM     11  H61 UNL     1       7.282   2.309  -2.672  1.00  0.00     0.174 HD
ATOM     12  H62 UNL     1       8.801   2.153  -1.784  1.00  0.00     0.174 HD
HETATM   13  N7  UNL     1       5.848   1.035  -1.057  1.00  0.00    -0.180 N 
ATOM     14  H7  UNL     1       5.345   1.389  -1.870  1.00  0.00     0.185 HD
ENDROOT
BRANCH   1  15
HETATM   15  C6  UNL     1       3.723   0.046  -0.218  1.00  0.00     0.159 C 
BRANCH  15  16
HETATM   16  S1  UNL     1       2.730   1.359   0.571  1.00  0.00    -0.085 SA
BRANCH  16  17
HETATM   17  C5  UNL     1       1.003   0.907   0.383  1.00  0.00     0.174 A 
HETATM   18  N2  UNL     1       0.623  -0.221  -0.244  1.00  0.00    -0.169 N 
HETATM   19  C4  UNL     1      -0.688  -0.532  -0.368  1.00  0.00     0.694 A 
ATOM     20  H2  UNL     1       1.330  -0.848  -0.629  1.00  0.00     0.186 HD
HETATM   21  N10 UNL     1      -1.587   0.335   0.163  1.00  0.00    -0.022 N 
HETATM   22  C11 UNL     1      -1.235   1.464   0.792  1.00  0.00     0.699 A 
ATOM     23  H10 UNL     1      -2.580   0.116   0.079  1.00  0.00     0.203 HD
HETATM   24  N8  UNL     1       0.073   1.750   0.902  1.00  0.00    -0.169 N 
ATOM     25  H8  UNL     1       0.369   2.603   1.377  1.00  0.00     0.186 HD
BRANCH  19  26
HETATM   26  N1  UNL     1      -1.063  -1.611  -0.968  1.00  0.00    -0.226 N 
ATOM     27  H1  UNL     1      -2.054  -1.835  -1.056  1.00  0.00     0.177 HD
BRANCH  26  28
HETATM   28  C3  UNL     1      -0.074  -2.487  -1.507  1.00  0.00     0.137 C 
BRANCH  28  29
HETATM   29  C2  UNL     1      -0.650  -3.782  -2.028  1.00  0.00     0.016 C 
HETATM   30  C1  UNL     1      -1.357  -4.573  -0.980  1.00  0.00     0.006 C 
ENDBRANCH  28  29
ENDBRANCH  26  28
ENDBRANCH  19  26
BRANCH  22  31
HETATM   31  N9  UNL     1      -2.106   2.291   1.298  1.00  0.00    -0.191 N 
ATOM     32  H9  UNL     1      -1.788   3.139   1.767  1.00  0.00     0.184 HD
BRANCH  31  33
HETATM   33  C12 UNL     1      -3.513   2.013   1.198  1.00  0.00     0.052 A 
HETATM   34  C13 UNL     1      -4.076   1.119   2.072  1.00  0.00     0.033 A 
HETATM   35  C14 UNL     1      -5.415   0.812   2.027  1.00  0.00     0.042 A 
HETATM   36  C15 UNL     1      -6.223   1.413   1.082  1.00  0.00     0.105 A 
HETATM   37  C16 UNL     1      -5.645   2.319   0.198  1.00  0.00     0.107 A 
HETATM   38  O2  UNL     1      -7.582   1.322   0.778  1.00  0.00    -0.323 OA
HETATM   39  C17 UNL     1      -4.304   2.616   0.256  1.00  0.00     0.069 A 
HETATM   40  O1  UNL     1      -6.681   2.754  -0.623  1.00  0.00    -0.323 OA
HETATM   41  C18 UNL     1      -7.890   2.491   0.027  1.00  0.00     0.352 C 
ENDBRANCH  31  33
ENDBRANCH  22  31
ENDBRANCH  16  17
ENDBRANCH  15  16
ENDBRANCH   1  15
TORSDOF 8
