REMARK  8 active torsions:
REMARK  status: ('A' for Active; 'I' for Inactive)
REMARK    1  A    between atoms: C9_10  and  C10_11 
REMARK    2  A    between atoms: C10_11  and  O3_13 
REMARK    3  A    between atoms: O3_13  and  C11_14 
REMARK    4  A    between atoms: C11_14  and  C12_15 
REMARK    5  A    between atoms: C12_15  and  C13_16 
REMARK    6  A    between atoms: C13_16  and  C14_17 
REMARK    7  A    between atoms: C14_17  and  C15_18 
REMARK    8  A    between atoms: C16_22  and  C17_23 
ROOT
HETATM    1  O1  UNL     1      -1.274  -2.564  -2.704  1.00  0.00    -0.297 OA
HETATM    2  C1  UNL     1      -1.490  -1.735  -1.848  1.00  0.00     0.139 C 
HETATM    3  C2  UNL     1      -1.839  -0.320  -2.135  1.00  0.00     0.089 C 
HETATM    4  C3  UNL     1      -1.676   0.438  -0.860  1.00  0.00    -0.020 C 
HETATM    5  C4  UNL     1      -0.606   1.499  -1.101  1.00  0.00     0.011 C 
HETATM    6  C5  UNL     1      -1.235   2.731  -1.731  1.00  0.00     0.001 C 
HETATM    7  C6  UNL     1      -2.110   3.480  -0.763  1.00  0.00     0.000 C 
HETATM    8  C7  UNL     1      -2.699   2.477   0.203  1.00  0.00     0.001 C 
HETATM    9  C8  UNL     1      -2.967   1.153  -0.505  1.00  0.00     0.011 C 
HETATM   10  C9  UNL     1      -1.290  -0.565   0.187  1.00  0.00     0.112 C 
HETATM   11  C16 UNL     1      -1.453  -1.950  -0.398  1.00  0.00     0.127 C 
ENDROOT
BRANCH  10  12
HETATM   12  C10 UNL     1       0.143  -0.381   0.523  1.00  0.00     0.265 C 
HETATM   13  O2  UNL     1       0.478  -0.062   1.687  1.00  0.00    -0.265 OA
BRANCH  12  14
HETATM   14  O3  UNL     1       1.125  -0.549  -0.402  1.00  0.00    -0.321 OA
BRANCH  14  15
HETATM   15  C11 UNL     1       2.506  -0.412  -0.212  1.00  0.00     0.178 C 
BRANCH  15  16
HETATM   16  C12 UNL     1       2.979   0.917   0.242  1.00  0.00     0.027 C 
BRANCH  16  17
HETATM   17  C13 UNL     1       4.478   0.889   0.389  1.00  0.00     0.011 C 
BRANCH  17  18
HETATM   18  C14 UNL     1       4.969  -0.129   1.389  1.00  0.00     0.117 C 
BRANCH  18  19
HETATM   19  C15 UNL     1       6.500   0.010   1.392  1.00  0.00     0.387 C 
HETATM   20  F1  UNL     1       7.045  -0.882   2.278  1.00  0.00    -0.171 F 
HETATM   21  F2  UNL     1       6.940  -0.243   0.105  1.00  0.00    -0.171 F 
HETATM   22  F3  UNL     1       6.804   1.297   1.764  1.00  0.00    -0.171 F 
ENDBRANCH  18  19
ENDBRANCH  17  18
ENDBRANCH  16  17
ENDBRANCH  15  16
ENDBRANCH  14  15
ENDBRANCH  12  14
ENDBRANCH  10  12
BRANCH  11  23
HETATM   23  C17 UNL     1      -2.624  -2.655   0.125  1.00  0.00     0.064 A 
HETATM   24  C18 UNL     1      -2.606  -3.792   0.887  1.00  0.00     0.035 A 
HETATM   25  C19 UNL     1      -3.918  -4.107   1.153  1.00  0.00     0.027 A 
HETATM   26  C20 UNL     1      -4.672  -3.127   0.527  1.00  0.00     0.142 A 
HETATM   27  O4  UNL     1      -3.866  -2.283  -0.073  1.00  0.00    -0.326 OA
ENDBRANCH  11  23
TORSDOF 8
