REMARK  9 active torsions:
REMARK  status: ('A' for Active; 'I' for Inactive)
REMARK    1  A    between atoms: O1_2  and  C2_3 
REMARK    2  A    between atoms: C6_7  and  C7_8 
REMARK    3  A    between atoms: C7_8  and  C8_9 
REMARK    4  A    between atoms: C7_8  and  C11_16 
REMARK    5  A    between atoms: C8_9  and  C9_10 
REMARK    6  A    between atoms: C9_10  and  C10_12 
REMARK    7  A    between atoms: C11_16  and  C12_17 
REMARK    8  A    between atoms: C12_17  and  C13_18 
REMARK    9  A    between atoms: C19_24  and  O3_25 
ROOT
HETATM    1  C7  UNL     1       0.572   0.725  -0.539  1.00  0.00     0.005 C 
ENDROOT
BRANCH   1   2
HETATM    2  C6  UNL     1       0.289   0.080  -1.905  1.00  0.00     0.018 A 
HETATM    3  C4  UNL     1       0.358  -1.255  -2.035  1.00  0.00    -0.045 A 
HETATM    4  C3  UNL     1      -0.029  -1.882  -3.240  1.00  0.00     0.044 A 
HETATM    5  C5  UNL     1       0.896  -2.177  -1.024  1.00  0.00     0.049 C 
HETATM    6  C2  UNL     1      -0.477  -1.115  -4.286  1.00  0.00     0.071 A 
HETATM    7  C21 UNL     1      -0.551   0.242  -4.164  1.00  0.00     0.074 A 
HETATM    8  C19 UNL     1      -0.159   0.862  -2.938  1.00  0.00     0.082 A 
BRANCH   6   9
HETATM    9  O1  UNL     1      -0.856  -1.742  -5.485  1.00  0.00    -0.356 OA
HETATM   10  C1  UNL     1      -0.764  -3.137  -5.599  1.00  0.00     0.210 C 
ENDBRANCH   6   9
BRANCH   8  11
HETATM   11  O3  UNL     1      -0.288   2.219  -2.926  1.00  0.00    -0.355 OA
HETATM   12  C20 UNL     1      -0.749   2.951  -4.013  1.00  0.00     0.210 C 
ENDBRANCH   8  11
ENDBRANCH   1   2
BRANCH   1  13
HETATM   13  C8  UNL     1       1.385   1.609  -0.577  1.00  0.00    -0.061 C 
BRANCH  13  14
HETATM   14  C9  UNL     1       2.360   2.615  -0.840  1.00  0.00     0.301 C 
HETATM   15  O2  UNL     1       2.753   2.731  -2.063  1.00  0.00    -0.274 OA
BRANCH  14  16
HETATM   16  C10 UNL     1       3.026   3.580   0.075  1.00  0.00     0.463 C 
HETATM   17  F1  UNL     1       3.678   2.965   1.127  1.00  0.00    -0.163 F 
HETATM   18  F2  UNL     1       1.994   4.391   0.572  1.00  0.00    -0.163 F 
HETATM   19  F3  UNL     1       3.912   4.406  -0.561  1.00  0.00    -0.163 F 
ENDBRANCH  14  16
ENDBRANCH  13  14
ENDBRANCH   1  13
BRANCH   1  20
HETATM   20  C11 UNL     1      -0.251   0.203   0.563  1.00  0.00     0.049 C 
BRANCH  20  21
HETATM   21  C12 UNL     1       0.052   0.776   1.896  1.00  0.00     0.010 C 
BRANCH  21  22
HETATM   22  C13 UNL     1      -0.882   0.115   2.942  1.00  0.00    -0.014 C 
HETATM   23  C14 UNL     1      -0.562   0.727   4.255  1.00  0.00     0.004 C 
HETATM   24  C15 UNL     1      -0.936  -0.038   5.472  1.00  0.00     0.000 C 
HETATM   25  C16 UNL     1      -1.610  -1.370   5.189  1.00  0.00     0.000 C 
HETATM   26  C17 UNL     1      -0.697  -2.067   4.199  1.00  0.00     0.000 C 
HETATM   27  C18 UNL     1      -0.685  -1.381   2.877  1.00  0.00     0.004 C 
ENDBRANCH  21  22
ENDBRANCH  20  21
ENDBRANCH   1  20
TORSDOF 9
