REMARK  8 active torsions:
REMARK  status: ('A' for Active; 'I' for Inactive)
REMARK    1  A    between atoms: C4_4  and  S1_6 
REMARK    2  A    between atoms: S1_6  and  C5_7 
REMARK    3  A    between atoms: C5_7  and  C6_9 
REMARK    4  A    between atoms: C5_7  and  C7_11 
REMARK    5  A    between atoms: C7_11  and  O2_13 
REMARK    6  A    between atoms: O2_13  and  C8_14 
REMARK    7  A    between atoms: C8_14  and  C9_15 
REMARK    8  A    between atoms: C9_15  and  C10_16 
ROOT
HETATM    1  C7  UNL     1      -1.209   1.359   1.072  1.00  0.00     0.294 C 
HETATM    2  O1  UNL     1      -0.740   1.001   2.157  1.00  0.00    -0.262 OA
ENDROOT
BRANCH   1   3
HETATM    3  C5  UNL     1      -2.487   2.139   0.952  1.00  0.00     0.190 C 
HETATM    4 CL2  UNL     1      -3.116   2.484   2.573  1.00  0.00    -0.094 Cl
BRANCH   3   5
HETATM    5  S1  UNL     1      -3.713   1.263  -0.039  1.00  0.00    -0.080 SA
BRANCH   5   6
HETATM    6  C4  UNL     1      -4.058  -0.360   0.589  1.00  0.00     0.074 C 
HETATM    7  C2  UNL     1      -4.926  -1.124  -0.031  1.00  0.00    -0.059 C 
HETATM    8  C1  UNL     1      -5.640  -0.654  -1.269  1.00  0.00     0.045 C 
HETATM    9  C3  UNL     1      -5.228  -2.478   0.475  1.00  0.00     0.045 C 
HETATM   10 CL1  UNL     1      -3.242  -0.913   2.015  1.00  0.00    -0.076 Cl
ENDBRANCH   5   6
ENDBRANCH   3   5
BRANCH   3  11
HETATM   11  C6  UNL     1      -2.184   3.452   0.217  1.00  0.00     0.162 C 
HETATM   12 CL3  UNL     1      -1.550   3.050  -1.397  1.00  0.00    -0.127 Cl
ENDBRANCH   3  11
ENDBRANCH   1   3
BRANCH   1  13
HETATM   13  O2  UNL     1      -0.566   1.052  -0.085  1.00  0.00    -0.319 OA
BRANCH  13  14
HETATM   14  C8  UNL     1       0.635   0.345  -0.249  1.00  0.00     0.179 C 
BRANCH  14  15
HETATM   15  C9  UNL     1       1.750   1.072   0.404  1.00  0.00     0.031 C 
BRANCH  15  16
HETATM   16  C10 UNL     1       3.085   0.400   0.276  1.00  0.00    -0.013 C 
HETATM   17  C11 UNL     1       3.489   0.239  -1.166  1.00  0.00     0.005 C 
HETATM   18  C12 UNL     1       4.841  -0.431  -1.269  1.00  0.00     0.000 C 
HETATM   19  C13 UNL     1       4.752  -1.765  -0.561  1.00  0.00     0.000 C 
HETATM   20  C14 UNL     1       4.546  -1.479   0.912  1.00  0.00     0.000 C 
HETATM   21  C15 UNL     1       3.149  -0.879   1.050  1.00  0.00     0.005 C 
ENDBRANCH  15  16
ENDBRANCH  14  15
ENDBRANCH  13  14
ENDBRANCH   1  13
TORSDOF 8
