REMARK  8 active torsions:
REMARK  status: ('A' for Active; 'I' for Inactive)
REMARK    1  A    between atoms: C4_4  and  C5_5 
REMARK    2  A    between atoms: C9_12  and  O1_13 
REMARK    3  A    between atoms: O1_13  and  C10_14 
REMARK    4  A    between atoms: C10_14  and  C11_15 
REMARK    5  A    between atoms: C11_15  and  O3_17 
REMARK    6  A    between atoms: O3_17  and  C12_18 
REMARK    7  A    between atoms: C12_18  and  C13_19 
REMARK    8  A    between atoms: C13_19  and  C14_20 
ROOT
HETATM    1  C10 UNL     1      -2.203  -0.860  -0.129  1.00  0.00     0.286 C 
ENDROOT
BRANCH   1   2
HETATM    2  O1  UNL     1      -3.222  -0.701  -1.108  1.00  0.00    -0.340 OA
BRANCH   2   3
HETATM    3  C9  UNL     1      -4.471  -0.431  -0.488  1.00  0.00     0.081 A 
HETATM    4  C2  UNL     1      -5.268  -1.389   0.004  1.00  0.00    -0.027 A 
HETATM    5  C1  UNL     1      -4.974  -2.832  -0.029  1.00  0.00     0.051 C 
HETATM    6  C3  UNL     1      -6.486  -1.023   0.628  1.00  0.00     0.025 A 
HETATM    7  C4  UNL     1      -6.833   0.272   0.722  1.00  0.00     0.049 A 
HETATM    8  C6  UNL     1      -5.990   1.208   0.200  1.00  0.00     0.025 A 
HETATM    9  C7  UNL     1      -4.815   0.935  -0.413  1.00  0.00    -0.027 A 
HETATM   10  C8  UNL     1      -3.882   1.906  -1.035  1.00  0.00     0.051 C 
BRANCH   7  11
HETATM   11  C5  UNL     1      -8.079   0.740   1.401  1.00  0.00     0.417 C 
HETATM   12  F1  UNL     1      -8.696   1.733   0.706  1.00  0.00    -0.166 F 
HETATM   13  F2  UNL     1      -7.654   1.266   2.629  1.00  0.00    -0.166 F 
HETATM   14  F3  UNL     1      -8.916  -0.308   1.675  1.00  0.00    -0.166 F 
ENDBRANCH   7  11
ENDBRANCH   2   3
ENDBRANCH   1   2
BRANCH   1  15
HETATM   15  C11 UNL     1      -0.861  -0.783  -0.677  1.00  0.00     0.283 C 
HETATM   16  O2  UNL     1      -0.536  -0.331  -1.795  1.00  0.00    -0.263 OA
BRANCH  15  17
HETATM   17  O3  UNL     1       0.145  -1.249   0.143  1.00  0.00    -0.320 OA
BRANCH  17  18
HETATM   18  C12 UNL     1       1.542  -1.132  -0.167  1.00  0.00     0.179 C 
BRANCH  18  19
HETATM   19  C13 UNL     1       1.783   0.342   0.086  1.00  0.00     0.031 C 
BRANCH  19  20
HETATM   20  C14 UNL     1       3.200   0.813  -0.067  1.00  0.00    -0.013 C 
HETATM   21  C15 UNL     1       3.653   0.628  -1.458  1.00  0.00     0.005 C 
HETATM   22  C16 UNL     1       5.087   0.956  -1.715  1.00  0.00     0.000 C 
HETATM   23  C17 UNL     1       5.834   1.625  -0.623  1.00  0.00     0.000 C 
HETATM   24  C18 UNL     1       6.662   0.734   0.237  1.00  0.00     0.000 C 
HETATM   25  C19 UNL     1       6.305  -0.714   0.169  1.00  0.00     0.000 C 
HETATM   26  C20 UNL     1       4.858  -1.021   0.351  1.00  0.00     0.000 C 
HETATM   27  C21 UNL     1       4.054   0.072   0.954  1.00  0.00     0.005 C 
ENDBRANCH  19  20
ENDBRANCH  18  19
ENDBRANCH  17  18
ENDBRANCH  15  17
ENDBRANCH   1  15
TORSDOF 8
