REMARK  9 active torsions:
REMARK  status: ('A' for Active; 'I' for Inactive)
REMARK    1  A    between atoms: C2_2  and  C3_3 
REMARK    2  A    between atoms: C3_3  and  C4_4 
REMARK    3  A    between atoms: C3_3  and  N1_6 
REMARK    4  A    between atoms: N2_10  and  C8_11 
REMARK    5  A    between atoms: C11_14  and  C12_15 
REMARK    6  A    between atoms: C11_14  and  C19_22 
REMARK    7  A    between atoms: C13_16  and  C14_17 
REMARK    8  A    between atoms: C15_18  and  C16_19 
REMARK    9  A    between atoms: C19_22  and  N3_23 
ROOT
HETATM    1  N1  UNL     1      -1.331  -0.428  -0.347  1.00  0.00    -0.358 N 
HETATM    2  C6  UNL     1      -1.726  -1.126   0.797  1.00  0.00     0.162 C 
HETATM    3  C7  UNL     1      -0.957  -0.770   2.026  1.00  0.00     0.258 C 
HETATM    4  O1  UNL     1      -0.589  -1.648   2.829  1.00  0.00    -0.267 OA
HETATM    5  N2  UNL     1      -0.661   0.619   2.240  1.00  0.00    -0.344 N 
HETATM    6  C10 UNL     1      -0.768   1.422   1.031  1.00  0.00     0.172 C 
HETATM    7  C11 UNL     1      -0.354   0.544  -0.178  1.00  0.00     0.129 C 
ENDROOT
BRANCH   7   8
HETATM    8  C12 UNL     1       0.956  -0.004   0.247  1.00  0.00    -0.057 C 
HETATM    9  C13 UNL     1       2.039  -0.451   0.575  1.00  0.00    -0.012 C 
BRANCH   9  10
HETATM   10  C14 UNL     1       3.306  -0.966   0.933  1.00  0.00    -0.015 C 
HETATM   11  C15 UNL     1       4.398  -1.405   1.218  1.00  0.00    -0.088 C 
BRANCH  11  12
HETATM   12  C16 UNL     1       5.742  -1.933   1.543  1.00  0.00     0.066 A 
HETATM   13  C17 UNL     1       6.253  -3.009   0.670  1.00  0.00     0.018 A 
HETATM   14  C18 UNL     1       6.844  -1.628   0.547  1.00  0.00     0.018 A 
ENDBRANCH  11  12
ENDBRANCH   9  10
ENDBRANCH   7   8
BRANCH   7  15
HETATM   15  C19 UNL     1      -0.101   1.525  -1.270  1.00  0.00     0.168 C 
BRANCH  15  16
HETATM   16  N3  UNL     1      -1.246   2.341  -1.618  1.00  0.00    -0.364 N 
HETATM   17  C20 UNL     1      -1.124   3.542  -2.068  1.00  0.00     0.197 C 
HETATM   18  N4  UNL     1       0.191   4.056  -2.216  1.00  0.00    -0.067 NA
HETATM   19  N5  UNL     1      -2.217   4.360  -2.415  1.00  0.00    -0.067 NA
ATOM     20  H3  UNL     1      -2.182   1.951  -1.503  1.00  0.00     0.161 HD
ENDBRANCH  15  16
ENDBRANCH   7  15
BRANCH   1  21
HETATM   21  C3  UNL     1      -1.832  -0.772  -1.582  1.00  0.00     0.085 C 
BRANCH  21  22
HETATM   22  C2  UNL     1      -3.326  -0.561  -1.688  1.00  0.00     0.021 C 
HETATM   23  C1  UNL     1      -4.185  -1.547  -0.997  1.00  0.00     0.007 C 
ENDBRANCH  21  22
BRANCH  21  24
HETATM   24  C4  UNL     1      -1.475  -2.148  -2.139  1.00  0.00     0.021 C 
HETATM   25  C5  UNL     1       0.001  -2.435  -2.079  1.00  0.00     0.007 C 
ENDBRANCH  21  24
ENDBRANCH   1  21
BRANCH   5  26
HETATM   26  C8  UNL     1      -0.301   1.111   3.537  1.00  0.00     0.122 C 
HETATM   27  C9  UNL     1      -1.529   1.551   4.333  1.00  0.00     0.026 C 
ENDBRANCH   5  26
TORSDOF 9
