REMARK  10 active torsions:
REMARK  status: ('A' for Active; 'I' for Inactive)
REMARK    1  A    between atoms: C3_3  and  N1_4 
REMARK    2  A    between atoms: N1_4  and  C5_6 
REMARK    3  A    between atoms: C5_6  and  C6_7 
REMARK    4  A    between atoms: C7_8  and  C8_9 
REMARK    5  A    between atoms: C10_13  and  N3_14 
REMARK    6  A    between atoms: N3_14  and  C11_16 
REMARK    7  A    between atoms: C13_18  and  N4_19 
REMARK       I    between atoms: N4_19  and  C14_21 
REMARK    8  A    between atoms: C14_21  and  C15_23 
REMARK    9  A    between atoms: C15_23  and  C16_24 
REMARK   10  A    between atoms: C16_24  and  C17_25 
ROOT
HETATM    1  C1  UNL     1      -7.847   1.995   0.025  1.00  0.00     0.013 C 
HETATM    2  C2  UNL     1      -6.865   2.534   0.505  1.00  0.00    -0.087 C 
HETATM    3  C3  UNL     1      -5.701   3.202   1.088  1.00  0.00     0.365 C 
ENDROOT
BRANCH   3   4
HETATM    4  N1  UNL     1      -4.507   2.396   0.833  1.00  0.00     0.105 N 
HETATM    5  C4  UNL     1      -4.200   2.399  -0.568  1.00  0.00     0.312 C 
BRANCH   4   6
HETATM    6  C5  UNL     1      -4.762   1.075   1.318  1.00  0.00     0.366 C 
BRANCH   6   7
HETATM    7  C6  UNL     1      -3.571   0.251   1.072  1.00  0.00    -0.069 C 
HETATM    8  C7  UNL     1      -2.583  -0.448   0.886  1.00  0.00    -0.046 C 
BRANCH   8   9
HETATM    9  C8  UNL     1      -1.440  -1.289   0.673  1.00  0.00     0.104 A 
HETATM   10  C9  UNL     1      -1.472  -2.641   0.931  1.00  0.00     0.128 A 
HETATM   11  N2  UNL     1      -0.411  -3.464   0.741  1.00  0.00    -0.347 N 
HETATM   12  C10 UNL     1       0.731  -2.934   0.277  1.00  0.00     0.146 A 
ATOM     13  H2  UNL     1      -0.479  -4.461   0.946  1.00  0.00     0.167 HD
HETATM   14  C13 UNL     1       0.813  -1.556  -0.003  1.00  0.00     0.153 A 
HETATM   15  N5  UNL     1      -0.264  -0.794   0.204  1.00  0.00    -0.331 N 
ATOM     16  H5  UNL     1      -0.201   0.204   0.001  1.00  0.00     0.168 HD
BRANCH  12  17
HETATM   17  N3  UNL     1       1.735  -3.698   0.097  1.00  0.00    -0.374 N 
ATOM     18  H3  UNL     1       2.597  -3.283  -0.257  1.00  0.00     0.161 HD
BRANCH  17  19
HETATM   19  C11 UNL     1       1.724  -5.114   0.364  1.00  0.00     0.117 C 
HETATM   20  C12 UNL     1       1.159  -5.930  -0.788  1.00  0.00     0.026 C 
ENDBRANCH  17  19
ENDBRANCH  12  17
BRANCH  14  21
HETATM   21  N4  UNL     1       1.922  -1.144  -0.435  1.00  0.00    -0.310 N 
HETATM   22  C14 UNL     1       2.282   0.168  -0.792  1.00  0.00     0.223 C 
HETATM   23  O1  UNL     1       1.545   0.835  -1.539  1.00  0.00    -0.273 OA
ATOM     24  H4  UNL     1       2.650  -1.850  -0.539  1.00  0.00     0.170 HD
BRANCH  22  25
HETATM   25  C15 UNL     1       3.545   0.779  -0.287  1.00  0.00     0.104 C 
BRANCH  25  26
HETATM   26  C16 UNL     1       3.620   2.196  -0.804  1.00  0.00     0.026 C 
BRANCH  26  27
HETATM   27  C17 UNL     1       4.886   2.884  -0.330  1.00  0.00     0.060 C 
HETATM   28  C18 UNL     1       6.091   2.129  -0.830  1.00  0.00     0.023 C 
HETATM   29  C19 UNL     1       4.858   2.984   1.125  1.00  0.00    -0.113 C 
HETATM   30  C20 UNL     1       4.835   3.054   2.324  1.00  0.00     0.012 C 
ENDBRANCH  26  27
ENDBRANCH  25  26
ENDBRANCH  22  25
ENDBRANCH  14  21
ENDBRANCH   8   9
ENDBRANCH   6   7
ENDBRANCH   4   6
ENDBRANCH   3   4
TORSDOF 10
