REMARK  11 active torsions:
REMARK  status: ('A' for Active; 'I' for Inactive)
REMARK    1  A    between atoms: C2_2  and  N1_3 
REMARK    2  A    between atoms: N1_3  and  C3_5 
REMARK    3  A    between atoms: C4_8  and  N3_9 
REMARK    4  A    between atoms: N3_9  and  N4_11 
REMARK    5  A    between atoms: N4_11  and  N5_12 
REMARK    6  A    between atoms: N4_11  and  O1_15 
REMARK    7  A    between atoms: C5_19  and  N7_20 
REMARK    8  A    between atoms: N7_20  and  N8_22 
REMARK    9  A    between atoms: C6_24  and  C7_25 
REMARK   10  A    between atoms: C6_24  and  C8_28 
REMARK   11  A    between atoms: C11_31  and  N10_32 
ROOT
HETATM    1  C3  UNL     1      -3.789  -0.346  -0.438  1.00  0.00     0.707 A 
HETATM    2  N2  UNL     1      -3.663   0.993  -0.414  1.00  0.00    -0.020 N 
ATOM      3  H2  UNL     1      -4.503   1.571  -0.384  1.00  0.00     0.203 HD
HETATM    4  C4  UNL     1      -2.447   1.593  -0.429  1.00  0.00     0.725 A 
HETATM    5  N6  UNL     1      -1.350   0.809  -0.468  1.00  0.00    -0.019 N 
ATOM      6  H6  UNL     1      -0.429   1.247  -0.479  1.00  0.00     0.203 HD
HETATM    7  C5  UNL     1      -1.435  -0.528  -0.493  1.00  0.00     0.726 A 
HETATM    8  N11 UNL     1      -2.663  -1.077  -0.478  1.00  0.00    -0.020 N 
ATOM      9  H11 UNL     1      -2.743  -2.094  -0.498  1.00  0.00     0.203 HD
ENDROOT
BRANCH   7  10
HETATM   10  N7  UNL     1      -0.353  -1.217  -0.531  1.00  0.00    -0.130 N 
ATOM     11  H7  UNL     1      -0.403  -2.236  -0.551  1.00  0.00     0.205 HD
BRANCH  10  12
HETATM   12  N8  UNL     1       0.868  -0.596  -0.545  1.00  0.00    -0.281 N 
HETATM   13  C6  UNL     1       1.957  -1.082  -0.008  1.00  0.00     0.123 C 
ATOM     14  H8  UNL     1       0.932   0.311  -1.008  1.00  0.00     0.188 HD
BRANCH  13  15
HETATM   15  C7  UNL     1       1.853  -2.347   0.633  1.00  0.00     0.283 C 
HETATM   16  N9  UNL     1       2.939  -2.999   1.256  1.00  0.00    -0.056 NA
HETATM   17  O2  UNL     1       0.707  -2.949   0.656  1.00  0.00    -0.269 OA
ENDBRANCH  13  15
BRANCH  13  18
HETATM   18  C8  UNL     1       3.140  -0.256  -0.140  1.00  0.00    -0.003 A 
HETATM   19  C9  UNL     1       4.386  -0.535   0.329  1.00  0.00     0.016 A 
HETATM   20  C10 UNL     1       5.458   0.344   0.140  1.00  0.00     0.037 A 
HETATM   21  C11 UNL     1       5.324   1.536  -0.524  1.00  0.00     0.102 A 
HETATM   22  C12 UNL     1       4.062   1.817  -0.998  1.00  0.00     0.037 A 
HETATM   23  C13 UNL     1       3.008   0.964  -0.818  1.00  0.00     0.016 A 
BRANCH  21  24
HETATM   24  N10 UNL     1       6.416   2.427  -0.713  1.00  0.00    -0.116 N 
HETATM   25  O3  UNL     1       7.529   2.124  -0.267  1.00  0.00    -0.532 OA
HETATM   26  O4  UNL     1       6.258   3.610  -1.379  1.00  0.00    -0.532 OA
ENDBRANCH  21  24
ENDBRANCH  13  18
ENDBRANCH  10  12
ENDBRANCH   7  10
BRANCH   4  27
HETATM   27  N3  UNL     1      -2.286   3.004  -0.404  1.00  0.00    -0.108 N 
ATOM     28  H3  UNL     1      -2.248   3.533  -1.275  1.00  0.00     0.203 HD
BRANCH  27  29
HETATM   29  N4  UNL     1      -2.180   3.661   0.823  1.00  0.00     0.004 NA
BRANCH  29  30
HETATM   30  N5  UNL     1      -1.150   3.149   1.603  1.00  0.00    -0.322 NA
ATOM     31  H52 UNL     1      -0.267   3.262   1.105  1.00  0.00     0.175 HD
ATOM     32  H51 UNL     1      -1.073   3.629   2.500  1.00  0.00     0.175 HD
ENDBRANCH  29  30
BRANCH  29  33
HETATM   33  O1  UNL     1      -3.357   3.511   1.487  1.00  0.00    -0.276 OA
ATOM     34  H1  UNL     1      -3.285   3.958   2.322  1.00  0.00     0.241 HD
ENDBRANCH  29  33
ENDBRANCH  27  29
ENDBRANCH   4  27
BRANCH   1  35
HETATM   35  N1  UNL     1      -4.980  -0.830  -0.422  1.00  0.00    -0.225 N 
ATOM     36  H1  UNL     1      -5.767  -0.182  -0.392  1.00  0.00     0.177 HD
BRANCH  35  37
HETATM   37  C2  UNL     1      -5.256  -2.251  -0.445  1.00  0.00     0.133 C 
HETATM   38  C1  UNL     1      -5.150  -2.878   0.922  1.00  0.00     0.027 C 
ENDBRANCH  35  37
ENDBRANCH   1  35
TORSDOF 11
