REMARK  8 active torsions:
REMARK  status: ('A' for Active; 'I' for Inactive)
REMARK    1  A    between atoms: O1_2  and  C2_3 
REMARK    2  A    between atoms: C5_6  and  N1_7 
REMARK    3  A    between atoms: N1_7  and  S1_9 
REMARK    4  A    between atoms: S1_9  and  C6_12 
REMARK    5  A    between atoms: C7_16  and  N3_17 
REMARK    6  A    between atoms: C8_24  and  N5_25 
REMARK    7  A    between atoms: N5_25  and  O4_26 
REMARK    8  A    between atoms: O4_26  and  S2_27 
ROOT
HETATM    1  C6  UNL     1      -1.093   0.699  -0.364  1.00  0.00     0.380 C 
HETATM    2  N2  UNL     1      -1.059   1.977  -1.095  1.00  0.00     0.001 N 
ATOM      3  H21 UNL     1      -1.029   1.858  -2.108  1.00  0.00     0.283 HD
ATOM      4  H22 UNL     1      -0.173   2.472  -0.995  1.00  0.00     0.283 HD
HETATM    5  C7  UNL     1      -2.188   2.748  -0.652  1.00  0.00     0.581 C 
HETATM    6  N4  UNL     1      -2.835   1.987   0.402  1.00  0.00     0.002 N 
ATOM      7  H41 UNL     1      -3.814   2.216   0.573  1.00  0.00     0.283 HD
ATOM      8  H42 UNL     1      -2.529   2.201   1.351  1.00  0.00     0.283 HD
HETATM    9  C8  UNL     1      -2.579   0.632  -0.047  1.00  0.00     0.358 C 
ENDROOT
BRANCH   1  10
HETATM   10  S1  UNL     1      -0.168   0.944   1.117  1.00  0.00     0.264 S 
HETATM   11  O2  UNL     1      -0.318  -0.287   1.993  1.00  0.00    -0.203 OA
HETATM   12  O3  UNL     1      -0.815   2.134   1.825  1.00  0.00    -0.203 OA
BRANCH  10  13
HETATM   13  N1  UNL     1       1.463   1.330   0.875  1.00  0.00    -0.283 N 
ATOM     14  H1  UNL     1       1.788   2.233   1.219  1.00  0.00     0.178 HD
BRANCH  13  15
HETATM   15  C5  UNL     1       2.398   0.509   0.241  1.00  0.00     0.042 A 
HETATM   16  C4  UNL     1       2.236   0.019  -1.014  1.00  0.00     0.033 A 
HETATM   17  C3  UNL     1       3.222  -0.777  -1.619  1.00  0.00     0.039 A 
HETATM   18  C2  UNL     1       4.368  -1.067  -0.938  1.00  0.00     0.068 A 
HETATM   19  C11 UNL     1       4.572  -0.590   0.334  1.00  0.00     0.039 A 
HETATM   20  C10 UNL     1       3.591   0.188   0.908  1.00  0.00     0.033 A 
BRANCH  18  21
HETATM   21  O1  UNL     1       5.337  -1.867  -1.572  1.00  0.00    -0.356 OA
HETATM   22  C1  UNL     1       6.551  -2.197  -0.900  1.00  0.00     0.210 C 
ENDBRANCH  18  21
ENDBRANCH  13  15
ENDBRANCH  10  13
ENDBRANCH   1  10
BRANCH   9  23
HETATM   23  N5  UNL     1      -2.861  -0.356   0.967  1.00  0.00    -0.045 NA
BRANCH  23  24
HETATM   24  O4  UNL     1      -2.466  -1.547   0.528  1.00  0.00    -0.158 OA
BRANCH  24  25
HETATM   25  S2  UNL     1      -3.725  -2.456  -0.113  1.00  0.00     0.278 S 
HETATM   26  C9  UNL     1      -5.059  -2.630   1.047  1.00  0.00     0.195 C 
HETATM   27  O5  UNL     1      -3.167  -3.800  -0.486  1.00  0.00    -0.198 OA
HETATM   28  O6  UNL     1      -4.286  -1.835  -1.356  1.00  0.00    -0.198 OA
ENDBRANCH  24  25
ENDBRANCH  23  24
ENDBRANCH   9  23
BRANCH   5  29
HETATM   29  N3  UNL     1      -1.839   4.089  -0.233  1.00  0.00    -0.026 N 
ATOM     30  H33 UNL     1      -1.113   4.067   0.483  1.00  0.00     0.278 HD
ATOM     31  H32 UNL     1      -1.334   4.579  -0.971  1.00  0.00     0.278 HD
ATOM     32  H31 UNL     1      -2.640   4.636   0.081  1.00  0.00     0.278 HD
ENDBRANCH   5  29
TORSDOF 8
