REMARK  12 active torsions:
REMARK  status: ('A' for Active; 'I' for Inactive)
REMARK    1  A    between atoms: C2_2  and  C3_3 
REMARK    2  A    between atoms: C3_3  and  O1_4 
REMARK    3  A    between atoms: C5_9  and  N1_10 
REMARK    4  A    between atoms: C5_9  and  C6_14 
REMARK       I    between atoms: C6_14  and  N2_16 
REMARK    5  A    between atoms: N2_16  and  C7_18 
REMARK    6  A    between atoms: C7_18  and  C8_19 
REMARK    7  A    between atoms: C7_18  and  C10_32 
REMARK    8  A    between atoms: N3_20  and  O5_22 
REMARK    9  A    between atoms: O5_22  and  C9_23 
REMARK   10  A    between atoms: C9_23  and  N4_24 
REMARK   11  A    between atoms: C9_23  and  N5_28 
REMARK   12  A    between atoms: C14_36  and  N6_37 
ROOT
HETATM    1  C6  UNL     1      -0.515  -0.849  -0.944  1.00  0.00     0.282 C 
HETATM    2  O4  UNL     1      -0.725  -2.085  -0.955  1.00  0.00    -0.268 OA
HETATM    3  N2  UNL     1       0.810  -0.409  -0.848  1.00  0.00    -0.347 N 
ATOM      4  H2  UNL     1       0.991   0.595  -0.840  1.00  0.00     0.163 HD
ENDROOT
BRANCH   1   5
HETATM    5  C5  UNL     1      -1.683   0.066  -1.035  1.00  0.00     0.314 C 
HETATM    6  O3  UNL     1      -2.846  -0.722  -1.123  1.00  0.00    -0.271 OA
HETATM    7  C4  UNL     1      -3.881  -0.656  -0.213  1.00  0.00     0.298 C 
HETATM    8  C3  UNL     1      -3.670   0.121   1.001  1.00  0.00     0.171 C 
HETATM    9  O2  UNL     1      -4.950  -1.242  -0.433  1.00  0.00    -0.262 OA
HETATM   10  C14 UNL     1      -3.054   1.435   0.601  1.00  0.00     0.205 C 
HETATM   11  C13 UNL     1      -1.701   1.108   0.012  1.00  0.00     0.115 C 
BRANCH   8  12
HETATM   12  C2  UNL     1      -4.837   0.210   1.914  1.00  0.00     0.046 C 
HETATM   13  C1  UNL     1      -6.048   0.890   1.390  1.00  0.00     0.009 C 
ENDBRANCH   8  12
BRANCH   8  14
HETATM   14  O1  UNL     1      -2.658  -0.563   1.725  1.00  0.00    -0.377 OA
ATOM     15  H1  UNL     1      -1.911  -0.620   1.141  1.00  0.00     0.211 HD
ENDBRANCH   8  14
BRANCH  10  16
HETATM   16  N6  UNL     1      -3.848   2.223  -0.292  1.00  0.00    -0.147 N 
HETATM   17  O6  UNL     1      -4.225   3.378   0.064  1.00  0.00    -0.536 OA
HETATM   18  O7  UNL     1      -4.250   1.834  -1.534  1.00  0.00    -0.536 OA
ENDBRANCH  10  16
BRANCH   5  19
HETATM   19  N1  UNL     1      -1.563   0.738  -2.339  1.00  0.00    -0.037 N 
ATOM     20  H13 UNL     1      -1.565   0.097  -3.132  1.00  0.00     0.278 HD
ATOM     21  H12 UNL     1      -2.395   1.264  -2.607  1.00  0.00     0.278 HD
ATOM     22  H11 UNL     1      -0.720   1.309  -2.275  1.00  0.00     0.278 HD
ENDBRANCH   5  19
ENDBRANCH   1   5
BRANCH   3  23
HETATM   23  C7  UNL     1       1.931  -1.314  -0.760  1.00  0.00     0.128 C 
BRANCH  23  24
HETATM   24  C8  UNL     1       2.735  -1.104   0.457  1.00  0.00     0.112 C 
HETATM   25  N3  UNL     1       2.822   0.050   1.014  1.00  0.00    -0.276 N 
ATOM     26  H3  UNL     1       2.316   0.827   0.590  1.00  0.00     0.193 HD
BRANCH  25  27
HETATM   27  O5  UNL     1       3.552   0.296   2.139  1.00  0.00    -0.220 OA
BRANCH  27  28
HETATM   28  C9  UNL     1       4.754   1.050   2.116  1.00  0.00     0.542 C 
BRANCH  28  29
HETATM   29  N4  UNL     1       4.595   2.301   2.853  1.00  0.00    -0.025 N 
ATOM     30  H43 UNL     1       3.802   2.843   2.510  1.00  0.00     0.279 HD
ATOM     31  H42 UNL     1       4.269   2.139   3.806  1.00  0.00     0.279 HD
ATOM     32  H41 UNL     1       5.459   2.843   2.836  1.00  0.00     0.279 HD
ENDBRANCH  28  29
BRANCH  28  33
HETATM   33  N5  UNL     1       5.887   0.344   2.649  1.00  0.00    -0.025 N 
ATOM     34  H53 UNL     1       5.691   0.007   3.592  1.00  0.00     0.279 HD
ATOM     35  H52 UNL     1       6.012  -0.549   2.172  1.00  0.00     0.279 HD
ATOM     36  H51 UNL     1       6.751   0.886   2.632  1.00  0.00     0.279 HD
ENDBRANCH  28  33
ENDBRANCH  27  28
ENDBRANCH  25  27
ENDBRANCH  23  24
BRANCH  23  37
HETATM   37  C10 UNL     1       2.818  -1.207  -2.001  1.00  0.00     0.005 C 
HETATM   38  C11 UNL     1       3.986  -2.136  -1.930  1.00  0.00     0.012 C 
HETATM   39  C12 UNL     1       1.954  -1.537  -3.213  1.00  0.00     0.012 C 
ENDBRANCH  23  37
ENDBRANCH   3  23
TORSDOF 12
