REMARK  7 active torsions:
REMARK  status: ('A' for Active; 'I' for Inactive)
REMARK    1  A    between atoms: O1_2  and  C2_3 
REMARK    2  A    between atoms: C2_3  and  C3_5 
REMARK    3  A    between atoms: C3_5  and  N1_6 
REMARK    4  A    between atoms: N1_6  and  C4_8 
REMARK    5  A    between atoms: C4_8  and  N2_10 
REMARK    6  A    between atoms: N2_10  and  C5_12 
REMARK    7  A    between atoms: N3_15  and  C8_16 
ROOT
HETATM    1  C5  UNL     1       1.721  -0.648   0.668  1.00  0.00     0.093 C 
HETATM    2  C6  UNL     1       0.598  -1.669   0.537  1.00  0.00     0.070 C 
HETATM    3  C7  UNL     1      -0.321  -1.126  -0.534  1.00  0.00     0.066 C 
HETATM    4  N3  UNL     1      -1.035  -0.045  -0.002  1.00  0.00    -0.364 N 
HETATM    5  C18 UNL     1      -0.310   0.853   0.781  1.00  0.00     0.066 C 
HETATM    6  C19 UNL     1       1.175   0.752   0.740  1.00  0.00     0.070 C 
ENDROOT
BRANCH   1   7
HETATM    7  N2  UNL     1       2.520  -0.760  -0.532  1.00  0.00    -0.362 N 
ATOM      8  H2  UNL     1       2.177  -1.387  -1.260  1.00  0.00     0.162 HD
BRANCH   7   9
HETATM    9  C4  UNL     1       3.727  -0.083  -0.787  1.00  0.00     0.168 C 
HETATM   10  S1  UNL     1       4.492  -0.307  -2.222  1.00  0.00    -0.041 SA
BRANCH   9  11
HETATM   11  N1  UNL     1       4.276   0.794   0.173  1.00  0.00    -0.358 N 
ATOM     12  H1  UNL     1       3.788   0.931   1.058  1.00  0.00     0.162 HD
BRANCH  11  13
HETATM   13  C3  UNL     1       5.528   1.511  -0.070  1.00  0.00     0.233 C 
BRANCH  13  14
HETATM   14  C2  UNL     1       6.622   0.519  -0.063  1.00  0.00     0.276 C 
HETATM   15  O2  UNL     1       6.465  -0.705   0.143  1.00  0.00    -0.263 OA
BRANCH  14  16
HETATM   16  O1  UNL     1       7.904   0.982  -0.299  1.00  0.00    -0.325 OA
HETATM   17  C1  UNL     1       9.054   0.137  -0.321  1.00  0.00     0.213 C 
ENDBRANCH  14  16
ENDBRANCH  13  14
ENDBRANCH  11  13
ENDBRANCH   9  11
ENDBRANCH   7   9
ENDBRANCH   1   7
BRANCH   4  18
HETATM   18  C8  UNL     1      -2.429  -0.009  -0.045  1.00  0.00     0.036 C 
HETATM   19  C9  UNL     1      -3.019  -1.170   0.758  1.00  0.00     0.036 C 
HETATM   20  C10 UNL     1      -4.519  -1.157   0.694  1.00  0.00    -0.012 C 
HETATM   21  C11 UNL     1      -5.105   0.149   1.176  1.00  0.00     0.009 C 
HETATM   22  C15 UNL     1      -4.947  -1.330  -0.752  1.00  0.00     0.009 C 
HETATM   23  C12 UNL     1      -4.525   1.278   0.351  1.00  0.00    -0.012 C 
HETATM   24  C13 UNL     1      -4.906   1.150  -1.101  1.00  0.00     0.009 C 
HETATM   25  C17 UNL     1      -3.032   1.253   0.549  1.00  0.00     0.036 C 
HETATM   26  C14 UNL     1      -4.415  -0.191  -1.582  1.00  0.00    -0.012 C 
HETATM   27  C16 UNL     1      -2.905  -0.227  -1.472  1.00  0.00     0.036 C 
ENDBRANCH   4  18
TORSDOF 7
