REMARK  4 active torsions:
REMARK  status: ('A' for Active; 'I' for Inactive)
REMARK    1  A    between atoms: C6_6  and  N1_7 
REMARK    2  A    between atoms: C9_10  and  C10_11 
REMARK       I    between atoms: C10_11  and  N2_13 
REMARK    3  A    between atoms: N2_13  and  C11_15 
REMARK    4  A    between atoms: C13_17  and  N3_18 
ROOT
HETATM    1  C10 UNL     1       0.785   0.141   1.138  1.00  0.00     0.223 C 
HETATM    2  O1  UNL     1       0.562   1.293   1.629  1.00  0.00    -0.273 OA
HETATM    3  N2  UNL     1       1.976  -0.497   1.495  1.00  0.00    -0.356 N 
ATOM      4  H2  UNL     1       2.119  -1.406   1.056  1.00  0.00     0.162 HD
ENDROOT
BRANCH   1   5
HETATM    5  C9  UNL     1      -0.233  -0.424   0.242  1.00  0.00     0.107 C 
HETATM    6  C8  UNL     1      -1.107  -1.348   1.078  1.00  0.00     0.046 C 
HETATM    7  C7  UNL     1      -2.161  -0.348   1.623  1.00  0.00     0.273 C 
HETATM    8  N1  UNL     1      -2.430   0.507   0.479  1.00  0.00     0.093 N 
HETATM    9  C19 UNL     1      -1.227   0.541  -0.311  1.00  0.00     0.287 C 
BRANCH   8  10
HETATM   10  C6  UNL     1      -3.532   0.084  -0.310  1.00  0.00     0.223 C 
HETATM   11  C5  UNL     1      -3.642   0.797  -1.605  1.00  0.00     0.036 C 
HETATM   12  C4  UNL     1      -4.942   1.498  -1.875  1.00  0.00     0.002 C 
HETATM   13  C3  UNL     1      -6.048   0.563  -2.362  1.00  0.00     0.004 C 
HETATM   14  C2  UNL     1      -6.780   0.143  -1.104  1.00  0.00    -0.019 C 
HETATM   15  C1  UNL     1      -8.131  -0.445  -1.330  1.00  0.00     0.010 C 
HETATM   16  C21 UNL     1      -5.811  -0.792  -0.385  1.00  0.00     0.006 C 
HETATM   17  C20 UNL     1      -4.844   0.059   0.446  1.00  0.00     0.036 C 
ENDBRANCH   8  10
ENDBRANCH   1   5
BRANCH   3  18
HETATM   18  C11 UNL     1       3.023  -0.090   2.369  1.00  0.00     0.088 A 
HETATM   19  C12 UNL     1       3.854   1.093   1.825  1.00  0.00     0.061 A 
HETATM   20  C13 UNL     1       5.080   0.203   1.762  1.00  0.00     0.227 A 
HETATM   21  C18 UNL     1       4.258  -0.925   2.313  1.00  0.00     0.061 A 
BRANCH  20  22
HETATM   22  N3  UNL     1       5.618   0.031   0.465  1.00  0.00     0.096 N 
HETATM   23  C14 UNL     1       5.918  -1.328   0.169  1.00  0.00     0.300 C 
HETATM   24  C15 UNL     1       6.909  -1.416  -1.012  1.00  0.00     0.262 C 
HETATM   25  N4  UNL     1       6.642  -0.343  -1.941  1.00  0.00    -0.072 N 
HETATM   26  C16 UNL     1       6.997   0.921  -1.317  1.00  0.00     0.262 C 
ATOM     27  H42 UNL     1       7.110  -0.479  -2.837  1.00  0.00     0.277 HD
ATOM     28  H41 UNL     1       5.680  -0.353  -2.280  1.00  0.00     0.277 HD
HETATM   29  C17 UNL     1       6.725   0.906   0.190  1.00  0.00     0.300 C 
ENDBRANCH  20  22
ENDBRANCH   3  18
TORSDOF 4
