REMARK  7 active torsions:
REMARK  status: ('A' for Active; 'I' for Inactive)
REMARK    1  A    between atoms: C3_3  and  C4_4 
REMARK    2  A    between atoms: C6_6  and  N1_7 
REMARK    3  A    between atoms: N1_7  and  S1_9 
REMARK    4  A    between atoms: S1_9  and  S2_12 
REMARK    5  A    between atoms: S2_12  and  C8_13 
REMARK    6  A    between atoms: C8_13  and  N2_15 
REMARK    7  A    between atoms: N3_20  and  C13_22 
ROOT
HETATM    1  C4  UNL     1      -1.223   1.523   0.885  1.00  0.00     0.035 C 
HETATM    2  C5  UNL     1      -1.120   0.896  -0.251  1.00  0.00     0.137 C 
HETATM    3  C6  UNL     1       0.042   0.997  -1.179  1.00  0.00     0.150 C 
HETATM    4  C10 UNL     1      -0.240   0.082  -2.289  1.00  0.00     0.060 C 
HETATM    5  C11 UNL     1      -1.674  -0.296  -2.154  1.00  0.00     0.245 C 
HETATM    6  N3  UNL     1      -2.110   0.021  -0.802  1.00  0.00    -0.043 N 
HETATM    7  C12 UNL     1      -3.407   0.631  -0.936  1.00  0.00     0.279 C 
ENDROOT
BRANCH   3   8
HETATM    8  N1  UNL     1       1.256   0.732  -0.443  1.00  0.00    -0.333 N 
ATOM      9  H1  UNL     1       1.237   0.530   0.557  1.00  0.00     0.170 HD
BRANCH   8  10
HETATM   10  S1  UNL     1       2.836   0.773  -1.381  1.00  0.00     0.080 S 
HETATM   11  C7  UNL     1       3.186  -0.235  -2.870  1.00  0.00     0.149 C 
HETATM   12  O1  UNL     1       4.200   2.004  -0.682  1.00  0.00    -0.239 OA
BRANCH  10  13
HETATM   13  S2  UNL     1       3.434  -0.507   0.085  1.00  0.00     0.011 SA
BRANCH  13  14
HETATM   14  C8  UNL     1       4.908  -1.198   0.045  1.00  0.00     0.147 C 
HETATM   15  S3  UNL     1       5.974  -0.906  -1.202  1.00  0.00    -0.052 SA
BRANCH  14  16
HETATM   16  N2  UNL     1       5.395  -2.076   1.041  1.00  0.00    -0.379 N 
HETATM   17  C9  UNL     1       4.587  -2.438   2.211  1.00  0.00     0.147 C 
ATOM     18  H2  UNL     1       6.332  -2.468   0.944  1.00  0.00     0.160 HD
ENDBRANCH  14  16
ENDBRANCH  13  14
ENDBRANCH  10  13
ENDBRANCH   8  10
ENDBRANCH   3   8
BRANCH   1  19
HETATM   19  C3  UNL     1      -2.334   1.447   1.811  1.00  0.00    -0.002 C 
HETATM   20  C2  UNL     1      -2.302   2.150   2.940  1.00  0.00    -0.031 C 
HETATM   21  C1  UNL     1      -3.414   2.101   3.912  1.00  0.00     0.036 C 
ENDBRANCH   1  19
BRANCH   6  22
HETATM   22  C13 UNL     1      -2.129  -1.174   0.016  1.00  0.00     0.239 C 
HETATM   23  C14 UNL     1      -3.453  -1.865   0.074  1.00  0.00     0.035 C 
ENDBRANCH   6  22
TORSDOF 7
