REMARK  5 active torsions:
REMARK  status: ('A' for Active; 'I' for Inactive)
REMARK    1  A    between atoms: C1_2  and  C2_3 
REMARK       I    between atoms: C1_2  and  N1_9 
REMARK    2  A    between atoms: C11_13  and  C12_14 
REMARK    3  A    between atoms: C12_14  and  N2_15 
REMARK    4  A    between atoms: N2_15  and  C13_18 
REMARK    5  A    between atoms: C14_19  and  O2_20 
ROOT
HETATM    1  C12 UNL     1       1.244   0.120   0.921  1.00  0.00     0.239 C 
ENDROOT
BRANCH   1   2
HETATM    2  C11 UNL     1      -0.023   0.990   0.843  1.00  0.00     0.029 C 
HETATM    3  C10 UNL     1      -0.220   1.534  -0.527  1.00  0.00     0.009 C 
HETATM    4  C9  UNL     1      -1.403   1.000  -1.271  1.00  0.00     0.020 C 
HETATM    5  C8  UNL     1      -2.607   1.190  -0.335  1.00  0.00     0.126 C 
HETATM    6  N1  UNL     1      -2.386   0.222   0.735  1.00  0.00    -0.351 N 
HETATM    7  C1  UNL     1      -3.395  -0.724   1.069  1.00  0.00     0.224 C 
HETATM    8  C21 UNL     1      -1.145   0.237   1.446  1.00  0.00     0.132 C 
HETATM    9  O1  UNL     1      -3.191  -1.557   1.971  1.00  0.00    -0.273 OA
BRANCH   7  10
HETATM   10  C2  UNL     1      -4.672  -0.721   0.356  1.00  0.00     0.078 C 
HETATM   11  C3  UNL     1      -5.514  -1.929   0.742  1.00  0.00     0.014 C 
HETATM   12  C4  UNL     1      -6.977  -1.641   0.527  1.00  0.00     0.001 C 
HETATM   13  C5  UNL     1      -7.215  -0.625  -0.575  1.00  0.00     0.000 C 
HETATM   14  C6  UNL     1      -6.565   0.691  -0.291  1.00  0.00     0.001 C 
HETATM   15  C7  UNL     1      -5.519   0.490   0.778  1.00  0.00     0.014 C 
ENDBRANCH   7  10
ENDBRANCH   1   2
BRANCH   1  16
HETATM   16  N2  UNL     1       2.408   0.877   0.577  1.00  0.00    -0.068 N 
ATOM     17  H22 UNL     1       2.300   1.314  -0.338  1.00  0.00     0.277 HD
ATOM     18  H21 UNL     1       2.481   1.715   1.154  1.00  0.00     0.277 HD
BRANCH  16  19
HETATM   19  C13 UNL     1       3.629   0.100   0.638  1.00  0.00     0.220 C 
HETATM   20  C14 UNL     1       3.554  -0.999  -0.351  1.00  0.00     0.166 C 
HETATM   21  C15 UNL     1       4.835  -1.698  -0.663  1.00  0.00     0.150 C 
HETATM   22  N3  UNL     1       6.024  -0.979  -0.401  1.00  0.00    -0.410 N 
HETATM   23  C16 UNL     1       6.253   0.144  -1.273  1.00  0.00     0.117 C 
HETATM   24  C20 UNL     1       6.337  -0.751   0.965  1.00  0.00     0.117 C 
HETATM   25  C17 UNL     1       5.244   1.217  -0.941  1.00  0.00     0.026 C 
HETATM   26  C18 UNL     1       4.777   1.043   0.461  1.00  0.00     0.022 C 
HETATM   27  C19 UNL     1       5.978   0.670   1.334  1.00  0.00     0.026 C 
BRANCH  20  28
HETATM   28  O2  UNL     1       2.883  -0.587  -1.526  1.00  0.00    -0.392 OA
ATOM     29  H2  UNL     1       2.835  -1.292  -2.161  1.00  0.00     0.210 HD
ENDBRANCH  20  28
ENDBRANCH  16  19
ENDBRANCH   1  16
TORSDOF 5
