REMARK  7 active torsions:
REMARK  status: ('A' for Active; 'I' for Inactive)
REMARK    1  A    between atoms: C2_2  and  C3_3 
REMARK       I    between atoms: C3_3  and  N1_5 
REMARK    2  A    between atoms: C6_8  and  N2_9 
REMARK    3  A    between atoms: N3_11  and  C8_12 
REMARK    4  A    between atoms: C8_12  and  C11_15 
REMARK    5  A    between atoms: C16_20  and  C17_21 
REMARK    6  A    between atoms: C17_21  and  C18_22 
REMARK    7  A    between atoms: C18_22  and  O2_23 
ROOT
HETATM    1  N2  UNL     1       0.010  -1.119  -0.688  1.00  0.00    -0.378 N 
HETATM    2  C7  UNL     1      -0.726   0.090  -0.898  1.00  0.00     0.395 C 
HETATM    3  N3  UNL     1      -2.024  -0.076  -0.278  1.00  0.00     0.117 N 
HETATM    4  C15 UNL     1      -1.876  -1.194   0.620  1.00  0.00     0.300 C 
HETATM    5  C16 UNL     1      -0.800  -2.079  -0.047  1.00  0.00     0.111 C 
ENDROOT
BRANCH   1   6
HETATM    6  C6  UNL     1       1.345  -0.985  -0.254  1.00  0.00     0.084 C 
HETATM    7  C5  UNL     1       1.570  -0.349   1.084  1.00  0.00     0.045 C 
HETATM    8  C4  UNL     1       3.029  -0.513   1.464  1.00  0.00     0.127 C 
HETATM    9  N1  UNL     1       3.918   0.098   0.494  1.00  0.00    -0.352 N 
HETATM   10  C3  UNL     1       4.938   0.947   0.945  1.00  0.00     0.219 C 
HETATM   11  C20 UNL     1       3.656  -0.244  -0.883  1.00  0.00     0.127 C 
HETATM   12  O1  UNL     1       5.062   1.163   2.196  1.00  0.00    -0.273 OA
HETATM   13  C19 UNL     1       2.184  -0.172  -1.247  1.00  0.00     0.045 C 
BRANCH  10  14
HETATM   14  C2  UNL     1       5.918   1.640   0.080  1.00  0.00     0.098 C 
HETATM   15  C1  UNL     1       7.242   0.889   0.052  1.00  0.00     0.014 C 
ENDBRANCH  10  14
ENDBRANCH   1   6
BRANCH   5  16
HETATM   16  C17 UNL     1      -1.435  -2.998  -1.055  1.00  0.00     0.053 C 
BRANCH  16  17
HETATM   17  C18 UNL     1      -0.462  -3.765  -1.890  1.00  0.00     0.166 C 
BRANCH  17  18
HETATM   18  O2  UNL     1       0.375  -2.978  -2.641  1.00  0.00    -0.401 OA
ATOM     19  H2  UNL     1       0.994  -3.466  -3.172  1.00  0.00     0.209 HD
ENDBRANCH  17  18
ENDBRANCH  16  17
ENDBRANCH   5  16
BRANCH   3  20
HETATM   20  C8  UNL     1      -2.565   1.112   0.269  1.00  0.00     0.161 C 
HETATM   21  C9  UNL     1      -1.726   1.664   1.412  1.00  0.00     0.049 C 
HETATM   22  C10 UNL     1      -2.465   2.195  -0.823  1.00  0.00     0.049 C 
BRANCH  20  23
HETATM   23  C11 UNL     1      -4.004   1.064   0.679  1.00  0.00    -0.016 C 
HETATM   24  C12 UNL     1      -4.361   0.056   1.733  1.00  0.00     0.017 C 
HETATM   25  C13 UNL     1      -4.459   2.428   1.223  1.00  0.00     0.017 C 
HETATM   26  C14 UNL     1      -4.922   0.754  -0.505  1.00  0.00     0.017 C 
ENDBRANCH  20  23
ENDBRANCH   3  20
TORSDOF 7
