REMARK  6 active torsions:
REMARK  status: ('A' for Active; 'I' for Inactive)
REMARK    1  A    between atoms: C4_5  and  C5_6 
REMARK    2  A    between atoms: C5_6  and  N2_7 
REMARK    3  A    between atoms: N2_7  and  C6_9 
REMARK    4  A    between atoms: C7_12  and  C8_13 
REMARK    5  A    between atoms: C15_22  and  N5_23 
REMARK    6  A    between atoms: N5_23  and  C16_25 
ROOT
HETATM    1  C6  UNL     1       0.053   0.320  -0.579  1.00  0.00     0.694 A 
HETATM    2  N3  UNL     1      -1.041  -0.418  -0.347  1.00  0.00    -0.179 N 
ATOM      3  H3  UNL     1      -0.955  -1.431  -0.431  1.00  0.00     0.185 HD
HETATM    4  C7  UNL     1      -2.241   0.078  -0.013  1.00  0.00     0.118 A 
HETATM    5  N4  UNL     1      -2.290   1.439   0.081  1.00  0.00    -0.179 N 
ATOM      6  H4  UNL     1      -3.173   1.884   0.330  1.00  0.00     0.185 HD
HETATM    7  C15 UNL     1      -1.213   2.215  -0.144  1.00  0.00     0.694 A 
HETATM    8  N6  UNL     1      -0.034   1.662  -0.476  1.00  0.00    -0.022 N 
ATOM      9  H6  UNL     1       0.783   2.248  -0.648  1.00  0.00     0.203 HD
ENDROOT
BRANCH   1  10
HETATM   10  N2  UNL     1       1.130  -0.305  -0.890  1.00  0.00    -0.225 N 
ATOM     11  H2  UNL     1       1.076  -1.322  -0.939  1.00  0.00     0.177 HD
BRANCH  10  12
HETATM   12  C5  UNL     1       2.396   0.289  -1.174  1.00  0.00     0.143 C 
BRANCH  12  13
HETATM   13  C4  UNL     1       3.246   0.271   0.096  1.00  0.00     0.010 C 
HETATM   14  C3  UNL     1       3.443  -1.138   0.551  1.00  0.00     0.026 C 
HETATM   15  C2  UNL     1       4.410  -1.811  -0.382  1.00  0.00     0.122 C 
HETATM   16  N1  UNL     1       5.659  -1.140  -0.410  1.00  0.00    -0.398 N 
HETATM   17  C1  UNL     1       6.635  -1.597   0.518  1.00  0.00     0.148 C 
HETATM   18  C20 UNL     1       5.636   0.243  -0.676  1.00  0.00     0.058 C 
HETATM   19  C19 UNL     1       4.529   1.026  -0.085  1.00  0.00     0.050 C 
ENDBRANCH  12  13
ENDBRANCH  10  12
ENDBRANCH   1  10
BRANCH   4  20
HETATM   20  C8  UNL     1      -3.460  -0.671   0.249  1.00  0.00     0.059 C 
HETATM   21  C9  UNL     1      -3.326  -1.790   1.264  1.00  0.00     0.017 C 
HETATM   22  C10 UNL     1      -4.267  -2.872   0.820  1.00  0.00    -0.013 C 
HETATM   23  C11 UNL     1      -3.538  -3.677  -0.232  1.00  0.00     0.005 C 
HETATM   24  C14 UNL     1      -5.223  -2.089  -0.099  1.00  0.00     0.010 C 
HETATM   25  C12 UNL     1      -3.298  -2.585  -1.290  1.00  0.00     0.006 C 
HETATM   26  C13 UNL     1      -4.082  -1.395  -0.896  1.00  0.00    -0.003 C 
ENDBRANCH   4  20
BRANCH   7  27
HETATM   27  N5  UNL     1      -1.252   3.501  -0.056  1.00  0.00    -0.221 N 
ATOM     28  H5  UNL     1      -0.398   4.027  -0.240  1.00  0.00     0.178 HD
BRANCH  27  29
HETATM   29  C16 UNL     1      -2.453   4.232   0.292  1.00  0.00     0.099 A 
HETATM   30  C17 UNL     1      -2.807   4.352   1.725  1.00  0.00     0.028 A 
HETATM   31  C18 UNL     1      -2.194   5.528   1.019  1.00  0.00     0.028 A 
ENDBRANCH  27  29
ENDBRANCH   7  27
TORSDOF 6
