REMARK  4 active torsions:
REMARK  status: ('A' for Active; 'I' for Inactive)
REMARK    1  A    between atoms: C2_2  and  C3_3 
REMARK    2  A    between atoms: C2_2  and  N1_6 
REMARK    3  A    between atoms: C8_11  and  N3_12 
REMARK    4  A    between atoms: N5_18  and  C10_19 
ROOT
HETATM    1  N1  UNL     1       0.667   0.369  -0.786  1.00  0.00    -0.322 N 
HETATM    2  C6  UNL     1       1.409   1.335  -1.474  1.00  0.00     0.185 A 
HETATM    3  N2  UNL     1       0.585   2.293  -1.891  1.00  0.00    -0.346 N 
ATOM      4  H2  UNL     1       0.862   3.121  -2.419  1.00  0.00     0.167 HD
HETATM    5  C7  UNL     1      -0.668   2.000  -1.509  1.00  0.00     0.122 A 
HETATM    6  C8  UNL     1      -1.877   2.610  -1.656  1.00  0.00     0.131 A 
HETATM    7  N4  UNL     1      -2.990   2.078  -1.154  1.00  0.00    -0.337 N 
ATOM      8  H4  UNL     1      -3.897   2.532  -1.261  1.00  0.00     0.168 HD
HETATM    9  C9  UNL     1      -2.857   0.912  -0.499  1.00  0.00     0.188 A 
HETATM   10  N5  UNL     1      -1.716   0.218  -0.292  1.00  0.00    -0.304 N 
HETATM   11  C13 UNL     1      -0.574   0.781  -0.817  1.00  0.00     0.144 A 
ENDROOT
BRANCH   1  12
HETATM   12  C2  UNL     1       1.378  -0.701  -0.272  1.00  0.00     0.092 C 
HETATM   13  C1  UNL     1       2.094  -1.315  -1.546  1.00  0.00     0.033 C 
BRANCH  12  14
HETATM   14  C3  UNL     1       2.663  -0.169   0.475  1.00  0.00     0.009 A 
HETATM   15  C4  UNL     1       2.518   0.498   1.754  1.00  0.00     0.007 A 
HETATM   16  C5  UNL     1       3.080  -0.936   1.704  1.00  0.00     0.007 A 
ENDBRANCH  12  14
ENDBRANCH   1  12
BRANCH  10  17
HETATM   17  C10 UNL     1      -1.617  -1.002   0.406  1.00  0.00     0.109 C 
HETATM   18  C11 UNL     1      -3.131  -1.330   0.665  1.00  0.00     0.056 C 
HETATM   19  C12 UNL     1      -1.190  -0.991   1.838  1.00  0.00     0.056 C 
HETATM   20 CL1  UNL     1      -1.409  -2.508  -0.507  1.00  0.00    -0.096 Cl
ENDBRANCH  10  17
BRANCH   6  21
HETATM   21  N3  UNL     1      -1.860   3.730  -2.310  1.00  0.00    -0.383 N 
ATOM     22  H32 UNL     1      -1.008   4.137  -2.694  1.00  0.00     0.157 HD
ATOM     23  H31 UNL     1      -2.765   4.187  -2.420  1.00  0.00     0.157 HD
ENDBRANCH   6  21
TORSDOF 4
