REMARK  4 active torsions:
REMARK  status: ('A' for Active; 'I' for Inactive)
REMARK    1  A    between atoms: C2_2  and  C3_6 
REMARK    2  A    between atoms: C3_6  and  C4_7 
REMARK    3  A    between atoms: C3_6  and  C5_9 
REMARK    4  A    between atoms: C5_9  and  N2_11 
ROOT
HETATM    1  C5  UNL     1      -0.066   0.467  -0.319  1.00  0.00     0.098 C 
HETATM    2  S2  UNL     1       0.463   1.696  -1.250  1.00  0.00    -0.064 SA
ENDROOT
BRANCH   1   3
HETATM    3  C3  UNL     1       0.912  -0.435   0.330  1.00  0.00     0.106 C 
BRANCH   3   4
HETATM    4  C2  UNL     1       2.303  -0.086   0.034  1.00  0.00    -0.012 C 
HETATM    5  C1  UNL     1       2.892   1.262   0.293  1.00  0.00     0.063 C 
HETATM    6  N1  UNL     1       3.073  -0.971  -0.476  1.00  0.00    -0.405 N 
ATOM      7  H12 UNL     1       4.042  -0.728  -0.682  1.00  0.00     0.155 HD
ATOM      8  H11 UNL     1       2.671  -1.892  -0.653  1.00  0.00     0.155 HD
ENDBRANCH   3   4
BRANCH   3   9
HETATM    9  C4  UNL     1       0.661  -1.836  -0.044  1.00  0.00     0.128 C 
HETATM   10  S1  UNL     1       1.302  -2.906   0.642  1.00  0.00    -0.125 SA
ENDBRANCH   3   9
ENDBRANCH   1   3
BRANCH   1  11
HETATM   11  N2  UNL     1      -1.466   0.298  -0.156  1.00  0.00    -0.270 N 
HETATM   12  C6  UNL     1      -2.395   0.083  -1.134  1.00  0.00     0.128 A 
HETATM   13 CL1  UNL     1      -1.940  -0.016  -2.821  1.00  0.00    -0.062 Cl
HETATM   14  C7  UNL     1      -3.650  -0.029  -0.578  1.00  0.00     0.133 A 
HETATM   15  N3  UNL     1      -3.489   0.117   0.746  1.00  0.00    -0.340 N 
HETATM   16  C8  UNL     1      -2.180   0.312   0.986  1.00  0.00     0.184 A 
ATOM     17  H3  UNL     1      -4.229   0.086   1.447  1.00  0.00     0.167 HD
HETATM   18  S3  UNL     1      -1.594   0.532   2.498  1.00  0.00    -0.040 SA
ENDBRANCH   1  11
TORSDOF 4
