REMARK  1 active torsions:
REMARK  status: ('A' for Active; 'I' for Inactive)
REMARK       I    between atoms: C1_2  and  N2_4 
REMARK    1  A    between atoms: C6_12  and  C7_13 
REMARK       I    between atoms: C7_13  and  N3_15 
ROOT
HETATM    1  N1  UNL     1      -2.821   1.758  -1.622  1.00  0.00    -0.040 NA
HETATM    2  C1  UNL     1      -1.555   1.104  -1.410  1.00  0.00     0.331 C 
HETATM    3  O1  UNL     1      -0.780   1.086  -2.376  1.00  0.00    -0.251 OA
HETATM    4  N2  UNL     1      -1.251   0.535  -0.178  1.00  0.00    -0.319 N 
HETATM    5  C2  UNL     1      -2.344   0.631   0.825  1.00  0.00     0.154 C 
HETATM    6  C3  UNL     1      -2.374  -0.609   1.646  1.00  0.00     0.187 C 
HETATM    7  O2  UNL     1      -2.229  -1.805   1.070  1.00  0.00    -0.387 OA
HETATM    8  C4  UNL     1      -1.631  -2.000  -0.114  1.00  0.00     0.203 C 
HETATM    9  C5  UNL     1      -0.163  -1.612  -0.207  1.00  0.00     0.126 C 
HETATM   10 BR1  UNL     1       0.854  -2.617   1.073  1.00  0.00    -0.068 Br
HETATM   11 BR2  UNL     1       0.431  -2.026  -1.989  1.00  0.00    -0.068 Br
HETATM   12  C6  UNL     1      -0.015  -0.132   0.119  1.00  0.00     0.213 C 
ENDROOT
BRANCH  12  13
HETATM   13  C7  UNL     1       1.214   0.455  -0.345  1.00  0.00     0.249 C 
HETATM   14  O3  UNL     1       1.381   1.611  -0.796  1.00  0.00    -0.271 OA
HETATM   15  N3  UNL     1       2.418  -0.336  -0.309  1.00  0.00    -0.302 N 
HETATM   16  C8  UNL     1       3.547   0.201   0.031  1.00  0.00     0.203 C 
ATOM     17  H3  UNL     1       2.381  -1.326  -0.553  1.00  0.00     0.171 HD
HETATM   18  N4  UNL     1       3.585   1.561   0.363  1.00  0.00    -0.066 NA
HETATM   19  N5  UNL     1       4.707  -0.613   0.054  1.00  0.00    -0.066 NA
ENDBRANCH  12  13
TORSDOF 1
