REMARK  5 active torsions:
REMARK  status: ('A' for Active; 'I' for Inactive)
REMARK       I    between atoms: C1_2  and  N1_3 
REMARK    1  A    between atoms: C1_2  and  C10_14 
REMARK    2  A    between atoms: N1_3  and  N2_4 
REMARK    3  A    between atoms: C2_6  and  C3_7 
REMARK    4  A    between atoms: C3_7  and  C4_8 
REMARK    5  A    between atoms: C4_8  and  C5_9 
ROOT
HETATM    1  N2  UNL     1       1.104  -0.107  -1.559  1.00  0.00    -0.247 N 
ATOM      2  H2  UNL     1       1.565  -0.613  -2.316  1.00  0.00     0.200 HD
HETATM    3  C2  UNL     1      -0.040   0.054  -1.945  1.00  0.00     0.094 C 
ENDROOT
BRANCH   1   4
HETATM    4  N1  UNL     1       2.019   0.048  -0.663  1.00  0.00    -0.287 NA
HETATM    5  C1  UNL     1       2.972   0.209   0.272  1.00  0.00     0.316 C 
HETATM    6  O1  UNL     1       2.874   0.639   1.465  1.00  0.00    -0.255 OA
BRANCH   5   7
HETATM    7  C10 UNL     1       4.391  -0.165  -0.110  1.00  0.00     0.095 C 
HETATM    8  C11 UNL     1       4.646  -1.658  -0.141  1.00  0.00     0.015 C 
HETATM    9  C12 UNL     1       6.068  -1.309   0.350  1.00  0.00     0.002 C 
HETATM   10  C13 UNL     1       5.401  -0.083   1.000  1.00  0.00     0.015 C 
ENDBRANCH   5   7
ENDBRANCH   1   4
BRANCH   3  11
HETATM   11  C3  UNL     1      -1.116   0.746  -1.178  1.00  0.00     0.047 C 
BRANCH  11  12
HETATM   12  C4  UNL     1      -2.304  -0.197  -0.964  1.00  0.00     0.010 C 
BRANCH  12  13
HETATM   13  C5  UNL     1      -3.352   0.555  -0.193  1.00  0.00    -0.014 C 
HETATM   14  C6  UNL     1      -2.895   1.044   1.160  1.00  0.00     0.004 C 
HETATM   15  C7  UNL     1      -3.947   0.558   2.164  1.00  0.00     0.000 C 
HETATM   16  C8  UNL     1      -5.179   0.424   1.294  1.00  0.00     0.000 C 
HETATM   17  C9  UNL     1      -4.575  -0.283   0.067  1.00  0.00     0.004 C 
ENDBRANCH  12  13
ENDBRANCH  11  12
ENDBRANCH   3  11
TORSDOF 5
