REMARK  6 active torsions:
REMARK  status: ('A' for Active; 'I' for Inactive)
REMARK    1  A    between atoms: N1_2  and  C2_4 
REMARK    2  A    between atoms: C2_4  and  C3_5 
REMARK    3  A    between atoms: C3_5  and  C4_6 
REMARK    4  A    between atoms: C4_6  and  C5_7 
REMARK    5  A    between atoms: C5_7  and  C6_8 
REMARK    6  A    between atoms: C6_8  and  N2_9 
ROOT
HETATM    1  C5  UNL     1      -0.062  -0.012  -0.456  1.00  0.00    -0.017 C 
HETATM    2  C7  UNL     1      -0.723  -1.181   0.201  1.00  0.00     0.011 C 
HETATM    3  C8  UNL     1      -2.064  -1.547  -0.330  1.00  0.00     0.001 C 
HETATM    4  C9  UNL     1      -3.159  -1.360   0.726  1.00  0.00     0.000 C 
HETATM    5  C10 UNL     1      -3.969  -0.129   0.475  1.00  0.00     0.000 C 
HETATM    6  C11 UNL     1      -3.179   1.015  -0.134  1.00  0.00     0.000 C 
HETATM    7  C12 UNL     1      -1.913   1.313   0.637  1.00  0.00     0.001 C 
HETATM    8  C13 UNL     1      -0.680   1.306  -0.213  1.00  0.00     0.011 C 
ENDROOT
BRANCH   1   9
HETATM    9  C4  UNL     1       1.434  -0.020  -0.143  1.00  0.00     0.012 C 
BRANCH   9  10
HETATM   10  C3  UNL     1       1.759   0.201   1.265  1.00  0.00     0.017 C 
BRANCH  10  11
HETATM   11  C2  UNL     1       3.195   0.180   1.677  1.00  0.00     0.107 C 
BRANCH  11  12
HETATM   12  N1  UNL     1       4.079   1.119   1.121  1.00  0.00    -0.232 NA
HETATM   13  C1  UNL     1       4.391   0.912  -0.249  1.00  0.00     0.130 C 
HETATM   14 CL1  UNL     1       5.529   1.267   2.073  1.00  0.00    -0.022 Cl
ENDBRANCH  11  12
ENDBRANCH  10  11
ENDBRANCH   9  10
ENDBRANCH   1   9
BRANCH   1  15
HETATM   15  C6  UNL     1      -0.100  -0.256  -1.968  1.00  0.00     0.239 C 
BRANCH  15  16
HETATM   16  N2  UNL     1       0.496  -1.501  -2.336  1.00  0.00    -0.079 N 
ATOM     17  H23 UNL     1       1.448  -1.573  -1.976  1.00  0.00     0.274 HD
ATOM     18  H22 UNL     1       0.070  -2.276  -1.828  1.00  0.00     0.274 HD
ATOM     19  H21 UNL     1       0.471  -1.663  -3.343  1.00  0.00     0.274 HD
ENDBRANCH  15  16
ENDBRANCH   1  15
TORSDOF 6
