REMARK  7 active torsions:
REMARK  status: ('A' for Active; 'I' for Inactive)
REMARK    1  A    between atoms: C2_2  and  C3_3 
REMARK    2  A    between atoms: N1_9  and  C8_10 
REMARK    3  A    between atoms: C8_10  and  C9_11 
REMARK    4  A    between atoms: C9_11  and  O1_12 
REMARK    5  A    between atoms: O1_12  and  N2_13 
REMARK    6  A    between atoms: C10_15  and  C11_16 
REMARK    7  A    between atoms: C14_21  and  N4_22 
ROOT
HETATM    1  N2  UNL     1       1.761  -0.588   0.053  1.00  0.00    -0.277 N 
ATOM      2  H2  UNL     1       2.197  -0.673  -0.865  1.00  0.00     0.193 HD
HETATM    3  C10 UNL     1       2.472  -0.078   0.945  1.00  0.00     0.133 C 
ENDROOT
BRANCH   1   4
HETATM    4  O1  UNL     1       0.498  -1.040   0.142  1.00  0.00    -0.276 OA
BRANCH   4   5
HETATM    5  C9  UNL     1      -0.251  -1.626  -0.882  1.00  0.00     0.245 C 
BRANCH   5   6
HETATM    6  C8  UNL     1      -1.622  -2.029  -0.460  1.00  0.00     0.092 C 
BRANCH   6   7
HETATM    7  N1  UNL     1      -2.381  -0.937  -0.000  1.00  0.00    -0.364 N 
HETATM    8  C3  UNL     1      -2.810   0.052  -0.893  1.00  0.00     0.088 C 
HETATM    9  C4  UNL     1      -2.858   1.392  -0.258  1.00  0.00     0.029 C 
HETATM   10  C5  UNL     1      -3.329   1.446   1.144  1.00  0.00     0.044 C 
HETATM   11  C6  UNL     1      -3.004   0.262   1.982  1.00  0.00     0.208 C 
HETATM   12  F1  UNL     1      -4.006   0.164   2.960  1.00  0.00    -0.244 F 
HETATM   13  C7  UNL     1      -2.946  -1.042   1.283  1.00  0.00     0.100 C 
BRANCH   8  14
HETATM   14  C2  UNL     1      -4.024  -0.273  -1.727  1.00  0.00     0.021 C 
HETATM   15  C1  UNL     1      -5.324  -0.272  -1.021  1.00  0.00     0.007 C 
ENDBRANCH   8  14
ENDBRANCH   6   7
ENDBRANCH   5   6
ENDBRANCH   4   5
ENDBRANCH   1   4
BRANCH   3  16
HETATM   16  C11 UNL     1       3.825   0.374   0.734  1.00  0.00     0.072 A 
HETATM   17  C12 UNL     1       4.428   0.271  -0.484  1.00  0.00     0.040 A 
HETATM   18  C13 UNL     1       3.759  -0.302  -1.675  1.00  0.00     0.070 C 
HETATM   19  N3  UNL     1       5.715   0.711  -0.638  1.00  0.00    -0.195 N 
HETATM   20  C14 UNL     1       6.363   1.238   0.413  1.00  0.00     0.679 A 
ATOM     21  H3  UNL     1       6.178   0.639  -1.544  1.00  0.00     0.184 HD
HETATM   22  N5  UNL     1       5.779   1.345   1.617  1.00  0.00    -0.156 N 
HETATM   23  C15 UNL     1       4.536   0.935   1.821  1.00  0.00     0.273 A 
ATOM     24  H5  UNL     1       6.304   1.751   2.392  1.00  0.00     0.187 HD
HETATM   25  O2  UNL     1       3.940   1.010   2.923  1.00  0.00    -0.267 OA
BRANCH  20  26
HETATM   26  N4  UNL     1       7.575   1.660   0.297  1.00  0.00    -0.234 N 
ATOM     27  H42 UNL     1       8.019   1.579  -0.618  1.00  0.00     0.174 HD
ATOM     28  H41 UNL     1       8.067   2.060   1.096  1.00  0.00     0.174 HD
ENDBRANCH  20  26
ENDBRANCH   3  16
TORSDOF 7
