REMARK  9 active torsions:
REMARK  status: ('A' for Active; 'I' for Inactive)
REMARK    1  A    between atoms: N1_1  and  C1_5 
REMARK    2  A    between atoms: C1_5  and  C2_6 
REMARK    3  A    between atoms: C2_6  and  C3_7 
REMARK    4  A    between atoms: C3_7  and  N2_8 
REMARK    5  A    between atoms: N2_8  and  C4_10 
REMARK    6  A    between atoms: C7_17  and  N5_18 
REMARK    7  A    between atoms: N5_18  and  C8_20 
REMARK    8  A    between atoms: C8_20  and  C9_21 
REMARK    9  A    between atoms: C9_21  and  C10_22 
ROOT
HETATM    1  C4  UNL     1       3.469  -0.966  -0.085  1.00  0.00     0.131 A 
HETATM    2  N3  UNL     1       3.735  -0.571  -1.344  1.00  0.00    -0.337 N 
ATOM      3  H3  UNL     1       4.703  -0.425  -1.630  1.00  0.00     0.168 HD
HETATM    4  C5  UNL     1       2.752  -0.367  -2.226  1.00  0.00     0.182 A 
HETATM    5  N4  UNL     1       1.474  -0.558  -1.856  1.00  0.00    -0.347 N 
ATOM      6  H4  UNL     1       0.731  -0.399  -2.537  1.00  0.00     0.167 HD
HETATM    7  C6  UNL     1       1.143  -0.958  -0.596  1.00  0.00     0.108 A 
HETATM    8  C7  UNL     1      -0.184  -1.151  -0.229  1.00  0.00     0.131 A 
HETATM    9  N6  UNL     1      -0.483  -1.545   1.021  1.00  0.00    -0.337 N 
ATOM     10  H6  UNL     1      -1.454  -1.689   1.300  1.00  0.00     0.168 HD
HETATM   11  C15 UNL     1       0.514  -1.747   1.898  1.00  0.00     0.182 A 
HETATM   12  N7  UNL     1       1.818  -1.561   1.549  1.00  0.00    -0.347 N 
ATOM     13  H7  UNL     1       2.549  -1.725   2.242  1.00  0.00     0.167 HD
HETATM   14  C16 UNL     1       2.161  -1.167   0.313  1.00  0.00     0.108 A 
ENDROOT
BRANCH   1  15
HETATM   15  N2  UNL     1       4.386  -1.166   0.772  1.00  0.00    -0.374 N 
ATOM     16  H2  UNL     1       4.089  -1.463   1.701  1.00  0.00     0.161 HD
BRANCH  15  17
HETATM   17  C3  UNL     1       5.793  -1.016   0.564  1.00  0.00     0.123 C 
BRANCH  17  18
HETATM   18  C2  UNL     1       6.450  -0.102   1.564  1.00  0.00     0.047 C 
BRANCH  18  19
HETATM   19  C1  UNL     1       5.864   1.295   1.522  1.00  0.00     0.231 C 
BRANCH  19  20
HETATM   20  N1  UNL     1       6.024   1.906   0.227  1.00  0.00    -0.079 N 
ATOM     21  H13 UNL     1       7.001   1.905  -0.065  1.00  0.00     0.274 HD
ATOM     22  H12 UNL     1       5.635   1.319  -0.511  1.00  0.00     0.274 HD
ATOM     23  H11 UNL     1       5.630   2.846   0.199  1.00  0.00     0.274 HD
ENDBRANCH  19  20
ENDBRANCH  18  19
ENDBRANCH  17  18
ENDBRANCH  15  17
ENDBRANCH   1  15
BRANCH   8  24
HETATM   24  N5  UNL     1      -1.065  -0.932  -1.139  1.00  0.00    -0.374 N 
ATOM     25  H5  UNL     1      -0.740  -0.634  -2.059  1.00  0.00     0.161 HD
BRANCH  24  26
HETATM   26  C8  UNL     1      -2.488  -1.082  -0.937  1.00  0.00     0.121 C 
BRANCH  26  27
HETATM   27  C9  UNL     1      -2.998   0.196  -0.323  1.00  0.00     0.024 C 
BRANCH  27  28
HETATM   28  C10 UNL     1      -4.488   0.149  -0.067  1.00  0.00    -0.013 C 
HETATM   29  C11 UNL     1      -4.912   1.465   0.548  1.00  0.00     0.005 C 
HETATM   30  C12 UNL     1      -6.386   1.518   0.247  1.00  0.00     0.000 C 
HETATM   31  C13 UNL     1      -6.541   0.797  -1.062  1.00  0.00     0.000 C 
HETATM   32  C14 UNL     1      -5.197   0.205  -1.410  1.00  0.00     0.005 C 
ENDBRANCH  27  28
ENDBRANCH  26  27
ENDBRANCH  24  26
ENDBRANCH   8  24
TORSDOF 9
