REMARK  2 active torsions:
REMARK  status: ('A' for Active; 'I' for Inactive)
REMARK    1  A    between atoms: C1_2  and  N1_3 
REMARK    2  A    between atoms: N1_3  and  C2_5 
ROOT
HETATM    1  C2  UNL     1       1.449  -0.308  -0.193  1.00  0.00     0.088 C 
HETATM    2  C3  UNL     1       0.788  -1.237   0.736  1.00  0.00     0.030 C 
HETATM    3  C4  UNL     1      -0.684  -1.205   0.878  1.00  0.00    -0.012 C 
HETATM    4  C5  UNL     1      -1.220   0.036   1.547  1.00  0.00     0.009 C 
HETATM    5  C6  UNL     1      -1.449   1.164   0.576  1.00  0.00    -0.013 C 
HETATM    6  C7  UNL     1      -2.271   0.763  -0.612  1.00  0.00     0.009 C 
HETATM    7  C8  UNL     1      -1.607  -0.385  -1.305  1.00  0.00    -0.013 C 
HETATM    8  C9  UNL     1      -1.460  -1.530  -0.363  1.00  0.00     0.009 C 
HETATM    9  C10 UNL     1      -0.295   0.095  -1.868  1.00  0.00     0.011 C 
HETATM   10  C11 UNL     1       0.583   0.741  -0.834  1.00  0.00     0.009 C 
HETATM   11  C12 UNL     1      -0.119   1.647   0.111  1.00  0.00     0.011 C 
ENDROOT
BRANCH   1  12
HETATM   12  N1  UNL     1       2.579   0.330   0.425  1.00  0.00    -0.363 N 
ATOM     13  H1  UNL     1       2.442   0.930   1.238  1.00  0.00     0.162 HD
BRANCH  12  14
HETATM   14  C1  UNL     1       3.874   0.129  -0.088  1.00  0.00     0.348 C 
HETATM   15  O1  UNL     1       4.126  -0.599  -1.090  1.00  0.00    -0.284 OA
ENDBRANCH  12  14
ENDBRANCH   1  12
TORSDOF 2
