REMARK  2 active torsions:
REMARK  status: ('A' for Active; 'I' for Inactive)
REMARK    1  A    between atoms: N1_2  and  C2_4 
REMARK    2  A    between atoms: C2_4  and  C3_5 
ROOT
HETATM    1  C2  UNL     1       0.134   0.315   0.280  1.00  0.00     0.054 C 
HETATM    2  C8  UNL     1      -0.500   0.400   1.646  1.00  0.00     0.060 C 
HETATM    3  C9  UNL     1      -1.968   0.637   1.269  1.00  0.00     0.239 C 
HETATM    4  N2  UNL     1      -2.173  -0.293   0.192  1.00  0.00    -0.072 N 
HETATM    5  C10 UNL     1      -3.269   0.059  -0.679  1.00  0.00     0.272 C 
HETATM    6  C11 UNL     1      -2.586  -1.556   0.832  1.00  0.00     0.272 C 
HETATM    7  C12 UNL     1      -0.915  -0.437  -0.493  1.00  0.00     0.267 C 
ENDROOT
BRANCH   1   8
HETATM    8  N1  UNL     1       0.457   1.593  -0.182  1.00  0.00    -0.415 N 
HETATM    9  C1  UNL     1      -0.292   2.306  -1.095  1.00  0.00     0.140 C 
ATOM     10  H1  UNL     1       1.305   2.029   0.181  1.00  0.00     0.153 HD
ENDBRANCH   1   8
BRANCH   1  11
HETATM   11  C3  UNL     1       1.405  -0.505   0.250  1.00  0.00     0.015 C 
HETATM   12  C4  UNL     1       2.607   0.283   0.693  1.00  0.00     0.007 C 
HETATM   13  C5  UNL     1       3.755  -0.464   0.018  1.00  0.00     0.000 C 
HETATM   14  C6  UNL     1       3.151  -1.382  -1.005  1.00  0.00     0.000 C 
HETATM   15  C7  UNL     1       1.735  -0.818  -1.186  1.00  0.00     0.007 C 
ENDBRANCH   1  11
TORSDOF 2
