REMARK  2 active torsions:
REMARK  status: ('A' for Active; 'I' for Inactive)
REMARK    1  A    between atoms: C8_8  and  N1_9 
REMARK    2  A    between atoms: N1_9  and  C9_11 
ROOT
HETATM    1  C1  UNL     1      -1.819  -0.880  -1.447  1.00  0.00     0.009 C 
HETATM    2  C2  UNL     1      -1.483   0.595  -1.441  1.00  0.00    -0.012 C 
HETATM    3  C3  UNL     1      -2.325   1.326  -0.431  1.00  0.00     0.009 C 
HETATM    4  C4  UNL     1      -2.104   0.682   0.907  1.00  0.00    -0.012 C 
HETATM    5  C5  UNL     1      -2.397  -0.798   0.913  1.00  0.00     0.009 C 
HETATM    6  C6  UNL     1      -1.487  -1.447  -0.098  1.00  0.00    -0.012 C 
HETATM    7  C7  UNL     1      -0.024  -1.244   0.223  1.00  0.00     0.035 C 
HETATM    8  C8  UNL     1       0.279   0.238   0.253  1.00  0.00     0.027 C 
HETATM    9  C12 UNL     1      -0.033   0.784  -1.110  1.00  0.00     0.035 C 
HETATM   10  C13 UNL     1      -0.660   0.854   1.286  1.00  0.00     0.035 C 
ENDROOT
BRANCH   8  11
HETATM   11  N1  UNL     1       1.602   0.529   0.714  1.00  0.00    -0.408 N 
ATOM     12  H1  UNL     1       1.779   1.054   1.570  1.00  0.00     0.154 HD
BRANCH  11  13
HETATM   13  C9  UNL     1       2.662   0.030  -0.113  1.00  0.00     0.077 A 
HETATM   14  C10 UNL     1       4.046   0.452   0.378  1.00  0.00     0.027 A 
HETATM   15  C11 UNL     1       3.621  -0.981   0.516  1.00  0.00     0.027 A 
ENDBRANCH  11  13
ENDBRANCH   8  11
TORSDOF 2
