REMARK  2 active torsions:
REMARK  status: ('A' for Active; 'I' for Inactive)
REMARK    1  A    between atoms: C6_6  and  C7_7 
REMARK       I    between atoms: C7_7  and  N1_9 
REMARK    2  A    between atoms: N1_9  and  C8_11 
ROOT
HETATM    1  C7  UNL     1       0.211  -0.873  -0.419  1.00  0.00     0.258 C 
HETATM    2  O1  UNL     1       0.515  -2.069  -0.177  1.00  0.00    -0.267 OA
HETATM    3  N1  UNL     1       1.265   0.012  -0.774  1.00  0.00    -0.303 N 
ATOM      4  H1  UNL     1       1.175   0.700  -1.522  1.00  0.00     0.171 HD
ENDROOT
BRANCH   1   5
HETATM    5  C6  UNL     1      -1.188  -0.449  -0.327  1.00  0.00     0.044 A 
HETATM    6  C4  UNL     1      -1.737   0.030   0.844  1.00  0.00    -0.045 A 
HETATM    7  C3  UNL     1      -3.058   0.421   0.898  1.00  0.00     0.014 A 
HETATM    8  C5  UNL     1      -0.904   0.132   2.067  1.00  0.00     0.049 C 
HETATM    9  C2  UNL     1      -3.809   0.319  -0.245  1.00  0.00    -0.061 A 
HETATM   10  C1  UNL     1      -5.229   0.729  -0.220  1.00  0.00     0.048 C 
HETATM   11  C14 UNL     1      -3.252  -0.161  -1.406  1.00  0.00     0.014 A 
HETATM   12  C12 UNL     1      -1.931  -0.560  -1.490  1.00  0.00    -0.045 A 
HETATM   13  C13 UNL     1      -1.345  -1.077  -2.756  1.00  0.00     0.049 C 
ENDBRANCH   1   5
BRANCH   3  14
HETATM   14  C8  UNL     1       2.371  -0.122  -0.063  1.00  0.00     0.151 A 
HETATM   15  N2  UNL     1       3.498   0.575  -0.188  1.00  0.00    -0.340 N 
HETATM   16  C9  UNL     1       4.501   0.297   0.616  1.00  0.00     0.014 A 
ATOM     17  H2  UNL     1       3.582   1.309  -0.892  1.00  0.00     0.167 HD
HETATM   18  C10 UNL     1       5.839   1.037   0.556  1.00  0.00     0.068 C 
HETATM   19  C11 UNL     1       4.312  -0.701   1.537  1.00  0.00     0.077 A 
HETATM   20  S1  UNL     1       2.716  -1.195   1.212  1.00  0.00    -0.064 SA
ENDBRANCH   3  14
TORSDOF 2
