REMARK  2 active torsions:
REMARK  status: ('A' for Active; 'I' for Inactive)
REMARK       I    between atoms: N2_6  and  C4_8 
REMARK    1  A    between atoms: C4_8  and  C5_10 
REMARK    2  A    between atoms: C11_17  and  C12_18 
ROOT
HETATM    1  C5  UNL     1       4.935   0.799   0.321  1.00  0.00     0.226 C 
HETATM    2  C6  UNL     1       5.771   1.578   1.195  1.00  0.00     0.068 C 
HETATM    3  N3  UNL     1       6.446   2.205   1.878  1.00  0.00    -0.197 NA
ENDROOT
BRANCH   1   4
HETATM    4  C4  UNL     1       3.863   0.063   1.082  1.00  0.00     0.236 C 
HETATM    5  N2  UNL     1       2.945  -0.752   0.406  1.00  0.00    -0.312 N 
HETATM    6  C3  UNL     1       1.678  -0.517   0.308  1.00  0.00     0.114 A 
ATOM      7  H2  UNL     1       3.304  -1.595  -0.043  1.00  0.00     0.170 HD
HETATM    8  N1  UNL     1       1.145   0.564   0.868  1.00  0.00    -0.345 N 
HETATM    9  C7  UNL     1       0.895  -1.407  -0.388  1.00  0.00    -0.011 A 
HETATM   10  C2  UNL     1      -0.191   0.859   0.793  1.00  0.00     0.014 A 
ATOM     11  H1  UNL     1       1.757   1.202   1.376  1.00  0.00     0.167 HD
HETATM   12  C1  UNL     1      -0.679   2.058   1.466  1.00  0.00     0.068 C 
HETATM   13  C11 UNL     1      -1.004  -0.040   0.087  1.00  0.00    -0.022 A 
HETATM   14  C9  UNL     1      -0.475  -1.181  -0.513  1.00  0.00    -0.043 A 
HETATM   15  C10 UNL     1      -1.195  -2.149  -1.298  1.00  0.00     0.049 C 
HETATM   16  C8  UNL     1       1.568  -2.613  -0.992  1.00  0.00     0.052 C 
HETATM   17  O1  UNL     1       3.770   0.167   2.342  1.00  0.00    -0.272 OA
BRANCH  13  18
HETATM   18  C12 UNL     1      -2.412   0.270  -0.031  1.00  0.00    -0.022 C 
HETATM   19  C13 UNL     1      -2.556   1.582  -0.826  1.00  0.00     0.019 C 
HETATM   20  C14 UNL     1      -3.023   0.648   1.356  1.00  0.00     0.019 C 
HETATM   21  C15 UNL     1      -3.391  -0.740  -0.539  1.00  0.00     0.019 C 
ENDBRANCH  13  18
ENDBRANCH   1   4
TORSDOF 2
