REMARK  1 active torsions:
REMARK  status: ('A' for Active; 'I' for Inactive)
REMARK    1  A    between atoms: C7_7  and  C8_8 
ROOT
HETATM    1  C8  UNL     1      -0.450  -0.700   0.036  1.00  0.00     0.152 C 
HETATM    2  C9  UNL     1      -1.162  -0.326   1.276  1.00  0.00     0.268 C 
HETATM    3  N1  UNL     1      -2.416   0.322   1.135  1.00  0.00    -0.070 N 
HETATM    4  C10 UNL     1      -2.311   1.720   1.595  1.00  0.00     0.272 C 
HETATM    5  C11 UNL     1      -3.389  -0.278   2.065  1.00  0.00     0.272 C 
HETATM    6  C12 UNL     1      -3.012   0.341  -0.144  1.00  0.00     0.273 C 
HETATM    7  C13 UNL     1      -2.279  -0.422  -1.213  1.00  0.00     0.078 C 
HETATM    8  C14 UNL     1      -2.561  -1.875  -1.070  1.00  0.00     0.047 C 
HETATM    9  C15 UNL     1      -2.866   0.032  -2.555  1.00  0.00     0.047 C 
HETATM   10  O1  UNL     1      -0.937  -0.086  -1.113  1.00  0.00    -0.372 OA
ENDROOT
BRANCH   1  11
HETATM   11  C7  UNL     1       1.026  -0.454   0.189  1.00  0.00     0.017 C 
HETATM   12  C6  UNL     1       1.398   0.985   0.438  1.00  0.00     0.011 C 
HETATM   13  C4  UNL     1       2.836   0.923   0.975  1.00  0.00    -0.018 C 
HETATM   14  C3  UNL     1       3.756   0.192   0.076  1.00  0.00     0.008 C 
HETATM   15  C5  UNL     1       3.321   2.344   1.278  1.00  0.00     0.010 C 
HETATM   16  C2  UNL     1       3.147  -0.378  -1.162  1.00  0.00    -0.018 C 
HETATM   17  C1  UNL     1       4.067  -1.483  -1.648  1.00  0.00     0.010 C 
HETATM   18  C16 UNL     1       1.778  -0.896  -1.047  1.00  0.00     0.011 C 
ENDBRANCH   1  11
TORSDOF 1
