REMARK  2 active torsions:
REMARK  status: ('A' for Active; 'I' for Inactive)
REMARK    1  A    between atoms: C5_7  and  C6_8 
REMARK       I    between atoms: C6_8  and  N2_10 
REMARK    2  A    between atoms: N2_10  and  C7_12 
ROOT
HETATM    1  C6  UNL     1      -0.642  -0.332   0.462  1.00  0.00     0.258 C 
HETATM    2  O1  UNL     1      -0.394   0.355   1.467  1.00  0.00    -0.267 OA
HETATM    3  N2  UNL     1       0.412  -1.037  -0.160  1.00  0.00    -0.303 N 
ATOM      4  H2  UNL     1       0.210  -1.899  -0.667  1.00  0.00     0.171 HD
ENDROOT
BRANCH   1   5
HETATM    5  C5  UNL     1      -1.977  -0.438  -0.102  1.00  0.00     0.041 A 
HETATM    6  C4  UNL     1      -2.210  -1.219  -1.230  1.00  0.00     0.034 A 
HETATM    7  C3  UNL     1      -3.459  -1.325  -1.766  1.00  0.00     0.089 A 
HETATM    8  N1  UNL     1      -4.498  -0.674  -1.212  1.00  0.00    -0.369 N 
HETATM    9  C2  UNL     1      -4.339   0.089  -0.131  1.00  0.00     0.012 A 
ATOM     10  H1  UNL     1      -5.425  -0.766  -1.627  1.00  0.00     0.165 HD
HETATM   11  C1  UNL     1      -5.469   0.801   0.474  1.00  0.00     0.068 C 
HETATM   12  C12 UNL     1      -3.070   0.205   0.424  1.00  0.00    -0.024 A 
HETATM   13  C13 UNL     1      -2.921   1.052   1.615  1.00  0.00     0.051 C 
ENDBRANCH   1   5
BRANCH   3  14
HETATM   14  C7  UNL     1       1.648  -0.598  -0.095  1.00  0.00     0.152 A 
HETATM   15  N3  UNL     1       2.743  -1.136  -0.619  1.00  0.00    -0.339 N 
HETATM   16  C8  UNL     1       3.885  -0.528  -0.434  1.00  0.00     0.020 A 
ATOM     17  H3  UNL     1       2.694  -2.003  -1.153  1.00  0.00     0.168 HD
HETATM   18  C9  UNL     1       5.204  -1.058  -0.991  1.00  0.00     0.069 C 
HETATM   19  C10 UNL     1       3.883   0.632   0.293  1.00  0.00     0.004 A 
HETATM   20  C11 UNL     1       5.047   1.516   0.648  1.00  0.00     0.058 C 
HETATM   21  S1  UNL     1       2.230   0.801   0.681  1.00  0.00    -0.057 SA
ENDBRANCH   3  14
TORSDOF 2
