REMARK  6 active torsions:
REMARK  status: ('A' for Active; 'I' for Inactive)
REMARK    1  A    between atoms: N1_2  and  O1_3 
REMARK    2  A    between atoms: N1_2  and  C2_5 
REMARK    3  A    between atoms: C5_9  and  O2_11 
REMARK    4  A    between atoms: O2_11  and  C7_12 
REMARK    5  A    between atoms: C10_15  and  N2_16 
REMARK    6  A    between atoms: C20_30  and  C21_31 
ROOT
HETATM    1  O2  UNL     1      -1.078  -0.455   1.200  1.00  0.00    -0.325 OA
ENDROOT
BRANCH   1   2
HETATM    2  C5  UNL     1      -2.159  -0.105   0.401  1.00  0.00     0.069 C 
HETATM    3  C4  UNL     1      -3.425  -0.239   1.229  1.00  0.00     0.078 C 
HETATM    4  C3  UNL     1      -4.648   0.120   0.419  1.00  0.00    -0.005 C 
HETATM    5  C2  UNL     1      -5.450   1.029   0.897  1.00  0.00     0.212 C 
HETATM    6  C20 UNL     1      -4.798  -0.616  -0.842  1.00  0.00     0.120 C 
HETATM    7  F1  UNL     1      -5.109   1.584   2.106  1.00  0.00    -0.184 F 
HETATM    8  C19 UNL     1      -3.481  -0.681  -1.628  1.00  0.00     0.023 C 
HETATM    9  C18 UNL     1      -2.312  -1.060  -0.757  1.00  0.00     0.039 C 
HETATM   10  C6  UNL     1      -2.038   1.306  -0.134  1.00  0.00     0.047 C 
BRANCH   5  11
HETATM   11  N1  UNL     1      -6.624   1.483   0.284  1.00  0.00    -0.239 N 
HETATM   12  C1  UNL     1      -7.015   2.891   0.502  1.00  0.00     0.188 C 
BRANCH  11  13
HETATM   13  O1  UNL     1      -7.450   0.783  -0.482  1.00  0.00    -0.286 OA
ATOM     14  H1  UNL     1      -7.199  -0.122  -0.622  1.00  0.00     0.244 HD
ENDBRANCH  11  13
ENDBRANCH   5  11
BRANCH   6  15
HETATM   15  C21 UNL     1      -5.273  -2.007  -0.660  1.00  0.00     0.181 C 
HETATM   16  O5  UNL     1      -4.612  -2.949  -1.150  1.00  0.00    -0.647 OA
HETATM   17  O6  UNL     1      -6.424  -2.360   0.027  1.00  0.00    -0.647 OA
ENDBRANCH   6  15
ENDBRANCH   1   2
BRANCH   1  18
HETATM   18  C7  UNL     1       0.265  -0.461   0.797  1.00  0.00     0.142 A 
HETATM   19  C8  UNL     1       0.835  -1.589   0.258  1.00  0.00     0.058 A 
HETATM   20  C9  UNL     1       2.153  -1.621  -0.146  1.00  0.00     0.035 A 
HETATM   21  C10 UNL     1       2.912  -0.481   0.000  1.00  0.00     0.055 A 
HETATM   22  C17 UNL     1       2.287   0.613   0.544  1.00  0.00     0.119 A 
HETATM   23  N3  UNL     1       1.012   0.641   0.934  1.00  0.00    -0.345 N 
ATOM     24  H3  UNL     1       0.612   1.491   1.331  1.00  0.00     0.167 HD
BRANCH  21  25
HETATM   25  N2  UNL     1       4.274  -0.414  -0.384  1.00  0.00    -0.289 N 
HETATM   26  C11 UNL     1       5.382  -0.048   0.463  1.00  0.00     0.173 C 
HETATM   27  C12 UNL     1       6.523   0.117  -0.451  1.00  0.00     0.089 C 
HETATM   28  C13 UNL     1       7.717  -0.790  -0.210  1.00  0.00     0.040 C 
HETATM   29  C15 UNL     1       7.456   1.276  -0.184  1.00  0.00     0.040 C 
HETATM   30  O3  UNL     1       6.042  -0.002  -1.741  1.00  0.00    -0.291 OA
HETATM   31  C14 UNL     1       8.584   0.369  -0.686  1.00  0.00     0.006 C 
HETATM   32  C16 UNL     1       4.831  -0.689  -1.673  1.00  0.00     0.368 C 
HETATM   33  O4  UNL     1       4.299  -1.417  -2.550  1.00  0.00    -0.238 OA
ENDBRANCH  21  25
ENDBRANCH   1  18
TORSDOF 6
