REMARK  2 active torsions:
REMARK  status: ('A' for Active; 'I' for Inactive)
REMARK       I    between atoms: C1_4  and  N3_6 
REMARK    1  A    between atoms: N3_6  and  C2_8 
REMARK    2  A    between atoms: C3_12  and  C4_13 
ROOT
HETATM    1  C2  UNL     1      -0.042  -0.395  -0.386  1.00  0.00     0.327 A 
HETATM    2  N4  UNL     1       0.508  -1.742  -0.227  1.00  0.00    -0.035 N 
ATOM      3  H41 UNL     1       0.394  -2.614  -0.744  1.00  0.00     0.280 HD
ATOM      4  H42 UNL     1       0.360  -2.486   0.455  1.00  0.00     0.280 HD
HETATM    5  C3  UNL     1       1.430  -0.661  -0.316  1.00  0.00     0.326 A 
ENDROOT
BRANCH   1   6
HETATM    6  N3  UNL     1      -0.839   0.080   0.691  1.00  0.00    -0.335 N 
HETATM    7  C1  UNL     1      -2.221   0.257   0.464  1.00  0.00     0.183 C 
HETATM    8  N1  UNL     1      -3.031  -0.687   0.733  1.00  0.00    -0.374 N 
HETATM    9  N2  UNL     1      -2.699   1.473  -0.058  1.00  0.00    -0.064 NA
ATOM     10  H12 UNL     1      -4.030  -0.559   0.569  1.00  0.00     0.158 HD
ATOM     11  H11 UNL     1      -2.684  -1.569   1.111  1.00  0.00     0.158 HD
ATOM     12  H3  UNL     1      -0.425   0.287   1.600  1.00  0.00     0.164 HD
ENDBRANCH   1   6
BRANCH   5  13
HETATM   13  C4  UNL     1       2.181  -0.182   0.841  1.00  0.00     0.266 C 
HETATM   14  N5  UNL     1       3.448   0.435   0.696  1.00  0.00    -0.060 NA
HETATM   15  O1  UNL     1       1.724  -0.303   1.994  1.00  0.00    -0.274 OA
ENDBRANCH   5  13
TORSDOF 2
