REMARK  2 active torsions:
REMARK  status: ('A' for Active; 'I' for Inactive)
REMARK    1  A    between atoms: C1_2  and  C2_4 
REMARK    2  A    between atoms: N3_10  and  N4_11 
ROOT
HETATM    1  C2  UNL     1       0.592   0.138  -0.723  1.00  0.00     0.390 C 
HETATM    2  N2  UNL     1       0.291  -1.192  -1.286  1.00  0.00    -0.043 N 
ATOM      3  H21 UNL     1       1.102  -1.808  -1.336  1.00  0.00     0.280 HD
ATOM      4  H22 UNL     1       0.088  -1.177  -2.286  1.00  0.00     0.280 HD
HETATM    5  C3  UNL     1      -0.790  -1.719  -0.482  1.00  0.00     0.257 C 
HETATM    6  C4  UNL     1      -1.383  -0.522   0.273  1.00  0.00     0.172 C 
HETATM    7  N3  UNL     1      -0.687   0.554  -0.309  1.00  0.00    -0.294 N 
ENDROOT
BRANCH   1   8
HETATM    8  C1  UNL     1       1.598  -0.061   0.309  1.00  0.00     0.282 C 
HETATM    9  N1  UNL     1       2.085   1.065   1.026  1.00  0.00    -0.059 NA
HETATM   10  O1  UNL     1       2.077  -1.181   0.619  1.00  0.00    -0.272 OA
ENDBRANCH   1   8
BRANCH   7  11
HETATM   11  N4  UNL     1      -0.866   1.798   0.179  1.00  0.00    -0.345 N 
ATOM     12  H42 UNL     1      -0.362   2.578  -0.243  1.00  0.00     0.176 HD
ATOM     13  H41 UNL     1      -1.793   2.100   0.479  1.00  0.00     0.176 HD
ENDBRANCH   7  11
TORSDOF 2
