REMARK  3 active torsions:
REMARK  status: ('A' for Active; 'I' for Inactive)
REMARK    1  A    between atoms: C1_4  and  C2_6 
REMARK    2  A    between atoms: C2_6  and  N3_7 
REMARK    3  A    between atoms: C2_6  and  C3_11 
ROOT
HETATM    1  C2  UNL     1       0.275  -0.691   0.077  1.00  0.00     0.335 C 
ENDROOT
BRANCH   1   2
HETATM    2  C1  UNL     1      -1.074  -0.128   0.256  1.00  0.00     0.126 C 
HETATM    3  N1  UNL     1      -1.739  -0.305   1.349  1.00  0.00    -0.389 N 
ATOM      4  H12 UNL     1      -2.673   0.085   1.473  1.00  0.00     0.157 HD
ATOM      5  H11 UNL     1      -1.276  -0.852   2.075  1.00  0.00     0.157 HD
HETATM    6  N2  UNL     1      -1.720   0.636  -0.758  1.00  0.00    -0.085 NA
ENDBRANCH   1   2
BRANCH   1   7
HETATM    7  N3  UNL     1       0.258  -1.579  -1.041  1.00  0.00    -0.060 N 
ATOM      8  H33 UNL     1      -0.457  -2.301  -0.954  1.00  0.00     0.275 HD
ATOM      9  H32 UNL     1      -0.094  -1.132  -1.888  1.00  0.00     0.275 HD
ATOM     10  H31 UNL     1       1.192  -1.969  -1.165  1.00  0.00     0.275 HD
ENDBRANCH   1   7
BRANCH   1  11
HETATM   11  C3  UNL     1       1.300   0.372  -0.041  1.00  0.00     0.268 C 
HETATM   12  N4  UNL     1       1.513   1.366   0.930  1.00  0.00    -0.060 NA
HETATM   13  O1  UNL     1       2.026   0.390  -1.067  1.00  0.00    -0.274 OA
ENDBRANCH   1  11
TORSDOF 3
