REMARK  8 active torsions:
REMARK  status: ('A' for Active; 'I' for Inactive)
REMARK    1  A    between atoms: C2_2  and  C3_3 
REMARK    2  A    between atoms: C3_3  and  C4_4 
REMARK    3  A    between atoms: C4_4  and  N1_5 
REMARK    4  A    between atoms: N1_5  and  O1_6 
REMARK    5  A    between atoms: N1_5  and  C5_8 
REMARK    6  A    between atoms: C5_8  and  N2_9 
REMARK    7  A    between atoms: N2_9  and  C6_12 
REMARK    8  A    between atoms: C6_12  and  C7_13 
ROOT
HETATM    1  N2  UNL     1      -0.425  -0.613   0.144  1.00  0.00    -0.058 N 
ATOM      2  H21 UNL     1      -0.818  -1.231  -0.566  1.00  0.00     0.279 HD
ATOM      3  H22 UNL     1      -0.386   0.253  -0.394  1.00  0.00     0.279 HD
ENDROOT
BRANCH   1   4
HETATM    4  C5  UNL     1       0.905  -1.045   0.533  1.00  0.00     0.352 C 
BRANCH   4   5
HETATM    5  N1  UNL     1       1.781  -1.168  -0.616  1.00  0.00    -0.174 NA
BRANCH   5   6
HETATM    6  C4  UNL     1       2.585   0.024  -0.805  1.00  0.00     0.126 C 
BRANCH   6   7
HETATM    7  C3  UNL     1       3.838  -0.020   0.067  1.00  0.00     0.043 C 
BRANCH   7   8
HETATM    8  C2  UNL     1       4.594   1.245  -0.198  1.00  0.00    -0.036 C 
HETATM    9  C1  UNL     1       5.831   1.236  -0.677  1.00  0.00     0.007 C 
ENDBRANCH   7   8
ENDBRANCH   6   7
ENDBRANCH   5   6
BRANCH   5  10
HETATM   10  O1  UNL     1       2.608  -2.218  -0.431  1.00  0.00    -0.311 OA
ATOM     11  H1  UNL     1       2.081  -2.999  -0.307  1.00  0.00     0.237 HD
ENDBRANCH   5  10
ENDBRANCH   4   5
ENDBRANCH   1   4
BRANCH   1  12
HETATM   12  C6  UNL     1      -1.310  -0.485   1.259  1.00  0.00     0.275 C 
BRANCH  12  13
HETATM   13  C7  UNL     1      -2.666  -0.047   0.884  1.00  0.00     0.001 A 
HETATM   14  C8  UNL     1      -3.715   0.158   1.755  1.00  0.00     0.117 A 
HETATM   15  N3  UNL     1      -4.785   0.553   1.031  1.00  0.00    -0.310 N 
HETATM   16  N4  UNL     1      -4.485   0.615  -0.255  1.00  0.00    -0.308 N 
ATOM     17  H3  UNL     1      -5.700   0.774   1.423  1.00  0.00     0.186 HD
HETATM   18  C9  UNL     1      -5.389   1.003  -1.336  1.00  0.00     0.177 C 
HETATM   19  C10 UNL     1      -3.194   0.252  -0.366  1.00  0.00     0.119 A 
ENDBRANCH  12  13
ENDBRANCH   1  12
TORSDOF 8
