REMARK  12 active torsions:
REMARK  status: ('A' for Active; 'I' for Inactive)
REMARK    1  A    between atoms: C2_2  and  C3_3 
REMARK    2  A    between atoms: C3_3  and  C5_5 
REMARK    3  A    between atoms: C5_5  and  N1_6 
REMARK    4  A    between atoms: C5_5  and  C7_10 
REMARK       I    between atoms: C7_10  and  N2_12 
REMARK    5  A    between atoms: N2_12  and  C8_14 
REMARK    6  A    between atoms: C9_17  and  N4_18 
REMARK    7  A    between atoms: N4_18  and  C10_20 
REMARK    8  A    between atoms: C10_20  and  C11_21 
REMARK    9  A    between atoms: C11_21  and  N5_22 
REMARK   10  A    between atoms: N5_22  and  C12_24 
REMARK   11  A    between atoms: C13_27  and  O2_28 
REMARK   12  A    between atoms: C18_36  and  N8_37 
ROOT
HETATM    1  C8  UNL     1      -1.964   0.670  -0.861  1.00  0.00     0.132 A 
HETATM    2  N3  UNL     1      -0.829   0.653  -0.167  1.00  0.00    -0.325 N 
ATOM      3  H3  UNL     1      -0.889   0.510   0.841  1.00  0.00     0.169 HD
HETATM    4  C9  UNL     1       0.428   0.817  -0.722  1.00  0.00     0.142 A 
HETATM    5  C18 UNL     1       0.470   1.008  -2.078  1.00  0.00     0.172 A 
HETATM    6  C19 UNL     1      -0.700   1.032  -2.846  1.00  0.00     0.107 A 
HETATM    7  N9  UNL     1      -0.626   1.233  -4.270  1.00  0.00    -0.098 NA
HETATM    8  C20 UNL     1      -1.906   0.865  -2.243  1.00  0.00     0.115 A 
HETATM    9  C21 UNL     1      -3.078   0.898  -3.069  1.00  0.00     0.105 C 
HETATM   10  N10 UNL     1      -4.033   0.932  -3.724  1.00  0.00    -0.191 NA
ENDROOT
BRANCH   1  11
HETATM   11  N2  UNL     1      -3.274   0.516  -0.326  1.00  0.00    -0.310 N 
HETATM   12  C7  UNL     1      -3.586   0.291   0.996  1.00  0.00     0.254 C 
HETATM   13  O1  UNL     1      -2.677   0.169   1.878  1.00  0.00    -0.271 OA
ATOM     14  H2  UNL     1      -4.053   0.578  -0.982  1.00  0.00     0.170 HD
BRANCH  12  15
HETATM   15  C5  UNL     1      -4.960   0.145   1.622  1.00  0.00     0.280 C 
BRANCH  15  16
HETATM   16  C3  UNL     1      -6.099   0.268   0.724  1.00  0.00     0.021 C 
HETATM   17  C4  UNL     1      -7.442  -0.157   1.217  1.00  0.00     0.012 C 
BRANCH  16  18
HETATM   18  C2  UNL     1      -6.240   1.606   0.010  1.00  0.00     0.002 C 
HETATM   19  C1  UNL     1      -7.136   1.536  -1.189  1.00  0.00     0.005 C 
ENDBRANCH  16  18
ENDBRANCH  15  16
BRANCH  15  20
HETATM   20  N1  UNL     1      -4.896  -1.091   2.415  1.00  0.00    -0.066 N 
HETATM   21  C6  UNL     1      -4.774  -2.256   1.606  1.00  0.00     0.267 C 
ATOM     22  H12 UNL     1      -4.147  -1.045   3.106  1.00  0.00     0.277 HD
ATOM     23  H11 UNL     1      -5.696  -1.164   3.044  1.00  0.00     0.277 HD
ENDBRANCH  15  20
ENDBRANCH  12  15
ENDBRANCH   1  11
BRANCH   5  24
HETATM   24  N8  UNL     1       1.671   1.180  -2.783  1.00  0.00    -0.110 N 
HETATM   25  O3  UNL     1       2.242   2.274  -2.796  1.00  0.00    -0.532 OA
HETATM   26  O4  UNL     1       2.205   0.140  -3.486  1.00  0.00    -0.532 OA
ENDBRANCH   5  24
BRANCH   4  27
HETATM   27  N4  UNL     1       1.404   0.780   0.011  1.00  0.00    -0.352 N 
ATOM     28  H4  UNL     1       1.022   0.622   0.943  1.00  0.00     0.166 HD
BRANCH  27  29
HETATM   29  C10 UNL     1       2.746   0.846   0.195  1.00  0.00     0.082 C 
BRANCH  29  30
HETATM   30  C11 UNL     1       3.535  -0.466  -0.003  1.00  0.00     0.165 C 
BRANCH  30  31
HETATM   31  N5  UNL     1       4.880  -0.171   0.239  1.00  0.00    -0.371 N 
ATOM     32  H5  UNL     1       5.018   0.839   0.195  1.00  0.00     0.161 HD
BRANCH  31  33
HETATM   33  C12 UNL     1       5.947  -0.716   0.486  1.00  0.00     0.114 A 
HETATM   34  N6  UNL     1       7.069   0.063   0.651  1.00  0.00    -0.308 N 
HETATM   35  C13 UNL     1       8.273  -0.439   0.926  1.00  0.00     0.226 A 
ATOM     36  H6  UNL     1       6.975   1.074   0.558  1.00  0.00     0.171 HD
HETATM   37  N7  UNL     1       8.431  -1.758   1.055  1.00  0.00    -0.298 N 
HETATM   38  C15 UNL     1       7.399  -2.577   0.911  1.00  0.00     0.201 A 
ATOM     39  H7  UNL     1       9.353  -2.139   1.266  1.00  0.00     0.171 HD
HETATM   40  F1  UNL     1       7.589  -3.919   1.049  1.00  0.00    -0.185 F 
HETATM   41  C16 UNL     1       6.127  -2.064   0.621  1.00  0.00     0.038 A 
HETATM   42  C17 UNL     1       5.027  -3.068   0.473  1.00  0.00     0.057 C 
BRANCH  35  43
HETATM   43  O2  UNL     1       9.405   0.353   1.091  1.00  0.00    -0.327 OA
HETATM   44  C14 UNL     1       9.353   1.769   0.975  1.00  0.00     0.213 C 
ENDBRANCH  35  43
ENDBRANCH  31  33
ENDBRANCH  30  31
ENDBRANCH  29  30
ENDBRANCH  27  29
ENDBRANCH   4  27
TORSDOF 12
