REMARK  12 active torsions:
REMARK  status: ('A' for Active; 'I' for Inactive)
REMARK    1  A    between atoms: O1_2  and  C2_3 
REMARK    2  A    between atoms: C4_5  and  C5_6 
REMARK       I    between atoms: C5_6  and  N1_8 
REMARK    3  A    between atoms: N1_8  and  C6_10 
REMARK    4  A    between atoms: C6_10  and  C7_11 
REMARK    5  A    between atoms: C8_14  and  O4_15 
REMARK    6  A    between atoms: O4_15  and  C9_16 
REMARK    7  A    between atoms: C9_16  and  C10_17 
REMARK    8  A    between atoms: C10_17  and  C11_18 
REMARK    9  A    between atoms: C15_23  and  O5_24 
REMARK   10  A    between atoms: C16_26  and  N3_27 
REMARK   11  A    between atoms: N3_27  and  C17_28 
REMARK   12  A    between atoms: C18_31  and  N5_32 
ROOT
HETATM    1  C17 UNL     1      -3.125  -1.033  -0.443  1.00  0.00     0.218 A 
HETATM    2  N4  UNL     1      -4.166  -0.708   0.384  1.00  0.00    -0.163 N 
ATOM      3  H4  UNL     1      -4.119   0.185   0.875  1.00  0.00     0.187 HD
HETATM    4  C18 UNL     1      -5.235  -1.471   0.595  1.00  0.00     0.683 A 
HETATM    5  N6  UNL     1      -5.274  -2.642  -0.062  1.00  0.00    -0.177 N 
ATOM      6  H6  UNL     1      -6.081  -3.249   0.079  1.00  0.00     0.185 HD
HETATM    7  C21 UNL     1      -4.305  -3.054  -0.895  1.00  0.00     0.157 A 
HETATM    8  N7  UNL     1      -4.409  -4.303  -1.558  1.00  0.00    -0.080 NA
HETATM    9  C22 UNL     1      -3.210  -2.263  -1.106  1.00  0.00     0.144 A 
HETATM   10  C23 UNL     1      -2.160  -2.688  -1.997  1.00  0.00     0.108 C 
HETATM   11  N8  UNL     1      -1.312  -3.018  -2.727  1.00  0.00    -0.191 NA
ENDROOT
BRANCH   1  12
HETATM   12  N3  UNL     1      -2.206  -0.324  -0.592  1.00  0.00    -0.379 NA
BRANCH  12  13
HETATM   13  C16 UNL     1      -1.164   0.475  -0.765  1.00  0.00     0.178 A 
HETATM   14  C2  UNL     1      -1.141   1.484  -1.721  1.00  0.00     0.113 A 
HETATM   15  C3  UNL     1      -0.048   2.272  -1.839  1.00  0.00     0.060 A 
HETATM   16  C4  UNL     1       1.114   2.137  -1.030  1.00  0.00     0.071 A 
HETATM   17  C8  UNL     1       1.054   1.116  -0.095  1.00  0.00     0.121 A 
HETATM   18  C15 UNL     1      -0.026   0.303   0.061  1.00  0.00     0.144 A 
BRANCH  14  19
HETATM   19  O1  UNL     1      -2.282   1.606  -2.507  1.00  0.00    -0.352 OA
HETATM   20  C1  UNL     1      -2.273   2.630  -3.485  1.00  0.00     0.210 C 
ENDBRANCH  14  19
BRANCH  16  21
HETATM   21  C5  UNL     1       2.106   3.155  -1.174  1.00  0.00     0.255 C 
HETATM   22  O2  UNL     1       2.021   3.947  -2.200  1.00  0.00    -0.268 OA
HETATM   23  N1  UNL     1       3.195   3.437  -0.363  1.00  0.00    -0.348 N 
ATOM     24  H1  UNL     1       3.348   2.889   0.483  1.00  0.00     0.163 HD
BRANCH  23  25
HETATM   25  C6  UNL     1       4.137   4.523  -0.710  1.00  0.00     0.222 C 
BRANCH  25  26
HETATM   26  C7  UNL     1       5.170   4.571   0.330  1.00  0.00     0.248 C 
HETATM   27  N2  UNL     1       6.211   5.526   0.253  1.00  0.00    -0.061 NA
HETATM   28  O3  UNL     1       5.139   3.775   1.288  1.00  0.00    -0.275 OA
ENDBRANCH  25  26
ENDBRANCH  23  25
ENDBRANCH  16  21
BRANCH  17  29
HETATM   29  O4  UNL     1       2.214   0.970   0.682  1.00  0.00    -0.347 OA
BRANCH  29  30
HETATM   30  C9  UNL     1       3.257   0.122   0.356  1.00  0.00     0.179 C 
BRANCH  30  31
HETATM   31  C10 UNL     1       3.238  -1.318   0.421  1.00  0.00     0.070 C 
BRANCH  31  32
HETATM   32  C11 UNL     1       3.272  -2.024   1.733  1.00  0.00     0.109 A 
HETATM   33  F1  UNL     1       2.299  -1.791   2.654  1.00  0.00    -0.242 F 
HETATM   34  C12 UNL     1       3.586  -3.538   1.626  1.00  0.00     0.051 A 
HETATM   35  C13 UNL     1       4.542  -2.590   2.258  1.00  0.00     0.024 A 
HETATM   36  C14 UNL     1       5.841  -2.391   1.537  1.00  0.00     0.013 C 
ENDBRANCH  31  32
ENDBRANCH  30  31
ENDBRANCH  29  30
ENDBRANCH  17  29
BRANCH  18  37
HETATM   37  O5  UNL     1      -0.078  -0.714   1.012  1.00  0.00    -0.355 OA
ATOM     38  H5  UNL     1      -0.832  -1.282   1.121  1.00  0.00     0.218 HD
ENDBRANCH  18  37
ENDBRANCH  12  13
ENDBRANCH   1  12
BRANCH   4  39
HETATM   39  N5  UNL     1      -6.297  -1.076   1.476  1.00  0.00    -0.226 N 
HETATM   40  C19 UNL     1      -6.295   0.162   2.197  1.00  0.00     0.168 C 
HETATM   41  C20 UNL     1      -7.411  -1.983   1.630  1.00  0.00     0.168 C 
ENDBRANCH   4  39
TORSDOF 12
