REMARK  7 active torsions:
REMARK  status: ('A' for Active; 'I' for Inactive)
REMARK    1  A    between atoms: O1_2  and  C2_3 
REMARK    2  A    between atoms: C2_3  and  C3_5 
REMARK    3  A    between atoms: C3_5  and  C5_7 
REMARK    4  A    between atoms: C5_7  and  O3_8 
REMARK    5  A    between atoms: C5_7  and  C7_10 
REMARK    6  A    between atoms: C12_18  and  C13_19 
REMARK    7  A    between atoms: C13_19  and  C14_20 
ROOT
HETATM    1  C7  UNL     1      -0.022  -0.425  -0.061  1.00  0.00     0.022 C 
HETATM    2  C8  UNL     1      -0.406  -1.873  -0.315  1.00  0.00     0.009 C 
HETATM    3  C9  UNL     1      -1.916  -2.108  -0.163  1.00  0.00     0.014 C 
HETATM    4  C10 UNL     1      -2.422  -1.050   0.647  1.00  0.00     0.018 C 
HETATM    5  C11 UNL     1      -3.792  -0.883   1.124  1.00  0.00     0.245 C 
HETATM    6  N1  UNL     1      -3.273   0.395   1.658  1.00  0.00    -0.064 N 
ATOM      7  H11 UNL     1      -2.929   0.493   2.613  1.00  0.00     0.278 HD
ATOM      8  H12 UNL     1      -3.875   1.196   1.852  1.00  0.00     0.278 HD
HETATM    9  C12 UNL     1      -2.352   0.338   0.462  1.00  0.00     0.139 C 
HETATM   10  C15 UNL     1      -0.899   0.241   0.930  1.00  0.00     0.030 C 
HETATM   11  C16 UNL     1      -1.429  -0.889   1.828  1.00  0.00     0.021 C 
ENDROOT
BRANCH   1  12
HETATM   12  C5  UNL     1       1.437  -0.377   0.314  1.00  0.00     0.138 C 
BRANCH  12  13
HETATM   13  C3  UNL     1       1.822   1.049   0.567  1.00  0.00     0.111 C 
HETATM   14  C4  UNL     1       1.325   1.935  -0.554  1.00  0.00     0.023 C 
BRANCH  13  15
HETATM   15  C2  UNL     1       3.285   1.271   0.609  1.00  0.00     0.264 C 
HETATM   16  O2  UNL     1       3.802   1.718   1.663  1.00  0.00    -0.265 OA
BRANCH  15  17
HETATM   17  O1  UNL     1       4.119   1.010  -0.457  1.00  0.00    -0.326 OA
HETATM   18  C1  UNL     1       5.507   1.255  -0.322  1.00  0.00     0.213 C 
ENDBRANCH  15  17
ENDBRANCH  13  15
ENDBRANCH  12  13
BRANCH  12  19
HETATM   19  O3  UNL     1       1.867  -1.285   1.212  1.00  0.00    -0.389 OA
HETATM   20  C6  UNL     1       2.797  -2.190   0.904  1.00  0.00     0.202 C 
ENDBRANCH  12  19
ENDBRANCH   1  12
BRANCH   9  21
HETATM   21  C13 UNL     1      -2.753   1.326  -0.466  1.00  0.00     0.051 C 
BRANCH  21  22
HETATM   22  C14 UNL     1      -2.389   1.442  -1.873  1.00  0.00     0.088 C 
HETATM   23  S1  UNL     1      -2.864   0.058  -2.940  1.00  0.00    -0.098 SA
ENDBRANCH  21  22
ENDBRANCH   9  21
TORSDOF 7
