REMARK  9 active torsions:
REMARK  status: ('A' for Active; 'I' for Inactive)
REMARK    1  A    between atoms: C2_2  and  C3_3 
REMARK    2  A    between atoms: C3_3  and  C4_4 
REMARK    3  A    between atoms: C4_4  and  N1_5 
REMARK    4  A    between atoms: C7_11  and  O1_12 
REMARK    5  A    between atoms: O1_12  and  C8_13 
REMARK    6  A    between atoms: C8_13  and  C9_14 
REMARK    7  A    between atoms: C9_14  and  O2_15 
REMARK    8  A    between atoms: C9_14  and  C10_17 
REMARK    9  A    between atoms: C10_17  and  N2_18 
ROOT
HETATM    1  C3  UNL     1      -4.006  -0.357  -0.165  1.00  0.00    -0.017 C 
HETATM    2  C5  UNL     1      -3.134  -1.553   0.012  1.00  0.00     0.013 C 
HETATM    3  C6  UNL     1      -1.728  -1.419  -0.469  1.00  0.00     0.033 C 
HETATM    4  C7  UNL     1      -1.023  -0.168  -0.114  1.00  0.00     0.121 C 
HETATM    5  C15 UNL     1      -1.946   0.787   0.649  1.00  0.00     0.033 C 
HETATM    6  C16 UNL     1      -3.202   0.930  -0.179  1.00  0.00     0.013 C 
ENDROOT
BRANCH   4   7
HETATM    7  O1  UNL     1       0.096  -0.314   0.701  1.00  0.00    -0.383 OA
BRANCH   7   8
HETATM    8  C8  UNL     1       1.207   0.307   0.183  1.00  0.00     0.201 C 
BRANCH   8   9
HETATM    9  C9  UNL     1       2.406   0.134   1.103  1.00  0.00     0.159 C 
BRANCH   9  10
HETATM   10  O2  UNL     1       2.764  -1.185   1.281  1.00  0.00    -0.392 OA
ATOM     11  H2  UNL     1       3.513  -1.293   1.856  1.00  0.00     0.210 HD
ENDBRANCH   9  10
BRANCH   9  12
HETATM   12  C10 UNL     1       3.579   0.944   0.634  1.00  0.00     0.151 C 
BRANCH  12  13
HETATM   13  N2  UNL     1       4.118   0.522  -0.599  1.00  0.00    -0.402 N 
HETATM   14  C11 UNL     1       4.821  -0.702  -0.665  1.00  0.00     0.118 C 
HETATM   15  C12 UNL     1       5.978  -0.787   0.310  1.00  0.00     0.029 C 
HETATM   16  C13 UNL     1       7.029   0.262   0.071  1.00  0.00     0.077 C 
HETATM   17  S1  UNL     1       6.452   1.742  -0.745  1.00  0.00    -0.150 SA
HETATM   18  C14 UNL     1       4.772   1.592  -1.340  1.00  0.00     0.191 C 
ENDBRANCH  12  13
ENDBRANCH   9  12
ENDBRANCH   8   9
ENDBRANCH   7   8
ENDBRANCH   4   7
BRANCH   1  19
HETATM   19  C2  UNL     1      -4.741  -0.403  -1.489  1.00  0.00     0.006 C 
HETATM   20  C1  UNL     1      -5.636   0.783  -1.704  1.00  0.00     0.006 C 
ENDBRANCH   1  19
BRANCH   1  21
HETATM   21  C4  UNL     1      -5.045  -0.348   0.929  1.00  0.00     0.239 C 
BRANCH  21  22
HETATM   22  N1  UNL     1      -4.487  -0.306   2.257  1.00  0.00    -0.079 N 
ATOM     23  H13 UNL     1      -3.826  -1.071   2.394  1.00  0.00     0.274 HD
ATOM     24  H12 UNL     1      -3.853   0.487   2.356  1.00  0.00     0.274 HD
ATOM     25  H11 UNL     1      -5.189  -0.300   2.997  1.00  0.00     0.274 HD
ENDBRANCH  21  22
ENDBRANCH   1  21
TORSDOF 9
