REMARK  9 active torsions:
REMARK  status: ('A' for Active; 'I' for Inactive)
REMARK    1  A    between atoms: C2_2  and  C3_3 
REMARK    2  A    between atoms: C3_3  and  C6_6 
REMARK    3  A    between atoms: C6_6  and  O2_8 
REMARK    4  A    between atoms: O2_8  and  C7_9 
REMARK    5  A    between atoms: C10_12  and  O3_13 
REMARK    6  A    between atoms: C11_15  and  C12_16 
REMARK    7  A    between atoms: C11_15  and  C15_21 
REMARK    8  A    between atoms: C13_17  and  C14_18 
REMARK    9  A    between atoms: C15_21  and  C16_22 
ROOT
HETATM    1  C7  UNL     1       0.591  -0.374   0.627  1.00  0.00     0.271 C 
HETATM    2  C8  UNL     1       0.539  -0.221   2.125  1.00  0.00     0.064 C 
HETATM    3  C9  UNL     1      -0.839  -0.091   2.682  1.00  0.00     0.040 C 
HETATM    4  C10 UNL     1      -1.757  -0.948   1.813  1.00  0.00     0.157 C 
HETATM    5  C11 UNL     1      -1.734  -0.381   0.444  1.00  0.00     0.108 C 
HETATM    6  O6  UNL     1      -0.526   0.015  -0.034  1.00  0.00    -0.343 OA
ENDROOT
BRANCH   1   7
HETATM    7  O2  UNL     1       1.671   0.426   0.176  1.00  0.00    -0.289 OA
BRANCH   7   8
HETATM    8  C6  UNL     1       2.758  -0.111  -0.498  1.00  0.00     0.273 C 
HETATM    9  O1  UNL     1       2.729  -1.365  -0.689  1.00  0.00    -0.264 OA
BRANCH   8  10
HETATM   10  C3  UNL     1       3.894   0.731  -0.973  1.00  0.00     0.058 C 
HETATM   11  C4  UNL     1       4.628   1.380   0.188  1.00  0.00     0.030 C 
HETATM   12  C5  UNL     1       3.411   1.826  -1.881  1.00  0.00     0.030 C 
BRANCH  10  13
HETATM   13  C2  UNL     1       4.868  -0.171  -1.647  1.00  0.00    -0.018 C 
HETATM   14  C1  UNL     1       5.479  -1.077  -0.891  1.00  0.00     0.008 C 
ENDBRANCH  10  13
ENDBRANCH   8  10
ENDBRANCH   7   8
ENDBRANCH   1   7
BRANCH   5  15
HETATM   15  C12 UNL     1      -2.622   0.840   0.457  1.00  0.00     0.020 C 
HETATM   16  C13 UNL     1      -2.328   1.899  -0.272  1.00  0.00     0.083 C 
BRANCH  16  17
HETATM   17  C14 UNL     1      -3.181   3.062  -0.255  1.00  0.00     0.198 C 
HETATM   18  O4  UNL     1      -2.887   4.058  -0.953  1.00  0.00    -0.645 OA
HETATM   19  O5  UNL     1      -4.318   3.067   0.533  1.00  0.00    -0.645 OA
ENDBRANCH  16  17
ENDBRANCH   5  15
BRANCH   5  20
HETATM   20  C15 UNL     1      -2.413  -1.363  -0.505  1.00  0.00     0.045 C 
BRANCH  20  21
HETATM   21  C16 UNL     1      -3.833  -1.600  -0.091  1.00  0.00    -0.001 C 
HETATM   22  C17 UNL     1      -4.471  -2.573  -1.049  1.00  0.00     0.005 C 
ENDBRANCH  20  21
ENDBRANCH   5  20
BRANCH   4  23
HETATM   23  O3  UNL     1      -1.360  -2.247   1.953  1.00  0.00    -0.392 OA
ATOM     24  H3  UNL     1      -1.931  -2.780   1.412  1.00  0.00     0.210 HD
ENDBRANCH   4  23
TORSDOF 9
