REMARK  5 active torsions:
REMARK  status: ('A' for Active; 'I' for Inactive)
REMARK    1  A    between atoms: O1_1  and  C1_3 
REMARK    2  A    between atoms: C1_3  and  C2_4 
REMARK    3  A    between atoms: C2_4  and  O2_5 
REMARK    4  A    between atoms: C2_4  and  C3_7 
REMARK    5  A    between atoms: C3_7  and  C4_8 
ROOT
HETATM    1  C2  UNL     1       1.857   0.453  -0.240  1.00  0.00     0.142 C 
ENDROOT
BRANCH   1   2
HETATM    2  C1  UNL     1       2.482  -0.307   0.889  1.00  0.00     0.195 C 
BRANCH   2   3
HETATM    3  O1  UNL     1       3.681   0.374   1.210  1.00  0.00    -0.398 OA
ATOM      4  H1  UNL     1       4.077  -0.108   1.926  1.00  0.00     0.209 HD
ENDBRANCH   2   3
ENDBRANCH   1   2
BRANCH   1   5
HETATM    5  O2  UNL     1       2.762   0.445  -1.308  1.00  0.00    -0.393 OA
ATOM      6  H2  UNL     1       2.366   0.927  -2.024  1.00  0.00     0.210 HD
ENDBRANCH   1   5
BRANCH   1   7
HETATM    7  C3  UNL     1       0.584  -0.179  -0.739  1.00  0.00     0.038 C 
BRANCH   7   8
HETATM    8  C4  UNL     1      -0.475  -0.276   0.329  1.00  0.00    -0.012 C 
HETATM    9  C5  UNL     1      -1.692  -0.930  -0.321  1.00  0.00     0.005 C 
HETATM   10  C6  UNL     1      -2.759  -0.644   0.692  1.00  0.00     0.000 C 
HETATM   11  C7  UNL     1      -2.486   0.815   1.072  1.00  0.00     0.000 C 
HETATM   12  C8  UNL     1      -1.022   1.045   0.754  1.00  0.00     0.005 C 
ENDBRANCH   7   8
ENDBRANCH   1   7
TORSDOF 5
