REMARK  2 active torsions:
REMARK  status: ('A' for Active; 'I' for Inactive)
REMARK    1  A    between atoms: C2_2  and  C4_4 
REMARK    2  A    between atoms: C6_6  and  C8_8 
ROOT
HETATM    1  C4  UNL     1      -0.944  -0.354  -0.494  1.00  0.00     0.154 C 
HETATM    2  C5  UNL     1       0.129  -0.560   0.556  1.00  0.00     0.082 C 
HETATM    3  C6  UNL     1       0.901   0.229  -0.492  1.00  0.00     0.120 C 
HETATM    4  C7  UNL     1       1.507  -0.691  -1.525  1.00  0.00     0.055 C 
HETATM    5  O2  UNL     1      -0.288   0.822  -0.844  1.00  0.00    -0.363 OA
ENDROOT
BRANCH   3   6
HETATM    6  C8  UNL     1       1.935   1.125   0.060  1.00  0.00     0.157 C 
HETATM    7  C9  UNL     1       3.270   0.645   0.488  1.00  0.00     0.094 C 
HETATM    8  O1  UNL     1       1.694   2.312   0.173  1.00  0.00    -0.295 OA
ENDBRANCH   3   6
BRANCH   1   9
HETATM    9  C2  UNL     1      -2.282  -0.199   0.087  1.00  0.00    -0.064 C 
HETATM   10  C1  UNL     1      -3.240  -1.056  -0.231  1.00  0.00     0.016 C 
HETATM   11  C3  UNL     1      -2.567   0.914   1.029  1.00  0.00     0.045 C 
ENDBRANCH   1   9
TORSDOF 2
