REMARK  2 active torsions:
REMARK  status: ('A' for Active; 'I' for Inactive)
REMARK    1  A    between atoms: C2_2  and  C3_3 
REMARK    2  A    between atoms: C4_5  and  C5_6 
ROOT
HETATM    1  C5  UNL     1       0.298  -0.162  -0.400  1.00  0.00     0.033 C 
HETATM    2  C6  UNL     1       1.193  -1.212   0.282  1.00  0.00     0.013 C 
HETATM    3  C7  UNL     1       2.576  -1.014  -0.309  1.00  0.00     0.027 C 
HETATM    4  C8  UNL     1       2.749   0.462  -0.609  1.00  0.00     0.167 C 
HETATM    5  O2  UNL     1       2.086   1.257   0.320  1.00  0.00    -0.390 OA
HETATM    6  C9  UNL     1       0.677   1.140   0.167  1.00  0.00     0.176 C 
ENDROOT
BRANCH   1   7
HETATM    7  C4  UNL     1      -1.096  -0.565  -0.371  1.00  0.00    -0.010 C 
HETATM    8  C2  UNL     1      -2.172  -0.010   0.069  1.00  0.00    -0.028 C 
HETATM    9  C1  UNL     1      -2.256   1.299   0.714  1.00  0.00     0.051 C 
BRANCH   8  10
HETATM   10  C3  UNL     1      -3.467  -0.754  -0.079  1.00  0.00     0.265 C 
HETATM   11  O1  UNL     1      -3.471  -1.883  -0.620  1.00  0.00    -0.302 OA
ENDBRANCH   8  10
ENDBRANCH   1   7
TORSDOF 2
