REMARK  3 active torsions:
REMARK  status: ('A' for Active; 'I' for Inactive)
REMARK    1  A    between atoms: C2_2  and  O1_4 
REMARK    2  A    between atoms: O1_4  and  C4_5 
REMARK    3  A    between atoms: C4_5  and  C5_7 
ROOT
HETATM    1  C4  UNL     1      -0.224  -0.486  -0.789  1.00  0.00     0.263 C 
HETATM    2  O2  UNL     1      -0.725  -0.994  -1.823  1.00  0.00    -0.265 OA
ENDROOT
BRANCH   1   3
HETATM    3  O1  UNL     1      -1.103  -0.089   0.203  1.00  0.00    -0.317 OA
BRANCH   3   4
HETATM    4  C2  UNL     1      -2.504  -0.228   0.107  1.00  0.00     0.123 C 
HETATM    5  C1  UNL     1      -3.112  -0.977   1.245  1.00  0.00     0.040 C 
HETATM    6  C3  UNL     1      -3.076   1.193   0.125  1.00  0.00     0.040 C 
ENDBRANCH   3   4
ENDBRANCH   1   3
BRANCH   1   7
HETATM    7  C5  UNL     1       1.234  -0.345  -0.698  1.00  0.00     0.085 C 
HETATM    8  C6  UNL     1       1.659   1.096  -0.532  1.00  0.00     0.014 C 
HETATM    9  C7  UNL     1       3.135   0.926  -0.158  1.00  0.00     0.001 C 
HETATM   10  C8  UNL     1       3.220  -0.412   0.549  1.00  0.00     0.001 C 
HETATM   11  C9  UNL     1       1.822  -0.993   0.533  1.00  0.00     0.014 C 
ENDBRANCH   1   7
TORSDOF 3
