REMARK  3 active torsions:
REMARK  status: ('A' for Active; 'I' for Inactive)
REMARK    1  A    between atoms: C3_3  and  C4_4 
REMARK    2  A    between atoms: C6_6  and  S1_7 
REMARK    3  A    between atoms: S1_7  and  C7_8 
ROOT
HETATM    1  C4  UNL     1      -0.119   0.888   0.769  1.00  0.00     0.023 A 
HETATM    2  C5  UNL     1      -0.391   0.253   2.147  1.00  0.00     0.026 A 
HETATM    3  C6  UNL     1       0.952   0.211   1.535  1.00  0.00     0.063 A 
ENDROOT
BRANCH   3   4
HETATM    4  S1  UNL     1       1.686  -1.326   0.956  1.00  0.00    -0.087 SA
BRANCH   4   5
HETATM    5  C7  UNL     1       2.619  -1.081  -0.547  1.00  0.00     0.182 C 
HETATM    6  C8  UNL     1       2.711   0.276  -1.140  1.00  0.00     0.104 C 
HETATM    7  O1  UNL     1       3.169  -2.004  -1.080  1.00  0.00    -0.286 OA
ENDBRANCH   4   5
ENDBRANCH   3   4
BRANCH   1   8
HETATM    8  C3  UNL     1      -0.876   0.203  -0.307  1.00  0.00    -0.025 C 
HETATM    9  C2  UNL     1      -2.186   0.088  -0.171  1.00  0.00    -0.035 C 
HETATM   10  C1  UNL     1      -3.014  -0.580  -1.196  1.00  0.00     0.036 C 
ENDBRANCH   1   8
TORSDOF 3
