REMARK  3 active torsions:
REMARK  status: ('A' for Active; 'I' for Inactive)
REMARK    1  A    between atoms: C2_2  and  C3_3 
REMARK    2  A    between atoms: C3_3  and  O2_5 
REMARK    3  A    between atoms: O2_5  and  C4_6 
ROOT
HETATM    1  C4  UNL     1      -0.101  -0.193   0.080  1.00  0.00     0.132 C 
HETATM    2  C5  UNL     1      -0.894   1.018   0.436  1.00  0.00     0.032 C 
HETATM    3  C6  UNL     1      -2.342   0.793   0.645  1.00  0.00     0.002 C 
HETATM    4  C7  UNL     1      -2.958  -0.283  -0.157  1.00  0.00     0.000 C 
HETATM    5  C8  UNL     1      -2.129  -0.861  -1.246  1.00  0.00     0.002 C 
HETATM    6  C9  UNL     1      -0.696  -1.068  -0.951  1.00  0.00     0.032 C 
ENDROOT
BRANCH   1   7
HETATM    7  O2  UNL     1       1.191   0.272  -0.329  1.00  0.00    -0.313 OA
BRANCH   7   8
HETATM    8  C3  UNL     1       2.343   0.013   0.356  1.00  0.00     0.282 C 
HETATM    9  O1  UNL     1       2.275  -0.669   1.402  1.00  0.00    -0.260 OA
BRANCH   8  10
HETATM   10  C2  UNL     1       3.605   0.535  -0.149  1.00  0.00     0.072 C 
HETATM   11  C1  UNL     1       4.729   0.293   0.502  1.00  0.00     0.017 C 
ENDBRANCH   8  10
ENDBRANCH   7   8
ENDBRANCH   1   7
TORSDOF 3
