REMARK  9 active torsions:
REMARK  status: ('A' for Active; 'I' for Inactive)
REMARK    1  A    between atoms: C2_2  and  C3_3 
REMARK    2  A    between atoms: C3_3  and  C4_4 
REMARK    3  A    between atoms: C4_4  and  C5_5 
REMARK    4  A    between atoms: C5_5  and  C6_6 
REMARK    5  A    between atoms: C6_6  and  C7_7 
REMARK    6  A    between atoms: C7_7  and  C8_8 
REMARK    7  A    between atoms: C16_19  and  O2_20 
REMARK    8  A    between atoms: C17_22  and  O3_23 
REMARK    9  A    between atoms: O3_23  and  O4_24 
ROOT
HETATM    1  C8  UNL     1      -0.553  -1.178  -0.052  1.00  0.00     0.045 C 
HETATM    2  N1  UNL     1      -1.353  -2.123   0.446  1.00  0.00    -0.271 N 
ATOM      3  H1  UNL     1      -1.081  -3.105   0.405  1.00  0.00     0.193 HD
HETATM    4  O1  UNL     1      -2.580  -1.744   1.030  1.00  0.00    -0.270 OA
HETATM    5  C9  UNL     1      -2.761  -0.576   1.786  1.00  0.00     0.187 C 
HETATM    6  C10 UNL     1      -1.385   0.094   1.672  1.00  0.00     0.084 C 
HETATM    7  C11 UNL     1      -1.253   0.087   0.172  1.00  0.00     0.110 C 
HETATM    8  C12 UNL     1      -0.708   1.430  -0.054  1.00  0.00     0.071 C 
HETATM    9  C13 UNL     1      -1.956   2.287   0.212  1.00  0.00    -0.023 C 
HETATM   10  C14 UNL     1      -3.027   1.858   1.044  1.00  0.00     0.004 C 
HETATM   11  C15 UNL     1      -3.601   0.522   1.220  1.00  0.00    -0.016 C 
HETATM   12  C16 UNL     1      -4.407   0.014   0.014  1.00  0.00     0.207 C 
HETATM   13  C17 UNL     1      -3.336  -0.398  -1.003  1.00  0.00     0.330 C 
HETATM   14  O5  UNL     1      -2.206   0.039  -0.702  1.00  0.00    -0.338 OA
ENDROOT
BRANCH   1  15
HETATM   15  C7  UNL     1       0.724  -1.428  -0.673  1.00  0.00     0.058 C 
BRANCH  15  16
HETATM   16  C6  UNL     1       1.914  -0.789  -0.045  1.00  0.00     0.006 C 
BRANCH  16  17
HETATM   17  C5  UNL     1       3.146  -1.179  -0.849  1.00  0.00     0.001 C 
BRANCH  17  18
HETATM   18  C4  UNL     1       4.338  -0.524  -0.198  1.00  0.00     0.004 C 
BRANCH  18  19
HETATM   19  C3  UNL     1       5.584  -0.878  -0.955  1.00  0.00     0.026 C 
BRANCH  19  20
HETATM   20  C2  UNL     1       6.801  -0.267  -0.370  1.00  0.00    -0.037 C 
HETATM   21  C1  UNL     1       6.708   0.489   0.699  1.00  0.00     0.007 C 
ENDBRANCH  19  20
ENDBRANCH  18  19
ENDBRANCH  17  18
ENDBRANCH  16  17
ENDBRANCH  15  16
ENDBRANCH   1  15
BRANCH  13  22
HETATM   22  O3  UNL     1      -3.777   0.213  -2.211  1.00  0.00    -0.207 OA
BRANCH  22  23
HETATM   23  O4  UNL     1      -4.207  -0.623  -3.090  1.00  0.00    -0.248 OA
ATOM     24  H4  UNL     1      -4.501  -0.215  -3.896  1.00  0.00     0.253 HD
ENDBRANCH  22  23
ENDBRANCH  13  22
BRANCH  12  25
HETATM   25  O2  UNL     1      -5.161   1.097  -0.416  1.00  0.00    -0.386 OA
ATOM     26  H2  UNL     1      -5.659   0.783  -1.161  1.00  0.00     0.210 HD
ENDBRANCH  12  25
TORSDOF 9
