REMARK  9 active torsions:
REMARK  status: ('A' for Active; 'I' for Inactive)
REMARK    1  A    between atoms: C2_2  and  C16_23 
REMARK    2  A    between atoms: C3_3  and  C4_4 
REMARK    3  A    between atoms: C4_4  and  C5_5 
REMARK    4  A    between atoms: C5_5  and  C6_6 
REMARK    5  A    between atoms: C6_6  and  C7_8 
REMARK    6  A    between atoms: C8_9  and  C9_10 
REMARK    7  A    between atoms: C11_12  and  O2_13 
REMARK    8  A    between atoms: C11_12  and  C12_15 
REMARK    9  A    between atoms: C12_15  and  O3_16 
ROOT
HETATM    1  C9  UNL     1       3.053   0.343  -0.262  1.00  0.00     0.062 C 
HETATM    2  C10 UNL     1       4.097   1.394   0.134  1.00  0.00     0.083 C 
HETATM    3  C11 UNL     1       5.367   0.639   0.294  1.00  0.00     0.186 C 
HETATM    4  O4  UNL     1       5.087  -0.713   0.181  1.00  0.00    -0.327 OA
HETATM    5  C13 UNL     1       3.955  -0.839  -0.577  1.00  0.00     0.155 C 
HETATM    6  C14 UNL     1       4.205  -0.836  -2.069  1.00  0.00     0.064 C 
HETATM    7  C15 UNL     1       3.272  -2.081  -0.167  1.00  0.00     0.098 C 
HETATM    8  N1  UNL     1       2.721  -3.040   0.159  1.00  0.00    -0.194 NA
ENDROOT
BRANCH   1   9
HETATM    9  C8  UNL     1       2.148   0.065   0.858  1.00  0.00    -0.014 C 
HETATM   10  C7  UNL     1       0.876   0.050   0.833  1.00  0.00     0.046 C 
BRANCH  10  11
HETATM   11  C6  UNL     1       0.020   0.295  -0.297  1.00  0.00     0.149 C 
HETATM   12  O1  UNL     1       0.345   0.562  -1.469  1.00  0.00    -0.293 OA
BRANCH  11  13
HETATM   13  C5  UNL     1      -1.503   0.240  -0.133  1.00  0.00     0.086 C 
BRANCH  13  14
HETATM   14  C4  UNL     1      -2.108  -0.660  -1.120  1.00  0.00     0.035 C 
BRANCH  14  15
HETATM   15  C3  UNL     1      -3.567  -0.780  -1.020  1.00  0.00    -0.024 C 
HETATM   16  C2  UNL     1      -4.443  -0.270  -0.202  1.00  0.00    -0.084 C 
HETATM   17  C1  UNL     1      -4.258   0.640   0.944  1.00  0.00     0.043 C 
BRANCH  16  18
HETATM   18  C16 UNL     1      -5.904  -0.659  -0.434  1.00  0.00     0.005 C 
HETATM   19  C17 UNL     1      -6.637   0.645  -0.677  1.00  0.00     0.014 C 
HETATM   20  C18 UNL     1      -6.433  -1.346   0.802  1.00  0.00     0.014 C 
ENDBRANCH  16  18
ENDBRANCH  14  15
ENDBRANCH  13  14
ENDBRANCH  11  13
ENDBRANCH  10  11
ENDBRANCH   1   9
BRANCH   3  21
HETATM   21  O2  UNL     1       6.298   0.977  -0.715  1.00  0.00    -0.363 OA
ATOM     22  H2  UNL     1       7.110   0.494  -0.613  1.00  0.00     0.213 HD
ENDBRANCH   3  21
BRANCH   3  23
HETATM   23  C12 UNL     1       6.079   0.934   1.608  1.00  0.00     0.232 C 
BRANCH  23  24
HETATM   24  O3  UNL     1       5.293   0.650   2.718  1.00  0.00    -0.396 OA
ATOM     25  H3  UNL     1       5.737   0.834   3.537  1.00  0.00     0.209 HD
ENDBRANCH  23  24
ENDBRANCH   3  23
TORSDOF 9
