REMARK  7 active torsions:
REMARK  status: ('A' for Active; 'I' for Inactive)
REMARK    1  A    between atoms: C2_2  and  C3_3 
REMARK    2  A    between atoms: C3_3  and  C4_4 
REMARK    3  A    between atoms: C4_4  and  C5_5 
REMARK    4  A    between atoms: C5_5  and  C6_6 
REMARK    5  A    between atoms: C7_9  and  C8_10 
REMARK    6  A    between atoms: C14_24  and  C15_25 
REMARK    7  A    between atoms: C15_25  and  C16_26 
ROOT
HETATM    1  C8  UNL     1      -3.342  -1.473  -0.700  1.00  0.00     0.059 A 
HETATM    2  C9  UNL     1      -3.707  -2.199  -1.814  1.00  0.00     0.143 A 
HETATM    3  C10 UNL     1      -3.085  -2.103  -3.111  1.00  0.00     0.120 C 
HETATM    4  N2  UNL     1      -2.596  -2.019  -4.161  1.00  0.00    -0.190 NA
HETATM    5  N3  UNL     1      -4.746  -3.000  -1.448  1.00  0.00    -0.290 N 
ATOM      6  H3  UNL     1      -5.225  -3.652  -2.069  1.00  0.00     0.188 HD
HETATM    7  N4  UNL     1      -5.047  -2.813  -0.174  1.00  0.00    -0.303 N 
ATOM      8  H4  UNL     1      -5.784  -3.287   0.348  1.00  0.00     0.186 HD
HETATM    9  C11 UNL     1      -4.200  -1.881   0.309  1.00  0.00     0.037 A 
HETATM   10  C12 UNL     1      -4.147  -1.339   1.702  1.00  0.00     0.070 C 
ENDROOT
BRANCH   1  11
HETATM   11  C7  UNL     1      -2.276  -0.480  -0.578  1.00  0.00     0.116 A 
HETATM   12  N1  UNL     1      -1.038  -0.808  -0.163  1.00  0.00    -0.353 N 
HETATM   13  C6  UNL     1      -0.035   0.122  -0.053  1.00  0.00     0.032 A 
ATOM     14  H1  UNL     1      -0.839  -1.779   0.077  1.00  0.00     0.166 HD
HETATM   15  C14 UNL     1      -0.330   1.419  -0.379  1.00  0.00     0.035 A 
HETATM   16  N5  UNL     1      -1.581   1.774  -0.804  1.00  0.00    -0.323 N 
HETATM   17  C13 UNL     1      -2.512   0.841  -0.894  1.00  0.00     0.273 A 
ATOM     18  H5  UNL     1      -1.791   2.742  -1.047  1.00  0.00     0.169 HD
HETATM   19  O1  UNL     1      -3.672   1.191  -1.292  1.00  0.00    -0.266 OA
BRANCH  13  20
HETATM   20  C5  UNL     1       1.321  -0.307   0.353  1.00  0.00     0.059 C 
BRANCH  20  21
HETATM   21  C4  UNL     1       2.250  -0.538  -0.811  1.00  0.00     0.006 C 
BRANCH  21  22
HETATM   22  C3  UNL     1       3.622  -0.958  -0.393  1.00  0.00     0.000 C 
BRANCH  22  23
HETATM   23  C2  UNL     1       4.333   0.053   0.472  1.00  0.00    -0.005 C 
HETATM   24  C1  UNL     1       5.710  -0.552   0.788  1.00  0.00     0.005 C 
ENDBRANCH  22  23
ENDBRANCH  21  22
ENDBRANCH  20  21
ENDBRANCH  13  20
BRANCH  15  25
HETATM   25  C15 UNL     1       0.628   2.523  -0.238  1.00  0.00     0.073 C 
BRANCH  25  26
HETATM   26  C16 UNL     1       0.714   3.071   1.187  1.00  0.00     0.130 C 
HETATM   27  C17 UNL     1      -0.635   3.570   1.558  1.00  0.00     0.059 C 
HETATM   28  N6  UNL     1      -1.687   3.951   1.837  1.00  0.00    -0.197 NA
ENDBRANCH  25  26
ENDBRANCH  15  25
ENDBRANCH   1  11
TORSDOF 7
