REMARK  7 active torsions:
REMARK  status: ('A' for Active; 'I' for Inactive)
REMARK    1  A    between atoms: C2_2  and  C3_3 
REMARK       I    between atoms: C3_3  and  N1_5 
REMARK    2  A    between atoms: N1_5  and  C4_6 
REMARK    3  A    between atoms: N1_5  and  C9_20 
REMARK    4  A    between atoms: C5_9  and  C6_10 
REMARK    5  A    between atoms: C6_10  and  S1_11 
REMARK    6  A    between atoms: S1_11  and  C7_12 
REMARK    7  A    between atoms: C7_12  and  C8_13 
ROOT
HETATM    1  C4  UNL     1       0.546   0.820   0.884  1.00  0.00     0.703 A 
HETATM    2  N2  UNL     1       0.895  -0.286   1.537  1.00  0.00    -0.177 N 
ATOM      3  H2  UNL     1       0.270  -1.045   1.809  1.00  0.00     0.185 HD
HETATM    4  C5  UNL     1       2.217  -0.225   1.774  1.00  0.00     0.121 A 
HETATM    5  N3  UNL     1       2.656   0.942   1.249  1.00  0.00    -0.274 N 
ATOM      6  H3  UNL     1       3.619   1.278   1.268  1.00  0.00     0.189 HD
HETATM    7  N4  UNL     1       1.638   1.569   0.712  1.00  0.00    -0.130 N 
ATOM      8  H4  UNL     1       1.674   2.474   0.243  1.00  0.00     0.205 HD
ENDROOT
BRANCH   1   9
HETATM    9  N1  UNL     1      -0.758   1.207   0.417  1.00  0.00    -0.145 N 
HETATM   10  C3  UNL     1      -1.191   2.519   0.691  1.00  0.00     0.238 C 
HETATM   11  O1  UNL     1      -0.376   3.275   1.326  1.00  0.00    -0.273 OA
BRANCH  10  12
HETATM   12  C2  UNL     1      -2.519   3.071   0.294  1.00  0.00     0.099 C 
HETATM   13  C1  UNL     1      -2.425   3.768  -1.032  1.00  0.00     0.014 C 
ENDBRANCH  10  12
BRANCH   9  14
HETATM   14  C9  UNL     1      -1.605   0.307  -0.314  1.00  0.00     0.111 C 
HETATM   15  C10 UNL     1      -2.033  -0.882   0.552  1.00  0.00     0.026 C 
HETATM   16  C11 UNL     1      -3.202  -1.555  -0.163  1.00  0.00     0.002 C 
HETATM   17  C12 UNL     1      -2.880  -1.857  -1.594  1.00  0.00     0.000 C 
HETATM   18  C13 UNL     1      -1.401  -1.683  -1.822  1.00  0.00     0.002 C 
HETATM   19  C14 UNL     1      -0.965  -0.266  -1.544  1.00  0.00     0.026 C 
ENDBRANCH   9  14
ENDBRANCH   1   9
BRANCH   4  20
HETATM   20  C6  UNL     1       3.044  -1.210   2.507  1.00  0.00     0.152 C 
BRANCH  20  21
HETATM   21  S1  UNL     1       3.601  -2.576   1.546  1.00  0.00    -0.151 SA
BRANCH  21  22
HETATM   22  C7  UNL     1       4.718  -2.255   0.201  1.00  0.00     0.187 C 
BRANCH  22  23
HETATM   23  C8  UNL     1       4.102  -1.642  -0.989  1.00  0.00     0.182 C 
HETATM   24  O2  UNL     1       2.889  -1.497  -1.119  1.00  0.00    -0.647 OA
HETATM   25  O3  UNL     1       4.945  -1.208  -2.010  1.00  0.00    -0.647 OA
ENDBRANCH  22  23
ENDBRANCH  21  22
ENDBRANCH  20  21
ENDBRANCH   4  20
TORSDOF 7
