REMARK  10 active torsions:
REMARK  status: ('A' for Active; 'I' for Inactive)
REMARK    1  A    between atoms: C2_2  and  C4_4 
REMARK    2  A    between atoms: C4_4  and  C5_5 
REMARK    3  A    between atoms: C4_4  and  C6_12 
REMARK    4  A    between atoms: C5_5  and  O1_6 
REMARK    5  A    between atoms: N1_8  and  O2_10 
REMARK    6  A    between atoms: C6_12  and  N2_14 
REMARK    7  A    between atoms: N2_14  and  C8_15 
REMARK    8  A    between atoms: N2_14  and  C10_18 
REMARK    9  A    between atoms: C8_15  and  C9_16 
REMARK   10  A    between atoms: C10_18  and  C11_19 
ROOT
HETATM    1  C11 UNL     1       2.415  -0.597   0.296  1.00  0.00     0.075 C 
HETATM    2  C12 UNL     1       2.525  -1.950   0.876  1.00  0.00     0.071 C 
HETATM    3  N3  UNL     1       2.601  -3.034   1.318  1.00  0.00    -0.196 NA
HETATM    4  C13 UNL     1       3.287   0.258   1.289  1.00  0.00     0.026 C 
HETATM    5  C14 UNL     1       3.751   1.516   0.617  1.00  0.00     0.002 C 
HETATM    6  C15 UNL     1       4.878   1.177  -0.339  1.00  0.00     0.000 C 
HETATM    7  C16 UNL     1       4.694  -0.255  -0.725  1.00  0.00     0.002 C 
HETATM    8  C17 UNL     1       3.184  -0.467  -0.980  1.00  0.00     0.026 C 
ENDROOT
BRANCH   1   9
HETATM    9  C10 UNL     1       1.086  -0.019   0.404  1.00  0.00     0.297 C 
BRANCH   9  10
HETATM   10  N2  UNL     1      -0.103  -0.555  -0.152  1.00  0.00     0.101 N 
BRANCH  10  11
HETATM   11  C6  UNL     1      -1.174   0.368   0.327  1.00  0.00     0.231 C 
HETATM   12  C7  UNL     1      -0.937   0.956   1.657  1.00  0.00     0.043 C 
BRANCH  11  13
HETATM   13  C4  UNL     1      -2.530  -0.183   0.096  1.00  0.00     0.098 C 
BRANCH  13  14
HETATM   14  C2  UNL     1      -3.576   0.902   0.272  1.00  0.00    -0.009 C 
HETATM   15  C1  UNL     1      -3.274   2.111  -0.574  1.00  0.00     0.010 C 
HETATM   16  C3  UNL     1      -4.940   0.372  -0.175  1.00  0.00     0.010 C 
ENDBRANCH  13  14
BRANCH  13  17
HETATM   17  C5  UNL     1      -2.912  -1.315   0.980  1.00  0.00     0.141 C 
HETATM   18  N1  UNL     1      -2.169  -1.752   1.915  1.00  0.00    -0.251 N 
ATOM     19  H1  UNL     1      -1.260  -1.324   2.090  1.00  0.00     0.196 HD
BRANCH  17  20
HETATM   20  O1  UNL     1      -4.140  -1.913   0.762  1.00  0.00    -0.348 OA
ATOM     21  H1  UNL     1      -4.384  -2.637   1.327  1.00  0.00     0.219 HD
ENDBRANCH  17  20
BRANCH  18  22
HETATM   22  O2  UNL     1      -2.596  -2.801   2.685  1.00  0.00    -0.288 OA
ATOM     23  H2  UNL     1      -2.041  -3.127   3.383  1.00  0.00     0.244 HD
ENDBRANCH  18  22
ENDBRANCH  13  17
ENDBRANCH  11  13
ENDBRANCH  10  11
BRANCH  10  24
HETATM   24  C8  UNL     1      -0.233  -0.536  -1.572  1.00  0.00     0.341 C 
BRANCH  24  25
HETATM   25  C9  UNL     1       0.259  -1.695  -2.332  1.00  0.00     0.261 C 
HETATM   26  O3  UNL     1       0.580  -2.776  -1.932  1.00  0.00    -0.305 OA
ENDBRANCH  24  25
ENDBRANCH  10  24
ENDBRANCH   9  10
ENDBRANCH   1   9
TORSDOF 10
