REMARK  3 active torsions:
REMARK  status: ('A' for Active; 'I' for Inactive)
REMARK    1  A    between atoms: C2_2  and  C4_4 
REMARK    2  A    between atoms: C4_4  and  N1_5 
REMARK    3  A    between atoms: C4_4  and  C5_9 
ROOT
HETATM    1  C4  UNL     1      -0.934   0.939  -0.428  1.00  0.00     0.209 C 
ENDROOT
BRANCH   1   2
HETATM    2  C2  UNL     1      -2.154   0.310   0.167  1.00  0.00     0.010 C 
HETATM    3  C1  UNL     1      -2.147   0.339   1.683  1.00  0.00     0.011 C 
HETATM    4  C3  UNL     1      -2.521  -1.018  -0.405  1.00  0.00     0.011 C 
ENDBRANCH   1   2
BRANCH   1   5
HETATM    5  N1  UNL     1      -1.017   0.870  -1.859  1.00  0.00    -0.073 N 
ATOM      6  H13 UNL     1      -1.163  -0.083  -2.193  1.00  0.00     0.274 HD
ATOM      7  H12 UNL     1      -1.879   1.282  -2.217  1.00  0.00     0.274 HD
ATOM      8  H11 UNL     1      -0.185   1.299  -2.265  1.00  0.00     0.274 HD
ENDBRANCH   1   5
BRANCH   1   9
HETATM    9  C5  UNL     1       0.367   0.500   0.138  1.00  0.00     0.111 C 
HETATM   10  C6  UNL     1       0.691  -0.936   0.033  1.00  0.00     0.027 C 
HETATM   11  C7  UNL     1       1.913  -1.119   0.952  1.00  0.00     0.007 C 
HETATM   12  C8  UNL     1       3.039  -0.447   0.226  1.00  0.00     0.044 C 
HETATM   13  C9  UNL     1       2.663   0.693  -0.620  1.00  0.00     0.056 C 
HETATM   14  N2  UNL     1       1.407   1.287  -0.463  1.00  0.00    -0.396 N 
ATOM     15  H2  UNL     1       1.235   2.246  -0.765  1.00  0.00     0.159 HD
ENDBRANCH   1   9
TORSDOF 3
