REMARK  2 active torsions:
REMARK  status: ('A' for Active; 'I' for Inactive)
REMARK    1  A    between atoms: C4_4  and  O1_5 
REMARK    2  A    between atoms: O1_5  and  C5_6 
ROOT
HETATM    1  C5  UNL     1      -1.246   0.006  -0.009  1.00  0.00     0.149 C 
HETATM    2  C6  UNL     1      -2.219  -0.823  -0.851  1.00  0.00     0.061 C 
HETATM    3  C7  UNL     1      -3.396  -0.878   0.104  1.00  0.00     0.235 C 
HETATM    4  N1  UNL     1      -3.466   0.442   0.683  1.00  0.00    -0.073 N 
ATOM      5  H11 UNL     1      -3.745   0.429   1.664  1.00  0.00     0.277 HD
ATOM      6  H12 UNL     1      -4.249   0.989   0.326  1.00  0.00     0.277 HD
HETATM    7  C8  UNL     1      -2.200   1.082   0.474  1.00  0.00     0.264 C 
ENDROOT
BRANCH   1   8
HETATM    8  O1  UNL     1      -0.197   0.493  -0.740  1.00  0.00    -0.379 OA
BRANCH   8   9
HETATM    9  C4  UNL     1       0.999   0.124  -0.178  1.00  0.00     0.122 C 
HETATM   10  C3  UNL     1       1.827  -0.773  -1.107  1.00  0.00     0.032 C 
HETATM   11  C2  UNL     1       3.143  -0.818  -0.317  1.00  0.00     0.002 C 
HETATM   12  C1  UNL     1       3.304   0.594   0.194  1.00  0.00     0.002 C 
HETATM   13  C9  UNL     1       1.951   1.262   0.054  1.00  0.00     0.032 C 
ENDBRANCH   8   9
ENDBRANCH   1   8
TORSDOF 2
