REMARK  2 active torsions:
REMARK  status: ('A' for Active; 'I' for Inactive)
REMARK    1  A    between atoms: C2_2  and  C3_3 
REMARK    2  A    between atoms: C8_11  and  N2_12 
ROOT
HETATM    1  C3  UNL     1      -0.452   1.121  -0.026  1.00  0.00     0.063 C 
HETATM    2  C4  UNL     1       0.651   1.143  -1.093  1.00  0.00     0.243 C 
HETATM    3  N1  UNL     1       1.890   0.935  -0.410  1.00  0.00    -0.070 N 
ATOM      4  H11 UNL     1       2.204   1.771   0.083  1.00  0.00     0.277 HD
ATOM      5  H12 UNL     1       2.675   0.843  -1.055  1.00  0.00     0.277 HD
HETATM    6  C5  UNL     1       1.769  -0.205   0.469  1.00  0.00     0.183 C 
HETATM    7  C6  UNL     1       3.031  -0.995   0.376  1.00  0.00     0.040 C 
HETATM    8  C7  UNL     1       0.566  -1.065   0.117  1.00  0.00     0.066 C 
HETATM    9  C8  UNL     1      -0.716  -0.294   0.361  1.00  0.00     0.196 C 
ENDROOT
BRANCH   9  10
HETATM   10  N2  UNL     1      -1.780  -0.920  -0.381  1.00  0.00    -0.074 N 
HETATM   11  C9  UNL     1      -1.951  -2.287   0.075  1.00  0.00     0.267 C 
ATOM     12  H22 UNL     1      -2.648  -0.387  -0.333  1.00  0.00     0.277 HD
ATOM     13  H21 UNL     1      -1.630  -0.866  -1.389  1.00  0.00     0.277 HD
ENDBRANCH   9  10
BRANCH   1  14
HETATM   14  C2  UNL     1      -1.581   1.862  -0.564  1.00  0.00    -0.029 C 
HETATM   15  C1  UNL     1      -1.987   2.953   0.061  1.00  0.00     0.007 C 
ENDBRANCH   1  14
TORSDOF 2
