REMARK  2 active torsions:
REMARK  status: ('A' for Active; 'I' for Inactive)
REMARK    1  A    between atoms: N1_2  and  C2_5 
REMARK    2  A    between atoms: C5_8  and  N2_9 
ROOT
HETATM    1  C2  UNL     1      -1.594   0.292  -0.500  1.00  0.00     0.185 C 
HETATM    2  C3  UNL     1      -1.082   1.539   0.171  1.00  0.00     0.035 C 
HETATM    3  C4  UNL     1       0.404   1.651   0.076  1.00  0.00     0.035 C 
HETATM    4  C5  UNL     1       1.165   0.379   0.214  1.00  0.00     0.189 C 
HETATM    5  C7  UNL     1       0.525  -0.796  -0.487  1.00  0.00     0.014 C 
HETATM    6  C8  UNL     1       1.192  -2.093  -0.180  1.00  0.00     0.012 C 
HETATM    7  C9  UNL     1      -0.893  -0.890   0.077  1.00  0.00     0.039 C 
ENDROOT
BRANCH   1   8
HETATM    8  N1  UNL     1      -3.015   0.176  -0.459  1.00  0.00    -0.075 N 
HETATM    9  C1  UNL     1      -3.521   0.027   0.892  1.00  0.00     0.267 C 
ATOM     10  H12 UNL     1      -3.339  -0.583  -1.058  1.00  0.00     0.277 HD
ATOM     11  H11 UNL     1      -3.461   0.961  -0.934  1.00  0.00     0.277 HD
ENDBRANCH   1   8
BRANCH   4  12
HETATM   12  N2  UNL     1       2.461   0.565  -0.439  1.00  0.00    -0.074 N 
HETATM   13  C6  UNL     1       3.562   0.078   0.335  1.00  0.00     0.267 C 
ATOM     14  H22 UNL     1       2.460   0.148  -1.370  1.00  0.00     0.277 HD
ATOM     15  H21 UNL     1       2.601   1.543  -0.692  1.00  0.00     0.277 HD
ENDBRANCH   4  12
TORSDOF 2
