REMARK  2 active torsions:
REMARK  status: ('A' for Active; 'I' for Inactive)
REMARK    1  A    between atoms: C5_8  and  N2_9 
REMARK    2  A    between atoms: N2_9  and  C6_11 
ROOT
HETATM    1  C1  UNL     1      -1.858  -1.682   0.316  1.00  0.00     0.029 C 
HETATM    2  C2  UNL     1      -2.812  -0.547   0.071  1.00  0.00     0.232 C 
HETATM    3  N1  UNL     1      -2.488   0.651   0.796  1.00  0.00    -0.075 N 
ATOM      4  H11 UNL     1      -2.455   0.461   1.798  1.00  0.00     0.277 HD
ATOM      5  H12 UNL     1      -3.270   1.306   0.766  1.00  0.00     0.277 HD
HETATM    6  C3  UNL     1      -1.282   1.296   0.372  1.00  0.00     0.234 C 
HETATM    7  C4  UNL     1      -0.774   0.857  -0.967  1.00  0.00     0.052 C 
HETATM    8  C5  UNL     1      -0.047  -0.464  -0.935  1.00  0.00     0.078 C 
HETATM    9  C9  UNL     1      -0.415  -1.298   0.256  1.00  0.00     0.026 C 
ENDROOT
BRANCH   8  10
HETATM   10  N2  UNL     1       1.371  -0.324  -1.056  1.00  0.00    -0.413 N 
ATOM     11  H2  UNL     1       1.880  -0.620  -1.889  1.00  0.00     0.154 HD
BRANCH  10  12
HETATM   12  C6  UNL     1       2.026   0.260   0.074  1.00  0.00     0.077 A 
HETATM   13  C7  UNL     1       2.886   1.505  -0.145  1.00  0.00     0.027 A 
HETATM   14  C8  UNL     1       3.549   0.186  -0.006  1.00  0.00     0.027 A 
ENDBRANCH  10  12
ENDBRANCH   8  10
TORSDOF 2
