REMARK  3 active torsions:
REMARK  status: ('A' for Active; 'I' for Inactive)
REMARK    1  A    between atoms: C2_2  and  C3_3 
REMARK    2  A    between atoms: C3_3  and  N1_4 
REMARK    3  A    between atoms: C7_11  and  N2_13 
ROOT
HETATM    1  C3  UNL     1       0.337  -0.136  -0.367  1.00  0.00     0.155 C 
HETATM    2  C4  UNL     1       0.312   1.319  -0.747  1.00  0.00     0.041 C 
HETATM    3  C5  UNL     1      -0.435   1.961   0.385  1.00  0.00     0.005 C 
HETATM    4  C6  UNL     1      -1.589   0.990   0.585  1.00  0.00     0.041 C 
HETATM    5  C7  UNL     1      -0.999  -0.351   0.288  1.00  0.00     0.152 C 
HETATM    6  C8  UNL     1      -1.901  -1.214  -0.570  1.00  0.00     0.049 C 
ENDROOT
BRANCH   1   7
HETATM    7  C2  UNL     1       1.429  -0.452   0.628  1.00  0.00     0.037 C 
HETATM    8  C1  UNL     1       2.802  -0.163   0.121  1.00  0.00     0.007 C 
ENDBRANCH   1   7
BRANCH   1   9
HETATM    9  N1  UNL     1       0.523  -0.918  -1.558  1.00  0.00    -0.068 N 
ATOM     10  H13 UNL     1       1.453  -0.794  -1.957  1.00  0.00     0.275 HD
ATOM     11  H12 UNL     1       0.581  -1.916  -1.356  1.00  0.00     0.275 HD
ATOM     12  H11 UNL     1      -0.214  -0.705  -2.230  1.00  0.00     0.275 HD
ENDBRANCH   1   9
BRANCH   5  13
HETATM   13  N2  UNL     1      -0.859  -1.052   1.567  1.00  0.00    -0.068 N 
ATOM     14  H23 UNL     1      -0.350  -1.929   1.459  1.00  0.00     0.275 HD
ATOM     15  H22 UNL     1      -0.211  -0.569   2.189  1.00  0.00     0.275 HD
ATOM     16  H21 UNL     1      -1.765  -1.198   2.011  1.00  0.00     0.275 HD
ENDBRANCH   5  13
TORSDOF 3
