REMARK  1 active torsions:
REMARK  status: ('A' for Active; 'I' for Inactive)
REMARK    1  A    between atoms: C2_2  and  C3_3 
ROOT
HETATM    1  C3  UNL     1      -0.044  -0.316  -0.030  1.00  0.00     0.149 C 
HETATM    2  C4  UNL     1       0.333  -1.588  -0.710  1.00  0.00     0.048 C 
HETATM    3  C5  UNL     1      -1.277  -0.584   0.813  1.00  0.00     0.274 C 
HETATM    4  N1  UNL     1      -2.008   0.671   0.752  1.00  0.00    -0.030 N 
ATOM      5  H11 UNL     1      -1.709   1.387   1.414  1.00  0.00     0.281 HD
ATOM      6  H12 UNL     1      -2.970   0.637   1.090  1.00  0.00     0.281 HD
HETATM    7  C6  UNL     1      -1.847   1.011  -0.664  1.00  0.00     0.479 C 
HETATM    8 CL1  UNL     1      -2.118   2.750  -0.910  1.00  0.00    -0.065 Cl
HETATM    9  N2  UNL     1      -0.445   0.738  -0.903  1.00  0.00    -0.023 N 
ATOM     10  H21 UNL     1      -0.244   0.536  -1.882  1.00  0.00     0.282 HD
ATOM     11  H22 UNL     1       0.139   1.569  -0.812  1.00  0.00     0.282 HD
ENDROOT
BRANCH   1  12
HETATM   12  C2  UNL     1       1.047   0.208   0.881  1.00  0.00     0.036 C 
HETATM   13  C1  UNL     1       2.316   0.486   0.125  1.00  0.00     0.007 C 
ENDBRANCH   1  12
TORSDOF 1
