REMARK  2 active torsions:
REMARK  status: ('A' for Active; 'I' for Inactive)
REMARK    1  A    between atoms: N1_1  and  C1_5 
REMARK    2  A    between atoms: C5_9  and  O1_10 
ROOT
HETATM    1  C1  UNL     1      -1.081  -0.423   0.413  1.00  0.00     0.186 C 
HETATM    2  C2  UNL     1      -1.073   1.082   0.517  1.00  0.00     0.033 C 
HETATM    3  C3  UNL     1       0.226   1.686   0.056  1.00  0.00     0.004 C 
HETATM    4  C4  UNL     1       1.413   0.808   0.355  1.00  0.00     0.034 C 
HETATM    5  C5  UNL     1       1.309  -0.517  -0.357  1.00  0.00     0.147 C 
HETATM    6  C6  UNL     1      -0.111  -0.927  -0.624  1.00  0.00     0.066 C 
ENDROOT
BRANCH   1   7
HETATM    7  N1  UNL     1      -2.407  -0.847  -0.007  1.00  0.00    -0.075 N 
ATOM      8  H13 UNL     1      -3.144  -0.492   0.603  1.00  0.00     0.274 HD
ATOM      9  H12 UNL     1      -2.709  -0.393  -0.869  1.00  0.00     0.274 HD
ATOM     10  H11 UNL     1      -2.412  -1.865  -0.077  1.00  0.00     0.274 HD
ENDBRANCH   1   7
BRANCH   5  11
HETATM   11  O1  UNL     1       2.033  -1.482   0.322  1.00  0.00    -0.279 OA
HETATM   12 CL1  UNL     1       3.349  -2.068  -0.574  1.00  0.00     0.062 Cl
ENDBRANCH   5  11
TORSDOF 2
