REMARK  2 active torsions:
REMARK  status: ('A' for Active; 'I' for Inactive)
REMARK    1  A    between atoms: C4_4  and  N1_5 
REMARK    2  A    between atoms: N1_5  and  C5_8 
ROOT
HETATM    1  N1  UNL     1       0.583  -0.847   0.394  1.00  0.00    -0.042 N 
ATOM      2  H11 UNL     1       0.427  -1.853   0.335  1.00  0.00     0.280 HD
ATOM      3  H12 UNL     1       0.750  -0.773   1.398  1.00  0.00     0.280 HD
ENDROOT
BRANCH   1   4
HETATM    4  C4  UNL     1      -0.576  -0.113   0.000  1.00  0.00     0.188 C 
HETATM    5  C3  UNL     1      -1.758  -1.016  -0.342  1.00  0.00     0.033 C 
HETATM    6  C2  UNL     1      -3.002  -0.205   0.011  1.00  0.00     0.002 C 
HETATM    7  C1  UNL     1      -2.470   1.162   0.424  1.00  0.00     0.002 C 
HETATM    8  C8  UNL     1      -1.169   0.738   1.099  1.00  0.00     0.033 C 
ENDBRANCH   1   4
BRANCH   1   9
HETATM    9  C5  UNL     1       1.739  -0.447  -0.364  1.00  0.00     0.384 C 
HETATM   10  C6  UNL     1       2.358   0.869   0.021  1.00  0.00     0.090 C 
HETATM   11  C7  UNL     1       3.274   0.056   0.903  1.00  0.00     0.238 C 
HETATM   12  N2  UNL     1       2.967  -1.090   0.066  1.00  0.00    -0.046 N 
ATOM     13  H22 UNL     1       2.938  -2.025   0.472  1.00  0.00     0.279 HD
ATOM     14  H21 UNL     1       3.644  -1.412  -0.626  1.00  0.00     0.279 HD
ENDBRANCH   1   9
TORSDOF 2
