REMARK  2 active torsions:
REMARK  status: ('A' for Active; 'I' for Inactive)
REMARK    1  A    between atoms: N1_2  and  C2_4 
REMARK    2  A    between atoms: C2_4  and  C4_6 
ROOT
HETATM    1  C4  UNL     1       0.225  -0.139   0.444  1.00  0.00     0.033 C 
HETATM    2  C5  UNL     1       0.893   1.188   0.314  1.00  0.00     0.010 C 
HETATM    3  C6  UNL     1       2.202   1.195  -0.384  1.00  0.00     0.028 C 
HETATM    4  C7  UNL     1       3.071   0.017  -0.184  1.00  0.00     0.232 C 
HETATM    5  N2  UNL     1       2.387  -1.116   0.435  1.00  0.00    -0.075 N 
ATOM      6  H21 UNL     1       2.322  -1.061   1.451  1.00  0.00     0.277 HD
ATOM      7  H22 UNL     1       2.913  -1.989   0.405  1.00  0.00     0.277 HD
HETATM    8  C8  UNL     1       1.084  -1.171  -0.252  1.00  0.00     0.238 C 
ENDROOT
BRANCH   1   9
HETATM    9  C2  UNL     1      -1.150  -0.211  -0.146  1.00  0.00     0.077 C 
HETATM   10  C3  UNL     1      -1.663  -1.618   0.070  1.00  0.00     0.032 C 
BRANCH   9  11
HETATM   11  N1  UNL     1      -2.082   0.697   0.428  1.00  0.00    -0.421 N 
HETATM   12  C1  UNL     1      -3.377   0.689  -0.152  1.00  0.00     0.140 C 
ATOM     13  H1  UNL     1      -1.836   1.312   1.204  1.00  0.00     0.153 HD
ENDBRANCH   9  11
ENDBRANCH   1   9
TORSDOF 2
