REMARK  1 active torsions:
REMARK  status: ('A' for Active; 'I' for Inactive)
REMARK    1  A    between atoms: C4_6  and  C5_7 
ROOT
HETATM    1  C5  UNL     1       1.592  -0.018  -0.053  1.00  0.00     0.115 A 
HETATM    2  N2  UNL     1       1.798   0.760   1.047  1.00  0.00    -0.270 N 
ATOM      3  H2  UNL     1       1.072   1.134   1.659  1.00  0.00     0.185 HD
HETATM    4  N3  UNL     1       3.099   0.947   1.185  1.00  0.00    -0.005 NA
HETATM    5  N4  UNL     1       3.752   0.321   0.218  1.00  0.00    -0.225 N 
ATOM      6  H4  UNL     1       4.762   0.293   0.076  1.00  0.00     0.205 HD
HETATM    7  N5  UNL     1       2.829  -0.258  -0.522  1.00  0.00    -0.275 N 
ATOM      8  H5  UNL     1       3.028  -0.820  -1.350  1.00  0.00     0.189 HD
ENDROOT
BRANCH   1   9
HETATM    9  C4  UNL     1       0.277  -0.474  -0.577  1.00  0.00     0.073 C 
HETATM   10  C3  UNL     1      -0.420  -1.343   0.406  1.00  0.00     0.126 C 
HETATM   11  N1  UNL     1      -1.830  -1.239   0.468  1.00  0.00    -0.420 N 
HETATM   12  C2  UNL     1      -2.401   0.048   0.273  1.00  0.00     0.113 C 
ATOM     13  H1  UNL     1      -2.414  -2.056   0.646  1.00  0.00     0.153 HD
HETATM   14  C1  UNL     1      -1.374   1.145   0.114  1.00  0.00     0.020 C 
HETATM   15  C6  UNL     1      -0.483   0.713  -1.044  1.00  0.00     0.015 C 
ENDBRANCH   1   9
TORSDOF 1
