REMARK  2 active torsions:
REMARK  status: ('A' for Active; 'I' for Inactive)
REMARK    1  A    between atoms: C3_4  and  C4_5 
REMARK    2  A    between atoms: C7_11  and  O3_12 
ROOT
HETATM    1  C1  UNL     1      -2.137  -0.619   1.153  1.00  0.00     0.044 C 
HETATM    2  C2  UNL     1      -1.628  -0.463  -0.281  1.00  0.00     0.177 C 
HETATM    3  O1  UNL     1      -0.515  -1.192  -0.538  1.00  0.00    -0.355 OA
HETATM    4  C3  UNL     1       0.621  -0.490  -0.866  1.00  0.00     0.246 C 
HETATM    5  N1  UNL     1       0.412   0.697  -1.628  1.00  0.00    -0.270 N 
ATOM      6  H1  UNL     1       1.191   1.254  -1.979  1.00  0.00     0.190 HD
HETATM    7  O2  UNL     1      -0.845   1.036  -1.855  1.00  0.00    -0.247 OA
HETATM    8  C7  UNL     1      -1.519   0.998  -0.613  1.00  0.00     0.314 C 
ENDROOT
BRANCH   4   9
HETATM    9  C4  UNL     1       1.382  -0.249   0.412  1.00  0.00     0.036 A 
HETATM   10  C5  UNL     1       2.666   0.487   0.410  1.00  0.00     0.009 A 
HETATM   11  C6  UNL     1       2.702  -1.006   0.513  1.00  0.00     0.009 A 
ENDBRANCH   4   9
BRANCH   8  12
HETATM   12  O3  UNL     1      -2.785   1.540  -0.794  1.00  0.00    -0.367 OA
ATOM     13  H3  UNL     1      -2.716   2.464  -1.004  1.00  0.00     0.212 HD
ENDBRANCH   8  12
TORSDOF 2
