REMARK  2 active torsions:
REMARK  status: ('A' for Active; 'I' for Inactive)
REMARK    1  A    between atoms: C5_7  and  C6_8 
REMARK    2  A    between atoms: C6_8  and  O2_9 
ROOT
HETATM    1  C1  UNL     1      -1.682   0.769   1.089  1.00  0.00     0.036 C 
HETATM    2  C2  UNL     1      -1.352  -0.346   0.140  1.00  0.00     0.088 C 
HETATM    3  C3  UNL     1      -2.559  -1.108  -0.138  1.00  0.00     0.073 C 
HETATM    4  N1  UNL     1      -3.517  -1.718  -0.379  1.00  0.00    -0.196 NA
HETATM    5  C4  UNL     1      -0.871   0.273  -1.169  1.00  0.00     0.197 C 
HETATM    6  O1  UNL     1       0.372   0.871  -0.866  1.00  0.00    -0.357 OA
HETATM    7  C5  UNL     1       1.307  -0.110  -0.568  1.00  0.00     0.283 C 
HETATM    8  O3  UNL     1       0.976  -0.652   0.661  1.00  0.00    -0.357 OA
HETATM    9  C7  UNL     1      -0.261  -1.243   0.634  1.00  0.00     0.197 C 
ENDROOT
BRANCH   7  10
HETATM   10  C6  UNL     1       2.656   0.574  -0.449  1.00  0.00     0.224 C 
BRANCH  10  11
HETATM   11  O2  UNL     1       2.652   1.539   0.558  1.00  0.00    -0.396 OA
ATOM     12  H2  UNL     1       3.497   1.967   0.633  1.00  0.00     0.209 HD
ENDBRANCH  10  11
ENDBRANCH   7  10
TORSDOF 2
