REMARK  2 active torsions:
REMARK  status: ('A' for Active; 'I' for Inactive)
REMARK    1  A    between atoms: O1_2  and  C2_3 
REMARK    2  A    between atoms: C6_8  and  N1_9 
ROOT
HETATM    1  C2  UNL     1       1.162  -0.431  -0.438  1.00  0.00     0.331 C 
HETATM    2  C3  UNL     1       0.958  -0.230  -1.883  1.00  0.00     0.137 C 
HETATM    3  S1  UNL     1      -0.820  -0.545  -2.102  1.00  0.00    -0.124 SA
HETATM    4  C4  UNL     1      -1.173  -0.574  -0.330  1.00  0.00     0.206 A 
HETATM    5  C5  UNL     1      -2.452  -0.957   0.218  1.00  0.00     0.089 A 
HETATM    6  C6  UNL     1      -1.977   0.515   0.233  1.00  0.00     0.233 A 
HETATM    7  N2  UNL     1       0.068  -1.012   0.214  1.00  0.00    -0.028 N 
ATOM      8  H21 UNL     1       0.108  -0.850   1.220  1.00  0.00     0.282 HD
ATOM      9  H22 UNL     1       0.134  -2.030   0.212  1.00  0.00     0.282 HD
ENDROOT
BRANCH   6  10
HETATM   10  N1  UNL     1      -1.743   1.090   1.524  1.00  0.00    -0.072 N 
ATOM     11  H13 UNL     1      -1.754   0.327   2.200  1.00  0.00     0.274 HD
ATOM     12  H12 UNL     1      -0.769   1.392   1.547  1.00  0.00     0.274 HD
ATOM     13  H11 UNL     1      -2.302   1.848   1.916  1.00  0.00     0.274 HD
ENDBRANCH   6  10
BRANCH   1  14
HETATM   14  O1  UNL     1       1.497   0.766   0.192  1.00  0.00    -0.363 OA
HETATM   15  C1  UNL     1       2.774   0.728   0.746  1.00  0.00     0.204 C 
ENDBRANCH   1  14
TORSDOF 2
