REMARK  1 active torsions:
REMARK  status: ('A' for Active; 'I' for Inactive)
REMARK    1  A    between atoms: C3_5  and  C4_6 
ROOT
HETATM    1  C4  UNL     1       1.646  -0.010   0.143  1.00  0.00     0.141 A 
HETATM    2  N2  UNL     1       1.820  -1.198  -0.462  1.00  0.00    -0.268 N 
ATOM      3  H2  UNL     1       1.079  -1.852  -0.714  1.00  0.00     0.185 HD
HETATM    4  N3  UNL     1       3.121  -1.379  -0.677  1.00  0.00    -0.005 NA
HETATM    5  N4  UNL     1       3.780  -0.327  -0.221  1.00  0.00    -0.225 N 
ATOM      6  H4  UNL     1       4.789  -0.183  -0.248  1.00  0.00     0.205 HD
HETATM    7  N5  UNL     1       2.883   0.499   0.275  1.00  0.00    -0.273 N 
ATOM      8  H5  UNL     1       3.097   1.401   0.701  1.00  0.00     0.189 HD
ENDROOT
BRANCH   1   9
HETATM    9  C3  UNL     1       0.334   0.539   0.542  1.00  0.00     0.217 C 
HETATM   10  O1  UNL     1      -0.469  -0.418   1.173  1.00  0.00    -0.273 OA
HETATM   11  N1  UNL     1      -1.650   0.190   1.444  1.00  0.00    -0.100 NA
HETATM   12  C2  UNL     1      -2.511   0.231   0.276  1.00  0.00     0.143 C 
HETATM   13  C1  UNL     1      -1.578   0.099  -0.935  1.00  0.00     0.021 C 
HETATM   14  C5  UNL     1      -0.432   1.081  -0.668  1.00  0.00     0.043 C 
ENDBRANCH   1   9
TORSDOF 1
