REMARK  1 active torsions:
REMARK  status: ('A' for Active; 'I' for Inactive)
REMARK    1  A    between atoms: O1_2  and  C2_3 
ROOT
HETATM    1  C2  UNL     1      -0.892   0.459  -0.043  1.00  0.00     0.246 C 
HETATM    2  C3  UNL     1      -0.455   1.869   0.027  1.00  0.00     0.122 C 
HETATM    3  N1  UNL     1      -0.132   2.981   0.082  1.00  0.00    -0.192 NA
HETATM    4  C4  UNL     1      -0.305  -0.090  -1.338  1.00  0.00     0.309 C 
HETATM    5  N2  UNL     1       1.087   0.305  -1.383  1.00  0.00    -0.070 N 
ATOM      6  H21 UNL     1       1.218   1.306  -1.238  1.00  0.00     0.277 HD
ATOM      7  H22 UNL     1       1.482   0.250  -2.322  1.00  0.00     0.277 HD
HETATM    8  C5  UNL     1       1.804  -0.489  -0.434  1.00  0.00     0.234 C 
HETATM    9  C6  UNL     1       2.001   0.213   0.874  1.00  0.00     0.047 C 
HETATM   10  C7  UNL     1       0.765   0.341   1.698  1.00  0.00     0.119 C 
HETATM   11  N3  UNL     1      -0.412  -0.212   1.112  1.00  0.00    -0.378 N 
ATOM     12  H3  UNL     1      -0.877  -1.034   1.497  1.00  0.00     0.157 HD
ENDROOT
BRANCH   1  13
HETATM   13  O1  UNL     1      -2.259   0.470  -0.187  1.00  0.00    -0.352 OA
HETATM   14  C1  UNL     1      -2.827  -0.786  -0.268  1.00  0.00     0.206 C 
ENDBRANCH   1  13
TORSDOF 1
