REMARK  3 active torsions:
REMARK  status: ('A' for Active; 'I' for Inactive)
REMARK    1  A    between atoms: C2_3  and  N2_4 
REMARK    2  A    between atoms: C2_3  and  C3_8 
REMARK    3  A    between atoms: C5_10  and  N3_11 
ROOT
HETATM    1  N1  UNL     1      -2.632   1.751   1.121  1.00  0.00    -0.195 NA
HETATM    2  C1  UNL     1      -2.337   0.922   0.348  1.00  0.00     0.093 C 
HETATM    3  C2  UNL     1      -1.951  -0.106  -0.628  1.00  0.00     0.302 C 
ENDROOT
BRANCH   3   4
HETATM    4  N2  UNL     1      -2.706  -1.315  -0.310  1.00  0.00    -0.061 N 
ATOM      5  H23 UNL     1      -2.585  -1.618   0.656  1.00  0.00     0.275 HD
ATOM      6  H22 UNL     1      -3.713  -1.158  -0.274  1.00  0.00     0.275 HD
ATOM      7  H21 UNL     1      -2.438  -2.029  -0.988  1.00  0.00     0.275 HD
ENDBRANCH   3   4
BRANCH   3   8
HETATM    8  C3  UNL     1      -0.485  -0.442  -0.495  1.00  0.00     0.093 C 
HETATM    9  C4  UNL     1       0.409   0.736  -0.725  1.00  0.00     0.051 C 
HETATM   10  C5  UNL     1       1.673   0.529   0.060  1.00  0.00     0.194 C 
HETATM   11  C6  UNL     1       1.287   0.296   1.496  1.00  0.00     0.107 C 
HETATM   12  S1  UNL     1      -0.190  -0.774   1.286  1.00  0.00    -0.159 SA
BRANCH  10  13
HETATM   13  N3  UNL     1       2.466  -0.532  -0.494  1.00  0.00    -0.074 N 
ATOM     14  H33 UNL     1       1.930  -1.396  -0.574  1.00  0.00     0.274 HD
ATOM     15  H32 UNL     1       2.662  -0.375  -1.483  1.00  0.00     0.274 HD
ATOM     16  H31 UNL     1       3.324  -0.673   0.039  1.00  0.00     0.274 HD
ENDBRANCH  10  13
ENDBRANCH   3   8
TORSDOF 3
