REMARK  1 active torsions:
REMARK  status: ('A' for Active; 'I' for Inactive)
REMARK    1  A    between atoms: C2_2  and  C3_3 
ROOT
HETATM    1  C3  UNL     1       1.331   0.464  -0.238  1.00  0.00     0.253 C 
HETATM    2  N1  UNL     1       0.217   1.375  -0.512  1.00  0.00    -0.103 NA
HETATM    3  N2  UNL     1      -0.955   0.862  -0.021  1.00  0.00    -0.100 NA
HETATM    4  O1  UNL     1      -1.793   0.543  -1.054  1.00  0.00    -0.287 OA
HETATM    5  C4  UNL     1      -2.866  -0.131  -0.452  1.00  0.00     0.197 C 
HETATM    6  C5  UNL     1      -2.274  -0.840   0.758  1.00  0.00     0.054 C 
HETATM    7  C6  UNL     1      -0.809  -0.439   0.614  1.00  0.00     0.131 C 
HETATM    8  C7  UNL     1      -0.117  -1.339  -0.388  1.00  0.00     0.194 C 
HETATM    9  O2  UNL     1       1.063  -0.758  -0.816  1.00  0.00    -0.363 OA
ENDROOT
BRANCH   1  10
HETATM   10  C2  UNL     1       2.586   0.985  -0.862  1.00  0.00     0.013 C 
HETATM   11  C1  UNL     1       3.771   0.641  -0.402  1.00  0.00     0.011 C 
ENDBRANCH   1  10
TORSDOF 1
