REMARK  5 active torsions:
REMARK  status: ('A' for Active; 'I' for Inactive)
REMARK    1  A    between atoms: C3_3  and  C4_4 
REMARK    2  A    between atoms: C4_4  and  C5_5 
REMARK    3  A    between atoms: C5_5  and  N1_6 
REMARK    4  A    between atoms: C9_13  and  N2_14 
REMARK    5  A    between atoms: N2_14  and  N3_15 
ROOT
HETATM    1  C1  UNL     1      -0.802   0.436  -1.554  1.00  0.00     0.012 C 
HETATM    2  C2  UNL     1      -0.715   0.652  -0.081  1.00  0.00     0.007 C 
HETATM    3  C3  UNL     1       0.697   0.298   0.427  1.00  0.00    -0.008 C 
HETATM    4  C6  UNL     1       0.838  -1.177   0.421  1.00  0.00     0.005 C 
HETATM    5  C7  UNL     1      -0.283  -1.935   1.108  1.00  0.00     0.002 C 
HETATM    6  C8  UNL     1      -1.611  -1.606   0.475  1.00  0.00     0.023 C 
HETATM    7  C9  UNL     1      -1.776  -0.096   0.642  1.00  0.00     0.102 C 
ENDROOT
BRANCH   3   8
HETATM    8  C4  UNL     1       1.683   0.952  -0.469  1.00  0.00     0.032 C 
BRANCH   8   9
HETATM    9  C5  UNL     1       3.122   0.784  -0.204  1.00  0.00     0.230 C 
BRANCH   9  10
HETATM   10  N1  UNL     1       3.672  -0.528  -0.261  1.00  0.00    -0.079 N 
ATOM     11  H13 UNL     1       3.146  -1.136   0.366  1.00  0.00     0.274 HD
ATOM     12  H12 UNL     1       3.451  -0.942  -1.167  1.00  0.00     0.274 HD
ATOM     13  H11 UNL     1       4.669  -0.644  -0.077  1.00  0.00     0.274 HD
ENDBRANCH   9  10
ENDBRANCH   8   9
ENDBRANCH   3   8
BRANCH   7  14
HETATM   14  N2  UNL     1      -3.070   0.333   0.220  1.00  0.00    -0.143 NA
BRANCH  14  15
HETATM   15  N3  UNL     1      -3.257   1.678   0.460  1.00  0.00    -0.348 N 
ATOM     16  H32 UNL     1      -2.550   2.277   0.886  1.00  0.00     0.172 HD
ATOM     17  H31 UNL     1      -4.182   1.985   0.158  1.00  0.00     0.172 HD
ENDBRANCH  14  15
ENDBRANCH   7  14
TORSDOF 5
