REMARK  3 active torsions:
REMARK  status: ('A' for Active; 'I' for Inactive)
REMARK    1  A    between atoms: C6_8  and  C8_10 
REMARK    2  A    between atoms: C8_10  and  N2_11 
REMARK    3  A    between atoms: N2_11  and  N3_12 
ROOT
HETATM    1  C1  UNL     1      -2.450   1.948  -0.763  1.00  0.00     0.010 C 
HETATM    2  C2  UNL     1      -1.773   0.834   0.044  1.00  0.00    -0.016 C 
HETATM    3  C3  UNL     1      -2.209  -0.426  -0.625  1.00  0.00     0.009 C 
HETATM    4  C4  UNL     1      -1.795  -1.682   0.066  1.00  0.00     0.044 C 
HETATM    5  C5  UNL     1      -1.052  -1.373   1.353  1.00  0.00     0.056 C 
HETATM    6  N1  UNL     1       0.275  -1.061   1.041  1.00  0.00    -0.392 N 
ATOM      7  H1  UNL     1       1.001  -1.744   1.257  1.00  0.00     0.159 HD
HETATM    8  C6  UNL     1       0.646   0.139   0.449  1.00  0.00     0.041 C 
HETATM    9  C7  UNL     1       1.625   0.801   1.425  1.00  0.00     0.039 C 
HETATM   10  C9  UNL     1      -0.319   1.133  -0.005  1.00  0.00     0.036 C 
ENDROOT
BRANCH   8  11
HETATM   11  C8  UNL     1       1.541  -0.238  -0.737  1.00  0.00     0.164 C 
BRANCH  11  12
HETATM   12  N2  UNL     1       2.859  -0.658  -0.267  1.00  0.00    -0.146 NA
BRANCH  12  13
HETATM   13  N3  UNL     1       3.795  -0.434  -1.270  1.00  0.00    -0.348 N 
ATOM     14  H32 UNL     1       3.580  -0.038  -2.185  1.00  0.00     0.172 HD
ATOM     15  H31 UNL     1       4.715  -0.727  -0.942  1.00  0.00     0.172 HD
ENDBRANCH  12  13
ENDBRANCH  11  12
ENDBRANCH   8  11
TORSDOF 3
