REMARK  3 active torsions:
REMARK  status: ('A' for Active; 'I' for Inactive)
REMARK    1  A    between atoms: C2_2  and  N1_3 
REMARK    2  A    between atoms: N1_3  and  C3_5 
REMARK    3  A    between atoms: C5_9  and  C6_10 
ROOT
HETATM    1  C3  UNL     1       1.378   0.606  -0.639  1.00  0.00     0.685 C 
HETATM    2  N2  UNL     1       0.645   1.608  -0.304  1.00  0.00    -0.224 N 
ATOM      3  H2  UNL     1       1.081   2.530  -0.301  1.00  0.00     0.177 HD
HETATM    4  C4  UNL     1      -0.741   1.529   0.066  1.00  0.00     0.161 C 
HETATM    5  C5  UNL     1      -1.129   0.111   0.293  1.00  0.00     0.121 C 
HETATM    6  N3  UNL     1      -0.628  -0.712  -0.773  1.00  0.00    -0.119 NA
HETATM    7  N4  UNL     1       0.788  -0.698  -0.655  1.00  0.00    -0.136 N 
ATOM      8  H4  UNL     1       1.342  -1.552  -0.587  1.00  0.00     0.201 HD
ENDROOT
BRANCH   1   9
HETATM    9  N1  UNL     1       2.748   0.786  -0.993  1.00  0.00    -0.226 N 
ATOM     10  H1  UNL     1       2.977   0.932  -1.976  1.00  0.00     0.177 HD
BRANCH   9  11
HETATM   11  C2  UNL     1       3.832   0.772  -0.031  1.00  0.00     0.133 C 
HETATM   12  C1  UNL     1       4.021  -0.603   0.546  1.00  0.00     0.027 C 
ENDBRANCH   9  11
ENDBRANCH   1   9
BRANCH   5  13
HETATM   13  C6  UNL     1      -2.610  -0.069   0.527  1.00  0.00     0.000 C 
HETATM   14  C7  UNL     1      -3.455   0.400  -0.622  1.00  0.00     0.011 C 
HETATM   15  C8  UNL     1      -2.885  -1.498   0.845  1.00  0.00     0.011 C 
ENDBRANCH   5  13
TORSDOF 3
