REMARK  3 active torsions:
REMARK  status: ('A' for Active; 'I' for Inactive)
REMARK    1  A    between atoms: N1_1  and  C1_5 
REMARK    2  A    between atoms: C1_5  and  C2_6 
REMARK    3  A    between atoms: C1_5  and  C8_12 
ROOT
HETATM    1  C1  UNL     1       0.808  -0.650   0.161  1.00  0.00     0.194 C 
ENDROOT
BRANCH   1   2
HETATM    2  N1  UNL     1       0.788  -1.800  -0.721  1.00  0.00    -0.074 N 
ATOM      3  H13 UNL     1       0.022  -2.431  -0.485  1.00  0.00     0.274 HD
ATOM      4  H12 UNL     1       0.498  -1.536  -1.662  1.00  0.00     0.274 HD
ATOM      5  H11 UNL     1       1.680  -2.294  -0.737  1.00  0.00     0.274 HD
ENDBRANCH   1   2
BRANCH   1   6
HETATM    6  C2  UNL     1      -0.493   0.071   0.184  1.00  0.00     0.016 C 
HETATM    7  C3  UNL     1      -1.555  -0.908   0.670  1.00  0.00     0.007 C 
HETATM    8  C4  UNL     1      -2.754  -0.127   1.159  1.00  0.00     0.000 C 
HETATM    9  C5  UNL     1      -3.042   0.952   0.138  1.00  0.00     0.000 C 
HETATM   10  C6  UNL     1      -2.433   0.564  -1.201  1.00  0.00     0.000 C 
HETATM   11  C7  UNL     1      -0.920   0.631  -1.130  1.00  0.00     0.007 C 
ENDBRANCH   1   6
BRANCH   1  12
HETATM   12  C8  UNL     1       1.978   0.208  -0.233  1.00  0.00     0.068 C 
HETATM   13  C9  UNL     1       3.288  -0.542  -0.109  1.00  0.00     0.240 C 
HETATM   14  N2  UNL     1       3.883   0.741   0.301  1.00  0.00    -0.074 N 
HETATM   15  C10 UNL     1       2.572   1.036   0.903  1.00  0.00     0.240 C 
ATOM     16  H22 UNL     1       4.746   0.785   0.843  1.00  0.00     0.277 HD
ATOM     17  H21 UNL     1       4.319   1.371  -0.372  1.00  0.00     0.277 HD
ENDBRANCH   1  12
TORSDOF 3
