REMARK  6 active torsions:
REMARK  status: ('A' for Active; 'I' for Inactive)
REMARK    1  A    between atoms: C2_5  and  N2_6 
REMARK    2  A    between atoms: N2_6  and  N3_8 
REMARK    3  A    between atoms: N3_8  and  C3_9 
REMARK    4  A    between atoms: C5_11  and  O2_12 
REMARK    5  A    between atoms: O2_12  and  S1_13 
REMARK    6  A    between atoms: C6_19  and  N5_20 
ROOT
HETATM    1  O1  UNL     1      -4.326  -2.739  -0.612  1.00  0.00    -0.247 OA
HETATM    2  C1  UNL     1      -4.073  -1.557  -0.250  1.00  0.00     0.328 A 
HETATM    3  N1  UNL     1      -2.870  -1.021  -0.507  1.00  0.00    -0.291 N 
ATOM      4  H1  UNL     1      -2.169  -1.578  -0.995  1.00  0.00     0.172 HD
HETATM    5  C2  UNL     1      -2.570   0.236  -0.134  1.00  0.00     0.160 A 
HETATM    6  C6  UNL     1      -3.572   0.945   0.530  1.00  0.00     0.215 A 
HETATM    7  C7  UNL     1      -4.805   0.381   0.787  1.00  0.00     0.286 A 
HETATM    8  O9  UNL     1      -5.715   1.020   1.386  1.00  0.00    -0.265 OA
HETATM    9  N6  UNL     1      -5.048  -0.881   0.390  1.00  0.00    -0.273 N 
ATOM     10  H6  UNL     1      -5.952  -1.318   0.570  1.00  0.00     0.173 HD
ENDROOT
BRANCH   5  11
HETATM   11  N2  UNL     1      -1.316   0.822  -0.403  1.00  0.00    -0.285 N 
ATOM     12  H2  UNL     1      -1.249   1.372  -1.259  1.00  0.00     0.184 HD
BRANCH  11  13
HETATM   13  N3  UNL     1      -0.173   0.737   0.356  1.00  0.00    -0.105 NA
BRANCH  13  14
HETATM   14  C3  UNL     1       0.724  -0.270  -0.182  1.00  0.00     0.264 C 
HETATM   15  C4  UNL     1       2.002  -0.315   0.593  1.00  0.00     0.106 C 
HETATM   16  C5  UNL     1       3.026  -0.548  -0.475  1.00  0.00     0.269 C 
HETATM   17  N4  UNL     1       2.257  -0.699  -1.670  1.00  0.00    -0.065 NA
HETATM   18  O6  UNL     1       1.107  -0.013  -1.467  1.00  0.00    -0.260 OA
BRANCH  16  19
HETATM   19  O2  UNL     1       4.013   0.393  -0.532  1.00  0.00    -0.232 OA
BRANCH  19  20
HETATM   20  S1  UNL     1       5.571  -0.091  -0.423  1.00  0.00     0.253 S 
HETATM   21  O3  UNL     1       5.768  -1.581  -0.675  1.00  0.00    -0.572 OA
HETATM   22  O4  UNL     1       6.505   0.707  -1.311  1.00  0.00    -0.572 OA
HETATM   23  O5  UNL     1       6.101   0.166   1.155  1.00  0.00    -0.572 OA
ENDBRANCH  19  20
ENDBRANCH  16  19
ENDBRANCH  13  14
ENDBRANCH  11  13
ENDBRANCH   5  11
BRANCH   6  24
HETATM   24  N5  UNL     1      -3.300   2.257   0.932  1.00  0.00    -0.106 N 
HETATM   25  O7  UNL     1      -3.242   3.166   0.097  1.00  0.00    -0.531 OA
HETATM   26  O8  UNL     1      -3.098   2.539   2.250  1.00  0.00    -0.531 OA
ENDBRANCH   6  24
TORSDOF 6
