REMARK  2 active torsions:
REMARK  status: ('A' for Active; 'I' for Inactive)
REMARK    1  A    between atoms: N1_2  and  N2_4 
REMARK       I    between atoms: N2_4  and  C3_6 
REMARK       I    between atoms: C3_6  and  N3_7 
REMARK       I    between atoms: C3_6  and  N4_10 
REMARK    2  A    between atoms: N4_10  and  C4_12 
ROOT
HETATM    1  N2  UNL     1      -1.817  -0.669   0.703  1.00  0.00    -0.153 N 
ATOM      2  H2  UNL     1      -1.496  -1.475   1.240  1.00  0.00     0.199 HD
HETATM    3  C3  UNL     1      -0.939  -0.129  -0.279  1.00  0.00     0.688 C 
HETATM    4  N3  UNL     1      -1.080  -0.410  -1.546  1.00  0.00    -0.234 N 
ATOM      5  H31 UNL     1      -0.451  -0.023  -2.250  1.00  0.00     0.174 HD
ATOM      6  H32 UNL     1      -1.822  -1.026  -1.879  1.00  0.00     0.174 HD
HETATM    7  N4  UNL     1       0.093   0.728   0.185  1.00  0.00    -0.175 N 
ATOM      8  H4  UNL     1      -0.125   1.633   0.602  1.00  0.00     0.186 HD
ENDROOT
BRANCH   1   9
HETATM    9  N1  UNL     1      -3.080  -0.170   0.976  1.00  0.00    -0.225 NA
HETATM   10  C1  UNL     1      -3.149   1.235   0.626  1.00  0.00     0.136 C 
HETATM   11  C2  UNL     1      -4.045  -0.963   0.271  1.00  0.00     0.136 C 
ENDBRANCH   1   9
BRANCH   7  12
HETATM   12  C4  UNL     1       1.321   0.327   0.064  1.00  0.00     0.137 A 
HETATM   13  C5  UNL     1       1.744  -0.865  -0.475  1.00  0.00     0.069 A 
HETATM   14  C6  UNL     1       3.119  -0.875  -0.402  1.00  0.00     0.113 A 
HETATM   15  N5  UNL     1       3.463   0.279   0.163  1.00  0.00    -0.306 N 
HETATM   16  C7  UNL     1       4.836   0.709   0.443  1.00  0.00     0.177 C 
HETATM   17  N6  UNL     1       2.412   1.010   0.449  1.00  0.00    -0.284 N 
ATOM     18  H6  UNL     1       2.421   1.932   0.885  1.00  0.00     0.188 HD
ENDBRANCH   7  12
TORSDOF 2
