REMARK  4 active torsions:
REMARK  status: ('A' for Active; 'I' for Inactive)
REMARK    1  A    between atoms: C2_2  and  O1_3 
REMARK    2  A    between atoms: C2_2  and  C5_11 
REMARK    3  A    between atoms: O1_3  and  C3_4 
REMARK    4  A    between atoms: C3_4  and  N1_6 
ROOT
HETATM    1  C3  UNL     1       0.679   0.104   0.265  1.00  0.00     0.217 C 
HETATM    2  S1  UNL     1       0.627   1.697   0.584  1.00  0.00    -0.033 SA
ENDROOT
BRANCH   1   3
HETATM    3  O1  UNL     1      -0.321  -0.454  -0.507  1.00  0.00    -0.313 OA
BRANCH   3   4
HETATM    4  C2  UNL     1      -1.554   0.165  -0.770  1.00  0.00     0.216 C 
HETATM    5  C1  UNL     1      -2.355  -0.786  -1.653  1.00  0.00     0.050 C 
BRANCH   4   6
HETATM    6  C5  UNL     1      -2.293   0.324   0.496  1.00  0.00     0.260 C 
HETATM    7  N4  UNL     1      -3.597   0.937   0.494  1.00  0.00    -0.060 NA
HETATM    8  O2  UNL     1      -1.792  -0.068   1.557  1.00  0.00    -0.274 OA
ENDBRANCH   4   6
ENDBRANCH   3   4
ENDBRANCH   1   3
BRANCH   1   9
HETATM    9  N1  UNL     1       1.720  -0.672   0.768  1.00  0.00    -0.304 N 
HETATM   10  C4  UNL     1       2.972  -0.375   0.698  1.00  0.00     0.203 C 
HETATM   11  N2  UNL     1       3.428   0.820   0.076  1.00  0.00    -0.066 NA
HETATM   12  N3  UNL     1       3.895  -1.294   1.270  1.00  0.00    -0.066 NA
ATOM     13  H1  UNL     1       1.471  -1.547   1.230  1.00  0.00     0.171 HD
ENDBRANCH   1   9
TORSDOF 4
