REMARK  2 active torsions:
REMARK  status: ('A' for Active; 'I' for Inactive)
REMARK    1  A    between atoms: C3_3  and  C4_4 
REMARK    2  A    between atoms: C4_4  and  N1_5 
REMARK       I    between atoms: N1_5  and  C5_7 
REMARK       I    between atoms: C5_7  and  N2_8 
ROOT
HETATM    1  C1  UNL     1      -5.081  -0.291  -1.227  1.00  0.00     0.112 C 
HETATM    2  C2  UNL     1      -3.780  -0.051  -0.588  1.00  0.00    -0.109 C 
HETATM    3  C3  UNL     1      -2.720   0.148  -0.046  1.00  0.00    -0.087 C 
ENDROOT
BRANCH   3   4
HETATM    4  C4  UNL     1      -1.451   0.377   0.630  1.00  0.00     0.232 C 
BRANCH   4   5
HETATM    5  N1  UNL     1      -0.349   0.546  -0.312  1.00  0.00    -0.215 N 
HETATM    6  C5  UNL     1       0.930   0.774   0.222  1.00  0.00     0.690 C 
HETATM    7  N2  UNL     1       1.689  -0.306   0.699  1.00  0.00    -0.165 N 
HETATM    8  N5  UNL     1       1.407   1.950   0.279  1.00  0.00    -0.126 N 
HETATM    9  C6  UNL     1       2.665  -0.840   0.061  1.00  0.00     0.215 C 
ATOM     10  H2  UNL     1       1.449  -0.691   1.612  1.00  0.00     0.186 HD
HETATM   11  N3  UNL     1       3.350  -1.922   0.651  1.00  0.00    -0.066 NA
HETATM   12  N4  UNL     1       2.999  -0.309  -1.205  1.00  0.00    -0.066 NA
HETATM   13  C7  UNL     1       2.689   2.211   0.810  1.00  0.00     0.196 C 
ATOM     14  H5  UNL     1       0.847   2.729  -0.069  1.00  0.00     0.197 HD
HETATM   15  N6  UNL     1       3.733   2.419   1.263  1.00  0.00    -0.171 NA
ATOM     16  H1  UNL     1      -0.502   0.500  -1.319  1.00  0.00     0.178 HD
ENDBRANCH   4   5
ENDBRANCH   3   4
TORSDOF 2
