REMARK  4 active torsions:
REMARK  status: ('A' for Active; 'I' for Inactive)
REMARK    1  A    between atoms: C4_4  and  N1_5 
REMARK    2  A    between atoms: N1_5  and  C5_7 
REMARK    3  A    between atoms: C7_11  and  N3_12 
REMARK    4  A    between atoms: N5_17  and  O1_18 
ROOT
HETATM    1  C1  UNL     1      -0.519   3.619  -0.183  1.00  0.00     0.019 C 
HETATM    2  C2  UNL     1      -0.815   2.448  -0.171  1.00  0.00    -0.052 C 
HETATM    3  C3  UNL     1      -1.149   1.037  -0.145  1.00  0.00     0.178 A 
HETATM    4  C4  UNL     1      -0.152   0.096   0.022  1.00  0.00     0.157 A 
HETATM    5  N2  UNL     1      -0.470  -1.212   0.046  1.00  0.00    -0.173 N 
ATOM      6  H2  UNL     1       0.255  -1.919   0.169  1.00  0.00     0.186 HD
HETATM    7  C7  UNL     1      -1.753  -1.570  -0.094  1.00  0.00     0.694 A 
HETATM    8  N4  UNL     1      -2.751  -0.656  -0.260  1.00  0.00    -0.105 N 
ATOM      9  H4  UNL     1      -3.722  -0.949  -0.365  1.00  0.00     0.208 HD
HETATM   10  N5  UNL     1      -2.420   0.614  -0.280  1.00  0.00    -0.137 N 
ENDROOT
BRANCH   4  11
HETATM   11  N1  UNL     1       1.088   0.471   0.156  1.00  0.00    -0.374 N 
ATOM     12  H1  UNL     1       1.331   1.461   0.138  1.00  0.00     0.161 HD
BRANCH  11  13
HETATM   13  C5  UNL     1       2.115  -0.529   0.330  1.00  0.00     0.116 C 
HETATM   14  C6  UNL     1       3.482   0.106   0.242  1.00  0.00     0.026 C 
ENDBRANCH  11  13
ENDBRANCH   4  11
BRANCH  10  15
HETATM   15  O1  UNL     1      -3.446   1.527  -0.450  1.00  0.00    -0.267 OA
ATOM     16  H1  UNL     1      -4.343   1.229  -0.545  1.00  0.00     0.247 HD
ENDBRANCH  10  15
BRANCH   7  17
HETATM   17  N3  UNL     1      -2.004  -2.846  -0.064  1.00  0.00    -0.233 N 
ATOM     18  H32 UNL     1      -1.257  -3.530   0.060  1.00  0.00     0.174 HD
ATOM     19  H31 UNL     1      -2.981  -3.119  -0.171  1.00  0.00     0.174 HD
ENDBRANCH   7  17
TORSDOF 4
