REMARK  5 active torsions:
REMARK  status: ('A' for Active; 'I' for Inactive)
REMARK    1  A    between atoms: C3_3  and  N1_4 
REMARK    2  A    between atoms: N1_4  and  C4_6 
REMARK    3  A    between atoms: C4_6  and  N2_7 
REMARK    4  A    between atoms: C4_6  and  C5_11 
REMARK    5  A    between atoms: C5_11  and  N3_12 
ROOT
HETATM    1  N1  UNL     1       0.698   0.249  -0.172  1.00  0.00    -0.346 N 
ATOM      2  H1  UNL     1       0.693   1.244   0.053  1.00  0.00     0.163 HD
ENDROOT
BRANCH   1   3
HETATM    3  C3  UNL     1      -0.433  -0.420  -0.170  1.00  0.00     0.133 A 
HETATM    4  C2  UNL     1      -1.605   0.166   0.120  1.00  0.00     0.059 A 
HETATM    5  C1  UNL     1      -1.777   1.634   0.473  1.00  0.00     0.073 C 
HETATM    6  N5  UNL     1      -2.695  -0.603   0.094  1.00  0.00    -0.308 N 
HETATM    7  S1  UNL     1      -2.090  -2.113  -0.327  1.00  0.00     0.070 SA
HETATM    8  C6  UNL     1      -4.085  -0.267   0.358  1.00  0.00     0.166 C 
HETATM    9  N4  UNL     1      -0.454  -1.724  -0.460  1.00  0.00    -0.297 N 
ATOM     10  H4  UNL     1       0.327  -2.334  -0.702  1.00  0.00     0.177 HD
ENDBRANCH   1   3
BRANCH   1  11
HETATM   11  C4  UNL     1       1.943  -0.400  -0.486  1.00  0.00     0.308 C 
BRANCH  11  12
HETATM   12  N2  UNL     1       2.424  -1.152   0.639  1.00  0.00    -0.057 N 
ATOM     13  H23 UNL     1       2.501  -0.573   1.475  1.00  0.00     0.276 HD
ATOM     14  H22 UNL     1       1.727  -1.816   0.975  1.00  0.00     0.276 HD
ATOM     15  H21 UNL     1       3.307  -1.612   0.416  1.00  0.00     0.276 HD
ENDBRANCH  11  12
BRANCH  11  16
HETATM   16  C5  UNL     1       3.009   0.594  -0.898  1.00  0.00     0.283 C 
BRANCH  16  17
HETATM   17  N3  UNL     1       3.292   1.552   0.134  1.00  0.00    -0.076 N 
ATOM     18  H33 UNL     1       2.442   2.028   0.437  1.00  0.00     0.274 HD
ATOM     19  H32 UNL     1       3.540   1.088   1.008  1.00  0.00     0.274 HD
ATOM     20  H31 UNL     1       4.010   2.221  -0.143  1.00  0.00     0.274 HD
ENDBRANCH  16  17
ENDBRANCH  11  16
ENDBRANCH   1  11
TORSDOF 5
