REMARK  6 active torsions:
REMARK  status: ('A' for Active; 'I' for Inactive)
REMARK    1  A    between atoms: C3_3  and  N1_4 
REMARK    2  A    between atoms: C4_5  and  O1_6 
REMARK    3  A    between atoms: C7_10  and  O2_11 
REMARK    4  A    between atoms: N2_19  and  C14_20 
REMARK    5  A    between atoms: C14_20  and  C15_21 
REMARK    6  A    between atoms: C15_21  and  C18_24 
ROOT
HETATM    1  C1  UNL     1      -0.104   1.275   0.820  1.00  0.00     0.070 C 
HETATM    2  C2  UNL     1      -0.311   0.572  -0.489  1.00  0.00     0.035 A 
HETATM    3  C3  UNL     1       0.720  -0.107  -1.122  1.00  0.00     0.067 A 
HETATM    4  C12 UNL     1       0.196  -0.591  -2.295  1.00  0.00     0.049 A 
HETATM    5  C13 UNL     1      -1.114  -0.191  -2.323  1.00  0.00     0.093 A 
HETATM    6  N2  UNL     1      -1.426   0.522  -1.214  1.00  0.00    -0.358 N 
ENDROOT
BRANCH   3   7
HETATM    7  N1  UNL     1       2.050  -0.260  -0.637  1.00  0.00    -0.270 N 
HETATM    8  C4  UNL     1       2.576  -1.292   0.032  1.00  0.00     0.156 A 
HETATM    9  C5  UNL     1       3.893  -1.059   0.322  1.00  0.00     0.004 A 
HETATM   10  C6  UNL     1       4.186   0.192  -0.203  1.00  0.00     0.004 A 
HETATM   11  C11 UNL     1       4.989  -1.777   1.012  1.00  0.00     0.044 C 
HETATM   12  C7  UNL     1       3.029   0.649  -0.783  1.00  0.00     0.156 A 
HETATM   13  C8  UNL     1       5.512   0.808  -0.098  1.00  0.00     0.044 C 
HETATM   14  C9  UNL     1       6.331   0.336   1.064  1.00  0.00     0.005 C 
HETATM   15  C10 UNL     1       5.702  -0.743   1.878  1.00  0.00     0.005 C 
BRANCH   8  16
HETATM   16  O1  UNL     1       1.902  -2.442   0.390  1.00  0.00    -0.345 OA
ATOM     17  H1  UNL     1       2.276  -3.175   0.865  1.00  0.00     0.219 HD
ENDBRANCH   8  16
BRANCH  12  18
HETATM   18  O2  UNL     1       2.891   1.887  -1.434  1.00  0.00    -0.345 OA
ATOM     19  H2  UNL     1       3.583   2.530  -1.537  1.00  0.00     0.219 HD
ENDBRANCH  12  18
ENDBRANCH   3   7
BRANCH   6  20
HETATM   20  C14 UNL     1      -2.707   1.050  -0.930  1.00  0.00     0.140 C 
BRANCH  20  21
HETATM   21  C15 UNL     1      -3.737   0.199  -0.338  1.00  0.00     0.004 C 
HETATM   22  C16 UNL     1      -3.983  -0.975  -1.307  1.00  0.00     0.020 C 
HETATM   23  C17 UNL     1      -5.065   0.998  -0.481  1.00  0.00     0.020 C 
BRANCH  21  24
HETATM   24  C18 UNL     1      -3.690  -0.228   1.061  1.00  0.00     0.104 C 
HETATM   25  C19 UNL     1      -3.701   0.890   2.073  1.00  0.00     0.052 C 
HETATM   26  C20 UNL     1      -5.010  -0.994   1.335  1.00  0.00     0.052 C 
HETATM   27  F1  UNL     1      -2.709  -1.125   1.413  1.00  0.00    -0.243 F 
ENDBRANCH  21  24
ENDBRANCH  20  21
ENDBRANCH   6  20
TORSDOF 6
