REMARK  2 active torsions:
REMARK  status: ('A' for Active; 'I' for Inactive)
REMARK    1  A    between atoms: C2_2  and  C4_4 
REMARK    2  A    between atoms: N2_11  and  C9_12 
ROOT
HETATM    1  C4  UNL     1      -3.620   0.866   0.475  1.00  0.00     0.028 C 
HETATM    2  C5  UNL     1      -3.400   1.343  -0.942  1.00  0.00     0.012 C 
HETATM    3  C6  UNL     1      -1.899   1.797  -0.879  1.00  0.00     0.040 C 
HETATM    4  C7  UNL     1      -1.334   0.619  -0.083  1.00  0.00    -0.017 C 
HETATM    5  C8  UNL     1      -0.047   0.136  -0.512  1.00  0.00     0.071 A 
HETATM    6  N1  UNL     1       1.179   0.683  -0.174  1.00  0.00    -0.295 N 
ATOM      7  H1  UNL     1       1.282   1.571   0.317  1.00  0.00     0.187 HD
HETATM    8  N2  UNL     1       2.181  -0.048  -0.544  1.00  0.00    -0.270 N 
HETATM    9  C15 UNL     1       1.709  -1.138  -1.163  1.00  0.00     0.140 A 
HETATM   10  N3  UNL     1       2.311  -2.150  -1.778  1.00  0.00    -0.337 N 
ATOM     11  H3  UNL     1       3.329  -2.209  -1.775  1.00  0.00     0.168 HD
HETATM   12  C16 UNL     1       1.595  -3.091  -2.400  1.00  0.00     0.183 A 
HETATM   13  N4  UNL     1       0.229  -3.016  -2.404  1.00  0.00    -0.338 N 
ATOM     14  H4  UNL     1      -0.324  -3.731  -2.876  1.00  0.00     0.168 HD
HETATM   15  C17 UNL     1      -0.375  -1.997  -1.783  1.00  0.00     0.116 A 
HETATM   16  N5  UNL     1      -1.616  -1.922  -1.812  1.00  0.00    -0.385 N 
ATOM     17  H51 UNL     1      -2.077  -1.145  -1.338  1.00  0.00     0.157 HD
ATOM     18  H52 UNL     1      -2.149  -2.649  -2.289  1.00  0.00     0.157 HD
HETATM   19  C18 UNL     1       0.338  -1.024  -1.144  1.00  0.00     0.081 A 
HETATM   20  C19 UNL     1      -2.328  -0.023   0.727  1.00  0.00     0.206 C 
HETATM   21  F1  UNL     1      -2.208   0.159   2.136  1.00  0.00    -0.244 F 
ENDROOT
BRANCH   8  22
HETATM   22  C9  UNL     1       3.579   0.289  -0.297  1.00  0.00     0.110 C 
HETATM   23  C10 UNL     1       4.295  -0.744   0.556  1.00  0.00     0.027 C 
HETATM   24  C11 UNL     1       5.753  -0.293   0.663  1.00  0.00     0.002 C 
HETATM   25  C12 UNL     1       5.881   1.076   1.276  1.00  0.00     0.000 C 
HETATM   26  C13 UNL     1       4.486   1.535   1.668  1.00  0.00     0.002 C 
HETATM   27  C14 UNL     1       3.683   1.620   0.411  1.00  0.00     0.027 C 
ENDBRANCH   8  22
BRANCH   1  28
HETATM   28  C2  UNL     1      -4.781  -0.043   0.655  1.00  0.00    -0.016 C 
HETATM   29  C1  UNL     1      -5.020  -0.411   2.082  1.00  0.00     0.010 C 
HETATM   30  C3  UNL     1      -6.026   0.431   0.008  1.00  0.00     0.010 C 
ENDBRANCH   1  28
TORSDOF 2
