REMARK  4 active torsions:
REMARK  status: ('A' for Active; 'I' for Inactive)
REMARK    1  A    between atoms: O1_2  and  C2_3 
REMARK    2  A    between atoms: C3_4  and  O2_5 
REMARK    3  A    between atoms: C4_7  and  C5_8 
REMARK    4  A    between atoms: C5_8  and  C6_9 
ROOT
HETATM    1  C2  UNL     1       1.570  -0.984  -0.217  1.00  0.00     0.112 A 
HETATM    2  C3  UNL     1       2.768  -0.378   0.170  1.00  0.00     0.106 A 
HETATM    3  C4  UNL     1       2.957   0.982   0.170  1.00  0.00    -0.018 A 
HETATM    4  C7  UNL     1       1.873   1.725  -0.242  1.00  0.00     0.047 A 
HETATM    5  C8  UNL     1       0.680   1.159  -0.630  1.00  0.00     0.081 A 
HETATM    6  C9  UNL     1       0.519  -0.258  -0.620  1.00  0.00     0.025 A 
HETATM    7  C10 UNL     1      -0.771  -0.668  -1.122  1.00  0.00     0.101 C 
HETATM    8  C11 UNL     1      -1.172  -2.018  -1.335  1.00  0.00    -0.007 C 
HETATM    9  N1  UNL     1      -0.620  -2.763  -2.211  1.00  0.00    -0.405 N 
ATOM     10  H11 UNL     1      -0.907  -3.730  -2.364  1.00  0.00     0.155 HD
ATOM     11  H12 UNL     1       0.146  -2.310  -2.709  1.00  0.00     0.155 HD
HETATM   12  C12 UNL     1      -2.311  -2.691  -0.595  1.00  0.00     0.057 C 
HETATM   13  C13 UNL     1      -2.745  -1.915   0.584  1.00  0.00     0.040 C 
HETATM   14  C14 UNL     1      -2.707  -0.426   0.440  1.00  0.00    -0.077 C 
HETATM   15  C15 UNL     1      -3.708   0.412   1.155  1.00  0.00     0.044 C 
HETATM   16  C16 UNL     1      -1.803   0.138  -0.336  1.00  0.00    -0.030 C 
HETATM   17  C17 UNL     1      -1.741   1.616  -0.468  1.00  0.00     0.085 C 
HETATM   18  C18 UNL     1      -2.711   2.141  -1.493  1.00  0.00     0.051 C 
HETATM   19  C19 UNL     1      -1.737   2.381   0.802  1.00  0.00     0.051 C 
HETATM   20  O3  UNL     1      -0.436   1.898  -1.048  1.00  0.00    -0.336 OA
ENDROOT
BRANCH   3  21
HETATM   21  C5  UNL     1       4.200   1.646   0.567  1.00  0.00     0.056 C 
BRANCH  21  22
HETATM   22  C6  UNL     1       5.294   1.572  -0.463  1.00  0.00     0.119 C 
HETATM   23 CL1  UNL     1       4.857   2.312  -1.998  1.00  0.00    -0.130 Cl
ENDBRANCH  21  22
ENDBRANCH   3  21
BRANCH   2  24
HETATM   24  O2  UNL     1       3.820  -1.166   0.574  1.00  0.00    -0.357 OA
ATOM     25  H2  UNL     1       4.635  -0.754   0.837  1.00  0.00     0.217 HD
ENDBRANCH   2  24
BRANCH   1  26
HETATM   26  O1  UNL     1       1.481  -2.377  -0.174  1.00  0.00    -0.352 OA
HETATM   27  C1  UNL     1       1.102  -2.974   1.067  1.00  0.00     0.210 C 
ENDBRANCH   1  26
TORSDOF 4
