REMARK  5 active torsions:
REMARK  status: ('A' for Active; 'I' for Inactive)
REMARK    1  A    between atoms: C2_2  and  C4_4 
REMARK    2  A    between atoms: C5_5  and  O1_6 
REMARK    3  A    between atoms: C6_8  and  O2_9 
REMARK    4  A    between atoms: O2_9  and  C7_10 
REMARK    5  A    between atoms: C16_20  and  O4_21 
ROOT
HETATM    1  C4  UNL     1      -1.915  -0.903  -0.109  1.00  0.00    -0.008 A 
HETATM    2  C5  UNL     1      -0.596  -0.874   0.092  1.00  0.00     0.106 A 
HETATM    3  C6  UNL     1       0.214   0.282   0.478  1.00  0.00     0.325 A 
HETATM    4  O3  UNL     1      -0.606   1.403   0.670  1.00  0.00    -0.313 OA
HETATM    5  C14 UNL     1      -1.944   1.464   0.490  1.00  0.00     0.086 A 
HETATM    6  C15 UNL     1      -2.636   2.667   0.697  1.00  0.00     0.076 A 
HETATM    7  C16 UNL     1      -3.989   2.753   0.523  1.00  0.00     0.090 A 
HETATM    8  C17 UNL     1      -4.681   1.638   0.139  1.00  0.00     0.068 A 
HETATM    9 CL1  UNL     1      -6.417   1.708  -0.094  1.00  0.00    -0.081 Cl
HETATM   10  C18 UNL     1      -3.984   0.449  -0.064  1.00  0.00     0.041 A 
HETATM   11  C19 UNL     1      -2.640   0.341   0.102  1.00  0.00     0.008 A 
ENDROOT
BRANCH   3  12
HETATM   12  O2  UNL     1       1.164   0.517  -0.512  1.00  0.00    -0.344 OA
BRANCH  12  13
HETATM   13  C7  UNL     1       2.463   0.507  -0.154  1.00  0.00     0.061 C 
HETATM   14  C8  UNL     1       2.826   1.507   0.922  1.00  0.00     0.046 C 
HETATM   15  C9  UNL     1       2.932  -0.843   0.272  1.00  0.00     0.038 C 
HETATM   16  C10 UNL     1       4.424  -0.826   0.619  1.00  0.00     0.003 C 
HETATM   17  C11 UNL     1       5.239  -0.275  -0.506  1.00  0.00     0.000 C 
HETATM   18  C12 UNL     1       4.722   0.979  -1.123  1.00  0.00     0.003 C 
HETATM   19  C13 UNL     1       3.255   0.974  -1.394  1.00  0.00     0.038 C 
ENDBRANCH  12  13
ENDBRANCH   3  12
BRANCH   2  20
HETATM   20  O1  UNL     1       0.019  -2.143  -0.112  1.00  0.00    -0.359 OA
ATOM     21  H1  UNL     1       0.958  -2.122   0.031  1.00  0.00     0.217 HD
ENDBRANCH   2  20
BRANCH   1  22
HETATM   22  C2  UNL     1      -2.633  -2.156  -0.508  1.00  0.00     0.014 C 
HETATM   23  C1  UNL     1      -3.538  -2.654   0.597  1.00  0.00     0.015 C 
HETATM   24  C3  UNL     1      -3.314  -2.072  -1.836  1.00  0.00     0.015 C 
ENDBRANCH   1  22
BRANCH   7  25
HETATM   25  O4  UNL     1      -4.635   3.974   0.741  1.00  0.00    -0.359 OA
ATOM     26  H4  UNL     1      -5.575   4.034   0.620  1.00  0.00     0.217 HD
ENDBRANCH   7  25
TORSDOF 5
