REMARK  3 active torsions:
REMARK  status: ('A' for Active; 'I' for Inactive)
REMARK    1  A    between atoms: C2_2  and  C3_3 
REMARK    2  A    between atoms: C5_8  and  S1_9 
REMARK    3  A    between atoms: C9_13  and  C10_14 
ROOT
HETATM    1  C3  UNL     1      -1.921  -0.283  -0.104  1.00  0.00     0.193 C 
HETATM    2  C4  UNL     1      -2.729  -0.669  -1.262  1.00  0.00     0.113 C 
HETATM    3  N1  UNL     1      -3.374  -0.974  -2.155  1.00  0.00    -0.193 NA
HETATM    4  N2  UNL     1      -1.728   1.147  -0.161  1.00  0.00    -0.346 N 
ATOM      5  H2  UNL     1      -2.471   1.775   0.145  1.00  0.00     0.163 HD
HETATM    6  C5  UNL     1      -0.512   1.673  -0.640  1.00  0.00     0.072 C 
HETATM    7  C7  UNL     1       0.473   0.864  -0.964  1.00  0.00    -0.024 C 
HETATM    8  C8  UNL     1       1.786   1.385  -1.479  1.00  0.00     0.049 C 
HETATM    9  C9  UNL     1       0.343  -0.610  -0.840  1.00  0.00     0.145 C 
HETATM   10  N3  UNL     1      -0.712  -1.021   0.015  1.00  0.00    -0.373 N 
ATOM     11  H3  UNL     1      -0.610  -1.795   0.672  1.00  0.00     0.157 HD
ENDROOT
BRANCH   1  12
HETATM   12  C2  UNL     1      -2.753  -0.548   1.159  1.00  0.00     0.065 C 
HETATM   13  C1  UNL     1      -3.122  -2.013   1.260  1.00  0.00     0.010 C 
ENDBRANCH   1  12
BRANCH   6  14
HETATM   14  S1  UNL     1      -0.237   3.430  -0.832  1.00  0.00    -0.117 SA
HETATM   15  C6  UNL     1      -1.693   4.385  -0.340  1.00  0.00     0.097 C 
ENDBRANCH   6  14
BRANCH   9  16
HETATM   16  C10 UNL     1       1.639  -1.060  -0.218  1.00  0.00    -0.032 A 
HETATM   17  C11 UNL     1       2.627  -1.684  -0.938  1.00  0.00     0.011 A 
HETATM   18  C12 UNL     1       3.813  -2.092  -0.366  1.00  0.00     0.019 A 
HETATM   19  C13 UNL     1       4.033  -1.874   0.983  1.00  0.00     0.011 A 
HETATM   20 BR1  UNL     1       5.660  -2.421   1.822  1.00  0.00    -0.051 Br
HETATM   21  C14 UNL     1       3.043  -1.248   1.707  1.00  0.00     0.019 A 
HETATM   22  C15 UNL     1       1.852  -0.843   1.112  1.00  0.00     0.011 A 
ENDBRANCH   9  16
TORSDOF 3
