REMARK  5 active torsions:
REMARK  status: ('A' for Active; 'I' for Inactive)
REMARK    1  A    between atoms: C5_6  and  C6_7 
REMARK    2  A    between atoms: C6_7  and  C7_8 
REMARK    3  A    between atoms: C7_8  and  C8_9 
REMARK    4  A    between atoms: C8_9  and  O2_10 
REMARK    5  A    between atoms: C14_17  and  O3_18 
ROOT
HETATM    1  C1  UNL     1       4.727   1.733  -0.912  1.00  0.00     0.077 C 
HETATM    2  C2  UNL     1       3.256   1.794  -0.800  1.00  0.00     0.056 A 
HETATM    3  O1  UNL     1       2.516   2.814  -1.118  1.00  0.00    -0.318 OA
HETATM    4  C3  UNL     1       1.260   2.511  -0.887  1.00  0.00     0.069 A 
HETATM    5  C4  UNL     1       1.153   1.194  -0.379  1.00  0.00     0.014 A 
HETATM    6  C5  UNL     1       2.456   0.744  -0.327  1.00  0.00    -0.015 A 
HETATM    7  C9  UNL     1      -0.249   0.921  -0.117  1.00  0.00    -0.006 A 
HETATM    8  C10 UNL     1      -0.911  -0.168   0.395  1.00  0.00    -0.035 A 
HETATM    9  C11 UNL     1      -0.251  -1.464   0.634  1.00  0.00     0.050 C 
HETATM   10  C12 UNL     1      -2.279  -0.167   0.599  1.00  0.00     0.030 A 
HETATM   11  C13 UNL     1      -3.024   0.984   0.260  1.00  0.00     0.014 A 
HETATM   12  C14 UNL     1      -2.385   2.085  -0.260  1.00  0.00     0.082 A 
HETATM   13  C15 UNL     1      -1.001   2.028  -0.438  1.00  0.00    -0.006 A 
HETATM   14  C16 UNL     1      -0.107   3.082  -0.976  1.00  0.00     0.108 A 
HETATM   15  C17 UNL     1      -4.494   0.986   0.449  1.00  0.00     0.211 C 
HETATM   16  O4  UNL     1      -5.002  -0.101   1.068  1.00  0.00    -0.374 OA
HETATM   17  C18 UNL     1      -4.439  -1.341   0.727  1.00  0.00     0.192 C 
HETATM   18  C19 UNL     1      -5.207  -2.445   1.406  1.00  0.00     0.048 C 
HETATM   19  C20 UNL     1      -3.041  -1.246   1.226  1.00  0.00     0.189 C 
HETATM   20  O5  UNL     1      -2.491  -1.949   2.076  1.00  0.00    -0.289 OA
ENDROOT
BRANCH   6  21
HETATM   21  C6  UNL     1       2.963  -0.521   0.129  1.00  0.00     0.044 C 
BRANCH  21  22
HETATM   22  C7  UNL     1       3.333  -1.509  -0.986  1.00  0.00     0.031 C 
BRANCH  22  23
HETATM   23  C8  UNL     1       3.845  -2.751  -0.275  1.00  0.00     0.164 C 
BRANCH  23  24
HETATM   24  O2  UNL     1       4.954  -2.461   0.508  1.00  0.00    -0.401 OA
ATOM     25  H2  UNL     1       5.274  -3.237   0.952  1.00  0.00     0.209 HD
ENDBRANCH  23  24
ENDBRANCH  22  23
ENDBRANCH  21  22
ENDBRANCH   6  21
BRANCH  12  26
HETATM   26  O3  UNL     1      -3.078   3.228  -0.605  1.00  0.00    -0.359 OA
ATOM     27  H3  UNL     1      -2.637   3.989  -0.964  1.00  0.00     0.217 HD
ENDBRANCH  12  26
TORSDOF 5
