REMARK  5 active torsions:
REMARK  status: ('A' for Active; 'I' for Inactive)
REMARK    1  A    between atoms: C2_2  and  O1_3 
REMARK    2  A    between atoms: O1_3  and  C3_4 
REMARK    3  A    between atoms: C3_4  and  C4_6 
REMARK    4  A    between atoms: C5_7  and  N1_8 
REMARK       I    between atoms: N1_8  and  C6_10 
REMARK       I    between atoms: C6_10  and  N2_12 
REMARK       I    between atoms: N2_12  and  C7_14 
REMARK    5  A    between atoms: C7_14  and  C8_16 
ROOT
HETATM    1  N1  UNL     1       0.216  -0.199  -0.194  1.00  0.00    -0.302 N 
ATOM      2  H1  UNL     1       0.290   0.739   0.199  1.00  0.00     0.171 HD
HETATM    3  C6  UNL     1       1.365  -0.895  -0.586  1.00  0.00     0.327 C 
HETATM    4  O3  UNL     1       1.200  -2.073  -1.073  1.00  0.00    -0.247 OA
HETATM    5  N2  UNL     1       2.661  -0.428  -0.495  1.00  0.00    -0.279 N 
ATOM      6  H2  UNL     1       3.407  -1.043  -0.819  1.00  0.00     0.173 HD
HETATM    7  C7  UNL     1       3.028   0.821   0.006  1.00  0.00     0.229 C 
HETATM    8  O4  UNL     1       2.237   1.663   0.430  1.00  0.00    -0.273 OA
ENDROOT
BRANCH   1   9
HETATM    9  C5  UNL     1      -1.080  -0.827  -0.353  1.00  0.00     0.095 A 
HETATM   10  C4  UNL     1      -2.338  -0.400  -0.066  1.00  0.00     0.080 A 
HETATM   11  C15 UNL     1      -3.345  -1.261  -0.348  1.00  0.00    -0.030 A 
HETATM   12  C13 UNL     1      -3.011  -2.469  -0.889  1.00  0.00    -0.012 A 
HETATM   13  C16 UNL     1      -4.811  -0.952  -0.091  1.00  0.00     0.050 C 
HETATM   14  S1  UNL     1      -1.317  -2.394  -0.999  1.00  0.00    -0.076 SA
HETATM   15  C14 UNL     1      -3.942  -3.596  -1.290  1.00  0.00     0.057 C 
BRANCH  10  16
HETATM   16  C3  UNL     1      -2.591   0.943   0.524  1.00  0.00     0.296 C 
HETATM   17  O2  UNL     1      -1.683   1.746   0.788  1.00  0.00    -0.259 OA
BRANCH  16  18
HETATM   18  O1  UNL     1      -3.872   1.385   0.818  1.00  0.00    -0.318 OA
BRANCH  18  19
HETATM   19  C2  UNL     1      -4.123   2.661   1.379  1.00  0.00     0.174 C 
HETATM   20  C1  UNL     1      -5.576   2.915   1.608  1.00  0.00     0.034 C 
ENDBRANCH  18  19
ENDBRANCH  16  18
ENDBRANCH  10  16
ENDBRANCH   1   9
BRANCH   7  21
HETATM   21  C8  UNL     1       4.530   1.122   0.009  1.00  0.00     0.078 A 
HETATM   22  C9  UNL     1       5.144   0.079   0.861  1.00  0.00     0.014 A 
HETATM   23  C10 UNL     1       6.007  -0.754  -0.029  1.00  0.00     0.001 A 
HETATM   24  C11 UNL     1       5.948  -0.174  -1.403  1.00  0.00     0.001 A 
HETATM   25  C12 UNL     1       5.040   1.011  -1.355  1.00  0.00     0.014 A 
ENDBRANCH   7  21
TORSDOF 5
