REMARK  5 active torsions:
REMARK  status: ('A' for Active; 'I' for Inactive)
REMARK    1  A    between atoms: C2_2  and  C3_3 
REMARK    2  A    between atoms: C3_3  and  C4_4 
REMARK    3  A    between atoms: C4_4  and  C5_5 
REMARK    4  A    between atoms: C7_8  and  O2_9 
REMARK    5  A    between atoms: C17_20  and  O3_21 
ROOT
HETATM    1  C5  UNL     1       1.169  -0.557   0.079  1.00  0.00    -0.021 C 
HETATM    2  C6  UNL     1       1.218   0.750   0.217  1.00  0.00     0.093 A 
HETATM    3  O1  UNL     1       2.449   1.298  -0.094  1.00  0.00    -0.286 OA
HETATM    4  C7  UNL     1       2.430   2.549   0.057  1.00  0.00     0.190 A 
HETATM    5  C8  UNL     1       1.193   2.932   0.478  1.00  0.00     0.009 A 
HETATM    6  C9  UNL     1       0.862   4.353   0.738  1.00  0.00     0.054 C 
HETATM    7  C10 UNL     1       0.373   1.744   0.591  1.00  0.00     0.005 A 
HETATM    8  C11 UNL     1      -0.857   1.882   0.993  1.00  0.00    -0.012 C 
HETATM    9  C12 UNL     1      -2.011   1.052   1.268  1.00  0.00     0.028 C 
HETATM   10  C13 UNL     1      -2.984   1.116   0.076  1.00  0.00     0.004 C 
HETATM   11  C14 UNL     1      -4.344   0.774   0.560  1.00  0.00     0.000 C 
HETATM   12  C15 UNL     1      -4.582  -0.692   0.801  1.00  0.00     0.003 C 
HETATM   13  C16 UNL     1      -4.046  -1.579  -0.264  1.00  0.00     0.042 C 
HETATM   14  C17 UNL     1      -2.898  -2.471   0.215  1.00  0.00     0.217 C 
HETATM   15  C18 UNL     1      -1.891  -2.437  -0.876  1.00  0.00     0.288 C 
HETATM   16  O4  UNL     1      -2.143  -3.195  -1.876  1.00  0.00    -0.262 OA
HETATM   17  O5  UNL     1      -0.802  -1.634  -0.761  1.00  0.00    -0.315 OA
HETATM   18  C19 UNL     1       0.086  -1.546   0.287  1.00  0.00     0.215 C 
ENDROOT
BRANCH   1  19
HETATM   19  C4  UNL     1       2.383  -1.346  -0.388  1.00  0.00     0.039 C 
BRANCH  19  20
HETATM   20  C3  UNL     1       3.620  -0.661  -0.697  1.00  0.00     0.004 C 
BRANCH  20  21
HETATM   21  C2  UNL     1       4.630  -1.783  -1.138  1.00  0.00    -0.004 C 
HETATM   22  C1  UNL     1       5.923  -1.104  -1.472  1.00  0.00     0.005 C 
ENDBRANCH  20  21
ENDBRANCH  19  20
ENDBRANCH   1  19
BRANCH   4  23
HETATM   23  O2  UNL     1       3.502   3.457  -0.165  1.00  0.00    -0.340 OA
ATOM     24  H2  UNL     1       3.488   4.400  -0.051  1.00  0.00     0.220 HD
ENDBRANCH   4  23
BRANCH  14  25
HETATM   25  O3  UNL     1      -3.358  -3.789   0.408  1.00  0.00    -0.386 OA
ATOM     26  H3  UNL     1      -2.646  -4.343   0.705  1.00  0.00     0.210 HD
ENDBRANCH  14  25
TORSDOF 5
