REMARK  5 active torsions:
REMARK  status: ('A' for Active; 'I' for Inactive)
REMARK    1  A    between atoms: O1_2  and  C2_3 
REMARK    2  A    between atoms: C9_10  and  O2_11 
REMARK    3  A    between atoms: N1_13  and  C10_14 
REMARK    4  A    between atoms: C10_14  and  C11_15 
REMARK    5  A    between atoms: C14_18  and  O3_19 
ROOT
HETATM    1  C2  UNL     1      -2.184  -1.287   0.048  1.00  0.00     0.091 C 
HETATM    2  C3  UNL     1      -2.668  -1.294  -1.384  1.00  0.00     0.009 C 
HETATM    3  C4  UNL     1      -1.663  -1.745  -2.129  1.00  0.00    -0.018 C 
HETATM    4  C5  UNL     1      -0.493  -2.063  -1.322  1.00  0.00     0.049 C 
HETATM    5  C6  UNL     1      -1.170  -2.381   0.036  1.00  0.00     0.057 C 
HETATM    6  C7  UNL     1       0.340  -0.889  -0.988  1.00  0.00     0.012 A 
HETATM    7  C8  UNL     1      -0.172   0.112  -0.208  1.00  0.00     0.016 A 
HETATM    8  C9  UNL     1       0.899   1.005  -0.067  1.00  0.00     0.152 A 
HETATM    9  N1  UNL     1       1.978   0.558  -0.729  1.00  0.00    -0.307 N 
HETATM   10  C14 UNL     1       1.658  -0.611  -1.306  1.00  0.00     0.151 A 
HETATM   11  C15 UNL     1      -1.541   0.103   0.269  1.00  0.00     0.027 C 
HETATM   12  C16 UNL     1      -2.389   1.045  -0.541  1.00  0.00     0.025 C 
HETATM   13  C17 UNL     1      -2.439   2.465  -0.089  1.00  0.00     0.079 C 
HETATM   14  C18 UNL     1      -2.683   2.523   1.372  1.00  0.00     0.127 C 
HETATM   15  O4  UNL     1      -2.697   3.564   1.979  1.00  0.00    -0.298 OA
HETATM   16  C19 UNL     1      -2.913   1.224   2.061  1.00  0.00     0.079 C 
HETATM   17  C20 UNL     1      -1.696   0.374   1.732  1.00  0.00     0.025 C 
ENDROOT
BRANCH   1  18
HETATM   18  O1  UNL     1      -3.217  -1.450   0.931  1.00  0.00    -0.380 OA
HETATM   19  C1  UNL     1      -3.905  -2.612   0.766  1.00  0.00     0.203 C 
ENDBRANCH   1  18
BRANCH   8  20
HETATM   20  O2  UNL     1       0.874   2.172   0.640  1.00  0.00    -0.345 OA
ATOM     21  H2  UNL     1       1.600   2.777   0.736  1.00  0.00     0.219 HD
ENDBRANCH   8  20
BRANCH  10  22
HETATM   22  O3  UNL     1       2.468  -1.432  -2.092  1.00  0.00    -0.345 OA
ATOM     23  H3  UNL     1       3.373  -1.241  -2.310  1.00  0.00     0.219 HD
ENDBRANCH  10  22
BRANCH   9  24
HETATM   24  C10 UNL     1       3.262   1.223  -0.805  1.00  0.00     0.137 C 
BRANCH  24  25
HETATM   25  C11 UNL     1       4.206   0.833   0.294  1.00  0.00    -0.004 C 
HETATM   26  C12 UNL     1       5.493   1.607   0.078  1.00  0.00     0.011 C 
HETATM   27  C13 UNL     1       4.480  -0.634   0.280  1.00  0.00     0.011 C 
ENDBRANCH  24  25
ENDBRANCH   9  24
TORSDOF 5
