REMARK  3 active torsions:
REMARK  status: ('A' for Active; 'I' for Inactive)
REMARK    1  A    between atoms: C6_6  and  C7_7 
REMARK       I    between atoms: C7_7  and  N1_9 
REMARK    2  A    between atoms: N1_9  and  C8_11 
REMARK    3  A    between atoms: C9_12  and  N2_13 
ROOT
HETATM    1  C8  UNL     1       2.031  -1.955  -0.239  1.00  0.00     0.093 A 
HETATM    2  C9  UNL     1       3.203  -1.291  -0.075  1.00  0.00     0.066 A 
HETATM    3  C14 UNL     1       4.303  -2.043   0.255  1.00  0.00     0.083 A 
HETATM    4  S1  UNL     1       3.690  -3.626   0.327  1.00  0.00    -0.083 SA
HETATM    5  C15 UNL     1       2.069  -3.316  -0.058  1.00  0.00     0.116 A 
HETATM    6  N3  UNL     1       0.943  -4.209  -0.183  1.00  0.00    -0.092 NA
ENDROOT
BRANCH   1   7
HETATM    7  N1  UNL     1       0.776  -1.279  -0.575  1.00  0.00    -0.323 N 
HETATM    8  C7  UNL     1      -0.146  -0.919   0.439  1.00  0.00     0.226 C 
HETATM    9  O1  UNL     1       0.128  -1.197   1.656  1.00  0.00    -0.273 OA
ATOM     10  H1  UNL     1       0.563  -1.065  -1.549  1.00  0.00     0.169 HD
BRANCH   8  11
HETATM   11  C6  UNL     1      -1.402  -0.237   0.121  1.00  0.00     0.078 C 
HETATM   12  C5  UNL     1      -2.178   0.019   1.395  1.00  0.00     0.015 C 
HETATM   13  C4  UNL     1      -3.177   1.112   1.104  1.00  0.00     0.010 C 
HETATM   14  C2  UNL     1      -3.916   0.785  -0.155  1.00  0.00    -0.048 C 
HETATM   15  C1  UNL     1      -5.411   0.970   0.136  1.00  0.00     0.015 C 
HETATM   16  C3  UNL     1      -3.532   1.771  -1.220  1.00  0.00     0.015 C 
HETATM   17  C17 UNL     1      -3.735  -0.644  -0.578  1.00  0.00     0.010 C 
HETATM   18  C16 UNL     1      -2.306  -1.033  -0.795  1.00  0.00     0.015 C 
ENDBRANCH   8  11
ENDBRANCH   1   7
BRANCH   2  19
HETATM   19  N2  UNL     1       3.353   0.152  -0.246  1.00  0.00    -0.374 N 
HETATM   20  C10 UNL     1       2.677   1.113   0.585  1.00  0.00     0.149 C 
HETATM   21  C11 UNL     1       3.560   2.315   0.883  1.00  0.00     0.187 C 
HETATM   22  O2  UNL     1       4.876   2.071   0.486  1.00  0.00    -0.388 OA
HETATM   23  C12 UNL     1       4.937   1.917  -0.906  1.00  0.00     0.187 C 
HETATM   24  C13 UNL     1       4.220   0.658  -1.297  1.00  0.00     0.149 C 
ENDBRANCH   2  19
TORSDOF 3
