REMARK  13 active torsions:
REMARK  status: ('A' for Active; 'I' for Inactive)
REMARK    1  A    between atoms: N1_1  and  C1_4 
REMARK    2  A    between atoms: C6_14  and  N5_15 
REMARK    3  A    between atoms: N5_15  and  N6_17 
REMARK    4  A    between atoms: N7_20  and  C7_21 
REMARK    5  A    between atoms: C7_21  and  C8_22 
REMARK    6  A    between atoms: C8_22  and  N8_23 
REMARK    7  A    between atoms: N8_23  and  C9_24 
REMARK    8  A    between atoms: N8_23  and  C11_28 
REMARK    9  A    between atoms: C9_24  and  C10_25 
REMARK   10  A    between atoms: C10_25  and  O1_26 
REMARK   11  A    between atoms: C11_28  and  C12_29 
REMARK   12  A    between atoms: C12_29  and  C13_30 
REMARK   13  A    between atoms: C13_30  and  N9_31 
ROOT
HETATM    1  C1  UNL     1      -3.962  -0.352  -1.764  1.00  0.00     0.115 A 
HETATM    2  N2  UNL     1      -3.415  -0.679  -2.978  1.00  0.00    -0.338 N 
ATOM      3  H2  UNL     1      -3.951  -0.623  -3.844  1.00  0.00     0.168 HD
HETATM    4  C2  UNL     1      -2.136  -1.076  -2.961  1.00  0.00     0.183 A 
HETATM    5  N3  UNL     1      -1.434  -1.149  -1.824  1.00  0.00    -0.338 N 
ATOM      6  H3  UNL     1      -0.464  -1.459  -1.883  1.00  0.00     0.168 HD
HETATM    7  C3  UNL     1      -1.924  -0.839  -0.600  1.00  0.00     0.126 A 
HETATM    8  C4  UNL     1      -3.248  -0.424  -0.591  1.00  0.00     0.080 A 
HETATM    9  C5  UNL     1      -3.529  -0.177   0.735  1.00  0.00     0.109 A 
HETATM   10  N4  UNL     1      -4.780   0.272   1.234  1.00  0.00    -0.097 NA
HETATM   11  C6  UNL     1      -2.392  -0.441   1.505  1.00  0.00     0.149 A 
HETATM   12  N7  UNL     1      -1.444  -0.840   0.643  1.00  0.00    -0.314 N 
ENDROOT
BRANCH  12  13
HETATM   13  C7  UNL     1      -0.117  -1.173   1.052  1.00  0.00     0.162 C 
BRANCH  13  14
HETATM   14  C8  UNL     1       0.838  -0.060   1.220  1.00  0.00     0.292 C 
BRANCH  14  15
HETATM   15  N8  UNL     1       1.147   0.734   0.055  1.00  0.00     0.092 N 
BRANCH  15  16
HETATM   16  C9  UNL     1       1.960   1.899   0.482  1.00  0.00     0.298 C 
BRANCH  16  17
HETATM   17  C10 UNL     1       2.296   2.798  -0.651  1.00  0.00     0.194 C 
BRANCH  17  18
HETATM   18  O1  UNL     1       3.056   3.860  -0.140  1.00  0.00    -0.399 OA
ATOM     19  H1  UNL     1       3.271   4.435  -0.865  1.00  0.00     0.209 HD
ENDBRANCH  17  18
ENDBRANCH  16  17
ENDBRANCH  15  16
BRANCH  15  20
HETATM   20  C11 UNL     1       1.987   0.008  -0.883  1.00  0.00     0.274 C 
BRANCH  20  21
HETATM   21  C12 UNL     1       3.378  -0.247  -0.432  1.00  0.00     0.057 C 
BRANCH  21  22
HETATM   22  C13 UNL     1       4.061  -1.013  -1.577  1.00  0.00     0.231 C 
BRANCH  22  23
HETATM   23  N9  UNL     1       5.422  -1.328  -1.293  1.00  0.00    -0.079 N 
ATOM     24  H93 UNL     1       5.948  -0.489  -1.049  1.00  0.00     0.274 HD
ATOM     25  H92 UNL     1       5.504  -1.836  -0.413  1.00  0.00     0.274 HD
ATOM     26  H91 UNL     1       5.875  -1.836  -2.053  1.00  0.00     0.274 HD
ENDBRANCH  22  23
ENDBRANCH  21  22
ENDBRANCH  20  21
ENDBRANCH  15  20
ENDBRANCH  14  15
ENDBRANCH  13  14
ENDBRANCH  12  13
BRANCH  11  27
HETATM   27  N5  UNL     1      -2.383  -0.275   2.905  1.00  0.00    -0.290 N 
ATOM     28  H5  UNL     1      -2.072   0.630   3.257  1.00  0.00     0.188 HD
BRANCH  27  29
HETATM   29  N6  UNL     1      -2.752  -1.211   3.847  1.00  0.00    -0.344 N 
ATOM     30  H62 UNL     1      -3.060  -2.110   3.477  1.00  0.00     0.176 HD
ATOM     31  H61 UNL     1      -2.745  -1.091   4.860  1.00  0.00     0.176 HD
ENDBRANCH  27  29
ENDBRANCH  11  27
BRANCH   1  32
HETATM   32  N1  UNL     1      -5.177   0.024  -1.821  1.00  0.00    -0.385 N 
ATOM     33  H12 UNL     1      -5.707   0.077  -2.691  1.00  0.00     0.157 HD
ATOM     34  H11 UNL     1      -5.584   0.267  -0.918  1.00  0.00     0.157 HD
ENDBRANCH   1  32
TORSDOF 13
