REMARK  15 active torsions:
REMARK  status: ('A' for Active; 'I' for Inactive)
REMARK    1  A    between atoms: C2_2  and  C3_3 
REMARK    2  A    between atoms: C2_2  and  N2_13 
REMARK    3  A    between atoms: C3_3  and  C4_4 
REMARK    4  A    between atoms: C4_4  and  O1_5 
REMARK    5  A    between atoms: C4_4  and  C5_7 
REMARK    6  A    between atoms: N2_13  and  C8_15 
REMARK    7  A    between atoms: C8_15  and  C9_16 
REMARK    8  A    between atoms: C8_15  and  C10_21 
REMARK    9  A    between atoms: C9_16  and  O3_17 
REMARK   10  A    between atoms: C9_16  and  O4_19 
REMARK   11  A    between atoms: C10_21  and  O5_22 
REMARK   12  A    between atoms: C10_21  and  N3_24 
REMARK   13  A    between atoms: N3_24  and  C11_27 
REMARK   14  A    between atoms: C11_27  and  N4_28 
REMARK   15  A    between atoms: C11_27  and  C12_32 
ROOT
HETATM    1  C8  UNL     1       0.031  -0.774  -0.466  1.00  0.00     0.189 C 
ENDROOT
BRANCH   1   2
HETATM    2  N2  UNL     1      -0.441   0.070   0.540  1.00  0.00    -0.405 N 
ATOM      3  H2  UNL     1       0.212   0.423   1.240  1.00  0.00     0.154 HD
BRANCH   2   4
HETATM    4  C2  UNL     1      -1.803   0.448   0.613  1.00  0.00     0.076 C 
HETATM    5  C1  UNL     1      -1.831   1.629   1.608  1.00  0.00     0.032 C 
BRANCH   4   6
HETATM    6  C3  UNL     1      -2.652  -0.650   1.200  1.00  0.00     0.063 C 
BRANCH   6   7
HETATM    7  C4  UNL     1      -4.070  -0.317   1.460  1.00  0.00     0.178 C 
BRANCH   7   8
HETATM    8  O1  UNL     1      -4.184   0.766   2.370  1.00  0.00    -0.389 OA
ATOM      9  H1  UNL     1      -5.094   0.980   2.537  1.00  0.00     0.210 HD
ENDBRANCH   7   8
BRANCH   7  10
HETATM   10  C5  UNL     1      -4.938  -0.124   0.306  1.00  0.00     0.098 A 
HETATM   11  C6  UNL     1      -4.687  -0.380  -1.018  1.00  0.00     0.124 A 
HETATM   12  N1  UNL     1      -5.795  -0.041  -1.725  1.00  0.00    -0.354 N 
HETATM   13  C7  UNL     1      -6.677   0.405  -0.820  1.00  0.00     0.233 A 
ATOM     14  H1  UNL     1      -5.928  -0.111  -2.734  1.00  0.00     0.166 HD
HETATM   15  O2  UNL     1      -6.153   0.348   0.371  1.00  0.00    -0.306 OA
ENDBRANCH   7  10
ENDBRANCH   6   7
ENDBRANCH   4   6
ENDBRANCH   2   4
ENDBRANCH   1   2
BRANCH   1  16
HETATM   16  C9  UNL     1      -0.006  -0.327  -1.874  1.00  0.00     0.280 C 
BRANCH  16  17
HETATM   17  O3  UNL     1      -1.223  -0.024  -2.410  1.00  0.00    -0.369 OA
ATOM     18  H3  UNL     1      -1.247   0.263  -3.315  1.00  0.00     0.212 HD
ENDBRANCH  16  17
BRANCH  16  19
HETATM   19  O4  UNL     1       0.843   0.745  -2.149  1.00  0.00    -0.369 OA
ATOM     20  H4  UNL     1       0.819   1.032  -3.054  1.00  0.00     0.212 HD
ENDBRANCH  16  19
ENDBRANCH   1  16
BRANCH   1  21
HETATM   21  C10 UNL     1       1.446  -1.225  -0.135  1.00  0.00     0.348 C 
BRANCH  21  22
HETATM   22  O5  UNL     1       1.833  -2.066  -1.189  1.00  0.00    -0.368 OA
ATOM     23  H5  UNL     1       2.716  -2.348  -0.982  1.00  0.00     0.212 HD
ENDBRANCH  21  22
BRANCH  21  24
HETATM   24  N3  UNL     1       2.387  -0.170   0.013  1.00  0.00    -0.018 N 
ATOM     25  H32 UNL     1       2.448   0.423  -0.815  1.00  0.00     0.282 HD
ATOM     26  H31 UNL     1       2.077   0.545   0.671  1.00  0.00     0.282 HD
BRANCH  24  27
HETATM   27  C11 UNL     1       3.673  -0.758   0.382  1.00  0.00     0.386 C 
BRANCH  27  28
HETATM   28  N4  UNL     1       4.202  -1.603  -0.636  1.00  0.00    -0.050 N 
ATOM     29  H43 UNL     1       3.531  -2.325  -0.898  1.00  0.00     0.276 HD
ATOM     30  H42 UNL     1       4.267  -1.108  -1.526  1.00  0.00     0.276 HD
ATOM     31  H41 UNL     1       5.100  -2.013  -0.378  1.00  0.00     0.276 HD
ENDBRANCH  27  28
BRANCH  27  32
HETATM   32  C12 UNL     1       4.688   0.322   0.700  1.00  0.00     0.036 C 
HETATM   33  C13 UNL     1       4.943   1.245  -0.456  1.00  0.00     0.013 C 
HETATM   34  C14 UNL     1       4.291   1.123   1.909  1.00  0.00     0.013 C 
ENDBRANCH  27  32
ENDBRANCH  24  27
ENDBRANCH  21  24
ENDBRANCH   1  21
TORSDOF 15
