REMARK  13 active torsions:
REMARK  status: ('A' for Active; 'I' for Inactive)
REMARK    1  A    between atoms: N1_2  and  C2_5 
REMARK    2  A    between atoms: C2_5  and  C3_6 
REMARK    3  A    between atoms: C3_6  and  C4_7 
REMARK    4  A    between atoms: C4_7  and  N2_8 
REMARK    5  A    between atoms: N2_8  and  C5_10 
REMARK    6  A    between atoms: C6_11  and  N3_12 
REMARK    7  A    between atoms: N3_12  and  C7_14 
REMARK    8  A    between atoms: C7_14  and  C8_15 
REMARK    9  A    between atoms: C7_14  and  C9_22 
REMARK   10  A    between atoms: C9_22  and  O1_23 
REMARK   11  A    between atoms: C9_22  and  C10_25 
REMARK   12  A    between atoms: C10_25  and  O2_27 
REMARK   13  A    between atoms: C12_32  and  N9_33 
ROOT
HETATM    1  C5  UNL     1       0.451  -1.672   0.410  1.00  0.00     0.127 A 
HETATM    2  C6  UNL     1      -0.755  -1.200   0.836  1.00  0.00     0.197 A 
HETATM    3  O3  UNL     1      -1.448  -2.270   1.243  1.00  0.00    -0.216 OA
HETATM    4  N8  UNL     1      -0.757  -3.347   1.097  1.00  0.00    -0.241 N 
ATOM      5  H8  UNL     1      -1.084  -4.282   1.342  1.00  0.00     0.196 HD
HETATM    6  C12 UNL     1       0.448  -3.075   0.581  1.00  0.00     0.150 A 
ENDROOT
BRANCH   2   7
HETATM    7  N3  UNL     1      -1.232   0.139   0.868  1.00  0.00    -0.353 N 
ATOM      8  H3  UNL     1      -0.624   0.903   0.573  1.00  0.00     0.162 HD
BRANCH   7   9
HETATM    9  C7  UNL     1      -2.601   0.423   1.326  1.00  0.00     0.184 C 
BRANCH   9  10
HETATM   10  C8  UNL     1      -2.523   1.839   1.891  1.00  0.00     0.132 A 
HETATM   11  N4  UNL     1      -3.025   2.316   3.025  1.00  0.00    -0.272 N 
HETATM   12  N5  UNL     1      -2.702   3.618   3.096  1.00  0.00    -0.007 NA
ATOM     13  H4  UNL     1      -3.559   1.789   3.716  1.00  0.00     0.185 HD
HETATM   14  N6  UNL     1      -2.007   3.961   2.023  1.00  0.00    -0.007 NA
HETATM   15  N7  UNL     1      -1.901   2.854   1.283  1.00  0.00    -0.272 N 
ATOM     16  H7  UNL     1      -1.417   2.792   0.387  1.00  0.00     0.185 HD
ENDBRANCH   9  10
BRANCH   9  17
HETATM   17  C9  UNL     1      -3.585   0.553   0.204  1.00  0.00     0.176 C 
BRANCH  17  18
HETATM   18  O1  UNL     1      -3.327   1.577  -0.693  1.00  0.00    -0.391 OA
ATOM     19  H1  UNL     1      -3.951   1.659  -1.405  1.00  0.00     0.210 HD
ENDBRANCH  17  18
BRANCH  17  20
HETATM   20  C10 UNL     1      -3.915  -0.683  -0.568  1.00  0.00     0.145 C 
HETATM   21  C11 UNL     1      -2.939  -0.947  -1.716  1.00  0.00     0.042 C 
BRANCH  20  22
HETATM   22  O2  UNL     1      -5.140  -0.424  -1.267  1.00  0.00    -0.393 OA
ATOM     23  H2  UNL     1      -5.350  -1.210  -1.758  1.00  0.00     0.210 HD
ENDBRANCH  20  22
ENDBRANCH  17  20
ENDBRANCH   9  17
ENDBRANCH   7   9
ENDBRANCH   2   7
BRANCH   1  24
HETATM   24  N2  UNL     1       1.558  -0.961  -0.112  1.00  0.00    -0.383 N 
ATOM     25  H2  UNL     1       2.357  -1.524  -0.402  1.00  0.00     0.159 HD
BRANCH  24  26
HETATM   26  C4  UNL     1       1.690   0.453  -0.281  1.00  0.00     0.121 C 
BRANCH  26  27
HETATM   27  C3  UNL     1       3.053   0.805  -0.889  1.00  0.00     0.047 C 
BRANCH  27  28
HETATM   28  C2  UNL     1       4.161   0.342  -0.003  1.00  0.00     0.233 C 
BRANCH  28  29
HETATM   29  N1  UNL     1       5.470   0.662  -0.542  1.00  0.00    -0.079 N 
HETATM   30  C1  UNL     1       5.804  -0.062  -1.728  1.00  0.00     0.266 C 
ATOM     31  H12 UNL     1       6.190   0.536   0.169  1.00  0.00     0.276 HD
ATOM     32  H11 UNL     1       5.557   1.666  -0.699  1.00  0.00     0.276 HD
ENDBRANCH  28  29
ENDBRANCH  27  28
ENDBRANCH  26  27
ENDBRANCH  24  26
ENDBRANCH   1  24
BRANCH   6  33
HETATM   33  N9  UNL     1       1.407  -3.880   0.293  1.00  0.00    -0.382 N 
ATOM     34  H92 UNL     1       2.325  -3.673  -0.100  1.00  0.00     0.157 HD
ATOM     35  H91 UNL     1       1.405  -4.893   0.416  1.00  0.00     0.157 HD
ENDBRANCH   6  33
TORSDOF 13
