REMARK  12 active torsions:
REMARK  status: ('A' for Active; 'I' for Inactive)
REMARK    1  A    between atoms: N1_1  and  C1_4 
REMARK    2  A    between atoms: N5_15  and  C5_16 
REMARK    3  A    between atoms: C5_16  and  C6_17 
REMARK    4  A    between atoms: C6_17  and  S1_18 
REMARK    5  A    between atoms: S1_18  and  S2_19 
REMARK    6  A    between atoms: S2_19  and  C7_20 
REMARK    7  A    between atoms: C7_20  and  C8_21 
REMARK    8  A    between atoms: C8_21  and  N6_22 
REMARK    9  A    between atoms: N6_22  and  C9_24 
REMARK   10  A    between atoms: C9_24  and  C10_25 
REMARK   11  A    between atoms: C10_25  and  N7_26 
REMARK   12  A    between atoms: N7_26  and  N8_27 
ROOT
HETATM    1  C1  UNL     1      -4.720   1.917   0.386  1.00  0.00     0.679 A 
HETATM    2  N2  UNL     1      -5.920   1.596   0.900  1.00  0.00    -0.175 N 
ATOM      3  H2  UNL     1      -6.652   2.306   0.919  1.00  0.00     0.186 HD
HETATM    4  C2  UNL     1      -6.186   0.394   1.382  1.00  0.00     0.145 A 
HETATM    5  N3  UNL     1      -7.347   0.115   1.867  1.00  0.00    -0.383 N 
ATOM      6  H31 UNL     1      -7.552  -0.812   2.239  1.00  0.00     0.157 HD
ATOM      7  H32 UNL     1      -8.085   0.819   1.890  1.00  0.00     0.157 HD
HETATM    8  C3  UNL     1      -5.188  -0.559   1.351  1.00  0.00     0.123 A 
HETATM    9  N4  UNL     1      -5.130  -1.842   1.748  1.00  0.00    -0.346 N 
ATOM     10  H4  UNL     1      -5.896  -2.360   2.178  1.00  0.00     0.167 HD
HETATM   11  C4  UNL     1      -3.902  -2.339   1.490  1.00  0.00     0.185 A 
HETATM   12  N5  UNL     1      -3.157  -1.368   0.919  1.00  0.00    -0.326 N 
HETATM   13  C11 UNL     1      -3.933  -0.280   0.831  1.00  0.00     0.155 A 
HETATM   14  N9  UNL     1      -3.746   0.985   0.356  1.00  0.00    -0.174 N 
ATOM     15  H9  UNL     1      -2.838   1.235  -0.035  1.00  0.00     0.186 HD
ENDROOT
BRANCH  12  16
HETATM   16  C5  UNL     1      -1.771  -1.489   0.479  1.00  0.00     0.142 C 
BRANCH  16  17
HETATM   17  C6  UNL     1      -1.779  -1.953  -0.949  1.00  0.00     0.106 C 
BRANCH  17  18
HETATM   18  S1  UNL     1      -0.159  -2.164  -1.679  1.00  0.00    -0.096 SA
BRANCH  18  19
HETATM   19  S2  UNL     1       0.880  -0.346  -1.871  1.00  0.00    -0.096 SA
BRANCH  19  20
HETATM   20  C7  UNL     1       1.886  -0.003  -0.403  1.00  0.00     0.105 C 
BRANCH  20  21
HETATM   21  C8  UNL     1       3.027  -0.995  -0.274  1.00  0.00     0.124 C 
BRANCH  21  22
HETATM   22  N6  UNL     1       3.910  -0.963  -1.398  1.00  0.00    -0.419 N 
ATOM     23  H6  UNL     1       3.972  -1.746  -2.049  1.00  0.00     0.153 HD
BRANCH  22  24
HETATM   24  C9  UNL     1       4.692   0.199  -1.567  1.00  0.00     0.131 C 
BRANCH  24  25
HETATM   25  C10 UNL     1       5.761   0.418  -0.533  1.00  0.00     0.153 C 
BRANCH  25  26
HETATM   26  N7  UNL     1       6.493   1.652  -0.818  1.00  0.00    -0.147 NA
BRANCH  26  27
HETATM   27  N8  UNL     1       7.496   1.875   0.124  1.00  0.00    -0.348 N 
ATOM     28  H82 UNL     1       7.683   1.248   0.907  1.00  0.00     0.172 HD
ATOM     29  H81 UNL     1       8.006   2.735  -0.075  1.00  0.00     0.172 HD
ENDBRANCH  26  27
ENDBRANCH  25  26
ENDBRANCH  24  25
ENDBRANCH  22  24
ENDBRANCH  21  22
ENDBRANCH  20  21
ENDBRANCH  19  20
ENDBRANCH  18  19
ENDBRANCH  17  18
ENDBRANCH  16  17
ENDBRANCH  12  16
BRANCH   1  30
HETATM   30  N1  UNL     1      -4.503   3.123  -0.079  1.00  0.00    -0.234 N 
ATOM     31  H12 UNL     1      -5.240   3.828  -0.056  1.00  0.00     0.174 HD
ATOM     32  H11 UNL     1      -3.593   3.367  -0.469  1.00  0.00     0.174 HD
ENDBRANCH   1  30
TORSDOF 12
