REMARK  7 active torsions:
REMARK  status: ('A' for Active; 'I' for Inactive)
REMARK    1  A    between atoms: C2_2  and  C3_3 
REMARK    2  A    between atoms: C3_3  and  C4_4 
REMARK    3  A    between atoms: C4_4  and  C5_5 
REMARK    4  A    between atoms: C5_5  and  C6_6 
REMARK    5  A    between atoms: C6_6  and  N1_7 
REMARK    6  A    between atoms: N1_7  and  C7_9 
REMARK    7  A    between atoms: C7_9  and  C9_11 
ROOT
HETATM    1  C5  UNL     1      -0.494  -0.528  -0.316  1.00  0.00     0.029 C 
ENDROOT
BRANCH   1   2
HETATM    2  C4  UNL     1      -1.898  -0.010  -0.489  1.00  0.00    -0.036 A 
HETATM    3  C11 UNL     1      -2.100   1.451  -0.214  1.00  0.00     0.010 A 
HETATM    4  C12 UNL     1      -2.237   0.907  -1.596  1.00  0.00     0.010 A 
BRANCH   2   5
HETATM    5  C3  UNL     1      -2.936  -0.974   0.078  1.00  0.00     0.036 C 
BRANCH   5   6
HETATM    6  C2  UNL     1      -4.310  -0.479  -0.088  1.00  0.00    -0.036 C 
HETATM    7  C1  UNL     1      -5.142  -0.235   0.902  1.00  0.00     0.007 C 
ENDBRANCH   5   6
ENDBRANCH   2   5
ENDBRANCH   1   2
BRANCH   1   8
HETATM    8  C6  UNL     1       0.581   0.360  -0.851  1.00  0.00     0.115 C 
BRANCH   8   9
HETATM    9  N1  UNL     1       1.891  -0.226  -0.649  1.00  0.00    -0.417 N 
ATOM     10  H1  UNL     1       2.463  -0.560  -1.424  1.00  0.00     0.153 HD
BRANCH   9  11
HETATM   11  C7  UNL     1       2.325  -0.304   0.705  1.00  0.00     0.072 C 
HETATM   12  C8  UNL     1       2.477   1.032   1.375  1.00  0.00     0.031 C 
BRANCH  11  13
HETATM   13  C9  UNL     1       3.659  -1.035   0.727  1.00  0.00     0.020 C 
HETATM   14  C10 UNL     1       4.695  -0.285  -0.100  1.00  0.00     0.007 C 
ENDBRANCH  11  13
ENDBRANCH   9  11
ENDBRANCH   8   9
ENDBRANCH   1   8
TORSDOF 7
