REMARK  7 active torsions:
REMARK  status: ('A' for Active; 'I' for Inactive)
REMARK    1  A    between atoms: C2_2  and  C3_3 
REMARK    2  A    between atoms: C3_3  and  N1_4 
REMARK    3  A    between atoms: N1_4  and  C4_6 
REMARK    4  A    between atoms: C4_6  and  C5_7 
REMARK    5  A    between atoms: C4_6  and  C10_12 
REMARK    6  A    between atoms: C5_7  and  C7_9 
REMARK    7  A    between atoms: C7_9  and  C8_10 
ROOT
HETATM    1  C4  UNL     1      -0.632  -0.332   0.204  1.00  0.00     0.088 C 
ENDROOT
BRANCH   1   2
HETATM    2  N1  UNL     1      -1.774   0.138   0.862  1.00  0.00    -0.394 N 
ATOM      3  H1  UNL     1      -2.110  -0.442   1.631  1.00  0.00     0.159 HD
BRANCH   2   4
HETATM    4  C3  UNL     1      -2.503   1.272   0.613  1.00  0.00     0.082 C 
BRANCH   4   5
HETATM    5  C2  UNL     1      -3.232   1.127  -0.675  1.00  0.00     0.006 C 
HETATM    6  C1  UNL     1      -4.538   1.196  -0.714  1.00  0.00     0.012 C 
ENDBRANCH   4   5
ENDBRANCH   2   4
ENDBRANCH   1   2
BRANCH   1   7
HETATM    7  C5  UNL     1       0.580   0.516   0.449  1.00  0.00     0.004 C 
HETATM    8  C6  UNL     1       0.419   1.904  -0.079  1.00  0.00     0.012 C 
BRANCH   7   9
HETATM    9  C7  UNL     1       1.890  -0.077   0.066  1.00  0.00     0.006 C 
BRANCH   9  10
HETATM   10  C8  UNL     1       3.099   0.830   0.333  1.00  0.00    -0.004 C 
HETATM   11  C9  UNL     1       4.326   0.006  -0.088  1.00  0.00     0.005 C 
ENDBRANCH   9  10
ENDBRANCH   7   9
ENDBRANCH   1   7
BRANCH   1  12
HETATM   12  C10 UNL     1      -0.516  -1.789   0.496  1.00  0.00     0.009 A 
HETATM   13  C11 UNL     1       0.461  -2.733   0.006  1.00  0.00     0.007 A 
HETATM   14  C12 UNL     1      -0.885  -2.723  -0.661  1.00  0.00     0.007 A 
ENDBRANCH   1  12
TORSDOF 7
