REMARK  7 active torsions:
REMARK  status: ('A' for Active; 'I' for Inactive)
REMARK    1  A    between atoms: C2_2  and  C3_3 
REMARK    2  A    between atoms: C3_3  and  O1_4 
REMARK    3  A    between atoms: C3_3  and  C4_6 
REMARK    4  A    between atoms: C4_6  and  C5_7 
REMARK    5  A    between atoms: C5_7  and  C8_10 
REMARK    6  A    between atoms: C8_10  and  C9_11 
REMARK    7  A    between atoms: C9_11  and  C10_12 
ROOT
HETATM    1  C5  UNL     1       0.238  -0.465  -0.654  1.00  0.00    -0.045 C 
HETATM    2  C6  UNL     1      -0.500  -1.741  -1.002  1.00  0.00     0.015 C 
HETATM    3  C7  UNL     1       0.914  -0.086  -2.004  1.00  0.00     0.015 C 
ENDROOT
BRANCH   1   4
HETATM    4  C4  UNL     1       1.327  -0.815   0.283  1.00  0.00     0.044 C 
BRANCH   4   5
HETATM    5  C3  UNL     1       2.209   0.246   0.801  1.00  0.00     0.141 C 
BRANCH   5   6
HETATM    6  C2  UNL     1       2.983   1.008  -0.208  1.00  0.00    -0.006 C 
HETATM    7  C1  UNL     1       3.102   2.318  -0.060  1.00  0.00     0.009 C 
ENDBRANCH   5   6
BRANCH   5   8
HETATM    8  O1  UNL     1       3.193  -0.413   1.586  1.00  0.00    -0.392 OA
ATOM      9  H1  UNL     1       2.697  -0.901   2.233  1.00  0.00     0.210 HD
ENDBRANCH   5   8
ENDBRANCH   4   5
ENDBRANCH   1   4
BRANCH   1  10
HETATM   10  C8  UNL     1      -0.594   0.695  -0.304  1.00  0.00     0.009 C 
BRANCH  10  11
HETATM   11  C9  UNL     1      -1.337   0.701   0.971  1.00  0.00     0.005 C 
BRANCH  11  12
HETATM   12  C10 UNL     1      -2.336  -0.396   1.125  1.00  0.00    -0.014 A 
HETATM   13  C11 UNL     1      -3.439  -0.521   0.176  1.00  0.00     0.005 A 
HETATM   14  C12 UNL     1      -3.735  -0.091   1.552  1.00  0.00     0.005 A 
ENDBRANCH  11  12
ENDBRANCH  10  11
ENDBRANCH   1  10
TORSDOF 7
