REMARK  6 active torsions:
REMARK  status: ('A' for Active; 'I' for Inactive)
REMARK    1  A    between atoms: C2_2  and  C3_3 
REMARK    2  A    between atoms: C3_3  and  C4_4 
REMARK    3  A    between atoms: C4_4  and  N1_5 
REMARK    4  A    between atoms: N1_5  and  C5_7 
REMARK    5  A    between atoms: N2_12  and  C10_13 
REMARK    6  A    between atoms: C10_13  and  C11_14 
ROOT
HETATM    1  C5  UNL     1      -0.432  -0.695  -0.395  1.00  0.00     0.102 A 
HETATM    2  C6  UNL     1      -0.329  -1.719  -1.353  1.00  0.00     0.048 A 
HETATM    3  C7  UNL     1      -1.357  -2.609  -1.535  1.00  0.00     0.005 A 
HETATM    4  C8  UNL     1      -2.485  -2.468  -0.754  1.00  0.00     0.017 A 
HETATM    5  C9  UNL     1      -2.563  -1.462   0.175  1.00  0.00     0.092 A 
HETATM    6  N2  UNL     1      -1.533  -0.573   0.355  1.00  0.00    -0.344 N 
ENDROOT
BRANCH   1   7
HETATM    7  N1  UNL     1       0.644   0.212  -0.247  1.00  0.00    -0.376 N 
ATOM      8  H1  UNL     1       0.605   0.977   0.426  1.00  0.00     0.161 HD
BRANCH   7   9
HETATM    9  C4  UNL     1       1.812   0.006  -1.099  1.00  0.00     0.121 C 
BRANCH   9  10
HETATM   10  C3  UNL     1       2.881   1.037  -0.841  1.00  0.00     0.019 C 
BRANCH  10  11
HETATM   11  C2  UNL     1       3.326   0.958   0.597  1.00  0.00    -0.003 C 
HETATM   12  C1  UNL     1       3.893  -0.411   0.929  1.00  0.00     0.005 C 
ENDBRANCH  10  11
ENDBRANCH   9  10
ENDBRANCH   7   9
ENDBRANCH   1   7
BRANCH   6  13
HETATM   13  C10 UNL     1      -1.623   0.449   1.339  1.00  0.00     0.129 C 
BRANCH  13  14
HETATM   14  C11 UNL     1      -2.150   1.762   0.841  1.00  0.00     0.016 C 
HETATM   15  C12 UNL     1      -3.546   1.642   0.272  1.00  0.00     0.006 C 
ENDBRANCH  13  14
ENDBRANCH   6  13
TORSDOF 6
