REMARK  8 active torsions:
REMARK  status: ('A' for Active; 'I' for Inactive)
REMARK    1  A    between atoms: O1_1  and  C1_3 
REMARK    2  A    between atoms: C1_3  and  N1_4 
REMARK    3  A    between atoms: C1_3  and  C4_14 
REMARK    4  A    between atoms: N1_4  and  C2_6 
REMARK    5  A    between atoms: C6_16  and  C7_17 
REMARK       I    between atoms: C7_17  and  N5_19 
REMARK    6  A    between atoms: N5_19  and  N6_21 
REMARK    7  A    between atoms: C8_23  and  C9_24 
REMARK    8  A    between atoms: C12_27  and  N7_28 
ROOT
HETATM    1  C4  UNL     1      -3.022  -0.660  -0.181  1.00  0.00     0.108 A 
HETATM    2  C5  UNL     1      -1.614  -0.734  -0.207  1.00  0.00     0.081 A 
HETATM    3  C6  UNL     1      -1.117   0.325   0.513  1.00  0.00     0.170 A 
HETATM    4  O6  UNL     1      -2.149   0.995   0.946  1.00  0.00    -0.232 OA
HETATM    5  N8  UNL     1      -3.239   0.436   0.551  1.00  0.00    -0.256 N 
ATOM      6  H8  UNL     1      -4.169   0.792   0.773  1.00  0.00     0.195 HD
ENDROOT
BRANCH   3   7
HETATM    7  C7  UNL     1       0.312   0.633   0.745  1.00  0.00     0.295 C 
HETATM    8  O2  UNL     1       0.622   1.634   1.423  1.00  0.00    -0.264 OA
HETATM    9  N5  UNL     1       1.334  -0.184   0.214  1.00  0.00    -0.264 N 
ATOM     10  H5  UNL     1       1.078  -1.002  -0.339  1.00  0.00     0.190 HD
BRANCH   9  11
HETATM   11  N6  UNL     1       2.681   0.097   0.425  1.00  0.00    -0.306 N 
HETATM   12  C8  UNL     1       3.558   0.121  -0.509  1.00  0.00     0.144 C 
ATOM     13  H6  UNL     1       2.987   0.295   1.378  1.00  0.00     0.186 HD
BRANCH  12  14
HETATM   14  C9  UNL     1       4.937   0.427  -0.159  1.00  0.00     0.095 A 
HETATM   15  C10 UNL     1       5.445   0.707   1.100  1.00  0.00     0.043 A 
HETATM   16  C11 UNL     1       6.796   0.940   0.984  1.00  0.00     0.065 A 
HETATM   17  C12 UNL     1       7.072   0.793  -0.358  1.00  0.00     0.215 A 
HETATM   18  O5  UNL     1       5.955   0.495  -0.977  1.00  0.00    -0.287 OA
BRANCH  17  19
HETATM   19  N7  UNL     1       8.376   0.949  -0.936  1.00  0.00    -0.090 N 
HETATM   20  O3  UNL     1       9.342   1.234  -0.209  1.00  0.00    -0.530 OA
HETATM   21  O4  UNL     1       8.555   0.782  -2.289  1.00  0.00    -0.530 OA
ENDBRANCH  17  19
ENDBRANCH  12  14
ENDBRANCH   9  11
ENDBRANCH   3   7
BRANCH   1  22
HETATM   22  C1  UNL     1      -3.937  -1.582  -0.816  1.00  0.00     0.171 C 
BRANCH  22  23
HETATM   23  O1  UNL     1      -3.345  -2.551  -1.457  1.00  0.00    -0.344 OA
ATOM     24  H1  UNL     1      -2.396  -2.529  -1.425  1.00  0.00     0.219 HD
ENDBRANCH  22  23
BRANCH  22  25
HETATM   25  N1  UNL     1      -5.317  -1.614  -0.862  1.00  0.00    -0.319 N 
ATOM     26  H1  UNL     1      -5.720  -2.388  -1.390  1.00  0.00     0.169 HD
BRANCH  25  27
HETATM   27  C2  UNL     1      -6.250  -0.724  -0.280  1.00  0.00     0.140 A 
HETATM   28  C3  UNL     1      -7.645  -0.894  -0.418  1.00  0.00     0.158 A 
HETATM   29  N2  UNL     1      -8.221   0.118   0.252  1.00  0.00    -0.294 N 
HETATM   30  N3  UNL     1      -7.310   0.897   0.791  1.00  0.00    -0.241 N 
ATOM     31  H2  UNL     1      -9.228   0.262   0.332  1.00  0.00     0.187 HD
HETATM   32  N4  UNL     1      -6.154   0.369   0.456  1.00  0.00    -0.270 N 
ATOM     33  H3  UNL     1      -7.467   1.735   1.351  1.00  0.00     0.208 HD
ATOM     34  H4  UNL     1      -5.260   0.769   0.740  1.00  0.00     0.190 HD
ENDBRANCH  25  27
ENDBRANCH  22  25
ENDBRANCH   1  22
TORSDOF 8
