REMARK  8 active torsions:
REMARK  status: ('A' for Active; 'I' for Inactive)
REMARK    1  A    between atoms: O1_2  and  C2_3 
REMARK    2  A    between atoms: C4_5  and  O2_6 
REMARK    3  A    between atoms: C8_12  and  O3_13 
REMARK    4  A    between atoms: O3_13  and  C9_14 
REMARK    5  A    between atoms: C10_15  and  O4_16 
REMARK    6  A    between atoms: C12_20  and  C13_21 
REMARK       I    between atoms: C13_21  and  N3_23 
REMARK    7  A    between atoms: N3_23  and  N4_25 
REMARK    8  A    between atoms: C14_28  and  N5_29 
ROOT
HETATM    1  C2  UNL     1      -2.302  -0.848  -0.169  1.00  0.00     0.104 A 
HETATM    2  C3  UNL     1      -3.487  -1.012  -0.911  1.00  0.00     0.077 A 
HETATM    3  C4  UNL     1      -4.284   0.097  -1.115  1.00  0.00     0.089 A 
HETATM    4  C5  UNL     1      -3.927   1.332  -0.605  1.00  0.00     0.080 A 
HETATM    5  C6  UNL     1      -4.794   2.460  -0.845  1.00  0.00     0.102 C 
HETATM    6  N1  UNL     1      -5.486   3.369  -1.018  1.00  0.00    -0.191 NA
HETATM    7  C7  UNL     1      -2.778   1.496   0.116  1.00  0.00     0.065 A 
HETATM    8  C8  UNL     1      -1.944   0.366   0.337  1.00  0.00     0.111 A 
ENDROOT
BRANCH   3   9
HETATM    9  O2  UNL     1      -5.464   0.001  -1.837  1.00  0.00    -0.359 OA
ATOM     10  H2  UNL     1      -6.012   0.764  -1.977  1.00  0.00     0.217 HD
ENDBRANCH   3   9
BRANCH   8  11
HETATM   11  O3  UNL     1      -0.809   0.578   1.062  1.00  0.00    -0.301 OA
BRANCH  11  12
HETATM   12  C9  UNL     1       0.495   0.382   0.773  1.00  0.00     0.162 A 
HETATM   13  C10 UNL     1       1.169   1.178  -0.166  1.00  0.00     0.180 A 
HETATM   14  N2  UNL     1       2.441   0.782  -0.256  1.00  0.00    -0.328 N 
HETATM   15  C12 UNL     1       2.658  -0.242   0.578  1.00  0.00     0.140 A 
ATOM     16  H2  UNL     1       3.142   1.198  -0.869  1.00  0.00     0.168 HD
HETATM   17  C14 UNL     1       1.441  -0.505   1.233  1.00  0.00     0.173 A 
BRANCH  13  18
HETATM   18  O4  UNL     1       0.628   2.229  -0.911  1.00  0.00    -0.339 OA
HETATM   19  C11 UNL     1       0.815   3.535  -0.373  1.00  0.00     0.211 C 
ENDBRANCH  13  18
BRANCH  15  20
HETATM   20  C13 UNL     1       3.917  -0.944   0.774  1.00  0.00     0.288 C 
HETATM   21  O5  UNL     1       3.955  -1.912   1.588  1.00  0.00    -0.264 OA
HETATM   22  N3  UNL     1       5.081  -0.551   0.065  1.00  0.00    -0.271 N 
ATOM     23  H3  UNL     1       5.042   0.229  -0.591  1.00  0.00     0.189 HD
BRANCH  22  24
HETATM   24  N4  UNL     1       6.286  -1.239   0.269  1.00  0.00    -0.342 N 
ATOM     25  H42 UNL     1       6.308  -2.017   0.928  1.00  0.00     0.176 HD
ATOM     26  H41 UNL     1       7.123  -0.956  -0.241  1.00  0.00     0.176 HD
ENDBRANCH  22  24
ENDBRANCH  15  20
BRANCH  17  27
HETATM   27  N5  UNL     1       1.342  -1.507   2.233  1.00  0.00    -0.110 N 
HETATM   28  O6  UNL     1       0.894  -2.636   2.057  1.00  0.00    -0.532 OA
HETATM   29  O7  UNL     1       1.816  -1.201   3.513  1.00  0.00    -0.532 OA
ENDBRANCH  17  27
ENDBRANCH  11  12
ENDBRANCH   8  11
BRANCH   1  30
HETATM   30  O1  UNL     1      -1.528  -1.949   0.021  1.00  0.00    -0.353 OA
HETATM   31  C1  UNL     1      -1.813  -3.243  -0.462  1.00  0.00     0.210 C 
ENDBRANCH   1  30
TORSDOF 8
