REMARK  15 active torsions:
REMARK  status: ('A' for Active; 'I' for Inactive)
REMARK    1  A    between atoms: S1_2  and  C2_3 
REMARK    2  A    between atoms: C2_3  and  C3_4 
REMARK    3  A    between atoms: C3_4  and  C4_5 
REMARK    4  A    between atoms: C4_5  and  C5_6 
REMARK    5  A    between atoms: C5_6  and  N1_7 
REMARK    6  A    between atoms: N1_7  and  C6_9 
REMARK    7  A    between atoms: C7_12  and  N3_13 
REMARK    8  A    between atoms: N3_13  and  C8_15 
REMARK    9  A    between atoms: C8_15  and  C9_16 
REMARK   10  A    between atoms: C9_16  and  C10_17 
REMARK   11  A    between atoms: C10_17  and  O1_18 
REMARK   12  A    between atoms: C11_22  and  N5_23 
REMARK   13  A    between atoms: N5_23  and  C12_25 
REMARK   14  A    between atoms: C12_25  and  C13_26 
REMARK   15  A    between atoms: C13_26  and  C14_27 
ROOT
HETATM    1  C6  UNL     1       0.532  -0.316   0.927  1.00  0.00     0.707 A 
HETATM    2  N2  UNL     1       0.986   0.870   1.362  1.00  0.00    -0.022 N 
ATOM      3  H2  UNL     1       1.867   0.896   1.875  1.00  0.00     0.203 HD
HETATM    4  C7  UNL     1       0.331   2.026   1.151  1.00  0.00     0.707 A 
HETATM    5  N4  UNL     1      -0.822   1.963   0.474  1.00  0.00    -0.022 N 
ATOM      6  H4  UNL     1      -1.332   2.830   0.305  1.00  0.00     0.203 HD
HETATM    7  C11 UNL     1      -1.352   0.790  -0.004  1.00  0.00     0.707 A 
HETATM    8  N6  UNL     1      -0.649  -0.326   0.241  1.00  0.00    -0.022 N 
ATOM      9  H6  UNL     1      -1.011  -1.217  -0.098  1.00  0.00     0.203 HD
ENDROOT
BRANCH   7  10
HETATM   10  N5  UNL     1      -2.463   0.838  -0.641  1.00  0.00    -0.225 N 
ATOM     11  H5  UNL     1      -2.923   1.738  -0.777  1.00  0.00     0.177 HD
BRANCH  10  12
HETATM   12  C12 UNL     1      -3.073  -0.349  -1.167  1.00  0.00     0.142 C 
BRANCH  12  13
HETATM   13  C13 UNL     1      -3.842  -1.025  -0.038  1.00  0.00     0.058 C 
BRANCH  13  14
HETATM   14  C14 UNL     1      -4.470  -2.250  -0.577  1.00  0.00    -0.057 A 
HETATM   15  C15 UNL     1      -5.751  -2.236  -1.129  1.00  0.00     0.007 A 
HETATM   16  C16 UNL     1      -6.328  -3.379  -1.628  1.00  0.00     0.001 A 
HETATM   17  C17 UNL     1      -5.649  -4.570  -1.592  1.00  0.00     0.000 A 
HETATM   18  C18 UNL     1      -4.381  -4.608  -1.050  1.00  0.00     0.001 A 
HETATM   19  C19 UNL     1      -3.817  -3.455  -0.555  1.00  0.00     0.007 A 
ENDBRANCH  13  14
ENDBRANCH  12  13
ENDBRANCH  10  12
ENDBRANCH   7  10
BRANCH   4  20
HETATM   20  N3  UNL     1       0.846   3.097   1.605  1.00  0.00    -0.225 N 
ATOM     21  H3  UNL     1       1.731   2.991   2.101  1.00  0.00     0.177 HD
BRANCH  20  22
HETATM   22  C8  UNL     1       0.343   4.420   1.507  1.00  0.00     0.140 C 
BRANCH  22  23
HETATM   23  C9  UNL     1       1.238   5.188   0.540  1.00  0.00     0.046 C 
BRANCH  23  24
HETATM   24  C10 UNL     1       0.765   6.616   0.379  1.00  0.00     0.165 C 
BRANCH  24  25
HETATM   25  O1  UNL     1      -0.534   6.596  -0.116  1.00  0.00    -0.401 OA
ATOM     26  H1  UNL     1      -0.831   7.493  -0.217  1.00  0.00     0.209 HD
ENDBRANCH  24  25
ENDBRANCH  23  24
ENDBRANCH  22  23
ENDBRANCH  20  22
ENDBRANCH   4  20
BRANCH   1  27
HETATM   27  N1  UNL     1       1.129  -1.436   1.108  1.00  0.00    -0.225 N 
ATOM     28  H1  UNL     1       0.689  -2.275   0.729  1.00  0.00     0.177 HD
BRANCH  27  29
HETATM   29  C5  UNL     1       2.371  -1.592   1.805  1.00  0.00     0.138 C 
BRANCH  29  30
HETATM   30  C4  UNL     1       3.478  -1.303   0.768  1.00  0.00     0.021 C 
BRANCH  30  31
HETATM   31  C3  UNL     1       3.275  -2.327  -0.314  1.00  0.00     0.012 C 
BRANCH  31  32
HETATM   32  C2  UNL     1       4.213  -2.256  -1.462  1.00  0.00     0.073 C 
BRANCH  32  33
HETATM   33  S1  UNL     1       5.939  -2.463  -1.055  1.00  0.00    -0.173 SA
HETATM   34  C1  UNL     1       6.651  -1.127  -0.101  1.00  0.00     0.089 C 
ENDBRANCH  32  33
ENDBRANCH  31  32
ENDBRANCH  30  31
ENDBRANCH  29  30
ENDBRANCH  27  29
ENDBRANCH   1  27
TORSDOF 15
