REMARK  12 active torsions:
REMARK  status: ('A' for Active; 'I' for Inactive)
REMARK    1  A    between atoms: C1_4  and  C2_6 
REMARK    2  A    between atoms: C5_9  and  C6_10 
REMARK    3  A    between atoms: C6_10  and  C7_11 
REMARK    4  A    between atoms: C7_11  and  N3_12 
REMARK    5  A    between atoms: N3_12  and  C8_15 
REMARK    6  A    between atoms: C8_15  and  C9_16 
REMARK    7  A    between atoms: C9_16  and  C10_17 
REMARK    8  A    between atoms: C9_16  and  C17_25 
REMARK    9  A    between atoms: C10_17  and  O1_18 
REMARK   10  A    between atoms: O1_18  and  C11_19 
REMARK   11  A    between atoms: C17_25  and  S1_26 
REMARK   12  A    between atoms: S1_26  and  N4_27 
ROOT
HETATM    1  C8  UNL     1      -0.563  -1.409   0.129  1.00  0.00     0.239 C 
ENDROOT
BRANCH   1   2
HETATM    2  N3  UNL     1      -0.280  -0.081  -0.350  1.00  0.00    -0.074 N 
ATOM      3  H32 UNL     1      -0.913   0.593   0.081  1.00  0.00     0.277 HD
ATOM      4  H31 UNL     1      -0.562   0.011  -1.326  1.00  0.00     0.277 HD
BRANCH   2   5
HETATM    5  C7  UNL     1       1.050   0.328  -0.188  1.00  0.00     0.237 C 
BRANCH   5   6
HETATM    6  C6  UNL     1       1.586   0.575   1.186  1.00  0.00     0.066 C 
BRANCH   6   7
HETATM    7  C5  UNL     1       3.049   0.953   0.988  1.00  0.00    -0.057 A 
HETATM    8  C4  UNL     1       3.462   2.245   0.838  1.00  0.00     0.008 A 
HETATM    9  C3  UNL     1       4.789   2.524   0.549  1.00  0.00     0.015 A 
HETATM   10  C2  UNL     1       5.701   1.517   0.410  1.00  0.00     0.004 A 
HETATM   11  C19 UNL     1       5.265   0.187   0.571  1.00  0.00     0.015 A 
HETATM   12  C18 UNL     1       3.951  -0.064   0.856  1.00  0.00     0.008 A 
BRANCH  10  13
HETATM   13  C1  UNL     1       7.107   1.724   0.068  1.00  0.00     0.120 C 
HETATM   14  N1  UNL     1       7.565   2.900  -0.098  1.00  0.00    -0.387 N 
ATOM     15  H12 UNL     1       8.546   3.044  -0.337  1.00  0.00     0.157 HD
ATOM     16  H11 UNL     1       6.946   3.701   0.029  1.00  0.00     0.157 HD
HETATM   17  N2  UNL     1       7.963   0.617  -0.108  1.00  0.00    -0.082 NA
ENDBRANCH  10  13
ENDBRANCH   6   7
ENDBRANCH   5   6
ENDBRANCH   2   5
ENDBRANCH   1   2
BRANCH   1  18
HETATM   18  C9  UNL     1      -1.857  -1.962  -0.394  1.00  0.00     0.051 C 
BRANCH  18  19
HETATM   19  C10 UNL     1      -3.001  -1.127  -0.004  1.00  0.00     0.183 C 
BRANCH  19  20
HETATM   20  O1  UNL     1      -2.819   0.194  -0.516  1.00  0.00    -0.351 OA
BRANCH  20  21
HETATM   21  C11 UNL     1      -3.851   1.111  -0.293  1.00  0.00     0.068 A 
HETATM   22  C12 UNL     1      -5.014   0.854   0.358  1.00  0.00     0.037 A 
HETATM   23  C13 UNL     1      -5.993   1.817   0.545  1.00  0.00     0.003 A 
HETATM   24  C14 UNL     1      -5.771   3.109   0.042  1.00  0.00     0.000 A 
HETATM   25  C15 UNL     1      -4.598   3.381  -0.620  1.00  0.00     0.003 A 
HETATM   26  C16 UNL     1      -3.647   2.397  -0.788  1.00  0.00     0.037 A 
ENDBRANCH  20  21
ENDBRANCH  19  20
ENDBRANCH  18  19
BRANCH  18  27
HETATM   27  C17 UNL     1      -1.925  -3.405   0.051  1.00  0.00     0.171 C 
BRANCH  27  28
HETATM   28  S1  UNL     1      -3.360  -4.262  -0.459  1.00  0.00     0.224 S 
HETATM   29  O2  UNL     1      -3.203  -5.708  -0.044  1.00  0.00    -0.206 OA
HETATM   30  O3  UNL     1      -4.636  -3.768   0.082  1.00  0.00    -0.206 OA
BRANCH  28  31
HETATM   31  N4  UNL     1      -3.490  -4.293  -2.207  1.00  0.00    -0.328 N 
ATOM     32  H42 UNL     1      -2.808  -3.862  -2.832  1.00  0.00     0.168 HD
ATOM     33  H41 UNL     1      -4.328  -4.793  -2.505  1.00  0.00     0.168 HD
ENDBRANCH  28  31
ENDBRANCH  27  28
ENDBRANCH  18  27
ENDBRANCH   1  18
TORSDOF 12
