REMARK  11 active torsions:
REMARK  status: ('A' for Active; 'I' for Inactive)
REMARK    1  A    between atoms: C1_4  and  C2_6 
REMARK    2  A    between atoms: C5_9  and  S1_10 
REMARK    3  A    between atoms: S1_10  and  C6_12 
REMARK    4  A    between atoms: C6_12  and  C7_13 
REMARK    5  A    between atoms: C11_17  and  O2_18 
REMARK    6  A    between atoms: O2_18  and  C12_19 
REMARK    7  A    between atoms: C12_19  and  C13_20 
REMARK    8  A    between atoms: C13_20  and  N3_21 
REMARK    9  A    between atoms: N3_21  and  C14_24 
REMARK   10  A    between atoms: C14_24  and  C15_25 
REMARK   11  A    between atoms: C15_25  and  C16_26 
ROOT
HETATM    1  C7  UNL     1       0.542  -0.532   0.398  1.00  0.00    -0.044 A 
HETATM    2  C8  UNL     1      -0.023  -1.542   1.150  1.00  0.00     0.008 A 
HETATM    3  C9  UNL     1      -1.317  -1.385   1.584  1.00  0.00     0.003 A 
HETATM    4  C10 UNL     1      -2.028  -0.236   1.268  1.00  0.00     0.037 A 
HETATM    5  C11 UNL     1      -1.488   0.785   0.519  1.00  0.00     0.069 A 
HETATM    6  C17 UNL     1      -0.158   0.597   0.088  1.00  0.00     0.044 A 
ENDROOT
BRANCH   1   7
HETATM    7  C6  UNL     1       1.943  -0.656  -0.094  1.00  0.00     0.152 C 
BRANCH   7   8
HETATM    8  S1  UNL     1       2.994   0.038   1.140  1.00  0.00     0.054 S 
HETATM    9  O1  UNL     1       2.671  -0.517   2.675  1.00  0.00    -0.252 OA
BRANCH   8  10
HETATM   10  C5  UNL     1       4.674  -0.030   0.716  1.00  0.00     0.031 A 
HETATM   11  C4  UNL     1       5.494   1.035   0.979  1.00  0.00     0.022 A 
HETATM   12  C3  UNL     1       6.821   0.967   0.637  1.00  0.00     0.016 A 
HETATM   13  C2  UNL     1       7.369  -0.144   0.034  1.00  0.00     0.005 A 
HETATM   14  C19 UNL     1       6.511  -1.210  -0.220  1.00  0.00     0.016 A 
HETATM   15  C18 UNL     1       5.188  -1.161   0.112  1.00  0.00     0.022 A 
BRANCH  13  16
HETATM   16  C1  UNL     1       8.788  -0.223  -0.333  1.00  0.00     0.120 C 
HETATM   17  N1  UNL     1       9.617   0.725  -0.122  1.00  0.00    -0.387 N 
ATOM     18  H12 UNL     1      10.603   0.670  -0.377  1.00  0.00     0.157 HD
ATOM     19  H11 UNL     1       9.290   1.583   0.322  1.00  0.00     0.157 HD
HETATM   20  N2  UNL     1       9.247  -1.426  -0.956  1.00  0.00    -0.082 NA
ENDBRANCH  13  16
ENDBRANCH   8  10
ENDBRANCH   7   8
ENDBRANCH   1   7
BRANCH   5  21
HETATM   21  O2  UNL     1      -2.136   1.944   0.167  1.00  0.00    -0.349 OA
BRANCH  21  22
HETATM   22  C12 UNL     1      -3.405   2.409   0.388  1.00  0.00     0.203 C 
BRANCH  22  23
HETATM   23  C13 UNL     1      -4.460   1.582  -0.284  1.00  0.00     0.258 C 
BRANCH  23  24
HETATM   24  N3  UNL     1      -5.792   2.083  -0.039  1.00  0.00    -0.073 N 
ATOM     25  H32 UNL     1      -5.997   2.155   0.958  1.00  0.00     0.277 HD
ATOM     26  H31 UNL     1      -5.880   3.070  -0.280  1.00  0.00     0.277 HD
BRANCH  24  27
HETATM   27  C14 UNL     1      -6.756   1.269  -0.731  1.00  0.00     0.241 C 
BRANCH  27  28
HETATM   28  C15 UNL     1      -6.856  -0.095  -0.147  1.00  0.00     0.127 C 
BRANCH  28  29
HETATM   29  C16 UNL     1      -7.890  -0.897  -0.903  1.00  0.00     0.232 C 
HETATM   30  N4  UNL     1      -8.093  -2.231  -0.455  1.00  0.00    -0.062 NA
HETATM   31  O3  UNL     1      -8.527  -0.414  -1.864  1.00  0.00    -0.277 OA
ENDBRANCH  28  29
ENDBRANCH  27  28
ENDBRANCH  24  27
ENDBRANCH  23  24
ENDBRANCH  22  23
ENDBRANCH  21  22
ENDBRANCH   5  21
TORSDOF 11
