REMARK  12 active torsions:
REMARK  status: ('A' for Active; 'I' for Inactive)
REMARK    1  A    between atoms: N1_1  and  C1_5 
REMARK    2  A    between atoms: C1_5  and  C2_6 
REMARK    3  A    between atoms: C2_6  and  C3_7 
REMARK       I    between atoms: C3_7  and  N2_9 
REMARK    4  A    between atoms: N2_9  and  C4_10 
REMARK    5  A    between atoms: N2_9  and  C7_16 
REMARK    6  A    between atoms: C4_10  and  C5_11 
REMARK    7  A    between atoms: C5_11  and  N3_12 
REMARK    8  A    between atoms: N3_12  and  C6_14 
REMARK    9  A    between atoms: C7_16  and  C8_17 
REMARK   10  A    between atoms: C8_17  and  O3_18 
REMARK   11  A    between atoms: O3_18  and  C9_19 
REMARK   12  A    between atoms: C14_26  and  C15_27 
ROOT
HETATM    1  O3  UNL     1       0.036  -1.059  -0.666  1.00  0.00    -0.347 OA
ENDROOT
BRANCH   1   2
HETATM    2  C8  UNL     1      -1.114  -1.818  -0.902  1.00  0.00     0.195 C 
BRANCH   2   3
HETATM    3  C7  UNL     1      -2.407  -1.082  -0.965  1.00  0.00     0.152 C 
BRANCH   3   4
HETATM    4  N2  UNL     1      -2.775  -0.355   0.208  1.00  0.00    -0.349 N 
HETATM    5  C3  UNL     1      -2.471   1.040   0.313  1.00  0.00     0.221 C 
HETATM    6  O1  UNL     1      -2.715   1.613   1.410  1.00  0.00    -0.273 OA
BRANCH   5   7
HETATM    7  C2  UNL     1      -1.904   1.770  -0.810  1.00  0.00     0.130 C 
BRANCH   7   8
HETATM    8  C1  UNL     1      -1.868   3.259  -0.449  1.00  0.00     0.238 C 
BRANCH   8   9
HETATM    9  N1  UNL     1      -1.299   3.950  -1.590  1.00  0.00    -0.079 N 
ATOM     10  H13 UNL     1      -0.390   3.582  -1.872  1.00  0.00     0.274 HD
ATOM     11  H12 UNL     1      -1.791   3.759  -2.463  1.00  0.00     0.274 HD
ATOM     12  H11 UNL     1      -1.275   4.941  -1.350  1.00  0.00     0.274 HD
ENDBRANCH   8   9
ENDBRANCH   7   8
ENDBRANCH   5   7
BRANCH   4  13
HETATM   13  C4  UNL     1      -3.391  -0.959   1.364  1.00  0.00     0.145 C 
BRANCH  13  14
HETATM   14  C5  UNL     1      -4.882  -0.884   1.404  1.00  0.00     0.141 C 
BRANCH  14  15
HETATM   15  N3  UNL     1      -5.594  -1.564   0.369  1.00  0.00    -0.367 N 
ATOM     16  H3  UNL     1      -6.174  -1.017  -0.267  1.00  0.00     0.161 HD
BRANCH  15  17
HETATM   17  C6  UNL     1      -5.525  -2.984   0.190  1.00  0.00     0.348 C 
HETATM   18  O2  UNL     1      -4.809  -3.660   0.978  1.00  0.00    -0.284 OA
ENDBRANCH  15  17
ENDBRANCH  14  15
ENDBRANCH  13  14
ENDBRANCH   4  13
ENDBRANCH   3   4
ENDBRANCH   2   3
ENDBRANCH   1   2
BRANCH   1  19
HETATM   19  C9  UNL     1       1.244  -1.742  -0.607  1.00  0.00     0.097 A 
HETATM   20  C10 UNL     1       1.349  -3.110  -0.769  1.00  0.00     0.039 A 
HETATM   21  C11 UNL     1       2.561  -3.778  -0.707  1.00  0.00     0.005 A 
HETATM   22  C12 UNL     1       3.716  -3.080  -0.479  1.00  0.00     0.032 A 
HETATM   23  C13 UNL     1       3.638  -1.713  -0.314  1.00  0.00     0.063 A 
HETATM   24  N4  UNL     1       4.557  -0.757  -0.081  1.00  0.00    -0.339 N 
HETATM   25  C19 UNL     1       2.416  -1.047  -0.377  1.00  0.00     0.094 A 
HETATM   26  C14 UNL     1       3.962   0.448   0.001  1.00  0.00     0.133 A 
ATOM     27  H4  UNL     1       5.559  -0.922   0.019  1.00  0.00     0.167 HD
HETATM   28  N6  UNL     1       2.643   0.274  -0.181  1.00  0.00    -0.337 N 
ATOM     29  H6  UNL     1       1.935   1.009  -0.173  1.00  0.00     0.168 HD
BRANCH  26  30
HETATM   30  C15 UNL     1       4.687   1.700   0.248  1.00  0.00     0.076 A 
HETATM   31  C16 UNL     1       6.042   1.868   0.434  1.00  0.00     0.035 A 
HETATM   32  C17 UNL     1       6.328   3.202   0.638  1.00  0.00     0.019 A 
HETATM   33  C18 UNL     1       5.108   3.847   0.573  1.00  0.00     0.088 A 
HETATM   34  N5  UNL     1       4.152   2.930   0.340  1.00  0.00    -0.363 N 
ATOM     35  H5  UNL     1       3.158   3.139   0.246  1.00  0.00     0.165 HD
ENDBRANCH  26  30
ENDBRANCH   1  19
TORSDOF 12
