REMARK  5 active torsions:
REMARK  status: ('A' for Active; 'I' for Inactive)
REMARK    1  A    between atoms: C1_2  and  N1_3 
REMARK    2  A    between atoms: C1_2  and  N3_12 
REMARK    3  A    between atoms: N1_3  and  C2_5 
REMARK    4  A    between atoms: C2_5  and  C3_6 
REMARK    5  A    between atoms: C3_6  and  N2_7 
ROOT
HETATM    1  S1  UNL     1       0.008   1.564   0.468  1.00  0.00    -0.041 SA
HETATM    2  C1  UNL     1      -0.710   0.075   0.547  1.00  0.00     0.172 C 
ENDROOT
BRANCH   2   3
HETATM    3  N1  UNL     1       0.095  -0.982   1.042  1.00  0.00    -0.365 N 
ATOM      4  H1  UNL     1      -0.338  -1.900   1.139  1.00  0.00     0.161 HD
BRANCH   3   5
HETATM    5  C2  UNL     1       1.484  -0.853   1.419  1.00  0.00     0.152 C 
BRANCH   5   6
HETATM    6  C3  UNL     1       2.379  -0.703   0.234  1.00  0.00     0.292 C 
BRANCH   6   7
HETATM    7  N2  UNL     1       3.771  -0.540   0.686  1.00  0.00     0.090 N 
HETATM    8  C4  UNL     1       4.664  -0.666  -0.456  1.00  0.00     0.272 C 
HETATM    9  C5  UNL     1       5.575   0.510  -0.494  1.00  0.00     0.032 C 
HETATM   10  C6  UNL     1       5.287   1.234   0.797  1.00  0.00     0.032 C 
HETATM   11  C7  UNL     1       3.857   0.867   1.082  1.00  0.00     0.272 C 
ENDBRANCH   6   7
ENDBRANCH   5   6
ENDBRANCH   3   5
ENDBRANCH   2   3
BRANCH   2  12
HETATM   12  N3  UNL     1      -2.044  -0.067   0.151  1.00  0.00    -0.327 N 
HETATM   13  C8  UNL     1      -2.764   1.123  -0.315  1.00  0.00     0.091 C 
HETATM   14  C9  UNL     1      -3.282   0.950  -1.724  1.00  0.00     0.026 C 
HETATM   15  C14 UNL     1      -3.981   1.234   0.595  1.00  0.00     0.051 C 
HETATM   16  C10 UNL     1      -3.996  -0.374  -1.873  1.00  0.00     0.006 C 
HETATM   17  C11 UNL     1      -3.182  -1.542  -1.372  1.00  0.00     0.054 C 
HETATM   18  C12 UNL     1      -2.823  -1.283   0.105  1.00  0.00     0.225 C 
HETATM   19  O1  UNL     1      -4.048  -1.169   0.765  1.00  0.00    -0.366 OA
HETATM   20  C13 UNL     1      -4.144   0.018   1.480  1.00  0.00     0.172 C 
ENDBRANCH   2  12
TORSDOF 5
