REMARK  5 active torsions:
REMARK  status: ('A' for Active; 'I' for Inactive)
REMARK       I    between atoms: C1_2  and  N1_3 
REMARK    1  A    between atoms: C1_2  and  C6_12 
REMARK    2  A    between atoms: N1_3  and  C2_5 
REMARK       I    between atoms: C6_12  and  N3_14 
REMARK    3  A    between atoms: N3_14  and  C7_16 
REMARK    4  A    between atoms: C7_16  and  C8_17 
REMARK    5  A    between atoms: C8_17  and  C9_18 
ROOT
HETATM    1  C6  UNL     1       1.447  -1.058   0.662  1.00  0.00     0.309 C 
HETATM    2  O2  UNL     1       1.591  -0.213   1.589  1.00  0.00    -0.262 OA
HETATM    3  N3  UNL     1       0.173  -1.163   0.036  1.00  0.00    -0.353 N 
ATOM      4  H3  UNL     1       0.039  -1.840  -0.715  1.00  0.00     0.162 HD
ENDROOT
BRANCH   1   5
HETATM    5  C1  UNL     1       2.542  -1.909   0.232  1.00  0.00     0.314 C 
HETATM    6  O1  UNL     1       2.387  -2.742  -0.687  1.00  0.00    -0.262 OA
HETATM    7  N1  UNL     1       3.795  -1.779   0.874  1.00  0.00    -0.312 N 
ATOM      8  H1  UNL     1       4.049  -2.365   1.669  1.00  0.00     0.170 HD
BRANCH   7   9
HETATM    9  C2  UNL     1       4.602  -0.889   0.411  1.00  0.00     0.093 A 
HETATM   10  C3  UNL     1       4.301  -0.076  -0.660  1.00  0.00     0.040 A 
HETATM   11  C4  UNL     1       5.116   0.876  -1.186  1.00  0.00     0.020 A 
HETATM   12  C5  UNL     1       6.375   1.213  -0.765  1.00  0.00     0.096 A 
HETATM   13  N2  UNL     1       7.001   0.621   0.269  1.00  0.00    -0.335 N 
HETATM   14  S1  UNL     1       6.160  -0.595   1.065  1.00  0.00     0.003 SA
ATOM     15  H2  UNL     1       7.940   0.897   0.555  1.00  0.00     0.173 HD
ENDBRANCH   7   9
ENDBRANCH   1   5
BRANCH   3  16
HETATM   16  C7  UNL     1      -0.939  -0.326   0.445  1.00  0.00     0.128 C 
BRANCH  16  17
HETATM   17  C8  UNL     1      -2.121  -0.668  -0.386  1.00  0.00     0.058 C 
BRANCH  17  18
HETATM   18  C9  UNL     1      -3.332   0.097  -0.092  1.00  0.00    -0.057 A 
HETATM   19  C10 UNL     1      -3.616   1.285  -0.732  1.00  0.00     0.007 A 
HETATM   20  C11 UNL     1      -4.775   1.941  -0.396  1.00  0.00     0.001 A 
HETATM   21  C12 UNL     1      -5.663   1.470   0.546  1.00  0.00     0.000 A 
HETATM   22  C13 UNL     1      -5.386   0.294   1.182  1.00  0.00     0.001 A 
HETATM   23  C14 UNL     1      -4.215  -0.384   0.853  1.00  0.00     0.007 A 
ENDBRANCH  17  18
ENDBRANCH  16  17
ENDBRANCH   3  16
TORSDOF 5
