REMARK  11 active torsions:
REMARK  status: ('A' for Active; 'I' for Inactive)
REMARK    1  A    between atoms: C2_2  and  C3_7 
REMARK    2  A    between atoms: N1_3  and  O1_5 
REMARK    3  A    between atoms: C3_7  and  N2_8 
REMARK    4  A    between atoms: C3_7  and  C16_32 
REMARK    5  A    between atoms: N2_8  and  C4_10 
REMARK    6  A    between atoms: C4_10  and  C5_11 
REMARK    7  A    between atoms: C8_14  and  C9_15 
REMARK    8  A    between atoms: C10_19  and  C11_20 
REMARK    9  A    between atoms: C11_20  and  O3_21 
REMARK   10  A    between atoms: O3_21  and  C12_22 
REMARK   11  A    between atoms: C12_22  and  C13_24 
ROOT
HETATM    1  C5  UNL     1      -0.566  -0.106   0.601  1.00  0.00    -0.021 A 
HETATM    2  C6  UNL     1       0.159   0.227   1.715  1.00  0.00     0.014 A 
HETATM    3  C7  UNL     1       1.530   0.115   1.770  1.00  0.00     0.016 A 
HETATM    4  C8  UNL     1       2.208  -0.345   0.674  1.00  0.00     0.010 A 
HETATM    5  C14 UNL     1       1.503  -0.687  -0.458  1.00  0.00     0.016 A 
HETATM    6  C15 UNL     1       0.105  -0.568  -0.500  1.00  0.00     0.014 A 
ENDROOT
BRANCH   4   7
HETATM    7  C9  UNL     1       3.668  -0.461   0.744  1.00  0.00     0.137 A 
HETATM    8  N3  UNL     1       4.426  -0.152   1.805  1.00  0.00    -0.242 N 
HETATM    9  O2  UNL     1       5.647  -0.375   1.511  1.00  0.00    -0.220 OA
ATOM     10  H3  UNL     1       4.084   0.202   2.698  1.00  0.00     0.196 HD
HETATM   11  C10 UNL     1       5.753  -0.820   0.302  1.00  0.00     0.172 A 
HETATM   12  N4  UNL     1       4.506  -0.890  -0.226  1.00  0.00    -0.321 N 
ATOM     13  H4  UNL     1       4.252  -1.202  -1.163  1.00  0.00     0.169 HD
BRANCH  11  14
HETATM   14  C11 UNL     1       7.037  -1.178  -0.351  1.00  0.00     0.265 C 
BRANCH  14  15
HETATM   15  O3  UNL     1       7.626  -0.140  -1.071  1.00  0.00    -0.310 OA
BRANCH  15  16
HETATM   16  C12 UNL     1       8.019   1.067  -0.528  1.00  0.00     0.314 C 
HETATM   17  O4  UNL     1       7.852   1.284   0.697  1.00  0.00    -0.260 OA
BRANCH  16  18
HETATM   18  C13 UNL     1       8.638   2.084  -1.432  1.00  0.00     0.276 C 
HETATM   19 CL1  UNL     1      10.115   1.335  -2.125  1.00  0.00    -0.073 Cl
HETATM   20 CL2  UNL     1       7.528   2.470  -2.743  1.00  0.00    -0.073 Cl
HETATM   21 CL3  UNL     1       9.094   3.530  -0.524  1.00  0.00    -0.073 Cl
ENDBRANCH  16  18
ENDBRANCH  15  16
ENDBRANCH  14  15
ENDBRANCH  11  14
ENDBRANCH   4   7
BRANCH   1  22
HETATM   22  C4  UNL     1      -2.054   0.048   0.641  1.00  0.00     0.099 C 
BRANCH  22  23
HETATM   23  N2  UNL     1      -2.663  -0.172  -0.602  1.00  0.00    -0.365 N 
ATOM     24  H2  UNL     1      -2.080  -0.401  -1.407  1.00  0.00     0.165 HD
BRANCH  23  25
HETATM   25  C3  UNL     1      -4.056  -0.085  -0.767  1.00  0.00     0.056 C 
BRANCH  25  26
HETATM   26  C2  UNL     1      -4.720   1.185  -0.502  1.00  0.00     0.052 C 
HETATM   27  C1  UNL     1      -5.176   1.740   0.778  1.00  0.00     0.072 C 
HETATM   28  N1  UNL     1      -4.955   1.966  -1.543  1.00  0.00    -0.272 N 
ATOM     29  H1  UNL     1      -5.417   2.862  -1.386  1.00  0.00     0.194 HD
BRANCH  28  30
HETATM   30  O1  UNL     1      -4.610   1.630  -2.806  1.00  0.00    -0.290 OA
ATOM     31  H1  UNL     1      -4.779   2.191  -3.554  1.00  0.00     0.244 HD
ENDBRANCH  28  30
ENDBRANCH  25  26
BRANCH  25  32
HETATM   32  C16 UNL     1      -4.751  -1.332  -0.327  1.00  0.00     0.074 C 
HETATM   33  C17 UNL     1      -6.116  -1.481  -1.005  1.00  0.00     0.039 C 
HETATM   34  C18 UNL     1      -4.834  -1.578   1.135  1.00  0.00     0.039 C 
HETATM   35 CL4  UNL     1      -3.763  -2.692  -0.996  1.00  0.00    -0.113 Cl
ENDBRANCH  25  32
ENDBRANCH  23  25
ENDBRANCH  22  23
ENDBRANCH   1  22
TORSDOF 11
