REMARK  12 active torsions:
REMARK  status: ('A' for Active; 'I' for Inactive)
REMARK    1  A    between atoms: C2_2  and  C3_3 
REMARK    2  A    between atoms: C3_3  and  C4_4 
REMARK    3  A    between atoms: C5_6  and  N1_7 
REMARK    4  A    between atoms: N1_7  and  N2_9 
REMARK    5  A    between atoms: C6_11  and  C7_12 
REMARK    6  A    between atoms: C9_14  and  N3_15 
REMARK    7  A    between atoms: C10_18  and  O3_19 
REMARK    8  A    between atoms: O3_19  and  C11_20 
REMARK    9  A    between atoms: N5_26  and  C12_27 
REMARK   10  A    between atoms: C12_27  and  C13_28 
REMARK   11  A    between atoms: C12_27  and  C15_30 
REMARK   12  A    between atoms: C17_33  and  O4_34 
ROOT
HETATM    1  N1  UNL     1       0.396  -1.717  -0.219  1.00  0.00    -0.280 N 
ATOM      2  H1  UNL     1       0.140  -2.670  -0.476  1.00  0.00     0.189 HD
ENDROOT
BRANCH   1   3
HETATM    3  C5  UNL     1      -0.534  -0.794  -0.179  1.00  0.00     0.168 A 
HETATM    4  S1  UNL     1      -0.284   0.838   0.228  1.00  0.00    -0.053 SA
HETATM    5  C4  UNL     1      -1.896   1.376   0.060  1.00  0.00     0.037 A 
HETATM    6  C17 UNL     1      -2.546   0.232  -0.310  1.00  0.00     0.158 A 
HETATM    7  N5  UNL     1      -1.844  -0.878  -0.432  1.00  0.00    -0.300 N 
BRANCH   5   8
HETATM    8  C3  UNL     1      -2.438   2.756   0.271  1.00  0.00     0.050 C 
BRANCH   8   9
HETATM    9  C2  UNL     1      -3.176   2.903   1.556  1.00  0.00     0.001 C 
HETATM   10  C1  UNL     1      -3.662   4.352   1.626  1.00  0.00     0.005 C 
ENDBRANCH   8   9
ENDBRANCH   5   8
BRANCH   6  11
HETATM   11  O4  UNL     1      -3.954   0.341  -0.536  1.00  0.00    -0.345 OA
ATOM     12  H4  UNL     1      -4.406  -0.454  -0.793  1.00  0.00     0.219 HD
ENDBRANCH   6  11
BRANCH   7  13
HETATM   13  C12 UNL     1      -2.377  -2.204  -0.821  1.00  0.00     0.112 C 
BRANCH  13  14
HETATM   14  C13 UNL     1      -3.574  -2.138  -1.702  1.00  0.00     0.023 C 
HETATM   15  C14 UNL     1      -3.297  -1.403  -3.008  1.00  0.00     0.007 C 
ENDBRANCH  13  14
BRANCH  13  16
HETATM   16  C15 UNL     1      -2.682  -3.046   0.378  1.00  0.00     0.101 C 
HETATM   17  C16 UNL     1      -3.696  -2.450   1.301  1.00  0.00     0.029 C 
HETATM   18 CL2  UNL     1      -3.333  -4.592  -0.218  1.00  0.00    -0.123 Cl
ENDBRANCH  13  16
ENDBRANCH   7  13
ENDBRANCH   1   3
BRANCH   1  19
HETATM   19  N2  UNL     1       1.715  -1.431   0.079  1.00  0.00    -0.308 N 
HETATM   20  C6  UNL     1       2.369  -0.493  -0.494  1.00  0.00     0.136 C 
ATOM     21  H2  UNL     1       2.188  -1.993   0.787  1.00  0.00     0.186 HD
BRANCH  20  22
HETATM   22  C7  UNL     1       3.756  -0.224  -0.152  1.00  0.00     0.053 A 
HETATM   23  C8  UNL     1       4.524  -0.907   0.789  1.00  0.00     0.071 A 
HETATM   24  C9  UNL     1       5.776  -0.327   0.796  1.00  0.00     0.156 A 
HETATM   25  C10 UNL     1       5.783   0.687  -0.115  1.00  0.00     0.183 A 
HETATM   26  N4  UNL     1       4.567   0.727  -0.665  1.00  0.00    -0.334 N 
ATOM     27  H4  UNL     1       4.285   1.393  -1.384  1.00  0.00     0.168 HD
BRANCH  24  28
HETATM   28  N3  UNL     1       6.854  -0.730   1.620  1.00  0.00    -0.111 N 
HETATM   29  O1  UNL     1       6.913  -1.902   1.999  1.00  0.00    -0.532 OA
HETATM   30  O2  UNL     1       7.810   0.161   1.988  1.00  0.00    -0.532 OA
ENDBRANCH  24  28
BRANCH  25  31
HETATM   31  O3  UNL     1       6.798   1.559  -0.473  1.00  0.00    -0.251 OA
BRANCH  31  32
HETATM   32  C11 UNL     1       7.705   1.291  -1.521  1.00  0.00     0.448 C 
HETATM   33  F1  UNL     1       8.443   0.159  -1.359  1.00  0.00    -0.159 F 
HETATM   34  F2  UNL     1       7.041   1.274  -2.754  1.00  0.00    -0.159 F 
HETATM   35 CL1  UNL     1       8.839   2.665  -1.584  1.00  0.00    -0.014 Cl
ENDBRANCH  31  32
ENDBRANCH  25  31
ENDBRANCH  20  22
ENDBRANCH   1  19
TORSDOF 12
