REMARK  11 active torsions:
REMARK  status: ('A' for Active; 'I' for Inactive)
REMARK    1  A    between atoms: C2_2  and  O1_3 
REMARK    2  A    between atoms: O1_3  and  C3_4 
REMARK    3  A    between atoms: C3_4  and  C4_6 
REMARK    4  A    between atoms: C5_7  and  N1_8 
REMARK    5  A    between atoms: N1_8  and  C6_10 
REMARK    6  A    between atoms: C6_10  and  C7_11 
REMARK    7  A    between atoms: C6_10  and  C13_23 
REMARK    8  A    between atoms: C7_11  and  S1_12 
REMARK    9  A    between atoms: S1_12  and  C8_13 
REMARK   10  A    between atoms: C11_18  and  C12_19 
REMARK   11  A    between atoms: C14_27  and  C15_28 
ROOT
HETATM    1  N1  UNL     1       0.225   0.719  -0.363  1.00  0.00    -0.368 N 
ATOM      2  H1  UNL     1       0.065   1.722  -0.453  1.00  0.00     0.161 HD
ENDROOT
BRANCH   1   3
HETATM    3  C5  UNL     1      -0.890  -0.143  -0.080  1.00  0.00     0.088 A 
HETATM    4  C4  UNL     1      -2.214   0.129   0.133  1.00  0.00     0.080 A 
HETATM    5  C17 UNL     1      -3.023  -0.940   0.358  1.00  0.00    -0.022 A 
HETATM    6  C14 UNL     1      -2.473  -2.192   0.363  1.00  0.00     0.059 A 
HETATM    7  C18 UNL     1      -4.535  -0.818   0.538  1.00  0.00     0.051 C 
HETATM    8  S3  UNL     1      -0.804  -1.838   0.040  1.00  0.00    -0.068 SA
BRANCH   4   9
HETATM    9  C3  UNL     1      -2.696   1.534   0.158  1.00  0.00     0.296 C 
HETATM   10  O2  UNL     1      -1.872   2.454  -0.032  1.00  0.00    -0.259 OA
BRANCH   9  11
HETATM   11  O1  UNL     1      -3.996   1.935   0.379  1.00  0.00    -0.318 OA
BRANCH  11  12
HETATM   12  C2  UNL     1      -4.371   3.279   0.391  1.00  0.00     0.174 C 
HETATM   13  C1  UNL     1      -4.106   4.009  -0.899  1.00  0.00     0.034 C 
ENDBRANCH  11  12
ENDBRANCH   9  11
ENDBRANCH   4   9
BRANCH   6  14
HETATM   14  C15 UNL     1      -3.008  -3.531   0.587  1.00  0.00     0.163 C 
HETATM   15  C16 UNL     1      -4.372  -3.871   0.913  1.00  0.00     0.097 C 
HETATM   16  O5  UNL     1      -2.174  -4.499   0.486  1.00  0.00    -0.292 OA
ENDBRANCH   6  14
ENDBRANCH   1   3
BRANCH   1  17
HETATM   17  C6  UNL     1       1.566   0.205  -0.523  1.00  0.00     0.193 C 
BRANCH  17  18
HETATM   18  C7  UNL     1       2.139  -0.462   0.689  1.00  0.00     0.115 C 
BRANCH  18  19
HETATM   19  S1  UNL     1       3.804  -1.067   0.440  1.00  0.00    -0.126 SA
BRANCH  19  20
HETATM   20  C8  UNL     1       4.968   0.335   0.342  1.00  0.00     0.025 A 
HETATM   21  C9  UNL     1       4.580   1.619   0.595  1.00  0.00     0.072 A 
HETATM   22  S2  UNL     1       5.999   2.523   0.344  1.00  0.00    -0.070 SA
HETATM   23  C10 UNL     1       7.053   1.260  -0.074  1.00  0.00     0.173 A 
HETATM   24  F1  UNL     1       8.388   1.342  -0.403  1.00  0.00    -0.197 F 
HETATM   25  C11 UNL     1       6.268   0.149  -0.009  1.00  0.00     0.110 A 
BRANCH  25  26
HETATM   26  C12 UNL     1       6.852  -1.225  -0.321  1.00  0.00     0.422 C 
HETATM   27  F2  UNL     1       8.178  -1.106  -0.640  1.00  0.00    -0.166 F 
HETATM   28  F3  UNL     1       6.209  -1.809  -1.369  1.00  0.00    -0.166 F 
HETATM   29  F4  UNL     1       6.789  -1.998   0.846  1.00  0.00    -0.166 F 
ENDBRANCH  25  26
ENDBRANCH  19  20
ENDBRANCH  18  19
ENDBRANCH  17  18
BRANCH  17  30
HETATM   30  C13 UNL     1       1.713  -0.678  -1.713  1.00  0.00     0.197 C 
HETATM   31  O3  UNL     1       0.712  -0.843  -2.448  1.00  0.00    -0.646 OA
HETATM   32  O4  UNL     1       2.885  -1.312  -2.033  1.00  0.00    -0.646 OA
ENDBRANCH  17  30
ENDBRANCH   1  17
TORSDOF 11
