REMARK  9 active torsions:
REMARK  status: ('A' for Active; 'I' for Inactive)
REMARK    1  A    between atoms: C4_4  and  C5_5 
REMARK    2  A    between atoms: C5_5  and  C6_6 
REMARK    3  A    between atoms: C6_6  and  C7_7 
REMARK    4  A    between atoms: C9_9  and  C10_10 
REMARK    5  A    between atoms: C10_10  and  C11_11 
REMARK    6  A    between atoms: C11_11  and  O1_13 
REMARK    7  A    between atoms: O1_13  and  C13_14 
REMARK    8  A    between atoms: C13_14  and  C14_15 
REMARK    9  A    between atoms: N4_22  and  C15_23 
ROOT
HETATM    1  C13 UNL     1      -2.835  -0.132  -1.083  1.00  0.00     0.247 C 
ENDROOT
BRANCH   1   2
HETATM    2  O1  UNL     1      -1.642  -0.572  -1.609  1.00  0.00    -0.379 OA
BRANCH   2   3
HETATM    3  C11 UNL     1      -0.637  -0.822  -0.709  1.00  0.00     0.121 C 
HETATM    4  C12 UNL     1      -0.054  -2.181  -0.848  1.00  0.00     0.040 C 
BRANCH   3   5
HETATM    5  C10 UNL     1       0.450   0.259  -0.852  1.00  0.00     0.059 C 
BRANCH   5   6
HETATM    6  C9  UNL     1       1.450   0.039   0.211  1.00  0.00    -0.022 C 
HETATM    7  C7  UNL     1       2.759  -0.148  -0.003  1.00  0.00    -0.087 C 
HETATM    8  C8  UNL     1       3.309  -0.178  -1.381  1.00  0.00     0.043 C 
BRANCH   7   9
HETATM    9  C6  UNL     1       3.638  -0.356   1.154  1.00  0.00     0.037 C 
BRANCH   9  10
HETATM   10  C5  UNL     1       4.679   0.685   1.319  1.00  0.00     0.031 C 
BRANCH  10  11
HETATM   11  C4  UNL     1       5.654   0.866   0.248  1.00  0.00    -0.024 C 
HETATM   12  C2  UNL     1       6.958   0.613   0.456  1.00  0.00    -0.091 C 
HETATM   13  C1  UNL     1       7.362   0.144   1.809  1.00  0.00     0.042 C 
HETATM   14  C3  UNL     1       7.933   0.797  -0.625  1.00  0.00     0.042 C 
ENDBRANCH  10  11
ENDBRANCH   9  10
ENDBRANCH   7   9
ENDBRANCH   5   6
ENDBRANCH   3   5
ENDBRANCH   2   3
ENDBRANCH   1   2
BRANCH   1  15
HETATM   15  C14 UNL     1      -3.433  -1.100  -0.161  1.00  0.00     0.139 A 
HETATM   16  N1  UNL     1      -3.085  -2.347   0.152  1.00  0.00    -0.270 N 
HETATM   17  N2  UNL     1      -3.945  -2.807   1.038  1.00  0.00    -0.227 N 
ATOM     18  H1  UNL     1      -2.289  -2.858  -0.229  1.00  0.00     0.190 HD
HETATM   19  N3  UNL     1      -4.828  -1.855   1.280  1.00  0.00    -0.224 N 
ATOM     20  H2  UNL     1      -3.931  -3.735   1.462  1.00  0.00     0.210 HD
HETATM   21  N4  UNL     1      -4.556  -0.781   0.564  1.00  0.00    -0.257 N 
ATOM     22  H3  UNL     1      -5.610  -1.939   1.929  1.00  0.00     0.210 HD
BRANCH  21  23
HETATM   23  C15 UNL     1      -5.288   0.458   0.554  1.00  0.00     0.111 C 
HETATM   24  C16 UNL     1      -6.049   0.688  -0.721  1.00  0.00     0.027 C 
HETATM   25  C17 UNL     1      -7.348   1.362  -0.311  1.00  0.00     0.002 C 
HETATM   26  C18 UNL     1      -7.617   0.885   1.093  1.00  0.00     0.002 C 
HETATM   27  C19 UNL     1      -6.297   0.467   1.666  1.00  0.00     0.027 C 
ENDBRANCH  21  23
ENDBRANCH   1  15
TORSDOF 9
