REMARK  1 active torsions:
REMARK  status: ('A' for Active; 'I' for Inactive)
REMARK    1  A    between atoms: C2_2  and  S1_3 
ROOT
HETATM    1  S1  UNL     1      -0.018  -0.741  -0.758  1.00  0.00    -0.109 SA
HETATM    2  C3  UNL     1      -0.995   0.673  -0.293  1.00  0.00     0.102 C 
HETATM    3  C4  UNL     1      -1.977  -0.417   0.161  1.00  0.00     0.133 C 
HETATM    4  N1  UNL     1      -0.798  -1.047   0.777  1.00  0.00    -0.185 NA
ENDROOT
BRANCH   1   5
HETATM    5  C2  UNL     1       1.703  -0.503  -0.621  1.00  0.00     0.041 C 
HETATM    6  C1  UNL     1       2.248   0.502   0.036  1.00  0.00     0.019 C 
ENDBRANCH   1   5
TORSDOF 1
