REMARK  2 active torsions:
REMARK  status: ('A' for Active; 'I' for Inactive)
REMARK    1  A    between atoms: C1_4  and  C2_5 
REMARK       I    between atoms: C2_5  and  N2_7 
REMARK    2  A    between atoms: N2_7  and  C3_9 
ROOT
HETATM    1  C2  UNL     1       1.734  -0.400  -0.079  1.00  0.00     0.256 C 
HETATM    2  O1  UNL     1       1.829  -1.608  -0.387  1.00  0.00    -0.267 OA
HETATM    3  N2  UNL     1       0.460   0.176   0.076  1.00  0.00    -0.352 N 
ATOM      4  H2  UNL     1       0.407   1.163   0.327  1.00  0.00     0.163 HD
ENDROOT
BRANCH   1   5
HETATM    5  C1  UNL     1       2.919   0.410   0.119  1.00  0.00     0.155 C 
HETATM    6  N1  UNL     1       2.871   1.659   0.437  1.00  0.00    -0.404 N 
ATOM      7  H12 UNL     1       1.949   2.080   0.550  1.00  0.00     0.155 HD
ATOM      8  H11 UNL     1       3.705   2.229   0.576  1.00  0.00     0.155 HD
ENDBRANCH   1   5
BRANCH   3   9
HETATM    9  C3  UNL     1      -0.781  -0.550  -0.100  1.00  0.00     0.084 A 
HETATM   10  C4  UNL     1      -2.007  -0.189   0.615  1.00  0.00     0.027 A 
HETATM   11  C5  UNL     1      -1.840   0.246  -0.838  1.00  0.00     0.027 A 
ENDBRANCH   3   9
TORSDOF 2
