REMARK  1 active torsions:
REMARK  status: ('A' for Active; 'I' for Inactive)
REMARK    1  A    between atoms: C1_2  and  C2_3 
ROOT
HETATM    1  C2  UNL     1       0.703   0.015   0.679  1.00  0.00     0.074 C 
HETATM    2  C3  UNL     1      -0.619   0.722   0.870  1.00  0.00     0.041 C 
HETATM    3  C4  UNL     1      -1.291   0.408  -0.467  1.00  0.00     0.233 C 
HETATM    4  N1  UNL     1      -1.034  -1.015  -0.578  1.00  0.00    -0.074 N 
ATOM      5  H11 UNL     1      -1.112  -1.357  -1.536  1.00  0.00     0.277 HD
ATOM      6  H12 UNL     1      -1.776  -1.583  -0.170  1.00  0.00     0.277 HD
HETATM    7  C5  UNL     1       0.244  -1.278   0.000  1.00  0.00     0.243 C 
ENDROOT
BRANCH   1   8
HETATM    8  C1  UNL     1       1.586   0.745  -0.265  1.00  0.00     0.237 C 
HETATM    9  O1  UNL     1       2.635   0.221  -0.576  1.00  0.00    -0.306 OA
ENDBRANCH   1   8
TORSDOF 1
