REMARK  2 active torsions:
REMARK  status: ('A' for Active; 'I' for Inactive)
REMARK    1  A    between atoms: C1_2  and  C2_3 
REMARK    2  A    between atoms: C3_4  and  C4_5 
ROOT
HETATM    1  C4  UNL     1      -0.155   0.298  -0.086  1.00  0.00     0.031 C 
HETATM    2  C5  UNL     1      -1.484   0.212  -0.207  1.00  0.00     0.047 A 
HETATM    3  C6  UNL     1      -2.733  -0.451   0.124  1.00  0.00     0.117 A 
HETATM    4  N1  UNL     1      -2.757   0.599  -0.682  1.00  0.00    -0.363 N 
ATOM      5  H1  UNL     1      -3.310   1.241  -1.250  1.00  0.00     0.165 HD
ENDROOT
BRANCH   1   6
HETATM    6  C3  UNL     1       0.561  -0.651   0.741  1.00  0.00     0.005 C 
HETATM    7  C2  UNL     1       1.851  -0.587   0.874  1.00  0.00     0.041 C 
BRANCH   7   8
HETATM    8  C1  UNL     1       2.625   0.427   0.207  1.00  0.00     0.258 C 
HETATM    9  O1  UNL     1       3.890   0.485   0.341  1.00  0.00    -0.302 OA
ENDBRANCH   7   8
ENDBRANCH   1   6
TORSDOF 2
