REMARK  1 active torsions:
REMARK  status: ('A' for Active; 'I' for Inactive)
REMARK    1  A    between atoms: C1_2  and  C2_3 
ROOT
HETATM    1  C2  UNL     1       0.566  -0.124  -0.264  1.00  0.00     0.157 C 
HETATM    2  C3  UNL     1      -0.581  -0.749   0.544  1.00  0.00     0.143 C 
HETATM    3  N1  UNL     1      -1.376  -0.454  -0.614  1.00  0.00    -0.359 N 
ATOM      4  H1  UNL     1      -2.185  -0.874  -1.071  1.00  0.00     0.162 HD
HETATM    5  C4  UNL     1      -0.556   0.664  -0.845  1.00  0.00     0.230 C 
HETATM    6  O2  UNL     1      -0.812   1.775  -1.338  1.00  0.00    -0.273 OA
ENDROOT
BRANCH   1   7
HETATM    7  C1  UNL     1       1.492   0.606   0.598  1.00  0.00     0.246 C 
HETATM    8  O1  UNL     1       1.773   1.759   0.353  1.00  0.00    -0.306 OA
ENDBRANCH   1   7
TORSDOF 1
