REMARK  1 active torsions:
REMARK  status: ('A' for Active; 'I' for Inactive)
REMARK    1  A    between atoms: N1_2  and  C2_4 
ROOT
HETATM    1  C2  UNL     1       0.323   0.365  -0.701  1.00  0.00     0.183 C 
HETATM    2  C3  UNL     1      -0.130  -0.865   0.067  1.00  0.00     0.056 C 
HETATM    3  C4  UNL     1      -1.629  -0.567   0.116  1.00  0.00     0.106 C 
HETATM    4  C5  UNL     1      -1.587   0.839   0.595  1.00  0.00     0.219 C 
HETATM    5  O1  UNL     1      -2.454   1.361   1.335  1.00  0.00    -0.274 OA
HETATM    6  N2  UNL     1      -0.404   1.401   0.044  1.00  0.00    -0.340 N 
ATOM      7  H2  UNL     1      -0.107   2.371   0.149  1.00  0.00     0.164 HD
ENDROOT
BRANCH   1   8
HETATM    8  N1  UNL     1       1.717   0.556  -0.681  1.00  0.00    -0.387 N 
HETATM    9  C1  UNL     1       2.519  -0.235  -0.080  1.00  0.00     0.114 C 
ATOM     10  H1  UNL     1       2.105   1.363  -1.169  1.00  0.00     0.160 HD
ENDBRANCH   1   8
TORSDOF 1
