REMARK  2 active torsions:
REMARK  status: ('A' for Active; 'I' for Inactive)
REMARK    1  A    between atoms: C1_2  and  N1_3 
REMARK    2  A    between atoms: N1_3  and  C2_5 
ROOT
HETATM    1  C2  UNL     1      -0.104  -0.091   0.573  1.00  0.00     0.090 A 
HETATM    2  C3  UNL     1      -1.228   1.244   0.014  1.00  0.00     0.052 A 
HETATM    3  C4  UNL     1      -1.826   0.285  -0.518  1.00  0.00    -0.029 A 
HETATM    4  C5  UNL     1      -1.773  -0.480  -0.585  1.00  0.00    -0.029 A 
HETATM    5  C6  UNL     1      -1.046  -1.430  -0.223  1.00  0.00     0.052 A 
ENDROOT
BRANCH   1   6
HETATM    6  N1  UNL     1       0.883   0.084  -0.306  1.00  0.00    -0.363 N 
ATOM      7  H1  UNL     1       0.619   0.112  -1.291  1.00  0.00     0.162 HD
BRANCH   6   8
HETATM    8  C1  UNL     1       2.290   0.238  -0.007  1.00  0.00     0.348 C 
HETATM    9  O1  UNL     1       2.653   0.210   1.171  1.00  0.00    -0.284 OA
ENDBRANCH   6   8
ENDBRANCH   1   6
TORSDOF 2
