REMARK  6 active torsions:
REMARK  status: ('A' for Active; 'I' for Inactive)
REMARK    1  A    between atoms: C2_2  and  C9_13 
REMARK    2  A    between atoms: C3_3  and  C4_4 
REMARK    3  A    between atoms: C4_4  and  C5_5 
REMARK    4  A    between atoms: C5_5  and  O1_6 
REMARK    5  A    between atoms: C5_5  and  C6_8 
REMARK    6  A    between atoms: C6_8  and  O2_11 
ROOT
HETATM    1  C9  UNL     1      -0.021  -1.160   0.375  1.00  0.00     0.173 C 
HETATM    2  C10 UNL     1      -1.062  -0.144   0.025  1.00  0.00     0.013 C 
HETATM    3  C11 UNL     1      -2.256  -0.292  -0.476  1.00  0.00    -0.062 C 
HETATM    4  C12 UNL     1      -2.938  -1.564  -0.851  1.00  0.00     0.017 C 
HETATM    5  C13 UNL     1      -1.958  -2.686  -0.833  1.00  0.00     0.035 C 
HETATM    6  C14 UNL     1      -0.686  -2.260  -1.549  1.00  0.00     0.169 C 
HETATM    7  O3  UNL     1       0.338  -1.910  -0.713  1.00  0.00    -0.378 OA
HETATM    8  C15 UNL     1      -4.092  -1.716   0.105  1.00  0.00     0.010 C 
HETATM    9  C16 UNL     1      -4.272  -0.489   0.968  1.00  0.00     0.013 C 
HETATM   10  C17 UNL     1      -4.265   0.803   0.217  1.00  0.00    -0.005 C 
HETATM   11  C18 UNL     1      -5.569   0.970  -0.564  1.00  0.00     0.018 C 
HETATM   12  C19 UNL     1      -4.055   1.916   1.192  1.00  0.00     0.189 C 
HETATM   13  O4  UNL     1      -2.890   2.627   0.825  1.00  0.00    -0.320 OA
HETATM   14  C20 UNL     1      -2.418   2.191  -0.400  1.00  0.00     0.268 C 
HETATM   15  O5  UNL     1      -1.585   2.809  -1.089  1.00  0.00    -0.264 OA
HETATM   16  C21 UNL     1      -3.062   0.928  -0.703  1.00  0.00     0.124 C 
ENDROOT
BRANCH   1  17
HETATM   17  C2  UNL     1       1.135  -0.505   1.020  1.00  0.00    -0.055 C 
HETATM   18  C1  UNL     1       0.957   0.255   2.286  1.00  0.00     0.046 C 
HETATM   19  C3  UNL     1       2.376  -0.565   0.500  1.00  0.00    -0.019 C 
BRANCH  19  20
HETATM   20  C4  UNL     1       3.529   0.072   1.118  1.00  0.00     0.062 C 
BRANCH  20  21
HETATM   21  C5  UNL     1       4.207   1.161   0.328  1.00  0.00     0.155 C 
BRANCH  21  22
HETATM   22  O1  UNL     1       5.293   1.672   1.080  1.00  0.00    -0.392 OA
ATOM     23  H1  UNL     1       5.721   2.359   0.582  1.00  0.00     0.210 HD
ENDBRANCH  21  22
BRANCH  21  24
HETATM   24  C6  UNL     1       4.733   0.678  -0.981  1.00  0.00     0.076 C 
HETATM   25  C7  UNL     1       5.739  -0.462  -0.788  1.00  0.00     0.048 C 
HETATM   26  C8  UNL     1       5.482   1.767  -1.729  1.00  0.00     0.048 C 
BRANCH  24  27
HETATM   27  O2  UNL     1       3.768   0.192  -1.841  1.00  0.00    -0.388 OA
ATOM     28  H2  UNL     1       4.103  -0.116  -2.675  1.00  0.00     0.210 HD
ENDBRANCH  24  27
ENDBRANCH  21  24
ENDBRANCH  20  21
ENDBRANCH  19  20
ENDBRANCH   1  17
TORSDOF 6
