REMARK  9 active torsions:
REMARK  status: ('A' for Active; 'I' for Inactive)
REMARK    1  A    between atoms: O1_2  and  N1_3 
REMARK    2  A    between atoms: C2_5  and  C3_6 
REMARK    3  A    between atoms: C2_5  and  C19_30 
REMARK    4  A    between atoms: C4_7  and  O2_8 
REMARK    5  A    between atoms: C7_11  and  O3_12 
REMARK    6  A    between atoms: C9_14  and  C10_15 
REMARK    7  A    between atoms: C11_16  and  C12_17 
REMARK    8  A    between atoms: C13_20  and  O6_21 
REMARK    9  A    between atoms: O6_21  and  C14_22 
ROOT
HETATM    1  C3  UNL     1      -1.265  -0.692   0.560  1.00  0.00     0.059 A 
HETATM    2  C4  UNL     1      -2.241  -0.253   1.389  1.00  0.00     0.086 A 
HETATM    3  C6  UNL     1      -2.411   1.138   1.490  1.00  0.00     0.075 A 
HETATM    4  C7  UNL     1      -1.625   2.019   0.781  1.00  0.00     0.084 A 
HETATM    5  C9  UNL     1      -0.628   1.595  -0.059  1.00  0.00     0.032 A 
HETATM    6  C13 UNL     1      -0.448   0.204  -0.157  1.00  0.00     0.099 A 
ENDROOT
BRANCH   1   7
HETATM    7  C2  UNL     1      -1.139  -2.121   0.216  1.00  0.00     0.086 C 
HETATM    8  N1  UNL     1      -0.196  -2.442  -0.601  1.00  0.00    -0.267 N 
ATOM      9  H1  UNL     1       0.363  -1.650  -0.919  1.00  0.00     0.194 HD
BRANCH   8  10
HETATM   10  O1  UNL     1       0.177  -3.581  -1.096  1.00  0.00    -0.285 OA
HETATM   11  C1  UNL     1       0.646  -3.668  -2.436  1.00  0.00     0.237 C 
ENDBRANCH   8  10
BRANCH   7  12
HETATM   12  C19 UNL     1      -1.989  -3.229   0.652  1.00  0.00     0.154 C 
HETATM   13  C20 UNL     1      -3.421  -3.186   0.224  1.00  0.00     0.057 C 
HETATM   14 CL1  UNL     1      -1.407  -4.816  -0.086  1.00  0.00    -0.095 Cl
HETATM   15 CL2  UNL     1      -1.895  -3.592   2.396  1.00  0.00    -0.095 Cl
ENDBRANCH   7  12
ENDBRANCH   1   7
BRANCH   2  16
HETATM   16  O2  UNL     1      -3.085  -1.043   2.153  1.00  0.00    -0.355 OA
HETATM   17  C5  UNL     1      -4.080  -0.492   2.990  1.00  0.00     0.210 C 
ENDBRANCH   2  16
BRANCH   6  18
HETATM   18  O6  UNL     1       0.603  -0.218  -0.973  1.00  0.00    -0.316 OA
BRANCH  18  19
HETATM   19  C14 UNL     1       1.954  -0.094  -0.550  1.00  0.00     0.327 C 
HETATM   20  C15 UNL     1       2.908  -0.130  -1.709  1.00  0.00     0.062 C 
HETATM   21  C16 UNL     1       4.223   0.477  -1.213  1.00  0.00     0.006 C 
HETATM   22  C17 UNL     1       4.677  -0.220   0.027  1.00  0.00     0.028 C 
HETATM   23  C18 UNL     1       3.772  -1.408   0.307  1.00  0.00     0.235 C 
HETATM   24  N2  UNL     1       2.392  -1.023   0.463  1.00  0.00    -0.048 N 
ATOM     25  H22 UNL     1       2.219  -0.653   1.398  1.00  0.00     0.280 HD
ATOM     26  H21 UNL     1       1.785  -1.842   0.495  1.00  0.00     0.280 HD
ENDBRANCH  18  19
ENDBRANCH   6  18
BRANCH   5  27
HETATM   27  C10 UNL     1       0.202   2.490  -0.854  1.00  0.00     0.024 C 
HETATM   28  C11 UNL     1       0.232   3.775  -0.773  1.00  0.00     0.085 C 
BRANCH  28  29
HETATM   29  C12 UNL     1       1.177   4.465  -1.710  1.00  0.00     0.198 C 
HETATM   30  O4  UNL     1       1.248   5.698  -1.677  1.00  0.00    -0.645 OA
HETATM   31  O5  UNL     1       1.958   3.761  -2.595  1.00  0.00    -0.645 OA
ENDBRANCH  28  29
ENDBRANCH   5  27
BRANCH   4  32
HETATM   32  O3  UNL     1      -1.868   3.376   0.936  1.00  0.00    -0.355 OA
HETATM   33  C8  UNL     1      -2.893   3.798   1.800  1.00  0.00     0.210 C 
ENDBRANCH   4  32
TORSDOF 9
