REMARK  10 active torsions:
REMARK  status: ('A' for Active; 'I' for Inactive)
REMARK    1  A    between atoms: O1_2  and  C2_3 
REMARK    2  A    between atoms: C2_3  and  C4_5 
REMARK    3  A    between atoms: C4_5  and  N1_6 
REMARK    4  A    between atoms: C4_5  and  C12_21 
REMARK    5  A    between atoms: N1_6  and  C5_8 
REMARK    6  A    between atoms: C5_8  and  C6_9 
REMARK    7  A    between atoms: C6_9  and  N2_10 
REMARK    8  A    between atoms: C9_14  and  O2_15 
REMARK    9  A    between atoms: C15_24  and  S1_25 
REMARK   10  A    between atoms: S1_25  and  C16_26 
ROOT
HETATM    1  C4  UNL     1      -0.113  -1.735  -0.105  1.00  0.00     0.140 C 
ENDROOT
BRANCH   1   2
HETATM    2  C2  UNL     1      -0.701  -2.505   1.019  1.00  0.00     0.143 C 
HETATM    3  C3  UNL     1       0.313  -3.580   1.505  1.00  0.00     0.042 C 
BRANCH   2   4
HETATM    4  O1  UNL     1      -1.850  -3.182   0.628  1.00  0.00    -0.389 OA
HETATM    5  C1  UNL     1      -2.875  -3.055   1.574  1.00  0.00     0.202 C 
ENDBRANCH   2   4
ENDBRANCH   1   2
BRANCH   1   6
HETATM    6  N1  UNL     1      -0.924  -0.759  -0.742  1.00  0.00    -0.409 N 
ATOM      7  H1  UNL     1      -0.659   0.222  -0.653  1.00  0.00     0.154 HD
BRANCH   6   8
HETATM    8  C5  UNL     1      -2.055  -1.068  -1.477  1.00  0.00     0.134 C 
BRANCH   8   9
HETATM    9  C6  UNL     1      -2.651   0.233  -2.094  1.00  0.00     0.140 C 
BRANCH   9  10
HETATM   10  N2  UNL     1      -2.981   1.152  -1.064  1.00  0.00    -0.372 N 
HETATM   11  C7  UNL     1      -3.961   1.169  -0.270  1.00  0.00     0.125 C 
HETATM   12  C8  UNL     1      -5.071   0.209  -0.189  1.00  0.00     0.116 C 
HETATM   13  O4  UNL     1      -4.003   2.233   0.654  1.00  0.00    -0.266 OA
HETATM   14  C9  UNL     1      -6.361   1.026  -0.187  1.00  0.00     0.135 C 
HETATM   15  C10 UNL     1      -6.448   1.863   1.055  1.00  0.00     0.143 C 
HETATM   16  C11 UNL     1      -5.217   2.642   1.224  1.00  0.00     0.267 C 
HETATM   17  O3  UNL     1      -5.275   3.710   1.908  1.00  0.00    -0.265 OA
ATOM     18  H2  UNL     1      -2.321   1.921  -0.947  1.00  0.00     0.161 HD
BRANCH  14  19
HETATM   19  O2  UNL     1      -7.431   0.126  -0.244  1.00  0.00    -0.395 OA
ATOM     20  H2  UNL     1      -8.234   0.634  -0.243  1.00  0.00     0.210 HD
ENDBRANCH  14  19
ENDBRANCH   9  10
ENDBRANCH   8   9
ENDBRANCH   6   8
ENDBRANCH   1   6
BRANCH   1  21
HETATM   21  C12 UNL     1       1.119  -0.941   0.313  1.00  0.00    -0.012 A 
HETATM   22  C13 UNL     1       1.355  -0.552   1.595  1.00  0.00     0.012 A 
HETATM   23  C14 UNL     1       2.464   0.220   1.930  1.00  0.00     0.019 A 
HETATM   24  C15 UNL     1       3.382   0.625   0.949  1.00  0.00     0.002 A 
HETATM   25  C21 UNL     1       3.117   0.218  -0.321  1.00  0.00     0.043 A 
HETATM   26  C22 UNL     1       2.022  -0.548  -0.673  1.00  0.00     0.043 A 
HETATM   27 CL1  UNL     1       1.715  -1.078  -2.307  1.00  0.00    -0.084 Cl
BRANCH  24  28
HETATM   28  S1  UNL     1       4.779   1.595   1.421  1.00  0.00    -0.125 SA
BRANCH  28  29
HETATM   29  C16 UNL     1       5.928   2.006   0.140  1.00  0.00     0.052 C 
HETATM   30  C17 UNL     1       6.593   0.735  -0.363  1.00  0.00     0.015 C 
HETATM   31  C18 UNL     1       6.947   1.026  -1.794  1.00  0.00     0.001 C 
HETATM   32  C19 UNL     1       6.137   2.212  -2.242  1.00  0.00     0.001 C 
HETATM   33  C20 UNL     1       5.406   2.755  -1.033  1.00  0.00     0.015 C 
ENDBRANCH  28  29
ENDBRANCH  24  28
ENDBRANCH   1  21
TORSDOF 10
