REMARK  11 active torsions:
REMARK  status: ('A' for Active; 'I' for Inactive)
REMARK    1  A    between atoms: C2_2  and  C4_4 
REMARK    2  A    between atoms: C4_4  and  C5_5 
REMARK    3  A    between atoms: C5_5  and  O1_6 
REMARK    4  A    between atoms: C5_5  and  C6_8 
REMARK    5  A    between atoms: C6_8  and  O2_9 
REMARK    6  A    between atoms: O2_9  and  C7_10 
REMARK    7  A    between atoms: N1_16  and  C13_17 
REMARK    8  A    between atoms: C18_24  and  C19_25 
REMARK    9  A    between atoms: C19_25  and  O3_28 
REMARK   10  A    between atoms: N3_30  and  C22_31 
REMARK   11  A    between atoms: C22_31  and  C23_32 
ROOT
HETATM    1  C13 UNL     1      -0.006  -1.200  -0.636  1.00  0.00     0.121 A 
HETATM    2  C14 UNL     1       0.146  -1.018   0.719  1.00  0.00     0.138 A 
HETATM    3  N2  UNL     1      -0.774  -0.390   1.486  1.00  0.00    -0.347 N 
ATOM      4  H2  UNL     1      -0.615  -0.280   2.488  1.00  0.00     0.167 HD
HETATM    5  C15 UNL     1      -1.901   0.090   0.924  1.00  0.00     0.135 A 
HETATM    6  C16 UNL     1      -2.096  -0.069  -0.419  1.00  0.00     0.080 A 
HETATM    7  C17 UNL     1      -3.322   0.519  -0.662  1.00  0.00     0.061 A 
HETATM    8  C18 UNL     1      -3.824   1.010   0.539  1.00  0.00     0.049 A 
HETATM    9  N3  UNL     1      -2.947   0.741   1.492  1.00  0.00    -0.327 N 
HETATM   10  N4  UNL     1      -1.175  -0.689  -1.146  1.00  0.00    -0.338 N 
ATOM     11  H4  UNL     1      -1.346  -0.793  -2.146  1.00  0.00     0.167 HD
ENDROOT
BRANCH   1  12
HETATM   12  N1  UNL     1       0.921  -1.830  -1.499  1.00  0.00    -0.339 N 
HETATM   13  C7  UNL     1       2.255  -2.068  -1.078  1.00  0.00     0.224 C 
HETATM   14  C8  UNL     1       2.557  -3.544  -0.878  1.00  0.00     0.054 C 
HETATM   15  C9  UNL     1       1.781  -4.422  -1.822  1.00  0.00     0.004 C 
HETATM   16  C10 UNL     1       0.307  -4.394  -1.591  1.00  0.00     0.002 C 
HETATM   17  C11 UNL     1      -0.394  -3.487  -2.584  1.00  0.00     0.020 C 
HETATM   18  C12 UNL     1       0.286  -2.174  -2.800  1.00  0.00     0.127 C 
BRANCH  13  19
HETATM   19  O2  UNL     1       3.177  -1.511  -1.985  1.00  0.00    -0.364 OA
BRANCH  19  20
HETATM   20  C6  UNL     1       4.065  -0.629  -1.474  1.00  0.00     0.202 C 
BRANCH  20  21
HETATM   21  C5  UNL     1       3.505   0.605  -0.823  1.00  0.00     0.142 C 
BRANCH  21  22
HETATM   22  C4  UNL     1       4.639   1.446  -0.256  1.00  0.00     0.037 C 
BRANCH  22  23
HETATM   23  C2  UNL     1       4.116   2.692   0.413  1.00  0.00    -0.020 C 
HETATM   24  C1  UNL     1       5.301   3.462   0.954  1.00  0.00     0.009 C 
HETATM   25  C3  UNL     1       3.149   2.400   1.525  1.00  0.00     0.009 C 
ENDBRANCH  22  23
ENDBRANCH  21  22
BRANCH  21  26
HETATM   26  O1  UNL     1       2.765   1.301  -1.771  1.00  0.00    -0.393 OA
ATOM     27  H1  UNL     1       2.057   0.776  -2.125  1.00  0.00     0.210 HD
ENDBRANCH  21  26
ENDBRANCH  20  21
ENDBRANCH  19  20
ENDBRANCH  13  19
ENDBRANCH   1  12
BRANCH   9  28
HETATM   28  C22 UNL     1      -3.063   1.069   2.898  1.00  0.00     0.201 C 
BRANCH  28  29
HETATM   29  C23 UNL     1      -3.758  -0.016   3.694  1.00  0.00     0.371 C 
HETATM   30  F1  UNL     1      -3.783   0.458   5.016  1.00  0.00    -0.213 F 
HETATM   31  F2  UNL     1      -2.960  -1.139   3.702  1.00  0.00    -0.213 F 
ENDBRANCH  28  29
ENDBRANCH   9  28
BRANCH   8  32
HETATM   32  C19 UNL     1      -5.138   1.684   0.607  1.00  0.00     0.093 C 
HETATM   33  C20 UNL     1      -5.487   2.137  -0.806  1.00  0.00     0.052 C 
HETATM   34  C21 UNL     1      -5.225   2.895   1.460  1.00  0.00     0.052 C 
BRANCH  32  35
HETATM   35  O3  UNL     1      -6.160   0.750   0.926  1.00  0.00    -0.384 OA
ATOM     36  H3  UNL     1      -7.004   1.183   0.970  1.00  0.00     0.211 HD
ENDBRANCH  32  35
ENDBRANCH   8  32
TORSDOF 11
