REMARK  10 active torsions:
REMARK  status: ('A' for Active; 'I' for Inactive)
REMARK    1  A    between atoms: C2_2  and  C3_3 
REMARK    2  A    between atoms: C3_3  and  O1_4 
REMARK    3  A    between atoms: C3_3  and  C4_6 
REMARK    4  A    between atoms: C4_6  and  S1_7 
REMARK    5  A    between atoms: S1_7  and  C5_8 
REMARK    6  A    between atoms: C7_10  and  O2_11 
REMARK    7  A    between atoms: O2_11  and  C8_12 
REMARK    8  A    between atoms: C15_22  and  O4_23 
REMARK    9  A    between atoms: O4_23  and  C16_24 
REMARK   10  A    between atoms: C16_24  and  C18_26 
ROOT
HETATM    1  C5  UNL     1      -0.175   0.479  -0.362  1.00  0.00     0.038 A 
HETATM    2  C6  UNL     1       0.890   1.388  -0.215  1.00  0.00     0.058 A 
HETATM    3  C7  UNL     1       2.199   0.959  -0.173  1.00  0.00     0.072 A 
HETATM    4  C13 UNL     1       2.458  -0.385  -0.279  1.00  0.00     0.063 A 
HETATM    5  C14 UNL     1       1.436  -1.299  -0.425  1.00  0.00     0.071 A 
HETATM    6 CL1  UNL     1       1.815  -2.984  -0.625  1.00  0.00    -0.081 Cl
HETATM    7  C15 UNL     1       0.106  -0.859  -0.464  1.00  0.00     0.108 A 
ENDROOT
BRANCH   7   8
HETATM    8  O4  UNL     1      -0.898  -1.782  -0.610  1.00  0.00    -0.341 OA
BRANCH   8   9
HETATM    9  C16 UNL     1      -1.603  -2.345   0.451  1.00  0.00     0.156 C 
HETATM   10  C17 UNL     1      -0.958  -3.628   1.009  1.00  0.00     0.042 C 
BRANCH   9  11
HETATM   11  C18 UNL     1      -3.011  -2.749   0.175  1.00  0.00     0.180 C 
HETATM   12  C19 UNL     1      -3.095  -3.792  -0.933  1.00  0.00     0.160 C 
HETATM   13  N1  UNL     1      -4.488  -3.663  -1.345  1.00  0.00    -0.334 N 
HETATM   14  C20 UNL     1      -4.956  -2.405  -0.878  1.00  0.00     0.361 C 
ATOM     15  H1  UNL     1      -5.028  -4.350  -1.872  1.00  0.00     0.164 HD
HETATM   16  O5  UNL     1      -6.104  -1.909  -1.018  1.00  0.00    -0.239 OA
HETATM   17  O6  UNL     1      -3.915  -1.805  -0.231  1.00  0.00    -0.294 OA
ENDBRANCH   9  11
ENDBRANCH   8   9
ENDBRANCH   7   8
BRANCH   1  18
HETATM   18  S1  UNL     1      -1.843   1.062  -0.459  1.00  0.00    -0.124 SA
BRANCH  18  19
HETATM   19  C4  UNL     1      -2.650   1.318   1.111  1.00  0.00     0.111 C 
BRANCH  19  20
HETATM   20  C3  UNL     1      -4.047   1.828   0.842  1.00  0.00     0.127 C 
BRANCH  20  21
HETATM   21  C2  UNL     1      -4.053   3.124   0.082  1.00  0.00     0.028 C 
HETATM   22  C1  UNL     1      -3.484   4.275   0.850  1.00  0.00     0.007 C 
ENDBRANCH  20  21
BRANCH  20  23
HETATM   23  O1  UNL     1      -4.795   1.958   1.992  1.00  0.00    -0.395 OA
ATOM     24  H1  UNL     1      -4.791   1.139   2.473  1.00  0.00     0.210 HD
ENDBRANCH  20  23
ENDBRANCH  19  20
ENDBRANCH  18  19
ENDBRANCH   1  18
BRANCH   3  25
HETATM   25  O2  UNL     1       3.189   1.867  -0.030  1.00  0.00    -0.346 OA
BRANCH  25  26
HETATM   26  C8  UNL     1       4.576   1.696   0.048  1.00  0.00     0.136 C 
HETATM   27  C9  UNL     1       5.059   0.928   1.236  1.00  0.00     0.059 C 
HETATM   28  C10 UNL     1       6.228   0.049   0.995  1.00  0.00     0.173 C 
HETATM   29  O3  UNL     1       6.331  -0.511  -0.250  1.00  0.00    -0.357 OA
HETATM   30  C11 UNL     1       6.412   0.505  -1.181  1.00  0.00     0.309 C 
HETATM   31  F1  UNL     1       7.397   1.411  -0.831  1.00  0.00    -0.220 F 
HETATM   32  C12 UNL     1       5.113   1.265  -1.264  1.00  0.00     0.098 C 
ENDBRANCH  25  26
ENDBRANCH   3  25
TORSDOF 10
