REMARK  4 active torsions:
REMARK  status: ('A' for Active; 'I' for Inactive)
REMARK    1  A    between atoms: O1_1  and  N1_3 
REMARK    2  A    between atoms: C1_5  and  N2_6 
REMARK    3  A    between atoms: C1_5  and  C6_18 
REMARK    4  A    between atoms: N2_6  and  C2_8 
ROOT
HETATM    1  N2  UNL     1       0.492   0.681  -0.942  1.00  0.00    -0.324 N 
ATOM      2  H2  UNL     1       0.301   0.889  -1.922  1.00  0.00     0.169 HD
ENDROOT
BRANCH   1   3
HETATM    3  C1  UNL     1      -0.573   0.623  -0.015  1.00  0.00     0.107 C 
HETATM    4  N1  UNL     1      -0.679   1.520   0.904  1.00  0.00    -0.257 N 
ATOM      5  H1  UNL     1      -1.447   1.478   1.574  1.00  0.00     0.195 HD
BRANCH   4   6
HETATM    6  O1  UNL     1       0.243   2.531   0.979  1.00  0.00    -0.288 OA
ATOM      7  H1  UNL     1       0.165   3.192   1.657  1.00  0.00     0.244 HD
ENDBRANCH   4   6
BRANCH   3   8
HETATM    8  C6  UNL     1      -1.606  -0.449  -0.045  1.00  0.00     0.055 C 
HETATM    9  C7  UNL     1      -2.355  -0.455  -1.363  1.00  0.00     0.012 C 
HETATM   10  C8  UNL     1      -3.792  -0.777  -1.046  1.00  0.00     0.001 C 
HETATM   11  C9  UNL     1      -3.801  -1.139   0.434  1.00  0.00     0.001 C 
HETATM   12  C10 UNL     1      -2.703  -0.200   0.951  1.00  0.00     0.012 C 
ENDBRANCH   3   8
ENDBRANCH   1   3
BRANCH   1  13
HETATM   13  C2  UNL     1       1.728   0.468  -0.548  1.00  0.00     0.153 A 
HETATM   14  N3  UNL     1       2.821   0.483  -1.270  1.00  0.00    -0.328 N 
HETATM   15  C3  UNL     1       3.985   0.237  -0.666  1.00  0.00     0.111 A 
ATOM     16  H3  UNL     1       2.783   0.678  -2.270  1.00  0.00     0.168 HD
HETATM   17  S1  UNL     1       5.697   0.111  -1.011  1.00  0.00    -0.064 SA
HETATM   18  C5  UNL     1       3.992  -0.015   0.656  1.00  0.00     0.112 A 
HETATM   19  C4  UNL     1       6.260  -0.249   0.552  1.00  0.00     0.141 A 
HETATM   20  N4  UNL     1       5.158  -0.258   1.247  1.00  0.00    -0.352 N 
ATOM     21  H4  UNL     1       5.190  -0.452   2.248  1.00  0.00     0.166 HD
HETATM   22  S2  UNL     1       2.277   0.108   1.018  1.00  0.00    -0.033 SA
ENDBRANCH   1  13
TORSDOF 4
