REMARK  3 active torsions:
REMARK  status: ('A' for Active; 'I' for Inactive)
REMARK    1  A    between atoms: C6_9  and  C7_10 
REMARK    2  A    between atoms: C7_10  and  O2_12 
REMARK    3  A    between atoms: O2_12  and  C8_13 
ROOT
HETATM    1  C1  UNL     1       4.131   1.751  -0.094  1.00  0.00     0.159 C 
HETATM    2  N1  UNL     1       3.842   0.320   0.297  1.00  0.00    -0.322 N 
HETATM    3  C2  UNL     1       2.692  -0.267   0.129  1.00  0.00     0.118 A 
HETATM    4  C3  UNL     1       2.565  -1.581   0.301  1.00  0.00     0.032 A 
HETATM    5  S1  UNL     1       4.199  -1.973   0.740  1.00  0.00    -0.061 SA
HETATM    6  C4  UNL     1       4.879  -0.411   0.654  1.00  0.00     0.146 A 
HETATM    7  S2  UNL     1       6.429   0.003   0.976  1.00  0.00    -0.052 SA
HETATM    8  C5  UNL     1       1.188  -2.077  -0.010  1.00  0.00     0.085 C 
HETATM    9  C6  UNL     1       0.614  -0.878  -0.805  1.00  0.00     0.188 C 
HETATM   10  N2  UNL     1       1.300   0.149  -0.101  1.00  0.00    -0.361 N 
ATOM     11  H2  UNL     1       0.891   1.035   0.198  1.00  0.00     0.162 HD
ENDROOT
BRANCH   9  12
HETATM   12  C7  UNL     1      -0.860  -0.840  -0.526  1.00  0.00     0.282 C 
HETATM   13  O1  UNL     1      -1.511  -1.890  -0.596  1.00  0.00    -0.263 OA
BRANCH  12  14
HETATM   14  O2  UNL     1      -1.451   0.368  -0.188  1.00  0.00    -0.310 OA
BRANCH  14  15
HETATM   15  C8  UNL     1      -2.814   0.449   0.080  1.00  0.00     0.060 C 
HETATM   16  C9  UNL     1      -3.151   1.816   0.653  1.00  0.00     0.045 C 
HETATM   17  C10 UNL     1      -3.588   0.343  -1.264  1.00  0.00     0.045 C 
HETATM   18  C11 UNL     1      -3.314  -0.693   0.913  1.00  0.00     0.045 C 
ENDBRANCH  14  15
ENDBRANCH  12  14
ENDBRANCH   9  12
TORSDOF 3
