REMARK  2 active torsions:
REMARK  status: ('A' for Active; 'I' for Inactive)
REMARK    1  A    between atoms: C3_3  and  C4_4 
REMARK    2  A    between atoms: C4_4  and  N1_5 
ROOT
HETATM    1  N1  UNL     1       0.749  -1.020  -0.748  1.00  0.00    -0.222 N 
ATOM      2  H1  UNL     1       0.716  -1.203  -1.751  1.00  0.00     0.178 HD
HETATM    3  C5  UNL     1       1.776  -0.416  -0.301  1.00  0.00     0.678 A 
HETATM    4  N2  UNL     1       2.812  -0.005  -1.046  1.00  0.00    -0.201 N 
ATOM      5  H2  UNL     1       2.916  -0.119  -2.054  1.00  0.00     0.183 HD
HETATM    6  C6  UNL     1       3.688   0.585  -0.215  1.00  0.00     0.123 A 
HETATM    7  C7  UNL     1       3.202   0.549   1.071  1.00  0.00     0.123 A 
HETATM    8  N3  UNL     1       2.003  -0.085   0.980  1.00  0.00    -0.201 N 
ATOM      9  H3  UNL     1       1.376  -0.278   1.761  1.00  0.00     0.183 HD
ENDROOT
BRANCH   1  10
HETATM   10  C4  UNL     1      -0.363  -1.464   0.033  1.00  0.00     0.176 C 
BRANCH  10  11
HETATM   11  C3  UNL     1      -1.494  -0.480  -0.059  1.00  0.00    -0.037 A 
HETATM   12  C2  UNL     1      -1.628   0.571   0.818  1.00  0.00     0.025 A 
HETATM   13  C1  UNL     1      -2.688   1.449   0.690  1.00  0.00     0.088 A 
HETATM   14  N4  UNL     1      -3.617   1.323  -0.275  1.00  0.00    -0.375 N 
HETATM   15  C9  UNL     1      -3.501   0.301  -1.141  1.00  0.00     0.088 A 
ATOM     16  H4  UNL     1      -4.389   1.985  -0.348  1.00  0.00     0.164 HD
HETATM   17  C8  UNL     1      -2.456  -0.596  -1.044  1.00  0.00     0.025 A 
ENDBRANCH  10  11
ENDBRANCH   1  10
TORSDOF 2
