REMARK  12 active torsions:
REMARK  status: ('A' for Active; 'I' for Inactive)
REMARK    1  A    between atoms: C2_2  and  N1_3 
REMARK       I    between atoms: N1_3  and  C3_5 
REMARK    2  A    between atoms: C3_5  and  C4_7 
REMARK    3  A    between atoms: C11_16  and  O4_17 
REMARK    4  A    between atoms: C19_25  and  C21_27 
REMARK    5  A    between atoms: C21_27  and  C22_29 
REMARK    6  A    between atoms: C22_29  and  C23_30 
REMARK    7  A    between atoms: C23_30  and  C24_31 
REMARK       I    between atoms: C24_31  and  N2_33 
REMARK    8  A    between atoms: N2_33  and  C25_35 
REMARK    9  A    between atoms: C25_35  and  C26_36 
REMARK   10  A    between atoms: C26_36  and  C27_37 
REMARK   11  A    between atoms: C27_37  and  C28_38 
REMARK   12  A    between atoms: C28_38  and  O7_39 
ROOT
HETATM    1  C4  UNL     1       5.224   1.147   1.510  1.00  0.00     0.225 C 
HETATM    2  O2  UNL     1       5.030   0.222   2.520  1.00  0.00    -0.362 OA
HETATM    3  C5  UNL     1       5.083  -0.775   1.584  1.00  0.00     0.203 C 
HETATM    4  C6  UNL     1       4.277  -1.973   1.811  1.00  0.00     0.156 C 
HETATM    5  O3  UNL     1       4.632  -2.768   2.657  1.00  0.00    -0.295 OA
HETATM    6  C7  UNL     1       3.051  -2.131   0.966  1.00  0.00     0.086 C 
HETATM    7  C8  UNL     1       2.301  -0.791   1.049  1.00  0.00     0.002 C 
HETATM    8  C9  UNL     1       3.114   0.265   0.365  1.00  0.00     0.007 C 
HETATM    9  C10 UNL     1       2.786   0.502  -1.054  1.00  0.00     0.038 C 
HETATM   10  C11 UNL     1       1.421  -0.015  -1.513  1.00  0.00     0.131 C 
HETATM   11  C13 UNL     1       0.413   0.058  -0.430  1.00  0.00     0.000 C 
HETATM   12  C14 UNL     1       0.367   1.521   0.021  1.00  0.00     0.019 C 
HETATM   13  C15 UNL     1       0.882  -0.853   0.692  1.00  0.00     0.002 C 
HETATM   14  C16 UNL     1       0.468  -2.285   0.511  1.00  0.00     0.006 C 
HETATM   15  C17 UNL     1      -0.953  -2.477   0.042  1.00  0.00     0.002 C 
HETATM   16  C18 UNL     1      -1.268  -1.680  -1.193  1.00  0.00     0.018 C 
HETATM   17  C19 UNL     1      -0.977  -0.251  -0.869  1.00  0.00     0.027 C 
HETATM   18  C20 UNL     1      -1.284   0.578  -2.096  1.00  0.00     0.024 C 
HETATM   19  C29 UNL     1       4.592   0.142   0.543  1.00  0.00     0.028 C 
HETATM   20  C30 UNL     1       5.434   0.088  -0.704  1.00  0.00     0.022 C 
ENDROOT
BRANCH  17  21
HETATM   21  C21 UNL     1      -2.011   0.144   0.148  1.00  0.00     0.136 C 
HETATM   22  O5  UNL     1      -1.768   0.670   1.217  1.00  0.00    -0.297 OA
BRANCH  21  23
HETATM   23  C22 UNL     1      -3.449  -0.103  -0.119  1.00  0.00     0.088 C 
BRANCH  23  24
HETATM   24  C23 UNL     1      -4.282   0.508   1.022  1.00  0.00     0.110 C 
BRANCH  24  25
HETATM   25  C24 UNL     1      -5.725   0.281   0.783  1.00  0.00     0.217 C 
HETATM   26  O6  UNL     1      -6.028  -0.326  -0.276  1.00  0.00    -0.274 OA
HETATM   27  N2  UNL     1      -6.656   0.743   1.729  1.00  0.00    -0.361 N 
ATOM     28  H2  UNL     1      -6.305   1.221   2.559  1.00  0.00     0.162 HD
BRANCH  27  29
HETATM   29  C25 UNL     1      -8.079   0.577   1.589  1.00  0.00     0.122 C 
BRANCH  29  30
HETATM   30  C26 UNL     1      -8.581   1.272   0.375  1.00  0.00     0.022 C 
BRANCH  30  31
HETATM   31  C27 UNL     1     -10.078   1.130   0.191  1.00  0.00     0.028 C 
BRANCH  31  32
HETATM   32  C28 UNL     1     -10.510  -0.307   0.057  1.00  0.00     0.164 C 
BRANCH  32  33
HETATM   33  O7  UNL     1     -11.901  -0.309  -0.107  1.00  0.00    -0.401 OA
ATOM     34  H7  UNL     1     -12.173  -1.215  -0.192  1.00  0.00     0.209 HD
ENDBRANCH  32  33
ENDBRANCH  31  32
ENDBRANCH  30  31
ENDBRANCH  29  30
ENDBRANCH  27  29
ENDBRANCH  24  25
ENDBRANCH  23  24
ENDBRANCH  21  23
ENDBRANCH  17  21
BRANCH  10  35
HETATM   35  O4  UNL     1       1.676  -1.273  -2.043  1.00  0.00    -0.390 OA
HETATM   36  C12 UNL     1       1.703  -1.233  -3.413  1.00  0.00     0.202 C 
ENDBRANCH  10  35
BRANCH   1  37
HETATM   37  C3  UNL     1       6.594   1.556   1.219  1.00  0.00     0.247 C 
HETATM   38  N1  UNL     1       7.739   1.071   1.908  1.00  0.00    -0.359 N 
ATOM     39  H1  UNL     1       7.597   0.393   2.656  1.00  0.00     0.162 HD
HETATM   40  O1  UNL     1       6.788   2.390   0.300  1.00  0.00    -0.271 OA
BRANCH  38  41
HETATM   41  C2  UNL     1       9.075   1.476   1.616  1.00  0.00     0.118 C 
HETATM   42  C1  UNL     1       9.498   1.168   0.201  1.00  0.00     0.026 C 
ENDBRANCH  38  41
ENDBRANCH   1  37
TORSDOF 12
