REMARK  11 active torsions:
REMARK  status: ('A' for Active; 'I' for Inactive)
REMARK    1  A    between atoms: C2_2  and  C3_3 
REMARK    2  A    between atoms: C3_3  and  N1_4 
REMARK    3  A    between atoms: C6_10  and  C7_11 
REMARK    4  A    between atoms: C12_16  and  N3_17 
REMARK       I    between atoms: N3_17  and  C13_19 
REMARK    5  A    between atoms: C13_19  and  C14_21 
REMARK    6  A    between atoms: C14_21  and  C15_22 
REMARK    7  A    between atoms: C15_22  and  C16_23 
REMARK    8  A    between atoms: C16_23  and  C17_25 
REMARK    9  A    between atoms: C17_25  and  N4_26 
REMARK   10  A    between atoms: N7_38  and  C24_39 
REMARK   11  A    between atoms: C24_39  and  C25_40 
ROOT
HETATM    1  C7  UNL     1      -1.759   2.257   0.849  1.00  0.00     0.010 A 
HETATM    2  C8  UNL     1      -2.031   3.498   1.366  1.00  0.00     0.016 A 
HETATM    3  C9  UNL     1      -1.017   4.334   1.748  1.00  0.00     0.010 A 
HETATM    4  C10 UNL     1       0.282   3.899   1.600  1.00  0.00    -0.035 A 
HETATM    5  C11 UNL     1       1.402   4.790   2.008  1.00  0.00     0.050 C 
HETATM    6  C12 UNL     1       0.623   2.649   1.082  1.00  0.00     0.041 A 
HETATM    7  C22 UNL     1      -0.425   1.847   0.714  1.00  0.00     0.045 A 
ENDROOT
BRANCH   1   8
HETATM    8  C6  UNL     1      -2.814   1.342   0.434  1.00  0.00     0.117 A 
HETATM    9  N2  UNL     1      -2.665   0.116  -0.081  1.00  0.00    -0.334 N 
HETATM   10  C5  UNL     1      -3.877  -0.413  -0.337  1.00  0.00     0.147 A 
ATOM     11  H2  UNL     1      -1.772  -0.346  -0.253  1.00  0.00     0.168 HD
HETATM   12  C4  UNL     1      -4.297  -1.633  -0.865  1.00  0.00     0.282 A 
HETATM   13  C23 UNL     1      -4.839   0.505   0.025  1.00  0.00     0.146 A 
HETATM   14  N1  UNL     1      -5.591  -1.911  -1.018  1.00  0.00    -0.264 N 
HETATM   15  O1  UNL     1      -3.436  -2.463  -1.193  1.00  0.00    -0.265 OA
HETATM   16  C27 UNL     1      -6.505  -0.984  -0.650  1.00  0.00     0.333 A 
HETATM   17  N7  UNL     1      -6.140   0.204  -0.137  1.00  0.00    -0.283 N 
HETATM   18  O5  UNL     1      -7.716  -1.281  -0.808  1.00  0.00    -0.246 OA
HETATM   19  N6  UNL     1      -4.154   1.560   0.490  1.00  0.00    -0.326 N 
ATOM     20  H6  UNL     1      -4.584   2.416   0.841  1.00  0.00     0.169 HD
BRANCH  14  21
HETATM   21  C3  UNL     1      -5.972  -3.192  -1.570  1.00  0.00     0.137 C 
BRANCH  21  22
HETATM   22  C2  UNL     1      -6.124  -4.153  -0.388  1.00  0.00     0.016 C 
HETATM   23  C1  UNL     1      -6.524  -5.491  -0.986  1.00  0.00     0.006 C 
ENDBRANCH  21  22
ENDBRANCH  14  21
BRANCH  17  24
HETATM   24  C24 UNL     1      -7.152   1.165   0.242  1.00  0.00     0.135 C 
BRANCH  24  25
HETATM   25  C25 UNL     1      -7.478   2.061  -0.931  1.00  0.00     0.016 C 
HETATM   26  C26 UNL     1      -8.541   3.057  -0.500  1.00  0.00     0.006 C 
ENDBRANCH  24  25
ENDBRANCH  17  24
ENDBRANCH   1   8
BRANCH   6  27
HETATM   27  N3  UNL     1       1.983   2.298   0.973  1.00  0.00    -0.327 N 
HETATM   28  C13 UNL     1       2.561   1.121   0.491  1.00  0.00     0.222 C 
HETATM   29  O2  UNL     1       1.895   0.169   0.069  1.00  0.00    -0.273 OA
ATOM     30  H3  UNL     1       2.642   3.007   1.293  1.00  0.00     0.169 HD
BRANCH  28  31
HETATM   31  C14 UNL     1       4.041   0.962   0.467  1.00  0.00     0.110 C 
BRANCH  31  32
HETATM   32  C15 UNL     1       4.427  -0.380  -0.093  1.00  0.00     0.089 C 
BRANCH  32  33
HETATM   33  C16 UNL     1       5.902  -0.504  -0.100  1.00  0.00     0.145 C 
HETATM   34  O3  UNL     1       6.592   0.401   0.307  1.00  0.00    -0.296 OA
BRANCH  33  35
HETATM   35  C17 UNL     1       6.559  -1.734  -0.605  1.00  0.00     0.206 C 
BRANCH  35  36
HETATM   36  N4  UNL     1       7.988  -1.655  -0.520  1.00  0.00    -0.321 N 
HETATM   37  C18 UNL     1       8.934  -1.166  -1.486  1.00  0.00     0.319 C 
HETATM   38  O4  UNL     1       8.599  -0.459  -2.476  1.00  0.00    -0.247 OA
HETATM   39  N5  UNL     1      10.226  -1.619  -1.107  1.00  0.00    -0.341 N 
HETATM   40  C19 UNL     1      10.004  -2.659  -0.095  1.00  0.00     0.149 C 
ATOM     41  H5  UNL     1      11.123  -1.290  -1.464  1.00  0.00     0.164 HD
HETATM   42  C20 UNL     1       8.776  -2.076   0.612  1.00  0.00     0.103 C 
HETATM   43  C21 UNL     1       9.195  -0.898   1.453  1.00  0.00     0.034 C 
ENDBRANCH  35  36
ENDBRANCH  33  35
ENDBRANCH  32  33
ENDBRANCH  31  32
ENDBRANCH  28  31
ENDBRANCH   6  27
TORSDOF 11
