REMARK  11 active torsions:
REMARK  status: ('A' for Active; 'I' for Inactive)
REMARK    1  A    between atoms: C2_2  and  C3_3 
REMARK    2  A    between atoms: C3_3  and  C4_4 
REMARK    3  A    between atoms: C4_4  and  C5_5 
REMARK    4  A    between atoms: C5_5  and  C6_6 
REMARK    5  A    between atoms: C6_6  and  C7_7 
REMARK    6  A    between atoms: C7_7  and  C8_8 
REMARK       I    between atoms: C8_8  and  N1_10 
REMARK    7  A    between atoms: N1_10  and  C9_12 
REMARK    8  A    between atoms: C11_14  and  O2_15 
REMARK    9  A    between atoms: C15_24  and  C16_25 
REMARK   10  A    between atoms: C16_25  and  C17_26 
REMARK   11  A    between atoms: C17_26  and  S1_27 
ROOT
HETATM    1  C9  UNL     1       0.366  -1.972   0.166  1.00  0.00     0.137 C 
HETATM    2  C10 UNL     1       0.508  -1.607  -1.249  1.00  0.00     0.055 C 
HETATM    3  C11 UNL     1      -0.078  -1.002   1.148  1.00  0.00     0.148 C 
HETATM    4  N2  UNL     1      -0.927   0.116   1.105  1.00  0.00    -0.359 N 
HETATM    5  C12 UNL     1      -1.814   0.378   2.263  1.00  0.00     0.152 C 
HETATM    6  C13 UNL     1      -1.040   1.077   0.029  1.00  0.00     0.227 C 
HETATM    7  C14 UNL     1      -1.737   2.327   0.372  1.00  0.00     0.236 C 
HETATM    8  O3  UNL     1      -1.124   3.107   1.183  1.00  0.00    -0.272 OA
HETATM    9  N3  UNL     1      -3.009   2.721  -0.119  1.00  0.00    -0.346 N 
ATOM     10  H3  UNL     1      -3.134   3.707  -0.346  1.00  0.00     0.163 HD
HETATM   11  C15 UNL     1      -4.141   1.849  -0.325  1.00  0.00     0.177 C 
HETATM   12  C19 UNL     1      -4.127   1.088  -1.575  1.00  0.00     0.240 C 
HETATM   13  O4  UNL     1      -3.841   1.726  -2.639  1.00  0.00    -0.271 OA
HETATM   14  N4  UNL     1      -4.405  -0.305  -1.698  1.00  0.00    -0.359 N 
ATOM     15  H4  UNL     1      -4.586  -0.661  -2.636  1.00  0.00     0.162 HD
HETATM   16  C20 UNL     1      -4.452  -1.244  -0.627  1.00  0.00     0.123 C 
HETATM   17  C21 UNL     1      -3.912  -2.607  -0.933  1.00  0.00     0.025 C 
HETATM   18  C22 UNL     1      -2.421  -2.605  -1.249  1.00  0.00     0.050 C 
HETATM   19  C23 UNL     1      -1.620  -3.433  -0.349  1.00  0.00     0.009 A 
HETATM   20  S2  UNL     1      -2.082  -5.023   0.155  1.00  0.00    -0.087 SA
HETATM   21  C24 UNL     1      -0.750  -5.383   1.158  1.00  0.00     0.138 A 
HETATM   22  N5  UNL     1      -0.038  -4.278   1.051  1.00  0.00    -0.360 N 
ATOM     23  H5  UNL     1       0.844  -4.196   1.558  1.00  0.00     0.165 HD
HETATM   24  C25 UNL     1      -0.453  -3.273   0.294  1.00  0.00     0.059 A 
ENDROOT
BRANCH   1  25
HETATM   25  N1  UNL     1       1.776  -2.260   0.565  1.00  0.00    -0.339 N 
HETATM   26  C8  UNL     1       2.770  -1.284   0.489  1.00  0.00     0.218 C 
HETATM   27  O1  UNL     1       2.555  -0.098   0.084  1.00  0.00    -0.274 OA
ATOM     28  H1  UNL     1       2.018  -3.192   0.901  1.00  0.00     0.164 HD
BRANCH  26  29
HETATM   29  C7  UNL     1       4.148  -1.642   0.901  1.00  0.00     0.103 C 
BRANCH  29  30
HETATM   30  C6  UNL     1       5.030  -0.432   0.739  1.00  0.00     0.009 C 
BRANCH  30  31
HETATM   31  C5  UNL     1       6.443  -0.745   1.145  1.00  0.00     0.000 C 
BRANCH  31  32
HETATM   32  C4  UNL     1       7.311   0.459   0.990  1.00  0.00     0.000 C 
BRANCH  32  33
HETATM   33  C3  UNL     1       7.387   0.995  -0.403  1.00  0.00    -0.000 C 
BRANCH  33  34
HETATM   34  C2  UNL     1       8.308   2.225  -0.447  1.00  0.00    -0.005 C 
HETATM   35  C1  UNL     1       8.332   2.702  -1.874  1.00  0.00     0.005 C 
ENDBRANCH  33  34
ENDBRANCH  32  33
ENDBRANCH  31  32
ENDBRANCH  30  31
ENDBRANCH  29  30
ENDBRANCH  26  29
ENDBRANCH   1  25
BRANCH   3  36
HETATM   36  O2  UNL     1       0.390  -1.169   2.350  1.00  0.00    -0.347 OA
ATOM     37  H2  UNL     1       0.099  -0.533   2.993  1.00  0.00     0.219 HD
ENDBRANCH   3  36
BRANCH  11  38
HETATM   38  C16 UNL     1      -5.438   2.676  -0.345  1.00  0.00     0.045 C 
BRANCH  38  39
HETATM   39  C17 UNL     1      -6.572   1.719  -0.562  1.00  0.00     0.076 C 
BRANCH  39  40
HETATM   40  S1  UNL     1      -8.108   2.706  -0.583  1.00  0.00    -0.173 SA
HETATM   41  C18 UNL     1      -8.337   3.396   1.085  1.00  0.00     0.089 C 
ENDBRANCH  39  40
ENDBRANCH  38  39
ENDBRANCH  11  38
TORSDOF 11
