REMARK  15 active torsions:
REMARK  status: ('A' for Active; 'I' for Inactive)
REMARK    1  A    between atoms: C2_2  and  C3_3 
REMARK    2  A    between atoms: C3_3  and  C4_4 
REMARK    3  A    between atoms: C4_4  and  C5_5 
REMARK    4  A    between atoms: C7_10  and  C8_11 
REMARK    5  A    between atoms: C8_11  and  C9_12 
REMARK    6  A    between atoms: C13_19  and  C14_20 
REMARK    7  A    between atoms: C14_20  and  C15_21 
REMARK    8  A    between atoms: C18_26  and  O3_27 
REMARK    9  A    between atoms: N5_36  and  C24_37 
REMARK   10  A    between atoms: C24_37  and  C25_38 
REMARK   11  A    between atoms: C30_47  and  C31_48 
REMARK   12  A    between atoms: C32_49  and  C33_50 
REMARK   13  A    between atoms: C33_50  and  C34_51 
REMARK   14  A    between atoms: C34_51  and  C35_52 
REMARK   15  A    between atoms: C35_52  and  N7_53 
ROOT
HETATM    1  C5  UNL     1      -1.717  -1.990   1.448  1.00  0.00     0.178 C 
HETATM    2  N1  UNL     1      -1.294  -0.671   1.756  1.00  0.00    -0.346 N 
ATOM      3  H1  UNL     1      -0.278  -0.593   1.801  1.00  0.00     0.163 HD
HETATM    4  C6  UNL     1      -1.917   0.527   2.008  1.00  0.00     0.241 C 
HETATM    5  O1  UNL     1      -1.632   1.135   3.112  1.00  0.00    -0.271 OA
HETATM    6  C7  UNL     1      -2.919   1.318   1.211  1.00  0.00     0.177 C 
HETATM    7  N2  UNL     1      -2.443   1.313  -0.121  1.00  0.00    -0.346 N 
ATOM      8  H2  UNL     1      -2.777   0.530  -0.683  1.00  0.00     0.163 HD
HETATM    9  C12 UNL     1      -1.585   2.203  -0.811  1.00  0.00     0.241 C 
HETATM   10  O2  UNL     1      -1.776   2.160  -2.092  1.00  0.00    -0.271 OA
HETATM   11  C13 UNL     1      -0.574   3.108  -0.325  1.00  0.00     0.175 C 
HETATM   12  N3  UNL     1       0.383   2.548   0.619  1.00  0.00    -0.361 N 
ATOM     13  H3  UNL     1       0.202   2.870   1.570  1.00  0.00     0.162 HD
HETATM   14  C18 UNL     1       1.450   1.713   0.572  1.00  0.00     0.117 C 
HETATM   15  C19 UNL     1       2.248   1.016  -0.453  1.00  0.00     0.071 C 
HETATM   16  C20 UNL     1       1.936   1.242  -1.873  1.00  0.00     0.013 C 
HETATM   17  C21 UNL     1       2.763   0.201  -2.642  1.00  0.00     0.004 C 
HETATM   18  C22 UNL     1       2.027  -1.099  -2.447  1.00  0.00     0.043 C 
HETATM   19  C23 UNL     1       1.673  -1.394  -1.012  1.00  0.00     0.134 C 
HETATM   20  N4  UNL     1       0.336  -1.335  -0.642  1.00  0.00    -0.311 N 
ATOM     21  H4  UNL     1       0.077  -0.546  -0.049  1.00  0.00     0.182 HD
HETATM   22  N5  UNL     1      -0.664  -2.176  -0.959  1.00  0.00    -0.262 N 
HETATM   23  C28 UNL     1      -1.534  -2.548   0.115  1.00  0.00     0.260 C 
HETATM   24  O4  UNL     1      -2.295  -3.561  -0.138  1.00  0.00    -0.269 OA
HETATM   25  C29 UNL     1       2.172  -2.754  -0.681  1.00  0.00     0.253 C 
HETATM   26  O5  UNL     1       1.356  -3.734  -0.470  1.00  0.00    -0.270 OA
HETATM   27  N6  UNL     1       3.560  -3.005  -0.588  1.00  0.00    -0.318 N 
ATOM     28  H6  UNL     1       3.935  -3.933  -0.782  1.00  0.00     0.169 HD
HETATM   29  C30 UNL     1       4.417  -1.942  -0.220  1.00  0.00     0.086 C 
HETATM   30  C36 UNL     1       3.867  -0.783   0.009  1.00  0.00     0.021 C 
HETATM   31  C37 UNL     1       2.427  -0.442  -0.075  1.00  0.00     0.062 C 
ENDROOT
BRANCH  29  32
HETATM   32  C31 UNL     1       5.831  -2.189  -0.114  1.00  0.00    -0.049 C 
HETATM   33  C32 UNL     1       7.038  -2.386  -0.004  1.00  0.00    -0.100 C 
BRANCH  33  34
HETATM   34  C33 UNL     1       8.460  -2.660   0.126  1.00  0.00     0.096 C 
BRANCH  34  35
HETATM   35  C34 UNL     1       9.264  -1.492  -0.280  1.00  0.00     0.039 C 
BRANCH  35  36
HETATM   36  C35 UNL     1       9.081  -0.234   0.483  1.00  0.00     0.230 C 
BRANCH  36  37
HETATM   37  N7  UNL     1       7.725   0.233   0.372  1.00  0.00    -0.079 N 
ATOM     38  H73 UNL     1       7.438   0.336  -0.602  1.00  0.00     0.274 HD
ATOM     39  H72 UNL     1       7.054  -0.482   0.654  1.00  0.00     0.274 HD
ATOM     40  H71 UNL     1       7.599   1.098   0.897  1.00  0.00     0.274 HD
ENDBRANCH  36  37
ENDBRANCH  35  36
ENDBRANCH  34  35
ENDBRANCH  33  34
ENDBRANCH  29  32
BRANCH  14  41
HETATM   41  O3  UNL     1       1.991   1.376   1.724  1.00  0.00    -0.349 OA
ATOM     42  H3  UNL     1       2.739   0.791   1.691  1.00  0.00     0.219 HD
ENDBRANCH  14  41
BRANCH  22  43
HETATM   43  C24 UNL     1      -0.936  -2.760  -2.275  1.00  0.00     0.156 C 
BRANCH  43  44
HETATM   44  C25 UNL     1      -1.853  -1.997  -3.160  1.00  0.00     0.006 A 
HETATM   45  C26 UNL     1      -3.250  -1.662  -2.883  1.00  0.00     0.007 A 
HETATM   46  C27 UNL     1      -2.976  -2.815  -3.775  1.00  0.00     0.007 A 
ENDBRANCH  43  44
ENDBRANCH  22  43
BRANCH  11  47
HETATM   47  C14 UNL     1      -1.033   4.472   0.156  1.00  0.00     0.038 C 
BRANCH  47  48
HETATM   48  C15 UNL     1      -1.717   5.352  -0.798  1.00  0.00    -0.020 C 
HETATM   49  C16 UNL     1      -2.993   4.907  -1.402  1.00  0.00     0.009 C 
HETATM   50  C17 UNL     1      -0.717   5.778  -1.875  1.00  0.00     0.009 C 
ENDBRANCH  47  48
ENDBRANCH  11  47
BRANCH   1  51
HETATM   51  C4  UNL     1      -1.074  -2.904   2.520  1.00  0.00     0.035 C 
BRANCH  51  52
HETATM   52  C3  UNL     1      -1.509  -2.523   3.902  1.00  0.00     0.002 C 
BRANCH  52  53
HETATM   53  C2  UNL     1      -2.986  -2.598   4.148  1.00  0.00    -0.004 C 
HETATM   54  C1  UNL     1      -3.300  -2.192   5.602  1.00  0.00     0.005 C 
ENDBRANCH  52  53
ENDBRANCH  51  52
ENDBRANCH   1  51
BRANCH   6  55
HETATM   55  C8  UNL     1      -4.283   0.721   1.314  1.00  0.00     0.038 C 
BRANCH  55  56
HETATM   56  C9  UNL     1      -5.402   1.377   0.611  1.00  0.00    -0.020 C 
HETATM   57  C10 UNL     1      -6.658   0.544   0.960  1.00  0.00     0.009 C 
HETATM   58  C11 UNL     1      -5.326   1.280  -0.900  1.00  0.00     0.009 C 
ENDBRANCH  55  56
ENDBRANCH   6  55
TORSDOF 15
