REMARK  14 active torsions:
REMARK  status: ('A' for Active; 'I' for Inactive)
REMARK    1  A    between atoms: C2_2  and  C3_3 
REMARK    2  A    between atoms: C3_3  and  C5_5 
REMARK    3  A    between atoms: C7_10  and  C8_11 
REMARK    4  A    between atoms: C8_11  and  C9_12 
REMARK    5  A    between atoms: C9_12  and  C10_13 
REMARK    6  A    between atoms: C10_13  and  C11_14 
REMARK    7  A    between atoms: C11_14  and  N2_15 
REMARK    8  A    between atoms: C12_18  and  C13_19 
REMARK    9  A    between atoms: C13_19  and  C14_20 
REMARK   10  A    between atoms: C17_23  and  O2_24 
REMARK   11  A    between atoms: C22_34  and  C23_35 
REMARK   12  A    between atoms: C23_35  and  C25_37 
REMARK   13  A    between atoms: C29_46  and  C30_47 
REMARK   14  A    between atoms: C30_47  and  C31_48 
ROOT
HETATM    1  N2  UNL     1       2.684  -0.694  -0.362  1.00  0.00    -0.243 N 
HETATM    2  N3  UNL     1       3.796   0.124  -0.546  1.00  0.00    -0.294 N 
ATOM      3  H3  UNL     1       4.467  -0.029  -1.299  1.00  0.00     0.187 HD
HETATM    4  C12 UNL     1       3.935   1.215   0.413  1.00  0.00     0.077 C 
HETATM    5  C17 UNL     1       4.986   0.980   1.390  1.00  0.00     0.167 C 
HETATM    6  N4  UNL     1       6.343   0.679   1.296  1.00  0.00    -0.330 N 
HETATM    7  C18 UNL     1       7.075   0.890   2.595  1.00  0.00     0.158 C 
HETATM    8  C19 UNL     1       7.185   0.209   0.246  1.00  0.00     0.077 C 
HETATM    9  C20 UNL     1       7.089   0.896  -1.098  1.00  0.00     0.074 C 
HETATM   10  C21 UNL     1       7.257  -1.274   0.085  1.00  0.00     0.265 C 
HETATM   11  O3  UNL     1       8.452  -1.774   0.133  1.00  0.00    -0.266 OA
HETATM   12  N5  UNL     1       6.238  -2.191  -0.111  1.00  0.00    -0.334 N 
ATOM     13  H5  UNL     1       6.242  -2.620  -1.036  1.00  0.00     0.165 HD
HETATM   14  C22 UNL     1       5.173  -2.655   0.741  1.00  0.00     0.201 C 
HETATM   15  N7  UNL     1       3.942  -2.866   0.004  1.00  0.00    -0.320 N 
ATOM     16  H7  UNL     1       3.915  -3.714  -0.562  1.00  0.00     0.166 HD
HETATM   17  C26 UNL     1       2.800  -2.088  -0.046  1.00  0.00     0.338 C 
HETATM   18  O5  UNL     1       1.690  -2.677   0.223  1.00  0.00    -0.245 OA
ENDROOT
BRANCH   1  19
HETATM   19  C11 UNL     1       1.359  -0.136  -0.517  1.00  0.00     0.154 C 
BRANCH  19  20
HETATM   20  C10 UNL     1       0.819  -0.194  -1.888  1.00  0.00     0.022 C 
BRANCH  20  21
HETATM   21  C9  UNL     1      -0.549   0.444  -1.952  1.00  0.00     0.002 C 
BRANCH  21  22
HETATM   22  C8  UNL     1      -1.515  -0.233  -1.076  1.00  0.00     0.014 C 
BRANCH  22  23
HETATM   23  C7  UNL     1      -2.916   0.259  -1.025  1.00  0.00     0.078 C 
HETATM   24  C6  UNL     1      -3.626   0.211  -2.321  1.00  0.00     0.222 C 
HETATM   25  N1  UNL     1      -4.789  -0.534  -2.621  1.00  0.00    -0.347 N 
HETATM   26  O1  UNL     1      -3.112   0.931  -3.256  1.00  0.00    -0.273 OA
HETATM   27  C5  UNL     1      -6.074  -0.437  -1.975  1.00  0.00     0.180 C 
ATOM     28  H1  UNL     1      -4.711  -1.214  -3.377  1.00  0.00     0.163 HD
HETATM   29  C34 UNL     1      -6.028  -0.592  -0.500  1.00  0.00     0.241 C 
HETATM   30  N8  UNL     1      -6.096   0.382   0.482  1.00  0.00    -0.355 N 
HETATM   31  O6  UNL     1      -5.908  -1.821  -0.132  1.00  0.00    -0.271 OA
HETATM   32  C29 UNL     1      -5.372   1.609   0.664  1.00  0.00     0.084 C 
ATOM     33  H8  UNL     1      -6.786   0.194   1.209  1.00  0.00     0.162 HD
HETATM   34  C28 UNL     1      -4.488   2.062  -0.419  1.00  0.00     0.026 C 
HETATM   35  C27 UNL     1      -3.061   1.640  -0.384  1.00  0.00     0.016 C 
BRANCH  27  36
HETATM   36  C3  UNL     1      -6.982  -1.548  -2.540  1.00  0.00     0.013 C 
HETATM   37  C4  UNL     1      -7.210  -1.382  -4.003  1.00  0.00     0.012 C 
BRANCH  36  38
HETATM   38  C2  UNL     1      -8.313  -1.400  -1.833  1.00  0.00     0.002 C 
HETATM   39  C1  UNL     1      -9.307  -2.436  -2.297  1.00  0.00     0.005 C 
ENDBRANCH  36  38
ENDBRANCH  27  36
BRANCH  32  40
HETATM   40  C30 UNL     1      -4.664   1.630   2.026  1.00  0.00     0.029 C 
BRANCH  40  41
HETATM   41  C31 UNL     1      -5.578   1.169   3.133  1.00  0.00    -0.021 C 
HETATM   42  C32 UNL     1      -4.737   1.247   4.416  1.00  0.00     0.009 C 
HETATM   43  C33 UNL     1      -6.824   1.965   3.295  1.00  0.00     0.009 C 
ENDBRANCH  40  41
ENDBRANCH  32  40
ENDBRANCH  22  23
ENDBRANCH  21  22
ENDBRANCH  20  21
ENDBRANCH  19  20
ENDBRANCH   1  19
BRANCH   4  44
HETATM   44  C13 UNL     1       3.791   2.548  -0.230  1.00  0.00     0.067 C 
BRANCH  44  45
HETATM   45  C14 UNL     1       3.898   3.780   0.559  1.00  0.00    -0.017 C 
HETATM   46  C15 UNL     1       5.214   3.985   1.197  1.00  0.00     0.010 C 
HETATM   47  C16 UNL     1       3.614   4.949  -0.381  1.00  0.00     0.010 C 
ENDBRANCH  44  45
ENDBRANCH   4  44
BRANCH   5  48
HETATM   48  O2  UNL     1       4.541   1.070   2.629  1.00  0.00    -0.344 OA
ATOM     49  H2  UNL     1       5.228   0.916   3.267  1.00  0.00     0.219 HD
ENDBRANCH   5  48
BRANCH  14  50
HETATM   50  C23 UNL     1       5.495  -4.033   1.366  1.00  0.00     0.113 C 
HETATM   51  C24 UNL     1       4.277  -4.377   2.234  1.00  0.00     0.023 C 
BRANCH  50  52
HETATM   52  C25 UNL     1       5.640  -5.093   0.369  1.00  0.00     0.238 C 
HETATM   53  N6  UNL     1       6.660  -5.131  -0.618  1.00  0.00    -0.062 NA
HETATM   54  O4  UNL     1       4.829  -6.086   0.323  1.00  0.00    -0.276 OA
ENDBRANCH  50  52
ENDBRANCH  14  50
TORSDOF 14
