REMARK  14 active torsions:
REMARK  status: ('A' for Active; 'I' for Inactive)
REMARK    1  A    between atoms: C2_2  and  C4_4 
REMARK    2  A    between atoms: C4_4  and  C5_5 
REMARK    3  A    between atoms: C7_10  and  C8_11 
REMARK    4  A    between atoms: C12_18  and  C13_19 
REMARK    5  A    between atoms: C13_19  and  C14_20 
REMARK    6  A    between atoms: C17_25  and  O3_26 
REMARK    7  A    between atoms: C21_31  and  C22_32 
REMARK    8  A    between atoms: C22_32  and  C24_34 
REMARK    9  A    between atoms: C24_34  and  N4_35 
REMARK       I    between atoms: N4_35  and  C25_37 
REMARK   10  A    between atoms: C25_37  and  C26_39 
REMARK   11  A    between atoms: C26_39  and  C27_40 
REMARK   12  A    between atoms: C27_40  and  N5_41 
REMARK   13  A    between atoms: C30_49  and  C31_50 
REMARK   14  A    between atoms: C31_50  and  C32_51 
ROOT
HETATM    1  C5  UNL     1      -2.951  -1.724  -0.114  1.00  0.00     0.177 C 
HETATM    2  N1  UNL     1      -4.151  -1.045  -0.502  1.00  0.00    -0.346 N 
ATOM      3  H1  UNL     1      -4.749  -1.550  -1.156  1.00  0.00     0.163 HD
HETATM    4  C6  UNL     1      -4.620   0.217  -0.109  1.00  0.00     0.241 C 
HETATM    5  O1  UNL     1      -5.781   0.370   0.424  1.00  0.00    -0.271 OA
HETATM    6  C7  UNL     1      -3.880   1.535  -0.241  1.00  0.00     0.180 C 
HETATM    7  N2  UNL     1      -3.258   1.763   1.036  1.00  0.00    -0.346 N 
ATOM      8  H2  UNL     1      -3.369   1.005   1.709  1.00  0.00     0.163 HD
HETATM    9  C11 UNL     1      -2.526   2.860   1.499  1.00  0.00     0.241 C 
HETATM   10  O2  UNL     1      -2.942   3.477   2.552  1.00  0.00    -0.271 OA
HETATM   11  C12 UNL     1      -1.262   3.430   0.900  1.00  0.00     0.175 C 
HETATM   12  N3  UNL     1      -0.132   2.591   1.303  1.00  0.00    -0.360 N 
ATOM     13  H3  UNL     1       0.343   2.895   2.153  1.00  0.00     0.162 HD
HETATM   14  C17 UNL     1       0.395   1.457   0.721  1.00  0.00     0.126 C 
HETATM   15  C18 UNL     1       1.084   1.225  -0.570  1.00  0.00     0.056 C 
HETATM   16  C19 UNL     1       1.679   2.477  -1.076  1.00  0.00     0.030 C 
HETATM   17  C20 UNL     1      -0.051   0.951  -1.593  1.00  0.00     0.030 C 
HETATM   18  C21 UNL     1       1.934   0.000  -0.604  1.00  0.00     0.013 C 
HETATM   19  N6  UNL     1       1.693  -0.861  -1.768  1.00  0.00    -0.326 N 
HETATM   20  C28 UNL     1       2.561  -0.681  -2.944  1.00  0.00     0.159 C 
HETATM   21  C29 UNL     1       0.717  -1.854  -1.879  1.00  0.00     0.246 C 
HETATM   22  O5  UNL     1       0.268  -2.085  -3.056  1.00  0.00    -0.271 OA
HETATM   23  C30 UNL     1       0.130  -2.686  -0.788  1.00  0.00     0.177 C 
HETATM   24  N7  UNL     1      -1.161  -3.157  -1.264  1.00  0.00    -0.346 N 
ATOM     25  H7  UNL     1      -1.187  -4.113  -1.620  1.00  0.00     0.163 HD
HETATM   26  C35 UNL     1      -2.359  -2.463  -1.292  1.00  0.00     0.241 C 
HETATM   27  O6  UNL     1      -3.045  -2.415  -2.360  1.00  0.00    -0.271 OA
ENDROOT
BRANCH  18  28
HETATM   28  C22 UNL     1       3.319   0.010  -0.133  1.00  0.00     0.046 C 
HETATM   29  C23 UNL     1       3.360   0.403   1.361  1.00  0.00     0.018 C 
BRANCH  28  30
HETATM   30  C24 UNL     1       4.389   0.767  -0.776  1.00  0.00     0.132 C 
BRANCH  30  31
HETATM   31  N4  UNL     1       5.661   0.571  -0.100  1.00  0.00    -0.360 N 
HETATM   32  C25 UNL     1       6.354  -0.617   0.061  1.00  0.00     0.219 C 
HETATM   33  O4  UNL     1       5.930  -1.696  -0.390  1.00  0.00    -0.274 OA
ATOM     34  H4  UNL     1       6.092   1.404   0.302  1.00  0.00     0.162 HD
BRANCH  32  35
HETATM   35  C26 UNL     1       7.641  -0.635   0.786  1.00  0.00     0.130 C 
BRANCH  35  36
HETATM   36  C27 UNL     1       8.238  -2.019   0.853  1.00  0.00     0.238 C 
BRANCH  36  37
HETATM   37  N5  UNL     1       8.499  -2.577  -0.447  1.00  0.00    -0.079 N 
ATOM     38  H53 UNL     1       7.657  -2.570  -1.023  1.00  0.00     0.274 HD
ATOM     39  H52 UNL     1       9.085  -1.953  -1.002  1.00  0.00     0.274 HD
ATOM     40  H51 UNL     1       8.903  -3.513  -0.402  1.00  0.00     0.274 HD
ENDBRANCH  36  37
ENDBRANCH  35  36
ENDBRANCH  32  35
ENDBRANCH  30  31
ENDBRANCH  28  30
ENDBRANCH  18  28
BRANCH  14  41
HETATM   41  O3  UNL     1       0.268   0.371   1.442  1.00  0.00    -0.349 OA
ATOM     42  H3  UNL     1       0.631  -0.410   1.041  1.00  0.00     0.219 HD
ENDBRANCH  14  41
BRANCH  23  43
HETATM   43  C31 UNL     1       1.114  -3.762  -0.522  1.00  0.00     0.038 C 
BRANCH  43  44
HETATM   44  C32 UNL     1       0.821  -4.749   0.533  1.00  0.00    -0.020 C 
HETATM   45  C33 UNL     1       0.643  -4.148   1.911  1.00  0.00     0.009 C 
HETATM   46  C34 UNL     1      -0.236  -5.774   0.201  1.00  0.00     0.009 C 
ENDBRANCH  43  44
ENDBRANCH  23  43
BRANCH  11  47
HETATM   47  C13 UNL     1      -1.119   4.824   1.506  1.00  0.00     0.038 C 
BRANCH  47  48
HETATM   48  C14 UNL     1       0.059   5.601   1.035  1.00  0.00    -0.020 C 
HETATM   49  C15 UNL     1       0.032   6.934   1.791  1.00  0.00     0.009 C 
HETATM   50  C16 UNL     1      -0.006   5.900  -0.457  1.00  0.00     0.009 C 
ENDBRANCH  47  48
ENDBRANCH  11  47
BRANCH   1  51
HETATM   51  C4  UNL     1      -3.215  -2.666   1.017  1.00  0.00     0.038 C 
BRANCH  51  52
HETATM   52  C2  UNL     1      -4.155  -3.775   0.817  1.00  0.00    -0.020 C 
HETATM   53  C1  UNL     1      -5.571  -3.468   0.475  1.00  0.00     0.009 C 
HETATM   54  C3  UNL     1      -4.198  -4.563   2.146  1.00  0.00     0.009 C 
ENDBRANCH  51  52
ENDBRANCH   1  51
BRANCH   6  55
HETATM   55  C8  UNL     1      -4.896   2.606  -0.593  1.00  0.00     0.009 C 
HETATM   56  C9  UNL     1      -4.356   3.974  -0.776  1.00  0.00     0.012 C 
HETATM   57  C10 UNL     1      -5.726   2.243  -1.787  1.00  0.00     0.012 C 
ENDBRANCH   6  55
TORSDOF 14
