REMARK  16 active torsions:
REMARK  status: ('A' for Active; 'I' for Inactive)
REMARK    1  A    between atoms: N1_2  and  C2_5 
REMARK    2  A    between atoms: C2_5  and  C3_6 
REMARK    3  A    between atoms: C3_6  and  C4_7 
REMARK    4  A    between atoms: C4_7  and  C5_8 
REMARK    5  A    between atoms: C5_8  and  C6_9 
REMARK    6  A    between atoms: C6_9  and  N2_10 
REMARK       I    between atoms: N2_10  and  C7_12 
REMARK       I    between atoms: C7_12  and  N3_14 
REMARK    7  A    between atoms: C8_15  and  O2_16 
REMARK    8  A    between atoms: C13_27  and  C14_28 
REMARK    9  A    between atoms: C14_28  and  C15_29 
REMARK   10  A    between atoms: C18_32  and  O4_33 
REMARK   11  A    between atoms: C19_37  and  C20_38 
REMARK   12  A    between atoms: C20_38  and  C21_39 
REMARK   13  A    between atoms: C24_42  and  O5_43 
REMARK   14  A    between atoms: C25_47  and  C26_48 
REMARK   15  A    between atoms: C26_48  and  C27_49 
REMARK   16  A    between atoms: C30_52  and  O6_53 
ROOT
HETATM    1  N2  UNL     1       3.446   0.436   0.240  1.00  0.00    -0.343 N 
ATOM      2  H2  UNL     1       2.730   0.964   0.739  1.00  0.00     0.164 HD
HETATM    3  C7  UNL     1       3.030  -0.521  -0.701  1.00  0.00     0.327 C 
HETATM    4  O1  UNL     1       3.919  -1.182  -1.341  1.00  0.00    -0.247 OA
HETATM    5  N3  UNL     1       1.673  -0.838  -1.021  1.00  0.00    -0.238 N 
HETATM    6  C8  UNL     1       0.653  -0.176  -0.284  1.00  0.00     0.226 C 
HETATM    7  N4  UNL     1      -0.406   0.656  -0.666  1.00  0.00    -0.339 N 
ATOM      8  H4  UNL     1      -1.284   0.157  -0.808  1.00  0.00     0.164 HD
HETATM    9  C9  UNL     1      -0.508   2.081  -0.900  1.00  0.00     0.107 C 
HETATM   10  C10 UNL     1      -1.358   2.337  -2.100  1.00  0.00     0.048 C 
HETATM   11  C11 UNL     1       0.836   2.689  -1.281  1.00  0.00     0.048 C 
HETATM   12  C12 UNL     1      -1.043   2.766   0.337  1.00  0.00     0.249 C 
HETATM   13  O3  UNL     1      -0.198   3.564   0.845  1.00  0.00    -0.270 OA
HETATM   14  N5  UNL     1      -2.277   2.636   0.956  1.00  0.00    -0.325 N 
ATOM     15  H5  UNL     1      -2.196   2.226   1.887  1.00  0.00     0.169 HD
HETATM   16  C13 UNL     1      -3.620   2.929   0.621  1.00  0.00     0.063 C 
HETATM   17  C18 UNL     1      -4.469   1.908   0.003  1.00  0.00     0.163 C 
HETATM   18  N6  UNL     1      -4.402   0.598  -0.370  1.00  0.00    -0.335 N 
ATOM     19  H6  UNL     1      -4.575   0.528  -1.373  1.00  0.00     0.168 HD
HETATM   20  C19 UNL     1      -4.176  -0.696   0.149  1.00  0.00     0.062 C 
HETATM   21  C24 UNL     1      -3.877  -1.692  -0.903  1.00  0.00     0.160 C 
HETATM   22  N7  UNL     1      -3.113  -2.845  -0.936  1.00  0.00    -0.354 N 
ATOM     23  H7  UNL     1      -3.630  -3.697  -1.153  1.00  0.00     0.162 HD
HETATM   24  C25 UNL     1      -1.662  -3.036  -0.705  1.00  0.00     0.181 C 
HETATM   25  C30 UNL     1      -1.003  -2.774  -1.985  1.00  0.00     0.142 C 
HETATM   26  N8  UNL     1       0.034  -1.953  -2.441  1.00  0.00    -0.341 N 
HETATM   27  C31 UNL     1      -0.278  -1.021  -3.560  1.00  0.00     0.154 C 
HETATM   28  C32 UNL     1       1.425  -1.861  -2.038  1.00  0.00     0.114 C 
HETATM   29  C33 UNL     1       2.297  -1.494  -3.241  1.00  0.00     0.064 C 
HETATM   30  C34 UNL     1       1.991  -3.203  -1.584  1.00  0.00     0.064 C 
ENDROOT
BRANCH   6  31
HETATM   31  O2  UNL     1       0.770  -0.437   1.021  1.00  0.00    -0.332 OA
ATOM     32  H2  UNL     1       0.089   0.005   1.513  1.00  0.00     0.220 HD
ENDBRANCH   6  31
BRANCH   1  33
HETATM   33  C6  UNL     1       4.808   0.709   0.535  1.00  0.00     0.124 C 
BRANCH  33  34
HETATM   34  C5  UNL     1       5.506  -0.467   1.104  1.00  0.00     0.020 C 
BRANCH  34  35
HETATM   35  C4  UNL     1       6.958  -0.190   1.440  1.00  0.00     0.003 C 
BRANCH  35  36
HETATM   36  C3  UNL     1       7.758   0.221   0.252  1.00  0.00     0.027 C 
BRANCH  36  37
HETATM   37  C2  UNL     1       9.192   0.485   0.657  1.00  0.00     0.231 C 
BRANCH  37  38
HETATM   38  N1  UNL     1       9.279   1.546   1.644  1.00  0.00    -0.079 N 
HETATM   39  C1  UNL     1       8.915   2.830   1.090  1.00  0.00     0.266 C 
ATOM     40  H12 UNL     1      10.203   1.577   2.074  1.00  0.00     0.276 HD
ATOM     41  H11 UNL     1       8.724   1.329   2.472  1.00  0.00     0.276 HD
ENDBRANCH  37  38
ENDBRANCH  36  37
ENDBRANCH  35  36
ENDBRANCH  34  35
ENDBRANCH  33  34
ENDBRANCH   1  33
BRANCH  25  42
HETATM   42  O6  UNL     1      -1.543  -3.504  -2.940  1.00  0.00    -0.348 OA
ATOM     43  H6  UNL     1      -1.115  -3.334  -3.771  1.00  0.00     0.219 HD
ENDBRANCH  25  42
BRANCH  24  44
HETATM   44  C26 UNL     1      -1.337  -4.224   0.071  1.00  0.00     0.008 C 
BRANCH  44  45
HETATM   45  C27 UNL     1      -1.658  -5.600  -0.266  1.00  0.00    -0.089 C 
HETATM   46  C28 UNL     1      -1.132  -6.195  -1.533  1.00  0.00     0.042 C 
HETATM   47  C29 UNL     1      -3.088  -6.052  -0.026  1.00  0.00     0.042 C 
ENDBRANCH  44  45
ENDBRANCH  24  44
BRANCH  16  48
HETATM   48  C14 UNL     1      -3.834   4.292  -0.026  1.00  0.00     0.065 C 
BRANCH  48  49
HETATM   49  C15 UNL     1      -3.403   5.398   0.888  1.00  0.00    -0.017 C 
HETATM   50  C16 UNL     1      -4.177   5.391   2.192  1.00  0.00     0.010 C 
HETATM   51  C17 UNL     1      -3.717   6.755   0.243  1.00  0.00     0.010 C 
ENDBRANCH  48  49
ENDBRANCH  16  48
BRANCH  21  52
HETATM   52  O5  UNL     1      -4.481  -1.393  -2.022  1.00  0.00    -0.345 OA
ATOM     53  H5  UNL     1      -4.289  -2.033  -2.698  1.00  0.00     0.219 HD
ENDBRANCH  21  52
BRANCH  17  54
HETATM   54  O4  UNL     1      -5.644   2.460  -0.259  1.00  0.00    -0.345 OA
ATOM     55  H4  UNL     1      -6.195   1.798  -0.660  1.00  0.00     0.219 HD
ENDBRANCH  17  54
BRANCH  20  56
HETATM   56  C20 UNL     1      -3.443  -0.913   1.397  1.00  0.00     0.065 C 
BRANCH  56  57
HETATM   57  C21 UNL     1      -3.980  -0.366   2.659  1.00  0.00    -0.017 C 
HETATM   58  C22 UNL     1      -5.332  -0.848   3.064  1.00  0.00     0.010 C 
HETATM   59  C23 UNL     1      -3.022  -0.847   3.772  1.00  0.00     0.010 C 
ENDBRANCH  56  57
ENDBRANCH  20  56
TORSDOF 16
