REMARK  7 active torsions:
REMARK  status: ('A' for Active; 'I' for Inactive)
REMARK    1  A    between atoms: C2_2  and  O1_3 
REMARK    2  A    between atoms: O1_3  and  C3_4 
REMARK    3  A    between atoms: C3_4  and  C4_6 
REMARK    4  A    between atoms: C5_8  and  N1_9 
REMARK    5  A    between atoms: N1_9  and  C6_11 
REMARK    6  A    between atoms: C6_11  and  N2_13 
REMARK    7  A    between atoms: N2_13  and  C7_15 
ROOT
HETATM    1  C4  UNL     1       3.032  -0.404  -0.032  1.00  0.00     0.122 A 
HETATM    2  S1  UNL     1       1.394   0.037  -0.210  1.00  0.00    -0.045 SA
HETATM    3  C5  UNL     1       0.779  -1.480  -0.689  1.00  0.00     0.152 A 
HETATM    4  N3  UNL     1       1.862  -2.254  -0.690  1.00  0.00    -0.326 N 
ATOM      5  H3  UNL     1       1.795  -3.240  -0.944  1.00  0.00     0.169 HD
HETATM    6  C12 UNL     1       3.008  -1.732  -0.362  1.00  0.00     0.129 A 
HETATM    7 CL1  UNL     1       4.535  -2.663  -0.325  1.00  0.00    -0.063 Cl
ENDROOT
BRANCH   3   8
HETATM    8  N1  UNL     1      -0.456  -1.829  -0.990  1.00  0.00    -0.313 N 
ATOM      9  H1  UNL     1      -0.674  -2.787  -1.264  1.00  0.00     0.170 HD
BRANCH   8  10
HETATM   10  C6  UNL     1      -1.477  -0.845  -0.926  1.00  0.00     0.173 C 
HETATM   11  S2  UNL     1      -1.089   0.687  -1.327  1.00  0.00    -0.041 SA
BRANCH  10  12
HETATM   12  N2  UNL     1      -2.799  -1.182  -0.526  1.00  0.00    -0.362 N 
ATOM     13  H2  UNL     1      -2.996  -2.153  -0.285  1.00  0.00     0.162 HD
BRANCH  12  14
HETATM   14  C7  UNL     1      -3.868  -0.237  -0.443  1.00  0.00     0.083 C 
HETATM   15  C8  UNL     1      -5.128  -0.937   0.013  1.00  0.00     0.025 C 
HETATM   16  C9  UNL     1      -6.025   0.267   0.329  1.00  0.00     0.002 C 
HETATM   17  C10 UNL     1      -5.083   1.310   0.863  1.00  0.00     0.002 C 
HETATM   18  C11 UNL     1      -3.677   0.800   0.631  1.00  0.00     0.025 C 
ENDBRANCH  12  14
ENDBRANCH  10  12
ENDBRANCH   8  10
ENDBRANCH   3   8
BRANCH   1  19
HETATM   19  C3  UNL     1       4.177   0.441   0.374  1.00  0.00     0.303 C 
HETATM   20  O2  UNL     1       3.978   1.654   0.637  1.00  0.00    -0.259 OA
BRANCH  19  21
HETATM   21  O1  UNL     1       5.444  -0.057   0.473  1.00  0.00    -0.317 OA
BRANCH  21  22
HETATM   22  C2  UNL     1       6.553   0.747   0.863  1.00  0.00     0.174 C 
HETATM   23  C1  UNL     1       6.726   1.885  -0.110  1.00  0.00     0.034 C 
ENDBRANCH  21  22
ENDBRANCH  19  21
ENDBRANCH   1  19
TORSDOF 7
