REMARK  13 active torsions:
REMARK  status: ('A' for Active; 'I' for Inactive)
REMARK    1  A    between atoms: C1_2  and  C2_3 
REMARK       I    between atoms: C1_2  and  N7_29 
REMARK    2  A    between atoms: C2_3  and  N1_4 
REMARK    3  A    between atoms: C3_7  and  C4_8 
REMARK    4  A    between atoms: C12_16  and  N3_17 
REMARK    5  A    between atoms: N3_17  and  C13_19 
REMARK    6  A    between atoms: C13_19  and  C14_20 
REMARK    7  A    between atoms: C14_20  and  C15_21 
REMARK    8  A    between atoms: C15_21  and  N4_22 
REMARK    9  A    between atoms: N7_29  and  C18_31 
REMARK   10  A    between atoms: C18_31  and  C19_32 
REMARK   11  A    between atoms: C19_32  and  C20_33 
REMARK   12  A    between atoms: C20_33  and  O3_35 
REMARK   13  A    between atoms: O3_35  and  C21_36 
ROOT
HETATM    1  N1  UNL     1      -1.750  -0.405  -0.230  1.00  0.00    -0.268 N 
HETATM    2  N2  UNL     1      -2.118  -1.665  -0.115  1.00  0.00    -0.296 N 
ATOM      3  H2  UNL     1      -1.725  -2.348  -0.762  1.00  0.00     0.187 HD
HETATM    4  C3  UNL     1      -2.987  -2.090   0.815  1.00  0.00     0.058 A 
HETATM    5  C10 UNL     1      -3.482  -1.122   1.657  1.00  0.00     0.035 A 
HETATM    6  C11 UNL     1      -3.108   0.220   1.555  1.00  0.00     0.052 A 
HETATM    7  C12 UNL     1      -2.220   0.590   0.588  1.00  0.00     0.118 A 
ENDROOT
BRANCH   1   8
HETATM    8  C2  UNL     1      -0.809  -0.044  -1.262  1.00  0.00     0.253 C 
BRANCH   8   9
HETATM    9  C1  UNL     1       0.597  -0.130  -0.788  1.00  0.00     0.237 C 
HETATM   10  O1  UNL     1       0.786  -0.487   0.389  1.00  0.00    -0.272 OA
HETATM   11  N7  UNL     1       1.665   0.179  -1.636  1.00  0.00    -0.359 N 
ATOM     12  H7  UNL     1       1.471   0.470  -2.594  1.00  0.00     0.162 HD
BRANCH  11  13
HETATM   13  C18 UNL     1       3.018   0.097  -1.195  1.00  0.00     0.132 C 
BRANCH  13  14
HETATM   14  C19 UNL     1       3.461  -1.266  -0.765  1.00  0.00     0.131 C 
BRANCH  14  15
HETATM   15  C20 UNL     1       4.902  -1.195  -0.341  1.00  0.00     0.265 C 
HETATM   16  O2  UNL     1       5.518  -2.193   0.064  1.00  0.00    -0.265 OA
BRANCH  15  17
HETATM   17  O3  UNL     1       5.585   0.011  -0.394  1.00  0.00    -0.279 OA
BRANCH  17  18
HETATM   18  C21 UNL     1       6.919   0.078  -0.002  1.00  0.00     0.079 A 
HETATM   19  C22 UNL     1       7.906  -0.134  -0.937  1.00  0.00     0.039 A 
HETATM   20  C23 UNL     1       9.261  -0.082  -0.614  1.00  0.00     0.026 A 
HETATM   21  C24 UNL     1       9.645   0.192   0.693  1.00  0.00     0.034 A 
HETATM   22 CL1  UNL     1      11.353   0.260   1.115  1.00  0.00    -0.084 Cl
HETATM   23  C25 UNL     1       8.649   0.402   1.618  1.00  0.00     0.026 A 
HETATM   24  C26 UNL     1       7.309   0.349   1.293  1.00  0.00     0.039 A 
ENDBRANCH  17  18
ENDBRANCH  15  17
ENDBRANCH  14  15
ENDBRANCH  13  14
ENDBRANCH  11  13
ENDBRANCH   8   9
ENDBRANCH   1   8
BRANCH   7  25
HETATM   25  N3  UNL     1      -1.813   1.791   0.410  1.00  0.00    -0.375 N 
ATOM     26  H3  UNL     1      -1.149   1.908  -0.355  1.00  0.00     0.161 HD
BRANCH  25  27
HETATM   27  C13 UNL     1      -2.134   2.975   1.099  1.00  0.00     0.123 C 
BRANCH  27  28
HETATM   28  C14 UNL     1      -2.865   3.970   0.179  1.00  0.00     0.041 C 
BRANCH  28  29
HETATM   29  C15 UNL     1      -4.112   3.274  -0.275  1.00  0.00     0.151 C 
BRANCH  29  30
HETATM   30  N4  UNL     1      -4.921   4.093  -1.163  1.00  0.00    -0.287 N 
HETATM   31  C16 UNL     1      -4.764   4.086  -2.500  1.00  0.00     0.201 A 
HETATM   32  N5  UNL     1      -5.636   4.927  -3.034  1.00  0.00    -0.346 N 
HETATM   33  C17 UNL     1      -6.335   5.457  -2.026  1.00  0.00     0.198 A 
ATOM     34  H5  UNL     1      -5.752   5.132  -4.027  1.00  0.00     0.167 HD
HETATM   35  N6  UNL     1      -5.880   4.931  -0.882  1.00  0.00    -0.293 N 
ATOM     36  H6  UNL     1      -6.225   5.149   0.053  1.00  0.00     0.188 HD
ENDBRANCH  29  30
ENDBRANCH  28  29
ENDBRANCH  27  28
ENDBRANCH  25  27
ENDBRANCH   7  25
BRANCH   4  37
HETATM   37  C4  UNL     1      -3.335  -3.499   0.869  1.00  0.00    -0.008 A 
HETATM   38  C5  UNL     1      -2.774  -4.381  -0.029  1.00  0.00     0.014 A 
HETATM   39  C6  UNL     1      -3.089  -5.725   0.001  1.00  0.00     0.001 A 
HETATM   40  C7  UNL     1      -3.972  -6.255   0.920  1.00  0.00     0.000 A 
HETATM   41  C8  UNL     1      -4.539  -5.382   1.823  1.00  0.00     0.001 A 
HETATM   42  C9  UNL     1      -4.216  -4.021   1.787  1.00  0.00     0.014 A 
ENDBRANCH   4  37
TORSDOF 13
