REMARK  12 active torsions:
REMARK  status: ('A' for Active; 'I' for Inactive)
REMARK    1  A    between atoms: C2_2  and  C3_3 
REMARK    2  A    between atoms: C3_3  and  C4_4 
REMARK    3  A    between atoms: C4_4  and  N1_5 
REMARK    4  A    between atoms: C6_8  and  N3_9 
REMARK    5  A    between atoms: N3_9  and  C7_10 
REMARK       I    between atoms: N3_9  and  C14_17 
REMARK    6  A    between atoms: C7_10  and  C8_11 
REMARK    7  A    between atoms: C14_17  and  C15_19 
REMARK    8  A    between atoms: C15_19  and  O2_20 
REMARK    9  A    between atoms: O2_20  and  C16_21 
REMARK   10  A    between atoms: C16_21  and  C17_23 
REMARK   11  A    between atoms: C17_23  and  O4_24 
REMARK   12  A    between atoms: O4_24  and  C18_25 
ROOT
HETATM    1  N3  UNL     1      -0.969   1.050  -0.174  1.00  0.00    -0.282 N 
HETATM    2  C14 UNL     1       0.402   0.623  -0.386  1.00  0.00     0.253 C 
HETATM    3  O1  UNL     1       0.805  -0.460   0.106  1.00  0.00    -0.270 OA
ENDROOT
BRANCH   1   4
HETATM    4  C6  UNL     1      -1.832   0.179   0.525  1.00  0.00     0.152 A 
HETATM    5  C5  UNL     1      -2.853  -0.468  -0.124  1.00  0.00     0.155 A 
HETATM    6  N1  UNL     1      -3.700  -1.314   0.514  1.00  0.00    -0.285 N 
HETATM    7  N2  UNL     1      -3.052  -0.295  -1.518  1.00  0.00    -0.080 NA
HETATM    8  C25 UNL     1      -3.531  -1.524   1.825  1.00  0.00     0.330 A 
HETATM    9  N4  UNL     1      -2.541  -0.902   2.467  1.00  0.00    -0.273 N 
HETATM   10  O6  UNL     1      -4.308  -2.316   2.472  1.00  0.00    -0.246 OA
HETATM   11  C24 UNL     1      -1.672  -0.045   1.857  1.00  0.00     0.280 A 
ATOM     12  H4  UNL     1      -2.428  -1.076   3.466  1.00  0.00     0.173 HD
HETATM   13  O5  UNL     1      -0.756   0.493   2.575  1.00  0.00    -0.265 OA
BRANCH   6  14
HETATM   14  C4  UNL     1      -4.765  -1.981  -0.204  1.00  0.00     0.135 C 
BRANCH  14  15
HETATM   15  C3  UNL     1      -4.264  -3.324  -0.756  1.00  0.00     0.020 C 
BRANCH  15  16
HETATM   16  C2  UNL     1      -5.380  -4.009  -1.507  1.00  0.00    -0.003 C 
HETATM   17  C1  UNL     1      -6.562  -4.276  -0.639  1.00  0.00     0.005 C 
ENDBRANCH  15  16
ENDBRANCH  14  15
ENDBRANCH   6  14
ENDBRANCH   1   4
BRANCH   1  18
HETATM   18  C7  UNL     1      -1.489   2.288  -0.670  1.00  0.00     0.112 C 
BRANCH  18  19
HETATM   19  C8  UNL     1      -1.421   3.473   0.158  1.00  0.00    -0.020 A 
HETATM   20  C9  UNL     1      -2.352   4.500  -0.065  1.00  0.00     0.013 A 
HETATM   21  C10 UNL     1      -2.337   5.654   0.683  1.00  0.00     0.001 A 
HETATM   22  C11 UNL     1      -1.412   5.839   1.671  1.00  0.00     0.000 A 
HETATM   23  C12 UNL     1      -0.488   4.850   1.910  1.00  0.00     0.001 A 
HETATM   24  C13 UNL     1      -0.518   3.685   1.141  1.00  0.00     0.013 A 
ENDBRANCH  18  19
ENDBRANCH   1  18
BRANCH   2  25
HETATM   25  C15 UNL     1       1.366   1.419  -1.179  1.00  0.00     0.282 C 
BRANCH  25  26
HETATM   26  O2  UNL     1       2.631   0.840  -1.317  1.00  0.00    -0.310 OA
BRANCH  26  27
HETATM   27  C16 UNL     1       3.457   0.607  -0.253  1.00  0.00     0.283 C 
HETATM   28  O3  UNL     1       3.129   0.906   0.910  1.00  0.00    -0.263 OA
BRANCH  27  29
HETATM   29  C17 UNL     1       4.805  -0.022  -0.420  1.00  0.00     0.286 C 
BRANCH  29  30
HETATM   30  O4  UNL     1       5.489  -0.186   0.794  1.00  0.00    -0.340 OA
BRANCH  30  31
HETATM   31  C18 UNL     1       6.767  -0.770   0.704  1.00  0.00     0.091 A 
HETATM   32  C19 UNL     1       7.303  -1.153  -0.509  1.00  0.00     0.038 A 
HETATM   33  C20 UNL     1       8.544  -1.714  -0.542  1.00  0.00     0.003 A 
HETATM   34  C21 UNL     1       9.308  -1.927   0.581  1.00  0.00     0.002 A 
HETATM   35  C22 UNL     1       8.750  -1.535   1.790  1.00  0.00     0.026 A 
HETATM   36  C23 UNL     1       7.495  -0.963   1.855  1.00  0.00     0.067 A 
HETATM   37 CL1  UNL     1       6.821  -0.478   3.423  1.00  0.00    -0.081 Cl
ENDBRANCH  30  31
ENDBRANCH  29  30
ENDBRANCH  27  29
ENDBRANCH  26  27
ENDBRANCH  25  26
ENDBRANCH   2  25
TORSDOF 12
