REMARK  12 active torsions:
REMARK  status: ('A' for Active; 'I' for Inactive)
REMARK    1  A    between atoms: O1_2  and  N1_3 
REMARK       I    between atoms: N1_3  and  C3_5 
REMARK    2  A    between atoms: C3_5  and  C4_7 
REMARK    3  A    between atoms: C4_7  and  S1_8 
REMARK    4  A    between atoms: C4_7  and  C17_27 
REMARK    5  A    between atoms: S1_8  and  C5_9 
REMARK    6  A    between atoms: C5_9  and  C6_10 
REMARK       I    between atoms: C6_10  and  N2_12 
REMARK    7  A    between atoms: N2_12  and  C7_14 
REMARK    8  A    between atoms: C7_14  and  C8_15 
REMARK    9  A    between atoms: C7_14  and  C15_24 
REMARK   10  A    between atoms: C8_15  and  O4_16 
REMARK   11  A    between atoms: O4_16  and  C9_17 
REMARK   12  A    between atoms: C20_30  and  N3_31 
ROOT
HETATM    1  C5  UNL     1      -0.786  -2.430   0.221  1.00  0.00     0.177 C 
ENDROOT
BRANCH   1   2
HETATM    2  S1  UNL     1      -1.867  -1.295   1.056  1.00  0.00    -0.141 SA
BRANCH   2   3
HETATM    3  C4  UNL     1      -2.728  -0.178  -0.093  1.00  0.00     0.174 C 
BRANCH   3   4
HETATM    4  C3  UNL     1      -3.609  -0.968  -0.983  1.00  0.00     0.261 C 
HETATM    5  N1  UNL     1      -4.379  -0.415  -2.029  1.00  0.00    -0.230 N 
HETATM    6  C2  UNL     1      -4.451   0.976  -2.390  1.00  0.00     0.189 C 
HETATM    7  O2  UNL     1      -3.676  -2.218  -0.796  1.00  0.00    -0.270 OA
BRANCH   5   8
HETATM    8  O1  UNL     1      -5.135  -1.258  -2.791  1.00  0.00    -0.281 OA
HETATM    9  C1  UNL     1      -6.404  -1.464  -2.320  1.00  0.00     0.238 C 
ENDBRANCH   5   8
ENDBRANCH   3   4
BRANCH   3  10
HETATM   10  C17 UNL     1      -3.515   0.824   0.716  1.00  0.00    -0.035 A 
HETATM   11  C18 UNL     1      -4.635   0.422   1.417  1.00  0.00     0.011 A 
HETATM   12  C19 UNL     1      -5.361   1.320   2.167  1.00  0.00     0.037 A 
HETATM   13  C20 UNL     1      -5.023   2.652   2.265  1.00  0.00     0.102 A 
HETATM   14  C21 UNL     1      -3.905   3.057   1.566  1.00  0.00     0.037 A 
HETATM   15  C22 UNL     1      -3.161   2.155   0.802  1.00  0.00     0.011 A 
BRANCH  13  16
HETATM   16  N3  UNL     1      -5.790   3.568   3.043  1.00  0.00    -0.116 N 
HETATM   17  O6  UNL     1      -6.797   3.199   3.676  1.00  0.00    -0.532 OA
HETATM   18  O7  UNL     1      -5.415   4.871   3.099  1.00  0.00    -0.532 OA
ENDBRANCH  13  16
ENDBRANCH   3  10
ENDBRANCH   2   3
ENDBRANCH   1   2
BRANCH   1  19
HETATM   19  C6  UNL     1       0.389  -1.862  -0.456  1.00  0.00     0.227 C 
HETATM   20  O3  UNL     1       0.274  -1.248  -1.547  1.00  0.00    -0.273 OA
HETATM   21  N2  UNL     1       1.673  -2.003   0.103  1.00  0.00    -0.347 N 
ATOM     22  H2  UNL     1       1.787  -2.484   0.995  1.00  0.00     0.163 HD
BRANCH  21  23
HETATM   23  C7  UNL     1       2.826  -1.474  -0.575  1.00  0.00     0.178 C 
BRANCH  23  24
HETATM   24  C8  UNL     1       3.773  -0.672   0.251  1.00  0.00     0.208 C 
BRANCH  24  25
HETATM   25  O4  UNL     1       4.809  -0.231  -0.564  1.00  0.00    -0.349 OA
BRANCH  25  26
HETATM   26  C9  UNL     1       5.865   0.515  -0.124  1.00  0.00     0.069 A 
HETATM   27  C10 UNL     1       5.979   0.894   1.186  1.00  0.00     0.038 A 
HETATM   28  C11 UNL     1       7.077   1.650   1.588  1.00  0.00     0.026 A 
HETATM   29  C12 UNL     1       8.014   1.993   0.642  1.00  0.00     0.034 A 
HETATM   30 CL1  UNL     1       9.412   2.949   1.113  1.00  0.00    -0.084 Cl
HETATM   31  C13 UNL     1       7.910   1.617  -0.682  1.00  0.00     0.026 A 
HETATM   32  C14 UNL     1       6.828   0.873  -1.064  1.00  0.00     0.038 A 
ENDBRANCH  25  26
ENDBRANCH  24  25
ENDBRANCH  23  24
BRANCH  23  33
HETATM   33  C15 UNL     1       3.468  -2.663  -1.233  1.00  0.00     0.147 C 
HETATM   34  C16 UNL     1       4.904  -2.658  -1.538  1.00  0.00     0.093 C 
HETATM   35  O5  UNL     1       2.810  -3.661  -1.527  1.00  0.00    -0.296 OA
ENDBRANCH  23  33
ENDBRANCH  21  23
ENDBRANCH   1  19
TORSDOF 12
