REMARK  4 active torsions:
REMARK  status: ('A' for Active; 'I' for Inactive)
REMARK    1  A    between atoms: C2_2  and  C3_3 
REMARK    2  A    between atoms: C3_3  and  C4_4 
REMARK       I    between atoms: N1_6  and  C6_7 
REMARK    3  A    between atoms: C6_7  and  C7_9 
REMARK    4  A    between atoms: C7_9  and  C8_13 
ROOT
HETATM    1  C4  UNL     1       2.209   0.880  -0.017  1.00  0.00     0.204 C 
HETATM    2  C5  UNL     1       0.777   0.816   0.454  1.00  0.00     0.159 C 
HETATM    3  N1  UNL     1      -0.177   0.378  -0.497  1.00  0.00    -0.343 N 
HETATM    4  C6  UNL     1      -1.535   0.237  -0.187  1.00  0.00     0.269 C 
HETATM    5  O1  UNL     1      -2.308  -0.174  -1.124  1.00  0.00    -0.266 OA
HETATM    6  C13 UNL     1       0.192   0.043  -1.887  1.00  0.00     0.153 C 
HETATM    7  C14 UNL     1       1.663  -0.269  -1.977  1.00  0.00     0.252 C 
HETATM    8  N3  UNL     1       2.356   0.879  -1.429  1.00  0.00    -0.068 N 
ATOM      9  H31 UNL     1       3.334   0.916  -1.717  1.00  0.00     0.277 HD
ATOM     10  H32 UNL     1       2.049   1.755  -1.851  1.00  0.00     0.277 HD
ENDROOT
BRANCH   4  11
HETATM   11  C7  UNL     1      -2.175   0.505   1.076  1.00  0.00     0.115 C 
HETATM   12  N2  UNL     1      -1.468   0.908   2.075  1.00  0.00    -0.395 N 
ATOM     13  H22 UNL     1      -0.467   0.999   1.900  1.00  0.00     0.156 HD
ATOM     14  H21 UNL     1      -1.921   1.098   2.969  1.00  0.00     0.156 HD
BRANCH  11  15
HETATM   15  C8  UNL     1      -3.613   0.374   1.327  1.00  0.00     0.172 A 
HETATM   16  F1  UNL     1      -3.992   1.036   2.453  1.00  0.00    -0.231 F 
HETATM   17  C9  UNL     1      -4.229  -0.781   1.025  1.00  0.00     0.047 A 
HETATM   18  C10 UNL     1      -4.797  -1.192   0.506  1.00  0.00     0.134 A 
HETATM   19  O2  UNL     1      -5.602  -1.100  -0.482  1.00  0.00    -0.363 OA
HETATM   20  C11 UNL     1      -5.297   0.455  -0.757  1.00  0.00     0.178 A 
HETATM   21  C12 UNL     1      -4.433   1.166   0.144  1.00  0.00     0.081 A 
ENDBRANCH  11  15
ENDBRANCH   4  11
BRANCH   1  22
HETATM   22  C3  UNL     1       3.003  -0.229   0.635  1.00  0.00     0.034 C 
BRANCH  22  23
HETATM   23  C2  UNL     1       4.444  -0.264   0.241  1.00  0.00    -0.002 C 
HETATM   24  C1  UNL     1       5.156  -1.415   0.959  1.00  0.00     0.005 C 
ENDBRANCH  22  23
ENDBRANCH   1  22
TORSDOF 4
