REMARK  4 active torsions:
REMARK  status: ('A' for Active; 'I' for Inactive)
REMARK    1  A    between atoms: C1_2  and  C2_4 
REMARK    2  A    between atoms: C4_6  and  C5_7 
REMARK    3  A    between atoms: C5_7  and  C6_8 
REMARK       I    between atoms: N2_12  and  C8_13 
REMARK    4  A    between atoms: C8_13  and  C9_15 
ROOT
HETATM    1  C2  UNL     1      -1.518   1.544  -0.188  1.00  0.00     0.176 C 
HETATM    2  C3  UNL     1      -2.569   0.495  -0.052  1.00  0.00     0.041 C 
HETATM    3  C4  UNL     1      -1.850  -0.628   0.642  1.00  0.00     0.016 C 
HETATM    4  C7  UNL     1      -0.468  -0.505  -0.023  1.00  0.00     0.132 C 
HETATM    5  N2  UNL     1      -0.228   0.919  -0.066  1.00  0.00    -0.338 N 
HETATM    6  C8  UNL     1       1.004   1.571   0.003  1.00  0.00     0.224 C 
HETATM    7  O4  UNL     1       0.956   2.864  -0.045  1.00  0.00    -0.273 OA
ENDROOT
BRANCH   1   8
HETATM    8  C1  UNL     1      -1.678   2.358  -1.412  1.00  0.00     0.254 C 
HETATM    9  N1  UNL     1      -0.759   2.515  -2.448  1.00  0.00    -0.060 NA
HETATM   10  O1  UNL     1      -2.787   2.977  -1.513  1.00  0.00    -0.275 OA
ENDBRANCH   1   8
BRANCH   6  11
HETATM   11  C9  UNL     1       2.335   1.018   0.121  1.00  0.00     0.081 C 
HETATM   12  C10 UNL     1       2.518   0.366   1.470  1.00  0.00     0.017 C 
HETATM   13  C11 UNL     1       3.266  -0.921   1.246  1.00  0.00     0.038 C 
HETATM   14  C12 UNL     1       3.887  -0.738  -0.111  1.00  0.00     0.171 C 
HETATM   15  F1  UNL     1       4.085  -1.966  -0.743  1.00  0.00    -0.249 F 
HETATM   16  C13 UNL     1       2.749  -0.029  -0.866  1.00  0.00     0.051 C 
ENDBRANCH   6  11
BRANCH   3  17
HETATM   17  C5  UNL     1      -2.368  -1.996   0.246  1.00  0.00     0.119 C 
BRANCH  17  18
HETATM   18  C6  UNL     1      -3.789  -2.189   0.551  1.00  0.00     0.172 C 
HETATM   19  O2  UNL     1      -4.652  -1.654  -0.187  1.00  0.00    -0.648 OA
HETATM   20  O3  UNL     1      -4.159  -2.954   1.644  1.00  0.00    -0.648 OA
ENDBRANCH  17  18
ENDBRANCH   3  17
TORSDOF 4
