REMARK  12 active torsions:
REMARK  status: ('A' for Active; 'I' for Inactive)
REMARK    1  A    between atoms: C6_8  and  N2_9 
REMARK    2  A    between atoms: N2_9  and  C7_11 
REMARK    3  A    between atoms: C7_11  and  C8_12 
REMARK    4  A    between atoms: C8_12  and  N3_13 
REMARK    5  A    between atoms: N7_23  and  C12_24 
REMARK    6  A    between atoms: C12_24  and  C13_25 
REMARK    7  A    between atoms: C13_25  and  C14_26 
REMARK    8  A    between atoms: C14_26  and  C15_27 
REMARK    9  A    between atoms: C15_27  and  C16_28 
REMARK   10  A    between atoms: C16_28  and  C17_29 
REMARK   11  A    between atoms: C17_29  and  C18_30 
REMARK   12  A    between atoms: C18_30  and  N8_31 
ROOT
HETATM    1  C1  UNL     1       0.442  -0.584  -3.302  1.00  0.00     0.038 C 
HETATM    2  C2  UNL     1       1.205   0.068  -2.163  1.00  0.00     0.031 C 
HETATM    3  C3  UNL     1       0.934   1.541  -2.075  1.00  0.00     0.038 C 
HETATM    4  C4  UNL     1       2.666  -0.253  -2.323  1.00  0.00     0.090 C 
HETATM    5  C5  UNL     1       3.111  -0.486  -0.926  1.00  0.00     0.061 A 
HETATM    6  N1  UNL     1       4.317  -0.506  -0.311  1.00  0.00    -0.193 N 
ATOM      7  H1  UNL     1       5.143  -0.319  -0.880  1.00  0.00     0.184 HD
HETATM    8  C6  UNL     1       4.503  -0.754   0.995  1.00  0.00     0.681 A 
HETATM    9  N6  UNL     1       3.427  -1.003   1.760  1.00  0.00    -0.154 N 
ATOM     10  H6  UNL     1       3.538  -1.196   2.755  1.00  0.00     0.187 HD
HETATM   11  C10 UNL     1       2.208  -0.996   1.206  1.00  0.00     0.288 A 
HETATM   12  O1  UNL     1       1.205  -1.234   1.947  1.00  0.00    -0.265 OA
HETATM   13  C11 UNL     1       2.004  -0.740  -0.143  1.00  0.00     0.123 A 
HETATM   14  N7  UNL     1       0.847  -0.659  -0.966  1.00  0.00    -0.366 N 
ENDROOT
BRANCH  14  15
HETATM   15  C12 UNL     1      -0.449  -1.209  -0.621  1.00  0.00     0.124 C 
BRANCH  15  16
HETATM   16  C13 UNL     1      -1.362  -0.055  -0.367  1.00  0.00     0.020 C 
BRANCH  16  17
HETATM   17  C14 UNL     1      -2.786  -0.491   0.017  1.00  0.00     0.002 C 
BRANCH  17  18
HETATM   18  C15 UNL     1      -3.428  -1.281  -1.039  1.00  0.00     0.000 C 
BRANCH  18  19
HETATM   19  C16 UNL     1      -4.750  -1.863  -0.768  1.00  0.00     0.002 C 
BRANCH  19  20
HETATM   20  C17 UNL     1      -5.875  -1.004  -0.404  1.00  0.00     0.028 C 
BRANCH  20  21
HETATM   21  C18 UNL     1      -5.837  -0.322   0.901  1.00  0.00     0.236 C 
BRANCH  21  22
HETATM   22  N8  UNL     1      -7.068   0.486   1.099  1.00  0.00    -0.079 N 
HETATM   23  C19 UNL     1      -6.835   1.220   2.336  1.00  0.00     0.271 C 
HETATM   24  C20 UNL     1      -8.223  -0.334   1.279  1.00  0.00     0.271 C 
HETATM   25  C21 UNL     1      -7.183   1.451   0.029  1.00  0.00     0.271 C 
ENDBRANCH  21  22
ENDBRANCH  20  21
ENDBRANCH  19  20
ENDBRANCH  18  19
ENDBRANCH  17  18
ENDBRANCH  16  17
ENDBRANCH  15  16
ENDBRANCH  14  15
BRANCH   8  26
HETATM   26  N2  UNL     1       5.708  -0.753   1.518  1.00  0.00    -0.224 N 
ATOM     27  H2  UNL     1       5.841  -0.943   2.511  1.00  0.00     0.177 HD
BRANCH  26  28
HETATM   28  C7  UNL     1       6.845  -0.478   0.663  1.00  0.00     0.157 C 
BRANCH  28  29
HETATM   29  C8  UNL     1       8.107  -0.289   1.480  1.00  0.00     0.142 C 
BRANCH  29  30
HETATM   30  N3  UNL     1       8.000   0.807   2.399  1.00  0.00    -0.365 N 
HETATM   31  C9  UNL     1       8.863   1.757   2.375  1.00  0.00     0.197 C 
HETATM   32  N4  UNL     1       9.913   1.702   1.433  1.00  0.00    -0.067 NA
HETATM   33  N5  UNL     1       8.778   2.854   3.279  1.00  0.00    -0.067 NA
ATOM     34  H3  UNL     1       7.236   0.832   3.074  1.00  0.00     0.161 HD
ENDBRANCH  29  30
ENDBRANCH  28  29
ENDBRANCH  26  28
ENDBRANCH   8  26
TORSDOF 12
