REMARK  14 active torsions:
REMARK  status: ('A' for Active; 'I' for Inactive)
REMARK    1  A    between atoms: C2_2  and  N1_3 
REMARK    2  A    between atoms: N1_3  and  C3_5 
REMARK    3  A    between atoms: C3_5  and  C4_7 
REMARK    4  A    between atoms: N2_11  and  C8_12 
REMARK    5  A    between atoms: C8_12  and  C9_13 
REMARK    6  A    between atoms: C9_13  and  C10_14 
REMARK    7  A    between atoms: C10_14  and  C11_15 
REMARK    8  A    between atoms: C11_15  and  C12_16 
REMARK    9  A    between atoms: C12_16  and  N3_17 
REMARK   10  A    between atoms: N3_17  and  C13_19 
REMARK   11  A    between atoms: C13_19  and  N4_21 
REMARK   12  A    between atoms: N4_21  and  C14_23 
REMARK   13  A    between atoms: C14_23  and  C15_24 
REMARK   14  A    between atoms: C15_24  and  C16_25 
ROOT
HETATM    1  C11 UNL     1       1.423   1.374   1.169  1.00  0.00     0.020 C 
ENDROOT
BRANCH   1   2
HETATM    2  C10 UNL     1      -0.032   1.428   1.506  1.00  0.00     0.003 C 
BRANCH   2   3
HETATM    3  C9  UNL     1      -0.897   0.550   0.633  1.00  0.00     0.030 C 
BRANCH   3   4
HETATM    4  C8  UNL     1      -2.319   0.736   1.123  1.00  0.00     0.272 C 
BRANCH   4   5
HETATM    5  N2  UNL     1      -3.288  -0.026   0.409  1.00  0.00     0.089 N 
HETATM    6  C7  UNL     1      -3.142  -1.424   0.635  1.00  0.00     0.272 C 
HETATM    7  C6  UNL     1      -4.188  -2.228  -0.104  1.00  0.00     0.031 C 
HETATM    8  C5  UNL     1      -4.264  -1.821  -1.562  1.00  0.00     0.015 C 
HETATM    9  C4  UNL     1      -4.425  -0.306  -1.680  1.00  0.00     0.075 C 
HETATM   10  C19 UNL     1      -3.238   0.320  -0.991  1.00  0.00     0.284 C 
BRANCH   9  11
HETATM   11  C3  UNL     1      -5.663   0.160  -1.049  1.00  0.00     0.079 C 
HETATM   12  S1  UNL     1      -5.604   1.270   0.155  1.00  0.00    -0.065 SA
BRANCH  11  13
HETATM   13  N1  UNL     1      -6.944  -0.335  -1.468  1.00  0.00    -0.384 N 
ATOM     14  H1  UNL     1      -6.994  -1.022  -2.221  1.00  0.00     0.160 HD
BRANCH  13  15
HETATM   15  C2  UNL     1      -8.152   0.118  -0.848  1.00  0.00     0.116 C 
HETATM   16  C1  UNL     1      -8.421   1.567  -1.170  1.00  0.00     0.026 C 
ENDBRANCH  13  15
ENDBRANCH  11  13
ENDBRANCH   9  11
ENDBRANCH   4   5
ENDBRANCH   3   4
ENDBRANCH   2   3
ENDBRANCH   1   2
BRANCH   1  17
HETATM   17  C12 UNL     1       1.921  -0.030   1.335  1.00  0.00     0.122 C 
BRANCH  17  18
HETATM   18  N3  UNL     1       3.329  -0.184   1.039  1.00  0.00    -0.367 N 
ATOM     19  H3  UNL     1       3.889   0.616   0.744  1.00  0.00     0.161 HD
BRANCH  18  20
HETATM   20  C13 UNL     1       3.911  -1.460   1.166  1.00  0.00     0.167 C 
HETATM   21  S2  UNL     1       2.964  -2.712   1.642  1.00  0.00    -0.041 SA
BRANCH  20  22
HETATM   22  N4  UNL     1       5.286  -1.627   0.881  1.00  0.00    -0.367 N 
ATOM     23  H4  UNL     1       5.724  -2.544   0.968  1.00  0.00     0.161 HD
BRANCH  22  24
HETATM   24  C14 UNL     1       6.062  -0.482   0.465  1.00  0.00     0.128 C 
BRANCH  24  25
HETATM   25  C15 UNL     1       7.474  -0.974   0.241  1.00  0.00     0.078 C 
BRANCH  25  26
HETATM   26  C16 UNL     1       8.389   0.091  -0.193  1.00  0.00     0.027 A 
HETATM   27  C17 UNL     1       8.206   1.426  -0.430  1.00  0.00     0.114 A 
HETATM   28  N5  UNL     1       9.366   1.956  -0.809  1.00  0.00    -0.360 N 
HETATM   29  C18 UNL     1      10.296   0.985  -0.821  1.00  0.00     0.180 A 
ATOM     30  H5  UNL     1       9.523   2.935  -1.050  1.00  0.00     0.166 HD
HETATM   31  N6  UNL     1       9.698  -0.146  -0.446  1.00  0.00    -0.355 N 
ATOM     32  H6  UNL     1      10.157  -1.053  -0.362  1.00  0.00     0.166 HD
ENDBRANCH  25  26
ENDBRANCH  24  25
ENDBRANCH  22  24
ENDBRANCH  20  22
ENDBRANCH  18  20
ENDBRANCH  17  18
ENDBRANCH   1  17
TORSDOF 14
