REMARK  13 active torsions:
REMARK  status: ('A' for Active; 'I' for Inactive)
REMARK    1  A    between atoms: N1_1  and  C1_5 
REMARK    2  A    between atoms: C1_5  and  C2_6 
REMARK    3  A    between atoms: C2_6  and  C3_7 
REMARK    4  A    between atoms: C3_7  and  C4_8 
REMARK    5  A    between atoms: C4_8  and  C5_9 
REMARK    6  A    between atoms: C4_8  and  N5_17 
REMARK    7  A    between atoms: C5_9  and  C6_10 
REMARK    8  A    between atoms: C6_10  and  C7_11 
REMARK    9  A    between atoms: C7_11  and  N2_12 
REMARK   10  A    between atoms: C12_21  and  N6_22 
REMARK       I    between atoms: N6_22  and  C13_24 
REMARK   11  A    between atoms: C13_24  and  C14_26 
REMARK   12  A    between atoms: C14_26  and  C15_27 
REMARK   13  A    between atoms: C15_27  and  C16_28 
ROOT
HETATM    1  N5  UNL     1      -2.263  -0.280   1.114  1.00  0.00    -0.346 N 
HETATM    2  C9  UNL     1      -2.368   0.377   2.397  1.00  0.00     0.126 C 
HETATM    3  C10 UNL     1      -1.509   1.623   2.365  1.00  0.00     0.022 C 
HETATM    4  C11 UNL     1      -0.042   1.282   2.232  1.00  0.00     0.036 C 
HETATM    5  C12 UNL     1       0.142   0.609   0.902  1.00  0.00     0.176 C 
HETATM    6  C22 UNL     1      -0.951  -0.350   0.570  1.00  0.00     0.243 C 
HETATM    7  O2  UNL     1      -0.638  -1.272  -0.257  1.00  0.00    -0.271 OA
ENDROOT
BRANCH   1   8
HETATM    8  C4  UNL     1      -3.345  -0.844   0.383  1.00  0.00     0.087 C 
BRANCH   8   9
HETATM    9  C3  UNL     1      -4.075  -1.945   1.097  1.00  0.00     0.027 C 
BRANCH   9  10
HETATM   10  C2  UNL     1      -3.103  -3.050   1.480  1.00  0.00     0.029 C 
BRANCH  10  11
HETATM   11  C1  UNL     1      -3.843  -4.171   2.205  1.00  0.00     0.230 C 
BRANCH  11  12
HETATM   12  N1  UNL     1      -2.835  -5.172   2.528  1.00  0.00    -0.079 N 
ATOM     13  H13 UNL     1      -2.304  -5.492   1.718  1.00  0.00     0.274 HD
ATOM     14  H12 UNL     1      -2.044  -4.799   3.054  1.00  0.00     0.274 HD
ATOM     15  H11 UNL     1      -3.330  -5.921   3.012  1.00  0.00     0.274 HD
ENDBRANCH  11  12
ENDBRANCH  10  11
ENDBRANCH   9  10
ENDBRANCH   8   9
BRANCH   8  16
HETATM   16  C5  UNL     1      -4.269   0.285  -0.022  1.00  0.00     0.027 C 
BRANCH  16  17
HETATM   17  C6  UNL     1      -5.364  -0.161  -0.946  1.00  0.00     0.022 C 
BRANCH  17  18
HETATM   18  C7  UNL     1      -6.209   1.054  -1.271  1.00  0.00     0.122 C 
BRANCH  18  19
HETATM   19  N2  UNL     1      -5.336   2.023  -1.906  1.00  0.00    -0.367 N 
HETATM   20  C8  UNL     1      -5.518   3.297  -1.782  1.00  0.00     0.196 C 
HETATM   21  N3  UNL     1      -6.587   3.803  -1.013  1.00  0.00    -0.067 NA
HETATM   22  N4  UNL     1      -4.621   4.181  -2.435  1.00  0.00    -0.067 NA
ATOM     23  H2  UNL     1      -4.553   1.689  -2.468  1.00  0.00     0.161 HD
ENDBRANCH  18  19
ENDBRANCH  17  18
ENDBRANCH  16  17
ENDBRANCH   8  16
ENDBRANCH   1   8
BRANCH   5  24
HETATM   24  N6  UNL     1       1.422  -0.062   0.848  1.00  0.00    -0.348 N 
HETATM   25  C13 UNL     1       2.365   0.350  -0.121  1.00  0.00     0.218 C 
HETATM   26  O1  UNL     1       2.079   1.280  -0.909  1.00  0.00    -0.274 OA
ATOM     27  H6  UNL     1       1.640  -0.818   1.497  1.00  0.00     0.163 HD
BRANCH  25  28
HETATM   28  C14 UNL     1       3.678  -0.343  -0.172  1.00  0.00     0.103 C 
BRANCH  28  29
HETATM   29  C15 UNL     1       4.489   0.266  -1.269  1.00  0.00     0.014 C 
BRANCH  29  30
HETATM   30  C16 UNL     1       5.855  -0.369  -1.409  1.00  0.00    -0.014 C 
HETATM   31  C17 UNL     1       6.583  -0.183  -0.117  1.00  0.00     0.004 C 
HETATM   32  C18 UNL     1       8.067  -0.332  -0.216  1.00  0.00     0.000 C 
HETATM   33  C19 UNL     1       8.551   0.637  -1.302  1.00  0.00     0.000 C 
HETATM   34  C20 UNL     1       8.017   0.060  -2.616  1.00  0.00     0.000 C 
HETATM   35  C21 UNL     1       6.527   0.242  -2.593  1.00  0.00     0.004 C 
ENDBRANCH  29  30
ENDBRANCH  28  29
ENDBRANCH  25  28
ENDBRANCH   5  24
TORSDOF 13
