REMARK  9 active torsions:
REMARK  status: ('A' for Active; 'I' for Inactive)
REMARK    1  A    between atoms: C2_2  and  C3_3 
REMARK    2  A    between atoms: C3_3  and  C4_4 
REMARK    3  A    between atoms: C4_4  and  C5_5 
REMARK    4  A    between atoms: C7_7  and  O1_8 
REMARK    5  A    between atoms: O1_8  and  C8_9 
REMARK       I    between atoms: C8_9  and  N1_11 
REMARK    6  A    between atoms: C18_22  and  C19_23 
REMARK       I    between atoms: C19_23  and  N3_25 
REMARK    7  A    between atoms: N3_25  and  C20_27 
REMARK    8  A    between atoms: C20_27  and  C21_28 
REMARK       I    between atoms: C21_28  and  N4_30 
REMARK    9  A    between atoms: N4_30  and  O5_32 
ROOT
HETATM    1  C5  UNL     1      -0.749  -2.832   1.660  1.00  0.00    -0.011 C 
HETATM    2  C6  UNL     1       0.530  -2.062   1.483  1.00  0.00     0.037 C 
HETATM    3  C7  UNL     1       0.495  -1.080   0.348  1.00  0.00     0.135 C 
HETATM    4  C17 UNL     1      -0.683  -0.170   0.347  1.00  0.00     0.046 C 
HETATM    5  C18 UNL     1      -1.888  -0.738   1.051  1.00  0.00     0.080 C 
HETATM    6  C28 UNL     1      -1.945  -2.227   1.015  1.00  0.00     0.018 C 
ENDROOT
BRANCH   5   7
HETATM    7  C19 UNL     1      -3.167  -0.179   0.474  1.00  0.00     0.223 C 
HETATM    8  O3  UNL     1      -3.989  -1.000  -0.015  1.00  0.00    -0.273 OA
HETATM    9  N3  UNL     1      -3.358   1.219   0.519  1.00  0.00    -0.343 N 
ATOM     10  H3  UNL     1      -2.645   1.823   0.928  1.00  0.00     0.163 HD
BRANCH   9  11
HETATM   11  C20 UNL     1      -4.580   1.791  -0.023  1.00  0.00     0.116 C 
HETATM   12  C23 UNL     1      -4.556   3.307   0.145  1.00  0.00     0.041 C 
HETATM   13  C24 UNL     1      -3.423   3.921  -0.651  1.00  0.00     0.003 C 
HETATM   14  C25 UNL     1      -3.267   3.268  -2.002  1.00  0.00     0.000 C 
HETATM   15  C26 UNL     1      -4.548   2.566  -2.402  1.00  0.00     0.003 C 
HETATM   16  C27 UNL     1      -4.726   1.391  -1.452  1.00  0.00     0.041 C 
BRANCH  11  17
HETATM   17  C21 UNL     1      -5.718   1.263   0.756  1.00  0.00     0.271 C 
HETATM   18  O4  UNL     1      -5.530   0.515   1.778  1.00  0.00    -0.268 OA
HETATM   19  N4  UNL     1      -7.078   1.525   0.455  1.00  0.00    -0.231 N 
HETATM   20  C22 UNL     1      -8.178   1.004   1.239  1.00  0.00     0.188 C 
BRANCH  19  21
HETATM   21  O5  UNL     1      -7.394   2.285  -0.608  1.00  0.00    -0.285 OA
ATOM     22  H5  UNL     1      -8.306   2.461  -0.810  1.00  0.00     0.245 HD
ENDBRANCH  19  21
ENDBRANCH  11  17
ENDBRANCH   9  11
ENDBRANCH   5   7
BRANCH   3  23
HETATM   23  O1  UNL     1       1.663  -0.256   0.489  1.00  0.00    -0.298 OA
BRANCH  23  24
HETATM   24  C8  UNL     1       2.645  -0.224  -0.490  1.00  0.00     0.363 C 
HETATM   25  O2  UNL     1       2.467  -0.940  -1.491  1.00  0.00    -0.238 OA
HETATM   26  N1  UNL     1       3.808   0.584  -0.368  1.00  0.00    -0.326 N 
HETATM   27  C9  UNL     1       3.855   1.354   0.854  1.00  0.00     0.130 C 
HETATM   28  C16 UNL     1       4.713   0.494  -1.460  1.00  0.00     0.163 C 
HETATM   29  C10 UNL     1       5.002   0.854   1.710  1.00  0.00     0.050 C 
HETATM   30  C11 UNL     1       6.261   1.408   1.108  1.00  0.00     0.274 C 
HETATM   31  N2  UNL     1       6.739   0.707  -0.041  1.00  0.00     0.094 N 
HETATM   32  C12 UNL     1       8.076   1.276  -0.316  1.00  0.00     0.273 C 
HETATM   33  C15 UNL     1       6.085   0.986  -1.272  1.00  0.00     0.241 C 
HETATM   34  C13 UNL     1       7.762   2.597  -1.032  1.00  0.00     0.032 C 
HETATM   35  C14 UNL     1       6.300   2.465  -1.439  1.00  0.00     0.039 C 
ENDBRANCH  23  24
ENDBRANCH   3  23
BRANCH   1  36
HETATM   36  C4  UNL     1      -0.637  -4.279   1.262  1.00  0.00     0.005 C 
BRANCH  36  37
HETATM   37  C3  UNL     1      -0.254  -4.472  -0.167  1.00  0.00     0.000 C 
BRANCH  37  38
HETATM   38  C2  UNL     1      -0.145  -5.919  -0.559  1.00  0.00    -0.005 C 
HETATM   39  C1  UNL     1       0.873  -6.684   0.225  1.00  0.00     0.005 C 
ENDBRANCH  37  38
ENDBRANCH  36  37
ENDBRANCH   1  36
TORSDOF 9
