REMARK  9 active torsions:
REMARK  status: ('A' for Active; 'I' for Inactive)
REMARK    1  A    between atoms: C2_2  and  N1_3 
REMARK    2  A    between atoms: N1_3  and  C4_5 
REMARK    3  A    between atoms: C7_8  and  S1_9 
REMARK    4  A    between atoms: S1_9  and  N2_12 
REMARK    5  A    between atoms: N2_12  and  C8_14 
REMARK    6  A    between atoms: C14_23  and  S2_24 
REMARK    7  A    between atoms: S2_24  and  N4_27 
REMARK    8  A    between atoms: N4_27  and  C15_29 
REMARK    9  A    between atoms: C15_29  and  C17_31 
ROOT
HETATM    1  C4  UNL     1       0.985  -1.741   0.276  1.00  0.00     0.053 A 
HETATM    2  C5  UNL     1       2.262  -1.797  -0.269  1.00  0.00     0.032 A 
HETATM    3  C6  UNL     1       3.142  -0.751  -0.140  1.00  0.00     0.027 A 
HETATM    4  C7  UNL     1       2.767   0.386   0.541  1.00  0.00     0.081 A 
HETATM    5  C13 UNL     1       1.501   0.423   1.073  1.00  0.00     0.052 A 
HETATM    6  C14 UNL     1       0.594  -0.610   0.960  1.00  0.00     0.107 A 
ENDROOT
BRANCH   6   7
HETATM    7  S2  UNL     1      -1.031  -0.504   1.627  1.00  0.00     0.261 S 
HETATM    8  O4  UNL     1      -1.254  -1.415   2.785  1.00  0.00    -0.200 OA
HETATM    9  O5  UNL     1      -1.155   0.907   2.200  1.00  0.00    -0.200 OA
BRANCH   7  10
HETATM   10  N4  UNL     1      -2.209  -0.706   0.373  1.00  0.00    -0.311 N 
ATOM     11  H4  UNL     1      -2.356  -1.583  -0.127  1.00  0.00     0.172 HD
BRANCH  10  12
HETATM   12  C15 UNL     1      -2.965   0.505   0.110  1.00  0.00     0.093 C 
HETATM   13  C16 UNL     1      -2.518   1.021  -1.245  1.00  0.00     0.033 C 
BRANCH  12  14
HETATM   14  C17 UNL     1      -4.418   0.337   0.264  1.00  0.00     0.014 C 
HETATM   15  C18 UNL     1      -5.017  -0.725  -0.678  1.00  0.00     0.012 C 
HETATM   16  C19 UNL     1      -6.293  -0.007  -1.034  1.00  0.00    -0.006 C 
HETATM   17  C20 UNL     1      -5.727   1.331  -1.528  1.00  0.00     0.011 C 
HETATM   18  C22 UNL     1      -6.682   0.810   0.206  1.00  0.00    -0.040 C 
HETATM   19  C21 UNL     1      -5.308   1.463  -0.064  1.00  0.00     0.000 C 
HETATM   20  C23 UNL     1      -6.778   0.014   1.460  1.00  0.00     0.015 C 
HETATM   21  C24 UNL     1      -7.792   1.771  -0.041  1.00  0.00     0.015 C 
ENDBRANCH  12  14
ENDBRANCH  10  12
ENDBRANCH   7  10
ENDBRANCH   6   7
BRANCH   1  22
HETATM   22  N1  UNL     1       0.176  -2.883   0.101  1.00  0.00    -0.384 N 
HETATM   23  C3  UNL     1      -0.456  -3.122  -1.171  1.00  0.00     0.149 C 
BRANCH  22  24
HETATM   24  C2  UNL     1      -0.043  -3.797   1.187  1.00  0.00     0.118 C 
HETATM   25  C1  UNL     1       0.599  -5.160   0.852  1.00  0.00     0.026 C 
ENDBRANCH  22  24
ENDBRANCH   1  22
BRANCH   4  26
HETATM   26  S1  UNL     1       3.888   1.737   0.706  1.00  0.00     0.264 S 
HETATM   27  O1  UNL     1       3.306   2.921   0.004  1.00  0.00    -0.200 OA
HETATM   28  O2  UNL     1       4.050   1.971   2.185  1.00  0.00    -0.200 OA
BRANCH  26  29
HETATM   29  N2  UNL     1       5.382   1.271  -0.018  1.00  0.00    -0.258 N 
ATOM     30  H2  UNL     1       5.444   0.418  -0.573  1.00  0.00     0.181 HD
BRANCH  29  31
HETATM   31  C8  UNL     1       6.420   2.017   0.153  1.00  0.00     0.187 A 
HETATM   32  O3  UNL     1       6.558   3.130   0.814  1.00  0.00    -0.218 OA
HETATM   33  N3  UNL     1       7.784   3.575   0.740  1.00  0.00    -0.263 N 
HETATM   34  C9  UNL     1       8.543   2.746  -0.001  1.00  0.00     0.039 A 
ATOM     35  H3  UNL     1       8.119   4.431   1.182  1.00  0.00     0.194 HD
HETATM   36  C10 UNL     1       9.993   2.870  -0.342  1.00  0.00     0.071 C 
HETATM   37  C11 UNL     1       7.676   1.744  -0.382  1.00  0.00     0.016 A 
HETATM   38  C12 UNL     1       7.994   0.569  -1.215  1.00  0.00     0.055 C 
ENDBRANCH  29  31
ENDBRANCH  26  29
ENDBRANCH   4  26
TORSDOF 9
