REMARK  11 active torsions:
REMARK  status: ('A' for Active; 'I' for Inactive)
REMARK    1  A    between atoms: O1_2  and  C2_3 
REMARK    2  A    between atoms: C2_3  and  C3_4 
REMARK    3  A    between atoms: C3_4  and  N1_5 
REMARK    4  A    between atoms: C3_4  and  C24_33 
REMARK       I    between atoms: N1_5  and  C4_7 
REMARK    5  A    between atoms: C4_7  and  C5_9 
REMARK    6  A    between atoms: C7_11  and  C8_12 
REMARK       I    between atoms: C8_12  and  N2_14 
REMARK    7  A    between atoms: C11_17  and  C12_18 
REMARK       I    between atoms: N3_24  and  C18_25 
REMARK    8  A    between atoms: C18_25  and  O5_27 
REMARK    9  A    between atoms: O5_27  and  C19_28 
REMARK   10  A    between atoms: C24_33  and  O6_35 
REMARK   11  A    between atoms: C24_33  and  C26_37 
ROOT
HETATM    1  C5  UNL     1      -1.606   0.557  -0.796  1.00  0.00     0.099 C 
HETATM    2  C6  UNL     1      -0.590  -0.138   0.087  1.00  0.00     0.051 C 
HETATM    3  C7  UNL     1       0.583   0.817   0.182  1.00  0.00     0.182 C 
HETATM    4  N3  UNL     1       0.012   2.132  -0.020  1.00  0.00    -0.314 N 
HETATM    5  C18 UNL     1       0.641   3.388   0.283  1.00  0.00     0.364 C 
HETATM    6  O4  UNL     1       1.795   3.461   0.776  1.00  0.00    -0.238 OA
HETATM    7  C23 UNL     1      -1.292   1.990  -0.574  1.00  0.00     0.143 C 
ENDROOT
BRANCH   1   8
HETATM    8  C4  UNL     1      -3.001   0.288  -0.384  1.00  0.00     0.227 C 
HETATM    9  N1  UNL     1      -3.556  -1.020  -0.346  1.00  0.00    -0.329 N 
ATOM     10  H1  UNL     1      -2.960  -1.802  -0.616  1.00  0.00     0.168 HD
HETATM   11  O2  UNL     1      -3.727   1.256  -0.052  1.00  0.00    -0.273 OA
BRANCH   9  12
HETATM   12  C3  UNL     1      -4.891  -1.302   0.045  1.00  0.00     0.047 C 
BRANCH  12  13
HETATM   13  C2  UNL     1      -5.773  -1.854  -1.070  1.00  0.00     0.222 C 
BRANCH  13  14
HETATM   14  O1  UNL     1      -5.812  -0.892  -2.082  1.00  0.00    -0.390 OA
HETATM   15  C1  UNL     1      -6.622  -1.381  -3.119  1.00  0.00     0.201 C 
ENDBRANCH  13  14
ENDBRANCH  12  13
BRANCH  12  16
HETATM   16  C24 UNL     1      -5.116  -1.924   1.370  1.00  0.00     0.098 C 
HETATM   17  C25 UNL     1      -6.614  -1.940   1.622  1.00  0.00     0.053 C 
BRANCH  16  18
HETATM   18  O6  UNL     1      -4.612  -0.983   2.331  1.00  0.00    -0.384 OA
ATOM     19  H6  UNL     1      -4.756  -1.382   3.181  1.00  0.00     0.211 HD
ENDBRANCH  16  18
BRANCH  16  20
HETATM   20  C26 UNL     1      -4.564  -3.254   1.668  1.00  0.00     0.025 A 
HETATM   21  C27 UNL     1      -3.091  -3.565   1.664  1.00  0.00     0.008 A 
HETATM   22  C28 UNL     1      -4.022  -4.205   0.689  1.00  0.00     0.008 A 
ENDBRANCH  16  20
ENDBRANCH  12  16
ENDBRANCH   9  12
ENDBRANCH   1   8
BRANCH   3  23
HETATM   23  C8  UNL     1       1.527   0.462  -0.907  1.00  0.00     0.242 C 
HETATM   24  O3  UNL     1       1.576   1.273  -1.893  1.00  0.00    -0.271 OA
HETATM   25  N2  UNL     1       2.348  -0.683  -0.916  1.00  0.00    -0.350 N 
HETATM   26  C9  UNL     1       3.218  -0.917  -2.052  1.00  0.00     0.126 C 
HETATM   27  C17 UNL     1       2.307  -1.586   0.217  1.00  0.00     0.126 C 
HETATM   28  C10 UNL     1       4.634  -1.222  -1.603  1.00  0.00     0.025 C 
HETATM   29  C11 UNL     1       4.720  -1.334  -0.095  1.00  0.00    -0.004 C 
HETATM   30  C16 UNL     1       3.662  -2.281   0.371  1.00  0.00     0.025 C 
BRANCH  29  31
HETATM   31  C12 UNL     1       6.114  -1.812   0.241  1.00  0.00    -0.048 C 
HETATM   32  C13 UNL     1       7.100  -0.800  -0.286  1.00  0.00     0.015 C 
HETATM   33  C14 UNL     1       6.337  -1.972   1.720  1.00  0.00     0.015 C 
HETATM   34  C15 UNL     1       6.423  -3.128  -0.454  1.00  0.00     0.015 C 
ENDBRANCH  29  31
ENDBRANCH   3  23
BRANCH   5  35
HETATM   35  O5  UNL     1      -0.005   4.594   0.043  1.00  0.00    -0.294 OA
BRANCH  35  36
HETATM   36  C19 UNL     1       0.551   5.857   0.315  1.00  0.00     0.061 C 
HETATM   37  C20 UNL     1      -0.485   6.890  -0.096  1.00  0.00     0.046 C 
HETATM   38  C21 UNL     1       1.808   6.142  -0.438  1.00  0.00     0.046 C 
HETATM   39  C22 UNL     1       0.822   6.057   1.790  1.00  0.00     0.046 C 
ENDBRANCH  35  36
ENDBRANCH   5  35
TORSDOF 11
