REMARK  18 active torsions:
REMARK  status: ('A' for Active; 'I' for Inactive)
REMARK    1  A    between atoms: S1_2  and  C2_3 
REMARK    2  A    between atoms: C2_3  and  C3_4 
REMARK    3  A    between atoms: C3_4  and  C4_5 
REMARK    4  A    between atoms: C4_5  and  C5_7 
REMARK    5  A    between atoms: C5_7  and  O1_8 
REMARK    6  A    between atoms: C5_7  and  N8_39 
REMARK    7  A    between atoms: O1_8  and  C6_9 
REMARK    8  A    between atoms: C7_12  and  N2_13 
REMARK    9  A    between atoms: C8_20  and  C9_21 
REMARK   10  A    between atoms: C9_21  and  O2_22 
REMARK   11  A    between atoms: C9_21  and  O3_24 
REMARK   12  A    between atoms: C10_26  and  N6_27 
REMARK       I    between atoms: N6_27  and  C11_29 
REMARK   13  A    between atoms: C11_29  and  O5_31 
REMARK   14  A    between atoms: O5_31  and  N7_32 
REMARK   15  A    between atoms: C12_35  and  O6_36 
REMARK   16  A    between atoms: C14_44  and  C15_45 
REMARK   17  A    between atoms: C15_45  and  N11_46 
REMARK   18  A    between atoms: C15_45  and  N12_50 
ROOT
HETATM    1  C6  UNL     1       0.310   0.500  -0.708  1.00  0.00     0.120 C 
HETATM    2  N1  UNL     1       0.363  -0.140   0.415  1.00  0.00    -0.349 N 
ATOM      3  H1  UNL     1      -0.474  -0.121   0.997  1.00  0.00     0.163 HD
HETATM    4  C7  UNL     1       1.520  -0.895   0.933  1.00  0.00     0.240 C 
HETATM    5  C8  UNL     1       2.668   0.064   0.984  1.00  0.00     0.112 C 
HETATM    6  C10 UNL     1       3.403   0.193  -0.305  1.00  0.00     0.128 C 
HETATM    7  C12 UNL     1       2.665   1.174  -1.195  1.00  0.00     0.149 C 
HETATM    8  C13 UNL     1       1.371   0.638  -1.745  1.00  0.00     0.117 C 
ENDROOT
BRANCH   1   9
HETATM    9  O1  UNL     1      -0.914   1.109  -0.910  1.00  0.00    -0.311 OA
BRANCH   9  10
HETATM   10  C5  UNL     1      -1.904   1.072   0.099  1.00  0.00     0.269 C 
BRANCH  10  11
HETATM   11  C4  UNL     1      -3.087   1.845  -0.480  1.00  0.00     0.110 C 
HETATM   12  S2  UNL     1      -2.492   3.490  -0.903  1.00  0.00    -0.088 SA
BRANCH  11  13
HETATM   13  C3  UNL     1      -4.239   1.917   0.443  1.00  0.00     0.030 C 
BRANCH  13  14
HETATM   14  C2  UNL     1      -5.377   2.659  -0.197  1.00  0.00     0.075 C 
BRANCH  14  15
HETATM   15  S1  UNL     1      -5.042   4.354  -0.642  1.00  0.00    -0.173 SA
HETATM   16  C1  UNL     1      -4.776   5.323   0.885  1.00  0.00     0.089 C 
ENDBRANCH  14  15
ENDBRANCH  13  14
ENDBRANCH  11  13
ENDBRANCH  10  11
BRANCH  10  17
HETATM   17  N8  UNL     1      -2.303  -0.282   0.452  1.00  0.00    -0.231 N 
HETATM   18  N9  UNL     1      -2.440  -0.751   1.680  1.00  0.00    -0.236 N 
HETATM   19  N10 UNL     1      -2.815  -2.010   1.663  1.00  0.00    -0.283 N 
ATOM     20  H9  UNL     1      -2.276  -0.208   2.528  1.00  0.00     0.208 HD
HETATM   21  C14 UNL     1      -2.930  -2.388   0.378  1.00  0.00     0.127 A 
ATOM     22  H10 UNL     1      -2.988  -2.596   2.479  1.00  0.00     0.188 HD
HETATM   23  C16 UNL     1      -2.607  -1.296  -0.379  1.00  0.00     0.165 A 
HETATM   24  N13 UNL     1      -2.603  -1.272  -1.795  1.00  0.00    -0.079 NA
BRANCH  21  25
HETATM   25  C15 UNL     1      -3.340  -3.760  -0.071  1.00  0.00     0.432 C 
BRANCH  25  26
HETATM   26  N11 UNL     1      -2.609  -4.760   0.723  1.00  0.00    -0.045 N 
ATOM     27 3H11 UNL     1      -1.599  -4.624   0.685  1.00  0.00     0.277 HD
ATOM     28 2H11 UNL     1      -2.733  -4.626   1.727  1.00  0.00     0.277 HD
ATOM     29 1H11 UNL     1      -2.888  -5.693   0.418  1.00  0.00     0.277 HD
ENDBRANCH  25  26
BRANCH  25  30
HETATM   30  N12 UNL     1      -3.009  -3.997  -1.444  1.00  0.00    -0.045 N 
ATOM     31 3H12 UNL     1      -3.403  -3.277  -2.049  1.00  0.00     0.277 HD
ATOM     32 2H12 UNL     1      -2.018  -3.831  -1.620  1.00  0.00     0.277 HD
ATOM     33 1H12 UNL     1      -3.288  -4.930  -1.749  1.00  0.00     0.277 HD
ENDBRANCH  25  30
ENDBRANCH  21  25
ENDBRANCH  10  17
ENDBRANCH   9  10
ENDBRANCH   1   9
BRANCH   4  34
HETATM   34  N2  UNL     1       1.733  -2.087   0.166  1.00  0.00    -0.178 N 
HETATM   35  N3  UNL     1       2.675  -2.997   0.066  1.00  0.00    -0.207 N 
HETATM   36  N4  UNL     1       2.010  -3.653  -0.838  1.00  0.00    -0.211 N 
ATOM     37  H3  UNL     1       3.577  -3.135   0.521  1.00  0.00     0.211 HD
HETATM   38  N5  UNL     1       1.055  -2.777  -0.772  1.00  0.00    -0.207 N 
ATOM     39  H4  UNL     1       2.172  -4.504  -1.376  1.00  0.00     0.211 HD
ATOM     40  H5  UNL     1       0.156  -2.659  -1.240  1.00  0.00     0.211 HD
ENDBRANCH   4  34
BRANCH   7  41
HETATM   41  O6  UNL     1       2.444   2.374  -0.524  1.00  0.00    -0.393 OA
ATOM     42  H6  UNL     1       1.982   2.989  -1.082  1.00  0.00     0.210 HD
ENDBRANCH   7  41
BRANCH   5  43
HETATM   43  C9  UNL     1       3.488  -0.231   2.194  1.00  0.00     0.263 C 
BRANCH  43  44
HETATM   44  O2  UNL     1       4.593   0.593   2.369  1.00  0.00    -0.371 OA
ATOM     45  H2  UNL     1       5.115   0.405   3.140  1.00  0.00     0.212 HD
ENDBRANCH  43  44
BRANCH  43  46
HETATM   46  O3  UNL     1       3.798  -1.563   2.371  1.00  0.00    -0.371 OA
ATOM     47  H3  UNL     1       4.320  -1.751   3.142  1.00  0.00     0.212 HD
ENDBRANCH  43  46
ENDBRANCH   5  43
BRANCH   6  48
HETATM   48  N6  UNL     1       4.718   0.768  -0.104  1.00  0.00    -0.328 N 
HETATM   49  C11 UNL     1       5.880  -0.002  -0.465  1.00  0.00     0.382 C 
HETATM   50  O4  UNL     1       5.771  -1.158  -0.949  1.00  0.00    -0.236 OA
ATOM     51  H6  UNL     1       4.819   1.704   0.287  1.00  0.00     0.165 HD
BRANCH  49  52
HETATM   52  O5  UNL     1       7.159   0.503  -0.292  1.00  0.00    -0.188 OA
BRANCH  52  53
HETATM   53  N7  UNL     1       8.281  -0.240  -0.640  1.00  0.00    -0.301 N 
ATOM     54  H72 UNL     1       8.143  -1.173  -1.029  1.00  0.00     0.184 HD
ATOM     55  H71 UNL     1       9.222   0.132  -0.513  1.00  0.00     0.184 HD
ENDBRANCH  52  53
ENDBRANCH  49  52
ENDBRANCH   6  48
TORSDOF 18
