REMARK  17 active torsions:
REMARK  status: ('A' for Active; 'I' for Inactive)
REMARK    1  A    between atoms: C2_2  and  O2_4 
REMARK    2  A    between atoms: O2_4  and  C3_5 
REMARK    3  A    between atoms: C3_5  and  O3_6 
REMARK    4  A    between atoms: C3_5  and  C4_8 
REMARK    5  A    between atoms: C4_8  and  C5_9 
REMARK    6  A    between atoms: C4_8  and  N10_53 
REMARK    7  A    between atoms: C5_9  and  O4_10 
REMARK    8  A    between atoms: C5_9  and  N1_12 
REMARK    9  A    between atoms: N1_12  and  C6_14 
REMARK   10  A    between atoms: C7_20  and  C8_21 
REMARK   11  A    between atoms: C9_24  and  C10_25 
REMARK   12  A    between atoms: C10_25  and  O6_26 
REMARK   13  A    between atoms: C11_29  and  N5_30 
REMARK   14  A    between atoms: C12_31  and  N6_32 
REMARK   15  A    between atoms: C13_37  and  N8_38 
REMARK   16  A    between atoms: C15_45  and  O9_46 
REMARK   17  A    between atoms: C16_48  and  O10_49 
ROOT
HETATM    1  C8  UNL     1       0.491   0.397  -1.802  1.00  0.00     0.180 A 
HETATM    2  N4  UNL     1      -0.121  -0.087  -0.720  1.00  0.00    -0.332 N 
ATOM      3  H4  UNL     1       0.345  -0.351   0.148  1.00  0.00     0.168 HD
HETATM    4  C9  UNL     1      -1.466  -0.177  -0.947  1.00  0.00     0.099 A 
HETATM    5  C17 UNL     1      -1.627   0.281  -2.226  1.00  0.00     0.175 A 
HETATM    6  O11 UNL     1      -0.448   0.613  -2.702  1.00  0.00    -0.301 OA
ENDROOT
BRANCH   4   7
HETATM    7  C10 UNL     1      -2.473  -0.682   0.047  1.00  0.00     0.239 C 
HETATM    8  O7  UNL     1      -3.692  -0.738  -0.523  1.00  0.00    -0.319 OA
HETATM    9  C11 UNL     1      -4.406   0.445  -0.272  1.00  0.00     0.286 C 
HETATM   10  C15 UNL     1      -3.505   1.298   0.444  1.00  0.00     0.202 C 
HETATM   11  C16 UNL     1      -2.556   0.344   1.177  1.00  0.00     0.220 C 
BRANCH   7  12
HETATM   12  O6  UNL     1      -1.963  -1.893   0.545  1.00  0.00    -0.358 OA
ATOM     13  H6  UNL     1      -2.600  -2.212   1.174  1.00  0.00     0.213 HD
ENDBRANCH   7  12
BRANCH   9  14
HETATM   14  N5  UNL     1      -5.720   0.124   0.025  1.00  0.00    -0.101 N 
HETATM   15  C12 UNL     1      -6.084  -1.179   0.081  1.00  0.00     0.699 A 
HETATM   16  N7  UNL     1      -7.340  -1.582   0.377  1.00  0.00    -0.022 N 
HETATM   17  C13 UNL     1      -8.295  -0.703   0.631  1.00  0.00     0.694 A 
ATOM     18  H7  UNL     1      -7.554  -2.579   0.405  1.00  0.00     0.203 HD
HETATM   19  N9  UNL     1      -7.971   0.612   0.584  1.00  0.00    -0.140 N 
HETATM   20  C14 UNL     1      -6.724   1.008   0.290  1.00  0.00     0.357 A 
ATOM     21  H9  UNL     1      -8.688   1.312   0.775  1.00  0.00     0.189 HD
HETATM   22  O8  UNL     1      -6.404   2.195   0.237  1.00  0.00    -0.245 OA
BRANCH  15  23
HETATM   23  N6  UNL     1      -5.275  -2.160  -0.167  1.00  0.00    -0.234 N 
ATOM     24  H62 UNL     1      -4.327  -1.856  -0.390  1.00  0.00     0.174 HD
ATOM     25  H61 UNL     1      -5.549  -3.142  -0.125  1.00  0.00     0.174 HD
ENDBRANCH  15  23
BRANCH  17  26
HETATM   26  N8  UNL     1      -9.493  -1.063   0.919  1.00  0.00    -0.234 N 
ATOM     27  H82 UNL     1      -9.737  -2.053   0.954  1.00  0.00     0.174 HD
ATOM     28  H81 UNL     1     -10.230  -0.385   1.115  1.00  0.00     0.174 HD
ENDBRANCH  17  26
ENDBRANCH   9  14
BRANCH  10  29
HETATM   29  O9  UNL     1      -3.853   2.369   1.173  1.00  0.00    -0.388 OA
ATOM     30  H9  UNL     1      -3.255   2.935   1.648  1.00  0.00     0.210 HD
ENDBRANCH  10  29
BRANCH  11  31
HETATM   31  O10 UNL     1      -1.325   0.939   1.406  1.00  0.00    -0.387 OA
ATOM     32  H10 UNL     1      -1.377   1.577   2.108  1.00  0.00     0.210 HD
ENDBRANCH  11  31
ENDBRANCH   4   7
BRANCH   1  33
HETATM   33  C7  UNL     1       1.912   0.674  -2.058  1.00  0.00     0.154 A 
HETATM   34  C6  UNL     1       2.989   0.470  -1.215  1.00  0.00     0.202 A 
HETATM   35  O5  UNL     1       4.048   0.840  -1.874  1.00  0.00    -0.202 OA
HETATM   36  N2  UNL     1       3.726   1.254  -3.045  1.00  0.00    -0.199 N 
HETATM   37  N3  UNL     1       2.433   1.172  -3.205  1.00  0.00    -0.273 N 
ATOM     38  H2  UNL     1       4.383   1.596  -3.747  1.00  0.00     0.216 HD
ATOM     39  H3  UNL     1       1.911   1.435  -4.041  1.00  0.00     0.189 HD
BRANCH  34  40
HETATM   40  N1  UNL     1       3.004  -0.031   0.090  1.00  0.00    -0.339 N 
ATOM     41  H1  UNL     1       2.085  -0.226   0.486  1.00  0.00     0.164 HD
BRANCH  40  42
HETATM   42  C5  UNL     1       4.096  -0.311   0.949  1.00  0.00     0.253 C 
BRANCH  42  43
HETATM   43  C4  UNL     1       5.037  -1.394   0.538  1.00  0.00     0.259 C 
BRANCH  43  44
HETATM   44  C3  UNL     1       6.273  -0.992  -0.184  1.00  0.00     0.299 C 
BRANCH  44  45
HETATM   45  O2  UNL     1       6.898   0.106   0.450  1.00  0.00    -0.288 OA
BRANCH  45  46
HETATM   46  C2  UNL     1       7.407   1.186  -0.230  1.00  0.00     0.257 C 
HETATM   47  C1  UNL     1       8.051   2.316   0.524  1.00  0.00     0.126 C 
HETATM   48  O1  UNL     1       7.343   1.250  -1.482  1.00  0.00    -0.266 OA
ENDBRANCH  45  46
ENDBRANCH  44  45
BRANCH  44  49
HETATM   49  O3  UNL     1       7.211  -2.052  -0.028  1.00  0.00    -0.368 OA
ATOM     50  H3  UNL     1       6.791  -2.790  -0.454  1.00  0.00     0.212 HD
ENDBRANCH  44  49
ENDBRANCH  43  44
BRANCH  43  51
HETATM   51  N10 UNL     1       4.327  -2.517  -0.020  1.00  0.00    -0.141 N 
HETATM   52  O12 UNL     1       4.159  -3.551   0.644  1.00  0.00    -0.536 OA
HETATM   53  O13 UNL     1       3.799  -2.523  -1.293  1.00  0.00    -0.536 OA
ENDBRANCH  43  51
ENDBRANCH  42  43
BRANCH  42  54
HETATM   54  O4  UNL     1       4.759   0.811   1.422  1.00  0.00    -0.374 OA
ATOM     55  H4  UNL     1       4.160   1.500   1.684  1.00  0.00     0.212 HD
ENDBRANCH  42  54
ENDBRANCH  40  42
ENDBRANCH  34  40
ENDBRANCH   1  33
TORSDOF 17
