REMARK  17 active torsions:
REMARK  status: ('A' for Active; 'I' for Inactive)
REMARK    1  A    between atoms: C2_2  and  C4_4 
REMARK    2  A    between atoms: C2_2  and  O2_6 
REMARK    3  A    between atoms: O2_6  and  N1_7 
REMARK       I    between atoms: N1_7  and  C5_8 
REMARK    4  A    between atoms: C5_8  and  C6_10 
REMARK    5  A    between atoms: C7_14  and  N4_15 
REMARK    6  A    between atoms: C8_20  and  C9_21 
REMARK    7  A    between atoms: C9_21  and  N7_22 
REMARK    8  A    between atoms: C9_21  and  N8_26 
REMARK    9  A    between atoms: C10_30  and  O4_31 
REMARK   10  A    between atoms: C11_33  and  O5_34 
REMARK   11  A    between atoms: C12_36  and  N9_37 
REMARK       I    between atoms: N9_37  and  C13_39 
REMARK   12  A    between atoms: C13_39  and  C14_41 
REMARK   13  A    between atoms: C14_41  and  O7_42 
REMARK   14  A    between atoms: C14_41  and  C15_44 
REMARK   15  A    between atoms: C17_48  and  N11_49 
REMARK   16  A    between atoms: C18_52  and  O8_53 
REMARK   17  A    between atoms: C19_55  and  O9_56 
ROOT
HETATM    1  C6  UNL     1       1.973  -0.675   0.202  1.00  0.00     0.132 C 
HETATM    2  N2  UNL     1       3.086   0.001   0.033  1.00  0.00    -0.298 N 
ATOM      3  H2  UNL     1       4.007  -0.435   0.087  1.00  0.00     0.182 HD
HETATM    4  N3  UNL     1       2.910   1.383  -0.231  1.00  0.00    -0.110 NA
HETATM    5  C7  UNL     1       2.140   2.024   0.849  1.00  0.00     0.255 C 
HETATM    6  C11 UNL     1       0.832   1.318   1.050  1.00  0.00     0.189 C 
HETATM    7  C12 UNL     1       0.743   0.159   0.054  1.00  0.00     0.174 C 
ENDROOT
BRANCH   7   8
HETATM    8  N9  UNL     1      -0.474  -0.558   0.086  1.00  0.00    -0.346 N 
HETATM    9  C13 UNL     1      -1.356  -0.688  -1.013  1.00  0.00     0.254 C 
HETATM   10  O6  UNL     1      -1.042  -0.074  -2.078  1.00  0.00    -0.270 OA
ATOM     11  H9  UNL     1      -0.735  -1.013   0.961  1.00  0.00     0.163 HD
BRANCH   9  12
HETATM   12  C14 UNL     1      -2.595  -1.465  -1.036  1.00  0.00     0.277 C 
BRANCH  12  13
HETATM   13  O7  UNL     1      -2.414  -2.518  -0.083  1.00  0.00    -0.378 OA
ATOM     14  H7  UNL     1      -3.219  -3.023  -0.098  1.00  0.00     0.211 HD
ENDBRANCH  12  13
BRANCH  12  15
HETATM   15  C15 UNL     1      -3.823  -0.793  -0.586  1.00  0.00     0.121 C 
HETATM   16  N10 UNL     1      -4.684  -0.357  -1.523  1.00  0.00    -0.351 N 
HETATM   17  C16 UNL     1      -6.022  -0.112  -1.456  1.00  0.00     0.121 C 
ATOM     18  H10 UNL     1      -4.265  -0.180  -2.436  1.00  0.00     0.166 HD
HETATM   19  C17 UNL     1      -6.862  -0.302  -0.371  1.00  0.00     0.079 C 
HETATM   20  C18 UNL     1      -6.512  -0.905   0.820  1.00  0.00     0.144 C 
HETATM   21  C19 UNL     1      -5.262  -0.962   1.380  1.00  0.00     0.177 C 
HETATM   22  N12 UNL     1      -4.071  -0.657   0.754  1.00  0.00    -0.322 N 
ATOM     23  H12 UNL     1      -3.313  -0.301   1.337  1.00  0.00     0.169 HD
BRANCH  19  24
HETATM   24  N11 UNL     1      -8.062   0.126  -0.500  1.00  0.00    -0.396 N 
ATOM     25 2H11 UNL     1      -8.321   0.572  -1.380  1.00  0.00     0.156 HD
ATOM     26 1H11 UNL     1      -8.681  -0.014   0.299  1.00  0.00     0.156 HD
ENDBRANCH  19  24
BRANCH  20  27
HETATM   27  O8  UNL     1      -7.545  -1.512   1.513  1.00  0.00    -0.355 OA
ATOM     28  H8  UNL     1      -7.304  -1.927   2.333  1.00  0.00     0.218 HD
ENDBRANCH  20  27
BRANCH  21  29
HETATM   29  O9  UNL     1      -5.240  -1.372   2.688  1.00  0.00    -0.344 OA
ATOM     30  H9  UNL     1      -4.374  -1.411   3.076  1.00  0.00     0.219 HD
ENDBRANCH  21  29
ENDBRANCH  12  15
ENDBRANCH   9  12
ENDBRANCH   7   8
BRANCH   1  31
HETATM   31  C5  UNL     1       1.962  -2.109   0.488  1.00  0.00     0.369 C 
HETATM   32  N1  UNL     1       3.119  -2.862   0.599  1.00  0.00    -0.234 NA
HETATM   33  O3  UNL     1       0.811  -2.596   0.634  1.00  0.00    -0.247 OA
BRANCH  32  34
HETATM   34  O2  UNL     1       4.150  -3.563   0.705  1.00  0.00    -0.188 OA
BRANCH  34  35
HETATM   35  C2  UNL     1       4.196  -4.794   0.092  1.00  0.00     0.148 C 
HETATM   36  C1  UNL     1       3.174  -5.760   0.633  1.00  0.00     0.057 C 
HETATM   37  C3  UNL     1       5.560  -5.459   0.205  1.00  0.00     0.057 C 
BRANCH  35  38
HETATM   38  C4  UNL     1       3.876  -4.573  -1.378  1.00  0.00     0.272 C 
HETATM   39  O1  UNL     1       3.852  -5.520  -2.127  1.00  0.00    -0.303 OA
ENDBRANCH  35  38
ENDBRANCH  34  35
ENDBRANCH  32  34
ENDBRANCH   1  31
BRANCH   6  40
HETATM   40  O5  UNL     1      -0.287   2.127   0.981  1.00  0.00    -0.390 OA
ATOM     41  H5  UNL     1      -1.115   1.680   1.108  1.00  0.00     0.210 HD
ENDBRANCH   6  40
BRANCH   5  42
HETATM   42  N4  UNL     1       2.073   3.444   0.754  1.00  0.00    -0.230 N 
HETATM   43  N5  UNL     1       2.711   4.288   1.598  1.00  0.00    -0.236 N 
HETATM   44  N6  UNL     1       2.472   5.540   1.294  1.00  0.00    -0.282 N 
ATOM     45  H5  UNL     1       3.303   3.988   2.373  1.00  0.00     0.208 HD
HETATM   46  C8  UNL     1       1.650   5.553   0.214  1.00  0.00     0.137 A 
ATOM     47  H6  UNL     1       2.838   6.358   1.781  1.00  0.00     0.188 HD
HETATM   48  C10 UNL     1       1.418   4.228  -0.101  1.00  0.00     0.188 A 
BRANCH  46  49
HETATM   49  C9  UNL     1       1.075   6.766  -0.469  1.00  0.00     0.433 C 
BRANCH  49  50
HETATM   50  N7  UNL     1      -0.364   6.632  -0.660  1.00  0.00    -0.045 N 
ATOM     51  H73 UNL     1      -0.597   5.774  -1.160  1.00  0.00     0.277 HD
ATOM     52  H72 UNL     1      -0.842   6.435   0.219  1.00  0.00     0.277 HD
ATOM     53  H71 UNL     1      -0.753   7.453  -1.123  1.00  0.00     0.277 HD
ENDBRANCH  49  50
BRANCH  49  54
HETATM   54  N8  UNL     1       1.760   7.051  -1.697  1.00  0.00    -0.045 N 
ATOM     55  H83 UNL     1       2.765   7.146  -1.551  1.00  0.00     0.277 HD
ATOM     56  H82 UNL     1       1.767   6.241  -2.317  1.00  0.00     0.277 HD
ATOM     57  H81 UNL     1       1.371   7.872  -2.160  1.00  0.00     0.277 HD
ENDBRANCH  49  54
ENDBRANCH  46  49
BRANCH  48  58
HETATM   58  O4  UNL     1       0.614   3.808  -1.163  1.00  0.00    -0.343 OA
ATOM     59  H4  UNL     1       0.147   4.367  -1.773  1.00  0.00     0.219 HD
ENDBRANCH  48  58
ENDBRANCH   5  42
TORSDOF 17
