REMARK  17 active torsions:
REMARK  status: ('A' for Active; 'I' for Inactive)
REMARK    1  A    between atoms: O1_2  and  C2_3 
REMARK    2  A    between atoms: C3_5  and  C4_6 
REMARK    3  A    between atoms: C5_8  and  C6_9 
REMARK    4  A    between atoms: C6_9  and  O4_10 
REMARK    5  A    between atoms: C6_9  and  N1_12 
REMARK    6  A    between atoms: N1_12  and  O5_13 
REMARK    7  A    between atoms: N1_12  and  C7_17 
REMARK    8  A    between atoms: O5_13  and  S1_14 
REMARK    9  A    between atoms: C7_17  and  O8_18 
REMARK   10  A    between atoms: C7_17  and  O9_20 
REMARK   11  A    between atoms: C8_22  and  O10_23 
REMARK   12  A    between atoms: C10_27  and  O12_28 
REMARK   13  A    between atoms: C11_30  and  O13_31 
REMARK   14  A    between atoms: C11_30  and  C12_33 
REMARK   15  A    between atoms: C14_38  and  C15_39 
REMARK   16  A    between atoms: C15_39  and  O17_40 
REMARK   17  A    between atoms: C15_39  and  O18_42 
ROOT
HETATM    1  C4  UNL     1      -0.271  -1.453   0.388  1.00  0.00     0.123 A 
HETATM    2  O3  UNL     1      -1.118  -0.746  -0.285  1.00  0.00    -0.306 OA
HETATM    3  C5  UNL     1      -2.352  -1.092  -0.597  1.00  0.00     0.136 A 
HETATM    4  C8  UNL     1      -2.760  -2.322  -0.157  1.00  0.00     0.153 A 
HETATM    5  C9  UNL     1      -1.912  -3.140   0.570  1.00  0.00     0.243 A 
HETATM    6  O11 UNL     1      -2.266  -4.284   0.988  1.00  0.00    -0.282 OA
HETATM    7  C10 UNL     1      -0.622  -2.699   0.858  1.00  0.00     0.152 A 
ENDROOT
BRANCH   1   8
HETATM    8  C3  UNL     1       1.095  -0.902   0.650  1.00  0.00     0.237 C 
HETATM    9  O2  UNL     1       2.055  -1.592  -0.121  1.00  0.00    -0.339 OA
HETATM   10  C2  UNL     1       3.268  -1.434   0.510  1.00  0.00     0.314 C 
HETATM   11  C16 UNL     1       3.598   0.012   0.560  1.00  0.00     0.100 A 
HETATM   12  C13 UNL     1       2.621   0.964   0.419  1.00  0.00     0.131 A 
HETATM   13  N2  UNL     1       4.757   0.698   0.733  1.00  0.00    -0.333 N 
HETATM   14  C11 UNL     1       1.194   0.538   0.207  1.00  0.00     0.230 C 
HETATM   15  O16 UNL     1       3.200   2.138   0.508  1.00  0.00    -0.291 OA
HETATM   16  C14 UNL     1       4.480   2.010   0.696  1.00  0.00     0.180 A 
ATOM     17  H2  UNL     1       5.680   0.286   0.868  1.00  0.00     0.168 HD
BRANCH  10  18
HETATM   18  O1  UNL     1       4.298  -2.141  -0.091  1.00  0.00    -0.360 OA
HETATM   19  C1  UNL     1       4.854  -3.097   0.752  1.00  0.00     0.205 C 
ENDBRANCH  10  18
BRANCH  14  20
HETATM   20  O13 UNL     1       0.425   1.405   0.959  1.00  0.00    -0.370 OA
ATOM     21  H13 UNL     1       0.487   2.311   0.680  1.00  0.00     0.212 HD
ENDBRANCH  14  20
BRANCH  14  22
HETATM   22  C12 UNL     1       0.967   0.669  -1.258  1.00  0.00     0.219 C 
HETATM   23  O14 UNL     1       1.552  -0.067  -2.070  1.00  0.00    -0.645 OA
HETATM   24  O15 UNL     1       0.092   1.627  -1.717  1.00  0.00    -0.645 OA
ENDBRANCH  14  22
BRANCH  16  25
HETATM   25  C15 UNL     1       5.455   3.148   0.843  1.00  0.00     0.331 C 
BRANCH  25  26
HETATM   26  O17 UNL     1       5.220   4.125  -0.118  1.00  0.00    -0.364 OA
ATOM     27  H17 UNL     1       5.835   4.843  -0.025  1.00  0.00     0.213 HD
ENDBRANCH  25  26
BRANCH  25  28
HETATM   28  O18 UNL     1       6.754   2.682   0.829  1.00  0.00    -0.364 OA
ATOM     29  H18 UNL     1       7.369   3.400   0.922  1.00  0.00     0.213 HD
ENDBRANCH  25  28
ENDBRANCH  16  25
ENDBRANCH   1   8
BRANCH   7  30
HETATM   30  O12 UNL     1       0.235  -3.516   1.591  1.00  0.00    -0.355 OA
ATOM     31  H12 UNL     1      -0.007  -4.376   1.915  1.00  0.00     0.218 HD
ENDBRANCH   7  30
BRANCH   3  32
HETATM   32  C6  UNL     1      -3.189  -0.162  -1.379  1.00  0.00     0.285 C 
BRANCH  32  33
HETATM   33  O4  UNL     1      -3.827  -0.817  -2.445  1.00  0.00    -0.372 OA
ATOM     34  H4  UNL     1      -4.366  -0.218  -2.949  1.00  0.00     0.212 HD
ENDBRANCH  32  33
BRANCH  32  35
HETATM   35  N1  UNL     1      -4.221   0.462  -0.566  1.00  0.00    -0.090 NA
BRANCH  35  36
HETATM   36  O5  UNL     1      -4.919   1.261  -1.395  1.00  0.00    -0.156 OA
BRANCH  36  37
HETATM   37  S1  UNL     1      -6.447   1.660  -0.802  1.00  0.00     0.418 S 
HETATM   38  O6  UNL     1      -6.960   2.987  -1.287  1.00  0.00    -0.178 OA
HETATM   39  O7  UNL     1      -7.596   0.438  -1.109  1.00  0.00    -0.178 OA
ENDBRANCH  36  37
ENDBRANCH  35  36
BRANCH  35  40
HETATM   40  C7  UNL     1      -3.574   1.190   0.499  1.00  0.00     0.367 C 
BRANCH  40  41
HETATM   41  O8  UNL     1      -2.746   2.189   0.060  1.00  0.00    -0.357 OA
ATOM     42  H8  UNL     1      -2.320   2.668   0.761  1.00  0.00     0.214 HD
ENDBRANCH  40  41
BRANCH  40  43
HETATM   43  O9  UNL     1      -4.461   1.707   1.421  1.00  0.00    -0.357 OA
ATOM     44  H9  UNL     1      -4.035   2.186   2.122  1.00  0.00     0.214 HD
ENDBRANCH  40  43
ENDBRANCH  35  40
ENDBRANCH  32  35
ENDBRANCH   3  32
BRANCH   4  45
HETATM   45  O10 UNL     1      -4.023  -2.782  -0.421  1.00  0.00    -0.355 OA
ATOM     46  H10 UNL     1      -4.306  -3.636  -0.116  1.00  0.00     0.218 HD
ENDBRANCH   4  45
TORSDOF 17
