REMARK  12 active torsions:
REMARK  status: ('A' for Active; 'I' for Inactive)
REMARK    1  A    between atoms: N4_10  and  N5_11 
REMARK    2  A    between atoms: N7_17  and  C4_18 
REMARK    3  A    between atoms: C6_20  and  N8_21 
REMARK    4  A    between atoms: C8_23  and  C9_24 
REMARK    5  A    between atoms: N10_27  and  C10_28 
REMARK    6  A    between atoms: C10_28  and  C11_29 
REMARK    7  A    between atoms: C11_29  and  O1_30 
REMARK    8  A    between atoms: C11_29  and  C12_32 
REMARK    9  A    between atoms: C12_32  and  O2_33 
REMARK   10  A    between atoms: C13_35  and  S1_36 
REMARK   11  A    between atoms: C14_40  and  O6_41 
REMARK   12  A    between atoms: N13_47  and  N14_48 
REMARK       I    between atoms: N14_48  and  C15_50 
ROOT
HETATM    1  C4  UNL     1       4.081   0.079   0.431  1.00  0.00     0.149 A 
HETATM    2  C5  UNL     1       2.995   0.048   1.256  1.00  0.00     0.106 A 
HETATM    3  C6  UNL     1       1.986  -0.619   0.584  1.00  0.00     0.171 A 
HETATM    4  N13 UNL     1       2.484  -0.977  -0.632  1.00  0.00    -0.172 N 
HETATM    5  N16 UNL     1       3.713  -0.551  -0.687  1.00  0.00    -0.261 N 
ATOM      6  H16 UNL     1       4.325  -0.683  -1.492  1.00  0.00     0.191 HD
ENDROOT
BRANCH   3   7
HETATM    7  N8  UNL     1       0.666  -0.910   1.015  1.00  0.00    -0.231 N 
HETATM    8  C7  UNL     1      -0.478  -0.549   0.363  1.00  0.00     0.153 A 
HETATM    9  C8  UNL     1      -1.553  -0.998   1.069  1.00  0.00     0.098 A 
HETATM   10  N11 UNL     1      -1.060  -1.627   2.143  1.00  0.00    -0.282 N 
HETATM   11  N12 UNL     1       0.251  -1.562   2.089  1.00  0.00    -0.234 N 
ATOM     12  H11 UNL     1      -1.607  -2.078   2.876  1.00  0.00     0.188 HD
ATOM     13  H12 UNL     1       0.873  -1.965   2.790  1.00  0.00     0.209 HD
BRANCH   9  14
HETATM   14  C9  UNL     1      -2.987  -0.843   0.753  1.00  0.00     0.114 A 
HETATM   15  N9  UNL     1      -3.485  -0.227  -0.299  1.00  0.00    -0.292 N 
HETATM   16  N10 UNL     1      -4.844  -0.281  -0.259  1.00  0.00    -0.274 N 
ATOM     17  H9  UNL     1      -2.936   0.222  -1.032  1.00  0.00     0.187 HD
HETATM   18  C13 UNL     1      -5.229  -0.930   0.809  1.00  0.00     0.203 A 
HETATM   19  C14 UNL     1      -4.050  -1.305   1.486  1.00  0.00     0.139 A 
BRANCH  16  20
HETATM   20  C10 UNL     1      -5.575   0.445  -1.275  1.00  0.00     0.184 C 
BRANCH  20  21
HETATM   21  C11 UNL     1      -5.463   1.942  -1.039  1.00  0.00     0.161 C 
BRANCH  21  22
HETATM   22  O1  UNL     1      -4.060   2.227  -1.099  1.00  0.00    -0.392 OA
ATOM     23  H1  UNL     1      -3.990   3.163  -0.951  1.00  0.00     0.210 HD
ENDBRANCH  21  22
BRANCH  21  24
HETATM   24  C12 UNL     1      -5.952   2.470   0.243  1.00  0.00     0.197 C 
BRANCH  24  25
HETATM   25  O2  UNL     1      -7.317   2.374   0.416  1.00  0.00    -0.398 OA
ATOM     26  H2  UNL     1      -7.633   2.715   1.244  1.00  0.00     0.209 HD
ENDBRANCH  24  25
ENDBRANCH  21  24
ENDBRANCH  20  21
ENDBRANCH  16  20
BRANCH  18  27
HETATM   27  S1  UNL     1      -6.827  -1.413   1.303  1.00  0.00     0.159 S 
HETATM   28  O3  UNL     1      -7.916  -0.758   0.510  1.00  0.00    -0.590 OA
HETATM   29  O4  UNL     1      -7.042  -1.394   2.768  1.00  0.00    -0.590 OA
HETATM   30  O5  UNL     1      -6.942  -3.068   0.827  1.00  0.00    -0.590 OA
ENDBRANCH  18  27
BRANCH  19  31
HETATM   31  O6  UNL     1      -4.000  -2.006   2.666  1.00  0.00    -0.356 OA
ATOM     32  H6  UNL     1      -4.736  -2.326   3.174  1.00  0.00     0.218 HD
ENDBRANCH  19  31
ENDBRANCH   9  14
ENDBRANCH   3   7
BRANCH   4  33
HETATM   33  N14 UNL     1       1.826  -1.670  -1.647  1.00  0.00    -0.231 N 
HETATM   34  C15 UNL     1       2.479  -1.966  -2.855  1.00  0.00     0.348 C 
HETATM   35  N15 UNL     1       1.805  -2.669  -3.875  1.00  0.00    -0.038 NA
HETATM   36  O7  UNL     1       3.662  -1.611  -3.037  1.00  0.00    -0.249 OA
ATOM     37  H14 UNL     1       0.859  -1.966  -1.511  1.00  0.00     0.193 HD
ENDBRANCH   4  33
BRANCH   1  38
HETATM   38  N7  UNL     1       5.381   0.657   0.664  1.00  0.00    -0.218 N 
HETATM   39  C1  UNL     1       5.707   1.601   1.588  1.00  0.00     0.155 A 
HETATM   40  N1  UNL     1       4.886   2.132   2.407  1.00  0.00    -0.382 N 
HETATM   41  C2  UNL     1       7.047   1.888   1.496  1.00  0.00     0.144 A 
ATOM     42  H12 UNL     1       5.130   2.840   3.100  1.00  0.00     0.157 HD
ATOM     43  H11 UNL     1       3.891   1.919   2.475  1.00  0.00     0.157 HD
HETATM   44  N2  UNL     1       8.118   2.603   1.949  1.00  0.00    -0.278 N 
HETATM   45  C3  UNL     1       7.539   1.096   0.492  1.00  0.00     0.193 A 
HETATM   46  N3  UNL     1       9.173   2.240   1.240  1.00  0.00    -0.219 N 
ATOM     47  H2  UNL     1       8.106   3.293   2.700  1.00  0.00     0.189 HD
HETATM   48  N4  UNL     1       8.866   1.329   0.347  1.00  0.00    -0.168 N 
ATOM     49  H3  UNL     1      10.110   2.621   1.371  1.00  0.00     0.210 HD
HETATM   50  N6  UNL     1       6.503   0.381   0.030  1.00  0.00    -0.271 N 
ATOM     51  H6  UNL     1       6.575  -0.299  -0.726  1.00  0.00     0.189 HD
BRANCH  48  52
HETATM   52  N5  UNL     1       9.733   0.728  -0.562  1.00  0.00    -0.321 N 
ATOM     53  H52 UNL     1      10.732   0.903  -0.671  1.00  0.00     0.179 HD
ATOM     54  H51 UNL     1       9.494   0.020  -1.256  1.00  0.00     0.179 HD
ENDBRANCH  48  52
ENDBRANCH   1  38
TORSDOF 12
