REMARK  13 active torsions:
REMARK  status: ('A' for Active; 'I' for Inactive)
REMARK    1  A    between atoms: N1_2  and  C2_4 
REMARK    2  A    between atoms: C3_7  and  C4_8 
REMARK    3  A    between atoms: C5_12  and  C6_13 
REMARK    4  A    between atoms: C6_13  and  N5_14 
REMARK    5  A    between atoms: N5_14  and  C7_16 
REMARK    6  A    between atoms: C7_16  and  O1_17 
REMARK    7  A    between atoms: C7_16  and  C8_19 
REMARK    8  A    between atoms: C8_19  and  N6_20 
REMARK    9  A    between atoms: C8_19  and  C9_24 
REMARK   10  A    between atoms: C9_24  and  O2_25 
REMARK   11  A    between atoms: C13_35  and  C14_36 
REMARK   12  A    between atoms: C14_36  and  N10_37 
REMARK   13  A    between atoms: C17_47  and  N15_48 
ROOT
HETATM    1  C2  UNL     1       1.757  -3.234  -1.383  1.00  0.00     0.673 C 
HETATM    2  N2  UNL     1       1.074  -2.445  -0.673  1.00  0.00    -0.193 N 
ATOM      3  H2  UNL     1       0.306  -2.950  -0.231  1.00  0.00     0.184 HD
HETATM    4  C3  UNL     1       1.036  -1.095  -0.299  1.00  0.00     0.066 C 
HETATM    5  C13 UNL     1       2.321  -0.351  -0.189  1.00  0.00     0.060 C 
HETATM    6  C19 UNL     1       3.560  -1.127  -0.534  1.00  0.00     0.033 C 
HETATM    7  C20 UNL     1       3.614  -1.542  -2.010  1.00  0.00     0.139 C 
HETATM    8  N17 UNL     1       2.918  -2.822  -2.119  1.00  0.00    -0.226 N 
ATOM      9  H17 UNL     1       3.297  -3.493  -2.788  1.00  0.00     0.177 HD
ENDROOT
BRANCH   4  10
HETATM   10  C4  UNL     1      -0.089  -0.291  -0.735  1.00  0.00     0.145 A 
HETATM   11  N3  UNL     1      -1.045   0.273  -0.001  1.00  0.00    -0.271 N 
HETATM   12  N4  UNL     1      -1.963   0.842  -0.800  1.00  0.00    -0.174 N 
ATOM     13  H3  UNL     1      -1.076   0.273   1.019  1.00  0.00     0.189 HD
HETATM   14  C5  UNL     1      -3.084   1.536  -0.645  1.00  0.00     0.075 A 
HETATM   15  N9  UNL     1      -1.599   0.652  -2.082  1.00  0.00    -0.132 N 
HETATM   16  C10 UNL     1      -3.840   2.052  -1.677  1.00  0.00     0.077 A 
HETATM   17  C11 UNL     1      -3.418   1.835  -2.990  1.00  0.00     0.134 A 
HETATM   18  N7  UNL     1      -4.128   2.370  -4.091  1.00  0.00    -0.081 NA
HETATM   19  N8  UNL     1      -2.285   1.123  -3.117  1.00  0.00    -0.261 N 
ATOM     20  H8  UNL     1      -1.934   0.935  -4.056  1.00  0.00     0.190 HD
HETATM   21  C12 UNL     1      -0.450  -0.049  -2.038  1.00  0.00     0.313 A 
HETATM   22  O3  UNL     1       0.211  -0.438  -3.019  1.00  0.00    -0.262 OA
BRANCH  14  23
HETATM   23  C6  UNL     1      -3.691   1.639   0.756  1.00  0.00     0.178 C 
BRANCH  23  24
HETATM   24  N5  UNL     1      -4.491   0.514   0.975  1.00  0.00    -0.390 N 
ATOM     25  H5  UNL     1      -4.501  -0.218   0.264  1.00  0.00     0.156 HD
BRANCH  24  26
HETATM   26  C7  UNL     1      -5.268   0.341   2.101  1.00  0.00     0.246 C 
BRANCH  26  27
HETATM   27  O1  UNL     1      -5.833  -0.996   2.136  1.00  0.00    -0.375 OA
ATOM     28  H1  UNL     1      -6.368  -1.115   2.912  1.00  0.00     0.212 HD
ENDBRANCH  26  27
BRANCH  26  29
HETATM   29  C8  UNL     1      -6.427   1.297   2.320  1.00  0.00     0.254 C 
BRANCH  29  30
HETATM   30  N6  UNL     1      -7.091   0.985   3.597  1.00  0.00    -0.069 N 
ATOM     31  H63 UNL     1      -7.382   0.009   3.651  1.00  0.00     0.275 HD
ATOM     32  H62 UNL     1      -6.438   0.987   4.380  1.00  0.00     0.275 HD
ATOM     33  H61 UNL     1      -7.870   1.627   3.744  1.00  0.00     0.275 HD
ENDBRANCH  29  30
BRANCH  29  34
HETATM   34  C9  UNL     1      -7.431   1.157   1.211  1.00  0.00     0.201 C 
BRANCH  34  35
HETATM   35  O2  UNL     1      -6.913   1.438  -0.020  1.00  0.00    -0.399 OA
ATOM     36  H2  UNL     1      -7.548   1.349  -0.721  1.00  0.00     0.209 HD
ENDBRANCH  34  35
ENDBRANCH  29  34
ENDBRANCH  26  29
ENDBRANCH  24  26
ENDBRANCH  23  24
ENDBRANCH  14  23
ENDBRANCH   4  10
BRANCH   5  37
HETATM   37  C14 UNL     1       2.528   0.385   1.095  1.00  0.00     0.163 C 
BRANCH  37  38
HETATM   38  N10 UNL     1       3.761   1.127   1.171  1.00  0.00    -0.259 N 
HETATM   39  N11 UNL     1       3.942   2.328   0.615  1.00  0.00    -0.238 N 
HETATM   40  N12 UNL     1       5.169   2.759   0.792  1.00  0.00    -0.279 N 
ATOM     41  H11 UNL     1       3.218   2.845   0.116  1.00  0.00     0.208 HD
HETATM   42  C15 UNL     1       5.879   1.826   1.503  1.00  0.00     0.137 A 
ATOM     43  H12 UNL     1       5.537   3.648   0.454  1.00  0.00     0.189 HD
HETATM   44  C16 UNL     1       7.161   1.752   1.969  1.00  0.00     0.163 A 
HETATM   45  C18 UNL     1       4.929   0.807   1.716  1.00  0.00     0.170 A 
HETATM   46  N13 UNL     1       8.089   2.792   1.725  1.00  0.00    -0.080 NA
HETATM   47  N14 UNL     1       7.547   0.673   2.665  1.00  0.00    -0.177 N 
HETATM   48  C17 UNL     1       6.644  -0.297   2.877  1.00  0.00     0.678 A 
ATOM     49  H14 UNL     1       8.499   0.592   3.023  1.00  0.00     0.185 HD
HETATM   50  N16 UNL     1       5.385  -0.257   2.429  1.00  0.00    -0.173 N 
ATOM     51  H16 UNL     1       4.757  -1.037   2.625  1.00  0.00     0.186 HD
BRANCH  48  52
HETATM   52  N15 UNL     1       6.999  -1.313   3.578  1.00  0.00    -0.234 N 
ATOM     53 2H15 UNL     1       7.960  -1.344   3.920  1.00  0.00     0.174 HD
ATOM     54 1H15 UNL     1       6.313  -2.050   3.739  1.00  0.00     0.174 HD
ENDBRANCH  48  52
ENDBRANCH  37  38
ENDBRANCH   5  37
BRANCH   1  55
HETATM   55  N1  UNL     1       1.388  -4.608  -1.462  1.00  0.00    -0.231 N 
HETATM   56  C1  UNL     1       0.491  -5.077  -2.472  1.00  0.00     0.165 C 
ATOM     57  H1  UNL     1       1.771  -5.269  -0.786  1.00  0.00     0.177 HD
ENDBRANCH   1  55
TORSDOF 13
