REMARK  17 active torsions:
REMARK  status: ('A' for Active; 'I' for Inactive)
REMARK    1  A    between atoms: C3_6  and  O1_7 
REMARK    2  A    between atoms: O1_7  and  C4_8 
REMARK    3  A    between atoms: C5_10  and  O3_11 
REMARK    4  A    between atoms: C6_13  and  C7_14 
REMARK    5  A    between atoms: C7_14  and  O4_15 
REMARK    6  A    between atoms: C8_18  and  O5_19 
REMARK    7  A    between atoms: C8_18  and  C9_21 
REMARK    8  A    between atoms: C9_21  and  O6_22 
REMARK    9  A    between atoms: C10_24  and  O7_25 
REMARK   10  A    between atoms: C11_27  and  O8_28 
REMARK   11  A    between atoms: O8_28  and  C12_29 
REMARK   12  A    between atoms: C13_31  and  C14_32 
REMARK   13  A    between atoms: C14_32  and  O10_33 
REMARK   14  A    between atoms: C15_35  and  O11_37 
REMARK   15  A    between atoms: C17_39  and  O12_40 
REMARK   16  A    between atoms: C18_42  and  O13_43 
REMARK   17  A    between atoms: C19_45  and  O14_46 
ROOT
HETATM    1  C1  UNL     1       0.350  -5.012  -1.096  1.00  0.00     0.043 C 
HETATM    2  C2  UNL     1       0.812  -3.724  -0.460  1.00  0.00     0.216 C 
HETATM    3  N1  UNL     1      -0.275  -3.020   0.177  1.00  0.00    -0.040 N 
ATOM      4  H11 UNL     1      -0.122  -2.834   1.168  1.00  0.00     0.280 HD
ATOM      5  H12 UNL     1      -1.119  -3.581   0.292  1.00  0.00     0.280 HD
HETATM    6  C3  UNL     1      -0.473  -1.805  -0.633  1.00  0.00     0.355 C 
HETATM    7  C11 UNL     1       0.978  -1.436  -0.859  1.00  0.00     0.212 C 
HETATM    8  C19 UNL     1       1.420  -2.773  -1.492  1.00  0.00     0.181 C 
ENDROOT
BRANCH   6   9
HETATM    9  O1  UNL     1      -1.240  -0.868  -0.029  1.00  0.00    -0.323 OA
BRANCH   9  10
HETATM   10  C4  UNL     1      -2.390  -0.580  -0.739  1.00  0.00     0.298 C 
HETATM   11  O2  UNL     1      -2.349   0.706  -1.197  1.00  0.00    -0.328 OA
HETATM   12  C5  UNL     1      -2.460   1.702  -0.262  1.00  0.00     0.275 C 
HETATM   13  C6  UNL     1      -3.795   2.408  -0.537  1.00  0.00     0.129 C 
HETATM   14  S1  UNL     1      -5.094   1.374   0.147  1.00  0.00    -0.115 SA
HETATM   15  C8  UNL     1      -4.876  -0.306  -0.479  1.00  0.00     0.158 C 
HETATM   16  C10 UNL     1      -3.633  -0.962   0.023  1.00  0.00     0.220 C 
BRANCH  12  17
HETATM   17  O3  UNL     1      -1.421   2.629  -0.327  1.00  0.00    -0.370 OA
ATOM     18  H3  UNL     1      -1.498   3.319   0.321  1.00  0.00     0.212 HD
ENDBRANCH  12  17
BRANCH  13  19
HETATM   19  C7  UNL     1      -3.819   3.807  -0.014  1.00  0.00     0.184 C 
BRANCH  19  20
HETATM   20  O4  UNL     1      -2.813   4.546  -0.619  1.00  0.00    -0.400 OA
ATOM     21  H4  UNL     1      -2.828   5.436  -0.286  1.00  0.00     0.209 HD
ENDBRANCH  19  20
ENDBRANCH  13  19
BRANCH  15  22
HETATM   22  O5  UNL     1      -4.892  -0.372  -1.855  1.00  0.00    -0.374 OA
ATOM     23  H5  UNL     1      -4.777  -1.256  -2.184  1.00  0.00     0.211 HD
ENDBRANCH  15  22
BRANCH  15  24
HETATM   24  C9  UNL     1      -6.059  -1.127   0.021  1.00  0.00     0.216 C 
BRANCH  24  25
HETATM   25  O6  UNL     1      -6.141  -1.131   1.407  1.00  0.00    -0.397 OA
ATOM     26  H6  UNL     1      -6.878  -1.643   1.719  1.00  0.00     0.209 HD
ENDBRANCH  24  25
ENDBRANCH  15  24
BRANCH  16  27
HETATM   27  O7  UNL     1      -3.472  -0.837   1.411  1.00  0.00    -0.387 OA
ATOM     28  H7  UNL     1      -4.255  -1.078   1.891  1.00  0.00     0.210 HD
ENDBRANCH  16  27
ENDBRANCH   9  10
ENDBRANCH   6   9
BRANCH   7  29
HETATM   29  O8  UNL     1       1.685  -1.367   0.337  1.00  0.00    -0.346 OA
BRANCH  29  30
HETATM   30  C12 UNL     1       2.496  -0.241   0.446  1.00  0.00     0.292 C 
HETATM   31  O9  UNL     1       2.084   0.451   1.577  1.00  0.00    -0.348 OA
HETATM   32  C13 UNL     1       2.687   1.672   1.757  1.00  0.00     0.184 C 
HETATM   33  C15 UNL     1       4.170   1.519   1.932  1.00  0.00     0.111 C 
HETATM   34  C16 UNL     1       4.980   2.270   0.913  1.00  0.00     0.051 C 
HETATM   35  C17 UNL     1       4.537   0.058   1.867  1.00  0.00     0.188 C 
HETATM   36  C18 UNL     1       3.948  -0.621   0.651  1.00  0.00     0.205 C 
BRANCH  32  37
HETATM   37  C14 UNL     1       2.308   2.684   0.704  1.00  0.00     0.199 C 
BRANCH  37  38
HETATM   38  O10 UNL     1       2.943   3.895   0.940  1.00  0.00    -0.398 OA
ATOM     39  H10 UNL     1       2.704   4.532   0.277  1.00  0.00     0.209 HD
ENDBRANCH  37  38
ENDBRANCH  32  37
BRANCH  33  40
HETATM   40  O11 UNL     1       4.561   1.980   3.189  1.00  0.00    -0.385 OA
ATOM     41  H11 UNL     1       5.500   1.883   3.300  1.00  0.00     0.210 HD
ENDBRANCH  33  40
BRANCH  35  42
HETATM   42  O12 UNL     1       5.925  -0.037   1.820  1.00  0.00    -0.390 OA
ATOM     43  H12 UNL     1       6.156  -0.958   1.779  1.00  0.00     0.210 HD
ENDBRANCH  35  42
BRANCH  36  44
HETATM   44  O13 UNL     1       4.678  -0.215  -0.453  1.00  0.00    -0.388 OA
ATOM     45  H13 UNL     1       5.589  -0.453  -0.324  1.00  0.00     0.210 HD
ENDBRANCH  36  44
ENDBRANCH  29  30
ENDBRANCH   7  29
BRANCH   8  46
HETATM   46  O14 UNL     1       0.728  -2.971  -2.669  1.00  0.00    -0.391 OA
ATOM     47  H14 UNL     1       1.106  -2.380  -3.310  1.00  0.00     0.210 HD
ENDBRANCH   8  46
TORSDOF 17
