REMARK  18 active torsions:
REMARK  status: ('A' for Active; 'I' for Inactive)
REMARK    1  A    between atoms: O1_1  and  C1_3 
REMARK    2  A    between atoms: C1_3  and  C2_4 
REMARK    3  A    between atoms: C2_4  and  C3_5 
REMARK    4  A    between atoms: C3_5  and  O2_6 
REMARK    5  A    between atoms: C5_9  and  O3_10 
REMARK    6  A    between atoms: C5_9  and  C6_12 
REMARK    7  A    between atoms: C6_12  and  O4_13 
REMARK    8  A    between atoms: C8_17  and  O6_18 
REMARK    9  A    between atoms: O6_18  and  C9_19 
REMARK   10  A    between atoms: C11_23  and  O8_24 
REMARK   11  A    between atoms: O8_24  and  C12_25 
REMARK   12  A    between atoms: C13_26  and  O9_27 
REMARK   13  A    between atoms: C14_29  and  O10_30 
REMARK   14  A    between atoms: C15_33  and  C16_34 
REMARK   15  A    between atoms: C16_34  and  O12_35 
REMARK   16  A    between atoms: C17_37  and  O13_38 
REMARK   17  A    between atoms: C18_40  and  O14_41 
REMARK   18  A    between atoms: C19_43  and  O15_44 
ROOT
HETATM    1  C9  UNL     1      -0.715  -0.334  -0.227  1.00  0.00     0.196 C 
HETATM    2  C10 UNL     1       0.088  -0.246  -1.492  1.00  0.00     0.228 C 
HETATM    3  S1  UNL     1      -0.161  -1.675  -2.582  1.00  0.00    -0.060 SA
HETATM    4  O7  UNL     1       1.437  -0.089  -1.303  1.00  0.00    -0.340 OA
HETATM    5  C11 UNL     1       1.855  -0.156   0.008  1.00  0.00     0.293 C 
HETATM    6  C18 UNL     1       1.351  -1.352   0.755  1.00  0.00     0.204 C 
HETATM    7  C19 UNL     1      -0.154  -1.314   0.766  1.00  0.00     0.184 C 
ENDROOT
BRANCH   1   8
HETATM    8  O6  UNL     1      -2.023  -0.646  -0.591  1.00  0.00    -0.347 OA
BRANCH   8   9
HETATM    9  C8  UNL     1      -2.923   0.393  -0.303  1.00  0.00     0.294 C 
HETATM   10  C3  UNL     1      -3.951  -0.162   0.599  1.00  0.00     0.112 C 
HETATM   11  C4  UNL     1      -4.890  -1.120  -0.155  1.00  0.00     0.085 C 
HETATM   12  C5  UNL     1      -5.140  -0.761  -1.567  1.00  0.00     0.103 C 
HETATM   13  C7  UNL     1      -3.999  -0.114  -2.268  1.00  0.00     0.211 C 
HETATM   14  O5  UNL     1      -3.476   0.895  -1.492  1.00  0.00    -0.355 OA
BRANCH  10  15
HETATM   15  C2  UNL     1      -4.754   0.881   1.301  1.00  0.00     0.069 C 
BRANCH  15  16
HETATM   16  C1  UNL     1      -4.077   1.755   2.280  1.00  0.00     0.167 C 
BRANCH  16  17
HETATM   17  O1  UNL     1      -3.064   2.557   1.811  1.00  0.00    -0.401 OA
ATOM     18  H1  UNL     1      -2.628   3.119   2.441  1.00  0.00     0.209 HD
ENDBRANCH  16  17
ENDBRANCH  15  16
ENDBRANCH  10  15
BRANCH  10  19
HETATM   19  O2  UNL     1      -3.388  -1.006   1.591  1.00  0.00    -0.385 OA
ATOM     20  H2  UNL     1      -2.877  -1.670   1.144  1.00  0.00     0.210 HD
ENDBRANCH  10  19
BRANCH  12  21
HETATM   21  O3  UNL     1      -5.366  -1.995  -2.250  1.00  0.00    -0.385 OA
ATOM     22  H3  UNL     1      -5.527  -1.764  -3.157  1.00  0.00     0.210 HD
ENDBRANCH  12  21
BRANCH  12  23
HETATM   23  C6  UNL     1      -6.428   0.017  -1.776  1.00  0.00     0.204 C 
BRANCH  23  24
HETATM   24  O4  UNL     1      -7.466  -0.702  -1.222  1.00  0.00    -0.398 OA
ATOM     25  H4  UNL     1      -8.271  -0.215  -1.353  1.00  0.00     0.209 HD
ENDBRANCH  23  24
ENDBRANCH  12  23
ENDBRANCH   8   9
ENDBRANCH   1   8
BRANCH   7  26
HETATM   26  O15 UNL     1      -0.592  -2.624   0.540  1.00  0.00    -0.390 OA
ATOM     27  H15 UNL     1      -0.238  -3.243   1.167  1.00  0.00     0.210 HD
ENDBRANCH   7  26
BRANCH   6  28
HETATM   28  O14 UNL     1       1.839  -2.551   0.229  1.00  0.00    -0.388 OA
ATOM     29  H14 UNL     1       1.519  -3.310   0.703  1.00  0.00     0.210 HD
ENDBRANCH   6  28
BRANCH   5  30
HETATM   30  O8  UNL     1       3.257  -0.246  -0.012  1.00  0.00    -0.348 OA
BRANCH  30  31
HETATM   31  C12 UNL     1       3.847   0.810   0.682  1.00  0.00     0.189 C 
HETATM   32  C13 UNL     1       4.589   0.186   1.859  1.00  0.00     0.204 C 
HETATM   33  C14 UNL     1       5.608  -0.744   1.285  1.00  0.00     0.288 C 
HETATM   34  O11 UNL     1       6.548  -0.125   0.516  1.00  0.00    -0.349 OA
HETATM   35  C15 UNL     1       6.275   1.151   0.130  1.00  0.00     0.179 C 
HETATM   36  C17 UNL     1       4.860   1.443  -0.216  1.00  0.00     0.181 C 
BRANCH  32  37
HETATM   37  O9  UNL     1       5.170   1.125   2.677  1.00  0.00    -0.388 OA
ATOM     38  H9  UNL     1       5.632   0.736   3.410  1.00  0.00     0.210 HD
ENDBRANCH  32  37
BRANCH  33  39
HETATM   39  O10 UNL     1       6.261  -1.466   2.311  1.00  0.00    -0.369 OA
ATOM     40  H10 UNL     1       6.909  -2.057   1.946  1.00  0.00     0.212 HD
ENDBRANCH  33  39
BRANCH  35  41
HETATM   41  C16 UNL     1       7.114   1.419  -1.130  1.00  0.00     0.198 C 
BRANCH  41  42
HETATM   42  O12 UNL     1       6.904   2.700  -1.601  1.00  0.00    -0.398 OA
ATOM     43  H12 UNL     1       7.422   2.866  -2.380  1.00  0.00     0.209 HD
ENDBRANCH  41  42
ENDBRANCH  35  41
BRANCH  36  44
HETATM   44  O13 UNL     1       4.660   1.119  -1.562  1.00  0.00    -0.390 OA
ATOM     45  H13 UNL     1       5.304   1.521  -2.133  1.00  0.00     0.210 HD
ENDBRANCH  36  44
ENDBRANCH  30  31
ENDBRANCH   5  30
TORSDOF 18
