REMARK  17 active torsions:
REMARK  status: ('A' for Active; 'I' for Inactive)
REMARK    1  A    between atoms: C2_2  and  O1_3 
REMARK    2  A    between atoms: C2_2  and  C3_5 
REMARK    3  A    between atoms: C3_5  and  O2_6 
REMARK    4  A    between atoms: C3_5  and  C4_8 
REMARK    5  A    between atoms: C4_8  and  O3_9 
REMARK    6  A    between atoms: C4_8  and  C5_11 
REMARK    7  A    between atoms: C6_13  and  O5_14 
REMARK    8  A    between atoms: C8_18  and  N2_19 
REMARK    9  A    between atoms: N2_19  and  C9_21 
REMARK   10  A    between atoms: C9_21  and  C10_22 
REMARK   11  A    between atoms: C10_22  and  N3_23 
REMARK       I    between atoms: N3_23  and  C11_25 
REMARK   12  A    between atoms: C11_25  and  C12_27 
REMARK   13  A    between atoms: C14_29  and  O7_30 
REMARK   14  A    between atoms: C15_32  and  O8_33 
REMARK   15  A    between atoms: C17_38  and  O11_39 
REMARK   16  A    between atoms: C18_41  and  N4_42 
REMARK   17  A    between atoms: C19_46  and  O12_47 
ROOT
HETATM    1  C5  UNL     1      -2.435   0.871   0.454  1.00  0.00     0.299 C 
HETATM    2  O4  UNL     1      -1.576   1.916   0.765  1.00  0.00    -0.308 OA
HETATM    3  C6  UNL     1      -0.316   1.493   1.183  1.00  0.00     0.283 C 
HETATM    4  C7  UNL     1       0.649   2.205   0.345  1.00  0.00     0.131 C 
HETATM    5  N1  UNL     1       1.401   2.785  -0.335  1.00  0.00    -0.191 NA
HETATM    6  C8  UNL     1      -0.145   0.014   1.155  1.00  0.00     0.221 C 
HETATM    7  C16 UNL     1      -0.878  -0.667   0.049  1.00  0.00     0.224 C 
HETATM    8  O10 UNL     1      -1.584  -1.781   0.507  1.00  0.00    -0.318 OA
HETATM    9  C17 UNL     1      -1.865  -2.606  -0.548  1.00  0.00     0.293 C 
HETATM   10  C18 UNL     1      -1.121  -2.100  -1.754  1.00  0.00     0.272 C 
HETATM   11  C19 UNL     1      -0.044  -1.253  -1.043  1.00  0.00     0.218 C 
HETATM   12  O13 UNL     1      -1.830   0.160  -0.580  1.00  0.00    -0.317 OA
ENDROOT
BRANCH   3  13
HETATM   13  O5  UNL     1      -0.184   2.048   2.482  1.00  0.00    -0.352 OA
ATOM     14  H5  UNL     1       0.675   1.760   2.767  1.00  0.00     0.214 HD
ENDBRANCH   3  13
BRANCH   6  15
HETATM   15  N2  UNL     1       1.217  -0.359   1.288  1.00  0.00    -0.406 N 
ATOM     16  H2  UNL     1       1.708  -0.855   0.544  1.00  0.00     0.154 HD
BRANCH  15  17
HETATM   17  C9  UNL     1       1.870  -0.010   2.507  1.00  0.00     0.134 C 
BRANCH  17  18
HETATM   18  C10 UNL     1       3.303  -0.562   2.559  1.00  0.00     0.142 C 
BRANCH  18  19
HETATM   19  N3  UNL     1       4.106  -0.061   1.487  1.00  0.00    -0.354 N 
HETATM   20  C11 UNL     1       5.471  -0.437   1.339  1.00  0.00     0.275 C 
HETATM   21  O6  UNL     1       5.971  -1.232   2.181  1.00  0.00    -0.265 OA
ATOM     22  H3  UNL     1       3.691   0.581   0.812  1.00  0.00     0.162 HD
BRANCH  20  23
HETATM   23  C12 UNL     1       6.287   0.069   0.252  1.00  0.00     0.148 A 
HETATM   24  C13 UNL     1       5.886   0.923  -0.743  1.00  0.00     0.084 A 
HETATM   25  C14 UNL     1       6.979   1.135  -1.552  1.00  0.00     0.127 A 
HETATM   26  C15 UNL     1       8.018   0.392  -1.010  1.00  0.00     0.218 A 
HETATM   27  O9  UNL     1       7.546  -0.206   0.042  1.00  0.00    -0.280 OA
BRANCH  25  28
HETATM   28  O7  UNL     1       7.013   1.939  -2.684  1.00  0.00    -0.356 OA
ATOM     29  H7  UNL     1       7.767   2.085  -3.242  1.00  0.00     0.218 HD
ENDBRANCH  25  28
BRANCH  26  30
HETATM   30  O8  UNL     1       9.299   0.359  -1.569  1.00  0.00    -0.339 OA
ATOM     31  H8  UNL     1      10.010  -0.150  -1.198  1.00  0.00     0.220 HD
ENDBRANCH  26  30
ENDBRANCH  20  23
ENDBRANCH  18  19
ENDBRANCH  17  18
ENDBRANCH  15  17
ENDBRANCH   6  15
BRANCH   1  32
HETATM   32  C4  UNL     1      -3.763   1.466   0.109  1.00  0.00     0.204 C 
BRANCH  32  33
HETATM   33  C3  UNL     1      -4.810   0.459  -0.213  1.00  0.00     0.180 C 
BRANCH  33  34
HETATM   34  C2  UNL     1      -6.200   1.028  -0.271  1.00  0.00     0.145 C 
HETATM   35  C1  UNL     1      -6.460   1.832  -1.500  1.00  0.00     0.042 C 
BRANCH  34  36
HETATM   36  O1  UNL     1      -6.495   1.768   0.874  1.00  0.00    -0.393 OA
ATOM     37  H1  UNL     1      -6.329   1.256   1.657  1.00  0.00     0.210 HD
ENDBRANCH  34  36
ENDBRANCH  33  34
BRANCH  33  38
HETATM   38  O2  UNL     1      -4.518  -0.271  -1.348  1.00  0.00    -0.390 OA
ATOM     39  H2  UNL     1      -3.639  -0.631  -1.311  1.00  0.00     0.210 HD
ENDBRANCH  33  38
ENDBRANCH  32  33
BRANCH  32  40
HETATM   40  O3  UNL     1      -4.167   2.164   1.274  1.00  0.00    -0.388 OA
ATOM     41  H3  UNL     1      -3.499   2.807   1.480  1.00  0.00     0.210 HD
ENDBRANCH  32  40
ENDBRANCH   1  32
BRANCH  11  42
HETATM   42  O12 UNL     1       0.892  -2.182  -0.635  1.00  0.00    -0.388 OA
ATOM     43  H12 UNL     1       1.422  -2.555  -1.329  1.00  0.00     0.210 HD
ENDBRANCH  11  42
BRANCH   9  44
HETATM   44  O11 UNL     1      -1.446  -3.903  -0.203  1.00  0.00    -0.369 OA
ATOM     45  H11 UNL     1      -1.641  -4.476  -0.935  1.00  0.00     0.212 HD
ENDBRANCH   9  44
BRANCH  10  46
HETATM   46  N4  UNL     1      -0.478  -3.202  -2.407  1.00  0.00    -0.068 N 
ATOM     47  H43 UNL     1       0.123  -3.730  -1.774  1.00  0.00     0.275 HD
ATOM     48  H42 UNL     1      -1.132  -3.949  -2.641  1.00  0.00     0.275 HD
ATOM     49  H41 UNL     1       0.026  -2.859  -3.225  1.00  0.00     0.275 HD
ENDBRANCH  10  46
TORSDOF 17
