REMARK  3 active torsions:
REMARK  status: ('A' for Active; 'I' for Inactive)
REMARK    1  A    between atoms: C3_3  and  O1_4 
REMARK    2  A    between atoms: C7_10  and  O3_11 
REMARK    3  A    between atoms: C8_13  and  O4_14 
ROOT
HETATM    1  C1  UNL     1      -1.394   1.528  -0.605  1.00  0.00     0.016 C 
HETATM    2  C2  UNL     1      -0.683   0.197  -0.703  1.00  0.00     0.050 C 
HETATM    3  C3  UNL     1      -1.705  -0.847  -0.225  1.00  0.00     0.148 C 
HETATM    4  C4  UNL     1      -1.583  -0.674   1.271  1.00  0.00     0.201 C 
HETATM    5  O2  UNL     1      -0.391  -0.069   1.540  1.00  0.00    -0.374 OA
HETATM    6  C5  UNL     1       0.345   0.017   0.392  1.00  0.00     0.097 C 
HETATM    7  C6  UNL     1       1.224  -1.175   0.104  1.00  0.00     0.075 C 
HETATM    8  C7  UNL     1       2.422  -0.292   0.466  1.00  0.00     0.152 C 
HETATM    9  C8  UNL     1       1.502   0.934   0.383  1.00  0.00     0.182 C 
ENDROOT
BRANCH   9  10
HETATM   10  O4  UNL     1       1.715   1.684  -0.769  1.00  0.00    -0.390 OA
ATOM     11  H4  UNL     1       2.460   2.274  -0.775  1.00  0.00     0.210 HD
ENDBRANCH   9  10
BRANCH   3  12
HETATM   12  O1  UNL     1      -2.967  -0.589  -0.697  1.00  0.00    -0.393 OA
ATOM     13  H1  UNL     1      -3.599  -1.234  -0.402  1.00  0.00     0.210 HD
ENDBRANCH   3  12
BRANCH   8  14
HETATM   14  O3  UNL     1       3.425  -0.324  -0.474  1.00  0.00    -0.393 OA
ATOM     15  H3  UNL     1       4.168   0.224  -0.249  1.00  0.00     0.210 HD
ENDBRANCH   8  14
TORSDOF 3
