REMARK  4 active torsions:
REMARK  status: ('A' for Active; 'I' for Inactive)
REMARK    1  A    between atoms: C4_4  and  O1_5 
REMARK    2  A    between atoms: C5_7  and  O2_8 
REMARK    3  A    between atoms: C6_10  and  O3_12 
REMARK    4  A    between atoms: C8_14  and  O4_15 
ROOT
HETATM    1  C1  UNL     1       2.841  -0.050   0.161  1.00  0.00     0.012 C 
HETATM    2  C2  UNL     1       1.428   0.155  -0.371  1.00  0.00     0.016 C 
HETATM    3  C3  UNL     1       0.979   1.501   0.173  1.00  0.00     0.041 C 
HETATM    4  C4  UNL     1      -0.535   1.468   0.391  1.00  0.00     0.150 C 
HETATM    5  C5  UNL     1      -1.079   0.551  -0.667  1.00  0.00     0.183 C 
HETATM    6  C6  UNL     1      -0.776  -0.897  -0.254  1.00  0.00     0.108 C 
HETATM    7  C7  UNL     1      -1.896  -1.385   0.566  1.00  0.00     0.051 C 
HETATM    8  C8  UNL     1       0.586  -0.972   0.258  1.00  0.00     0.158 C 
ENDROOT
BRANCH   6   9
HETATM    9  O3  UNL     1      -0.839  -1.598  -1.487  1.00  0.00    -0.385 OA
ATOM     10  H3  UNL     1      -0.652  -2.494  -1.232  1.00  0.00     0.210 HD
ENDBRANCH   6   9
BRANCH   5  11
HETATM   11  O2  UNL     1      -2.409   0.738  -0.944  1.00  0.00    -0.390 OA
ATOM     12  H2  UNL     1      -2.753   0.158  -1.613  1.00  0.00     0.210 HD
ENDBRANCH   5  11
BRANCH   8  13
HETATM   13  O4  UNL     1       0.832  -0.905   1.575  1.00  0.00    -0.392 OA
ATOM     14  H4  UNL     1       0.313  -1.600   1.963  1.00  0.00     0.210 HD
ENDBRANCH   8  13
BRANCH   4  15
HETATM   15  O1  UNL     1      -1.046   2.747   0.181  1.00  0.00    -0.393 OA
ATOM     16  H1  UNL     1      -1.986   2.727   0.316  1.00  0.00     0.210 HD
ENDBRANCH   4  15
TORSDOF 4
