REMARK  3 active torsions:
REMARK  status: ('A' for Active; 'I' for Inactive)
REMARK    1  A    between atoms: O1_1  and  C1_3 
REMARK    2  A    between atoms: C6_9  and  O2_10 
REMARK    3  A    between atoms: C7_12  and  O3_13 
ROOT
HETATM    1  C1  UNL     1       2.489   0.639  -0.128  1.00  0.00     0.122 C 
HETATM    2  C2  UNL     1       2.540  -0.844  -0.309  1.00  0.00     0.062 C 
HETATM    3  C3  UNL     1       1.315  -1.563   0.103  1.00  0.00     0.275 C 
HETATM    4  N1  UNL     1       0.092  -0.947  -0.383  1.00  0.00     0.096 N 
HETATM    5  C4  UNL     1      -0.990  -1.780   0.110  1.00  0.00     0.275 C 
HETATM    6  C5  UNL     1      -2.289  -1.068   0.234  1.00  0.00     0.064 C 
HETATM    7  C6  UNL     1      -2.291   0.114  -0.732  1.00  0.00     0.150 C 
HETATM    8  C7  UNL     1      -1.264   1.084  -0.231  1.00  0.00     0.180 C 
HETATM    9  C8  UNL     1       0.006   0.352   0.211  1.00  0.00     0.256 C 
HETATM   10  C9  UNL     1       1.153   1.245  -0.067  1.00  0.00     0.070 C 
ENDROOT
BRANCH   1  11
HETATM   11  O1  UNL     1       3.229   1.010   1.019  1.00  0.00    -0.395 OA
ATOM     12  H1  UNL     1       3.197   1.952   1.134  1.00  0.00     0.210 HD
ENDBRANCH   1  11
BRANCH   8  13
HETATM   13  O3  UNL     1      -1.727   1.795   0.860  1.00  0.00    -0.391 OA
ATOM     14  H3  UNL     1      -1.076   2.410   1.178  1.00  0.00     0.210 HD
ENDBRANCH   8  13
BRANCH   7  15
HETATM   15  O2  UNL     1      -3.545   0.705  -0.769  1.00  0.00    -0.393 OA
ATOM     16  H2  UNL     1      -3.546   1.441  -1.370  1.00  0.00     0.210 HD
ENDBRANCH   7  15
TORSDOF 3
