REMARK  4 active torsions:
REMARK  status: ('A' for Active; 'I' for Inactive)
REMARK    1  A    between atoms: C4_5  and  O2_6 
REMARK    2  A    between atoms: C5_8  and  O3_9 
REMARK    3  A    between atoms: C6_11  and  O4_12 
REMARK    4  A    between atoms: C7_14  and  O5_15 
ROOT
HETATM    1  C1  UNL     1      -1.732   1.533  -0.018  1.00  0.00     0.048 C 
HETATM    2  C2  UNL     1      -0.796   0.388   0.393  1.00  0.00     0.085 C 
HETATM    3  C3  UNL     1      -1.440  -0.314   1.580  1.00  0.00     0.048 C 
HETATM    4  O1  UNL     1       0.367   0.977   0.842  1.00  0.00    -0.346 OA
HETATM    5  C4  UNL     1       1.267   1.113  -0.190  1.00  0.00     0.289 C 
HETATM    6  C5  UNL     1       1.855  -0.271  -0.472  1.00  0.00     0.204 C 
HETATM    7  C6  UNL     1       0.720  -1.151  -0.891  1.00  0.00     0.183 C 
HETATM    8  C7  UNL     1      -0.628  -0.504  -0.780  1.00  0.00     0.183 C 
ENDROOT
BRANCH   8   9
HETATM    9  O5  UNL     1      -1.577  -1.541  -0.668  1.00  0.00    -0.390 OA
ATOM     10  H5  UNL     1      -1.469  -2.112  -1.419  1.00  0.00     0.210 HD
ENDBRANCH   8   9
BRANCH   5  11
HETATM   11  O2  UNL     1       2.232   2.032   0.152  1.00  0.00    -0.368 OA
ATOM     12  H2  UNL     1       2.853   2.126  -0.560  1.00  0.00     0.212 HD
ENDBRANCH   5  11
BRANCH   7  13
HETATM   13  O4  UNL     1       0.750  -2.410  -0.269  1.00  0.00    -0.390 OA
ATOM     14  H4  UNL     1       0.029  -2.969  -0.535  1.00  0.00     0.210 HD
ENDBRANCH   7  13
BRANCH   6  15
HETATM   15  O3  UNL     1       2.553  -0.758   0.632  1.00  0.00    -0.388 OA
ATOM     16  H3  UNL     1       2.918  -1.617   0.457  1.00  0.00     0.210 HD
ENDBRANCH   6  15
TORSDOF 4
