REMARK  4 active torsions:
REMARK  status: ('A' for Active; 'I' for Inactive)
REMARK    1  A    between atoms: C4_5  and  C5_6 
REMARK    2  A    between atoms: C7_9  and  C8_10 
REMARK    3  A    between atoms: N2_11  and  N3_13 
REMARK    4  A    between atoms: C9_14  and  O1_15 
ROOT
HETATM    1  C5  UNL     1      -0.099  -1.530   0.621  1.00  0.00     0.067 A 
HETATM    2  C6  UNL     1       0.113  -1.870   2.081  1.00  0.00     0.102 A 
HETATM    3 CL1  UNL     1       0.482  -3.566   2.494  1.00  0.00    -0.123 Cl
HETATM    4  C7  UNL     1       1.117  -1.081   1.285  1.00  0.00     0.056 A 
ENDROOT
BRANCH   4   5
HETATM    5  C8  UNL     1       1.411   0.285   1.714  1.00  0.00     0.087 C 
HETATM    6  N2  UNL     1       2.148   1.094   1.055  1.00  0.00    -0.305 N 
ATOM      7  H2  UNL     1       2.301   2.031   1.428  1.00  0.00     0.186 HD
BRANCH   6   8
HETATM    8  N3  UNL     1       2.769   0.739  -0.188  1.00  0.00    -0.216 N 
HETATM    9  C9  UNL     1       2.208   0.958  -1.341  1.00  0.00     0.170 A 
HETATM   10  C10 UNL     1       2.892   0.578  -2.468  1.00  0.00     0.110 A 
HETATM   11  S1  UNL     1       4.321  -0.083  -1.810  1.00  0.00    -0.066 SA
HETATM   12  C11 UNL     1       3.971   0.160  -0.161  1.00  0.00     0.166 A 
HETATM   13  S2  UNL     1       4.899  -0.225   1.158  1.00  0.00    -0.050 SA
BRANCH   9  14
HETATM   14  O1  UNL     1       0.928   1.570  -1.494  1.00  0.00    -0.344 OA
ATOM     15  H1  UNL     1       0.518   1.730  -2.336  1.00  0.00     0.219 HD
ENDBRANCH   9  14
ENDBRANCH   6   8
ENDBRANCH   4   5
BRANCH   1  16
HETATM   16  C4  UNL     1      -1.273  -0.660   0.348  1.00  0.00     0.033 A 
HETATM   17  C3  UNL     1      -1.687   0.411   1.104  1.00  0.00     0.045 A 
HETATM   18  C2  UNL     1      -2.812   0.934   0.487  1.00  0.00     0.111 A 
HETATM   19  N1  UNL     1      -3.073   0.203  -0.607  1.00  0.00    -0.308 N 
HETATM   20  C1  UNL     1      -4.186   0.423  -1.548  1.00  0.00     0.177 C 
HETATM   21  N4  UNL     1      -2.150  -0.736  -0.672  1.00  0.00    -0.303 N 
ATOM     22  H4  UNL     1      -2.105  -1.439  -1.410  1.00  0.00     0.186 HD
ENDBRANCH   1  16
TORSDOF 4
