REMARK  2 active torsions:
REMARK  status: ('A' for Active; 'I' for Inactive)
REMARK    1  A    between atoms: N2_4  and  N3_6 
REMARK    2  A    between atoms: N3_6  and  C1_8 
ROOT
HETATM    1  C1  UNL     1       0.407  -0.534  -0.333  1.00  0.00     0.706 A 
HETATM    2  N4  UNL     1      -0.643  -1.372  -0.264  1.00  0.00    -0.139 N 
ATOM      3  H4  UNL     1      -0.512  -2.358  -0.488  1.00  0.00     0.189 HD
HETATM    4  C2  UNL     1      -1.871  -0.930   0.098  1.00  0.00     0.342 A 
HETATM    5  O1  UNL     1      -2.867  -1.711   0.166  1.00  0.00    -0.246 OA
HETATM    6  N5  UNL     1      -2.086   0.362   0.402  1.00  0.00    -0.260 N 
ATOM      7  H5  UNL     1      -3.013   0.688   0.674  1.00  0.00     0.175 HD
HETATM    8  C3  UNL     1      -1.043   1.215   0.338  1.00  0.00     0.342 A 
HETATM    9  O2  UNL     1      -1.226   2.441   0.622  1.00  0.00    -0.246 OA
HETATM   10  N6  UNL     1       0.169   0.754  -0.024  1.00  0.00    -0.139 N 
ATOM     11  H6  UNL     1       0.946   1.414  -0.066  1.00  0.00     0.189 HD
ENDROOT
BRANCH   1  12
HETATM   12  N3  UNL     1       1.572  -0.970  -0.680  1.00  0.00    -0.118 N 
ATOM     13  H3  UNL     1       1.666  -1.962  -0.897  1.00  0.00     0.207 HD
BRANCH  12  14
HETATM   14  N2  UNL     1       2.694  -0.181  -0.775  1.00  0.00    -0.235 N 
HETATM   15  N1  UNL     1       3.319   0.307   0.216  1.00  0.00    -0.330 N 
ATOM     16  H12 UNL     1       2.950   0.089   1.141  1.00  0.00     0.178 HD
ATOM     17  H11 UNL     1       4.151   0.892   0.146  1.00  0.00     0.178 HD
ATOM     18  H2  UNL     1       3.049   0.027  -1.708  1.00  0.00     0.208 HD
ENDBRANCH  12  14
ENDBRANCH   1  12
TORSDOF 2
