REMARK  2 active torsions:
REMARK  status: ('A' for Active; 'I' for Inactive)
REMARK       I    between atoms: C1_2  and  N2_4 
REMARK    1  A    between atoms: N2_4  and  N3_6 
REMARK       I    between atoms: N3_6  and  C2_8 
REMARK       I    between atoms: C2_8  and  N4_10 
REMARK    2  A    between atoms: N5_12  and  O3_14 
ROOT
HETATM    1  N3  UNL     1      -0.325   0.363  -0.490  1.00  0.00    -0.247 N 
ATOM      2  H3  UNL     1      -0.482   0.240  -1.490  1.00  0.00     0.192 HD
HETATM    3  C2  UNL     1      -1.416   0.379   0.398  1.00  0.00     0.354 C 
HETATM    4  O2  UNL     1      -1.213   0.535   1.650  1.00  0.00    -0.244 OA
HETATM    5  N4  UNL     1      -2.749   0.225  -0.077  1.00  0.00    -0.231 N 
ATOM      6  H4  UNL     1      -3.191   0.954  -0.637  1.00  0.00     0.193 HD
HETATM    7  N5  UNL     1      -3.366  -0.828   0.210  1.00  0.00    -0.206 N 
ATOM      8  H5  UNL     1      -2.922  -1.555   0.771  1.00  0.00     0.215 HD
ENDROOT
BRANCH   1   9
HETATM    9  N2  UNL     1       0.970   0.515  -0.001  1.00  0.00    -0.250 N 
HETATM   10  C1  UNL     1       2.084  -0.173  -0.533  1.00  0.00     0.347 C 
HETATM   11  N1  UNL     1       3.348   0.045   0.026  1.00  0.00    -0.038 NA
HETATM   12  O1  UNL     1       1.941  -0.960  -1.485  1.00  0.00    -0.249 OA
ATOM     13  H2  UNL     1       1.122   1.154   0.779  1.00  0.00     0.191 HD
ENDBRANCH   1   9
BRANCH   7  14
HETATM   14  O3  UNL     1      -4.638  -0.981  -0.241  1.00  0.00    -0.274 OA
ATOM     15  H3  UNL     1      -5.106  -1.779  -0.024  1.00  0.00     0.246 HD
ENDBRANCH   7  14
TORSDOF 2
