REMARK  1 active torsions:
REMARK  status: ('A' for Active; 'I' for Inactive)
REMARK       I    between atoms: N1_1  and  C1_5 
REMARK       I    between atoms: C1_5  and  N2_6 
REMARK       I    between atoms: C1_5  and  N3_10 
REMARK    1  A    between atoms: N3_10  and  C2_12 
ROOT
HETATM    1  C2  UNL     1      -0.254   0.581  -0.288  1.00  0.00     0.689 A 
HETATM    2  N4  UNL     1      -0.480  -0.647   0.200  1.00  0.00    -0.141 N 
ATOM      3  H4  UNL     1       0.302  -1.225   0.508  1.00  0.00     0.189 HD
HETATM    4  C3  UNL     1      -1.757  -1.126   0.286  1.00  0.00     0.342 A 
HETATM    5  O1  UNL     1      -1.980  -2.285   0.746  1.00  0.00    -0.246 OA
HETATM    6  N5  UNL     1      -2.798  -0.377  -0.116  1.00  0.00    -0.260 N 
ATOM      7  H5  UNL     1      -3.749  -0.741  -0.049  1.00  0.00     0.175 HD
HETATM    8  C4  UNL     1      -2.578   0.856  -0.607  1.00  0.00     0.342 A 
HETATM    9  O2  UNL     1      -3.563   1.566  -0.988  1.00  0.00    -0.246 OA
HETATM   10  N6  UNL     1      -1.322   1.294  -0.678  1.00  0.00    -0.141 N 
ATOM     11  H6  UNL     1      -1.162   2.229  -1.052  1.00  0.00     0.189 HD
ENDROOT
BRANCH   1  12
HETATM   12  N3  UNL     1       0.937   1.033  -0.370  1.00  0.00    -0.173 N 
HETATM   13  C1  UNL     1       2.154   0.402  -0.002  1.00  0.00     0.494 C 
HETATM   14  N1  UNL     1       2.254   0.053   1.404  1.00  0.00    -0.032 N 
HETATM   15  N2  UNL     1       2.349  -0.780  -0.856  1.00  0.00    -0.032 N 
ATOM     16  H13 UNL     1       1.611  -0.699   1.651  1.00  0.00     0.278 HD
ATOM     17  H12 UNL     1       3.134  -0.420   1.612  1.00  0.00     0.278 HD
ATOM     18  H11 UNL     1       2.119   0.872   1.996  1.00  0.00     0.278 HD
ATOM     19  H23 UNL     1       3.229  -1.253  -0.648  1.00  0.00     0.278 HD
ATOM     20  H22 UNL     1       1.706  -1.532  -0.609  1.00  0.00     0.278 HD
ATOM     21  H21 UNL     1       2.279  -0.535  -1.844  1.00  0.00     0.278 HD
ATOM     22  H3  UNL     1       1.026   1.975  -0.751  1.00  0.00     0.181 HD
ENDBRANCH   1  12
TORSDOF 1
