REMARK  1 active torsions:
REMARK  status: ('A' for Active; 'I' for Inactive)
REMARK       I    between atoms: N1_1  and  C1_5 
REMARK       I    between atoms: C1_5  and  N2_6 
REMARK       I    between atoms: C1_5  and  N3_10 
REMARK    1  A    between atoms: N3_10  and  C2_12 
ROOT
HETATM    1  C2  UNL     1       0.312  -0.390   0.111  1.00  0.00     0.188 A 
HETATM    2  N4  UNL     1       1.160  -1.368  -0.325  1.00  0.00    -0.277 N 
ATOM      3  H4  UNL     1       0.763  -2.238  -0.678  1.00  0.00     0.189 HD
HETATM    4  N5  UNL     1       2.469  -1.233  -0.308  1.00  0.00    -0.250 N 
ATOM      5  H5  UNL     1       3.049  -2.000  -0.647  1.00  0.00     0.192 HD
HETATM    6  C3  UNL     1       3.065  -0.115   0.142  1.00  0.00     0.341 A 
HETATM    7  O1  UNL     1       4.323  -0.009   0.148  1.00  0.00    -0.245 OA
HETATM    8  N6  UNL     1       2.264   0.861   0.575  1.00  0.00    -0.271 N 
ATOM      9  H6  UNL     1       2.688   1.721   0.922  1.00  0.00     0.174 HD
HETATM   10  C4  UNL     1       0.899   0.759   0.574  1.00  0.00     0.294 A 
HETATM   11  O2  UNL     1       0.219   1.735   1.003  1.00  0.00    -0.264 OA
ENDROOT
BRANCH   1  12
HETATM   12  N3  UNL     1      -0.937  -0.570   0.074  1.00  0.00    -0.322 N 
HETATM   13  C1  UNL     1      -2.033   0.224   0.440  1.00  0.00     0.481 C 
HETATM   14  N1  UNL     1      -2.350   1.311  -0.466  1.00  0.00    -0.033 N 
HETATM   15  N2  UNL     1      -3.274  -0.578   0.533  1.00  0.00    -0.033 N 
ATOM     16  H13 UNL     1      -2.710   1.003  -1.369  1.00  0.00     0.278 HD
ATOM     17  H12 UNL     1      -3.170   1.851  -0.190  1.00  0.00     0.278 HD
ATOM     18  H11 UNL     1      -1.495   1.864  -0.530  1.00  0.00     0.278 HD
ATOM     19  H23 UNL     1      -4.094  -0.038   0.809  1.00  0.00     0.278 HD
ATOM     20  H22 UNL     1      -3.634  -0.886  -0.370  1.00  0.00     0.278 HD
ATOM     21  H21 UNL     1      -3.051  -1.343   1.170  1.00  0.00     0.278 HD
ATOM     22  H3  UNL     1      -1.204  -1.481  -0.299  1.00  0.00     0.165 HD
ENDBRANCH   1  12
TORSDOF 1
