REMARK  2 active torsions:
REMARK  status: ('A' for Active; 'I' for Inactive)
REMARK    1  A    between atoms: N2_4  and  N3_6 
REMARK       I    between atoms: N5_11  and  C2_12 
REMARK       I    between atoms: C2_12  and  N6_14 
REMARK    2  A    between atoms: N6_14  and  N7_16 
ROOT
HETATM    1  N3  UNL     1       2.115  -0.026  -0.228  1.00  0.00    -0.096 N 
HETATM    2  N4  UNL     1       1.822   1.343  -0.150  1.00  0.00    -0.213 N 
ATOM      3  H4  UNL     1       2.466   2.099   0.084  1.00  0.00     0.195 HD
HETATM    4  C1  UNL     1       0.435   1.459  -0.467  1.00  0.00     0.365 C 
HETATM    5  O1  UNL     1      -0.274   2.490  -0.525  1.00  0.00    -0.243 OA
HETATM    6  N5  UNL     1      -0.017   0.135  -0.716  1.00  0.00    -0.132 N 
HETATM    7  C2  UNL     1      -1.317  -0.421  -0.608  1.00  0.00     0.362 C 
HETATM    8  O2  UNL     1      -1.466  -1.647  -0.896  1.00  0.00    -0.243 OA
HETATM    9  N6  UNL     1      -2.422   0.345  -0.196  1.00  0.00    -0.257 N 
ATOM     10  H6  UNL     1      -2.310   1.332   0.037  1.00  0.00     0.191 HD
HETATM   11  N8  UNL     1       1.158  -0.558  -1.119  1.00  0.00     0.035 NA
ENDROOT
BRANCH   9  12
HETATM   12  N7  UNL     1      -3.690  -0.273  -0.110  1.00  0.00    -0.341 N 
ATOM     13  H72 UNL     1      -3.785  -1.261  -0.347  1.00  0.00     0.177 HD
ATOM     14  H71 UNL     1      -4.491   0.283   0.189  1.00  0.00     0.177 HD
ENDBRANCH   9  12
BRANCH   1  15
HETATM   15  N2  UNL     1       3.124  -0.735   0.420  1.00  0.00    -0.214 N 
HETATM   16  N1  UNL     1       2.947  -1.967   0.640  1.00  0.00    -0.328 N 
ATOM     17  H12 UNL     1       2.080  -2.416   0.344  1.00  0.00     0.178 HD
ATOM     18  H11 UNL     1       3.686  -2.486   1.114  1.00  0.00     0.178 HD
ATOM     19  H2  UNL     1       3.985  -0.271   0.710  1.00  0.00     0.211 HD
ENDBRANCH   1  15
TORSDOF 2
