REMARK  1 active torsions:
REMARK  status: ('A' for Active; 'I' for Inactive)
REMARK    1  A    between atoms: N3_4  and  N4_6 
ROOT
HETATM    1  N4  UNL     1      -0.318  -0.798  -0.816  1.00  0.00    -0.279 N 
ATOM      2  H4  UNL     1      -0.613  -0.723  -1.789  1.00  0.00     0.189 HD
HETATM    3  C2  UNL     1       0.927  -0.615  -0.553  1.00  0.00     0.193 A 
HETATM    4  N5  UNL     1       1.552  -0.673   0.726  1.00  0.00    -0.289 N 
ATOM      5  H5  UNL     1       1.093  -0.869   1.615  1.00  0.00     0.172 HD
HETATM    6  C3  UNL     1       2.941  -0.406   0.531  1.00  0.00     0.328 A 
HETATM    7  O1  UNL     1       3.811  -0.374   1.447  1.00  0.00    -0.247 OA
HETATM    8  N6  UNL     1       3.185  -0.183  -0.857  1.00  0.00    -0.272 N 
ATOM      9  H6  UNL     1       4.088   0.029  -1.281  1.00  0.00     0.174 HD
HETATM   10  C4  UNL     1       1.954  -0.308  -1.541  1.00  0.00     0.295 A 
HETATM   11  O2  UNL     1       1.739  -0.184  -2.774  1.00  0.00    -0.264 OA
ENDROOT
BRANCH   1  12
HETATM   12  N3  UNL     1      -1.284  -1.089   0.128  1.00  0.00    -0.274 N 
HETATM   13  C1  UNL     1      -2.254  -0.262   0.349  1.00  0.00     0.215 C 
HETATM   14  N1  UNL     1      -2.324   0.958  -0.388  1.00  0.00    -0.065 NA
HETATM   15  N2  UNL     1      -3.240  -0.585   1.330  1.00  0.00    -0.065 NA
ATOM     16  H3  UNL     1      -1.232  -1.961   0.654  1.00  0.00     0.189 HD
ENDBRANCH   1  12
TORSDOF 1
