REMARK  4 active torsions:
REMARK  status: ('A' for Active; 'I' for Inactive)
REMARK    1  A    between atoms: N1_1  and  N2_4 
REMARK    2  A    between atoms: N2_4  and  C1_6 
REMARK    3  A    between atoms: C3_15  and  N6_16 
REMARK    4  A    between atoms: N6_16  and  C4_18 
ROOT
HETATM    1  C1  UNL     1      -0.019   0.293  -0.100  1.00  0.00     0.179 A 
HETATM    2  N3  UNL     1      -1.247   0.225  -0.636  1.00  0.00    -0.277 N 
ATOM      3  H3  UNL     1      -1.639   1.044  -1.102  1.00  0.00     0.189 HD
HETATM    4  N4  UNL     1      -1.966  -0.904  -0.568  1.00  0.00    -0.250 N 
ATOM      5  H4  UNL     1      -2.899  -0.949  -0.978  1.00  0.00     0.192 HD
HETATM    6  C2  UNL     1      -1.440  -1.973   0.047  1.00  0.00     0.340 A 
HETATM    7  O1  UNL     1      -2.139  -3.013   0.094  1.00  0.00    -0.245 OA
HETATM    8  N5  UNL     1      -0.222  -1.974   0.603  1.00  0.00    -0.290 N 
ATOM      9  H5  UNL     1       0.156  -2.801   1.066  1.00  0.00     0.172 HD
HETATM   10  C3  UNL     1       0.477  -0.830   0.520  1.00  0.00     0.159 A 
ENDROOT
BRANCH   1  11
HETATM   11  N2  UNL     1       0.683   1.361  -0.155  1.00  0.00    -0.288 N 
ATOM     12  H2  UNL     1       1.614   1.384   0.261  1.00  0.00     0.188 HD
BRANCH  11  13
HETATM   13  N1  UNL     1       0.174   2.487  -0.782  1.00  0.00    -0.343 N 
ATOM     14  H12 UNL     1      -0.759   2.448  -1.193  1.00  0.00     0.176 HD
ATOM     15  H11 UNL     1       0.734   3.339  -0.826  1.00  0.00     0.176 HD
ENDBRANCH  11  13
ENDBRANCH   1  11
BRANCH  10  16
HETATM   16  N6  UNL     1       1.649  -0.773   1.035  1.00  0.00    -0.317 N 
ATOM     17  H6  UNL     1       1.985  -1.623   1.487  1.00  0.00     0.169 HD
BRANCH  16  18
HETATM   18  C4  UNL     1       2.521   0.320   1.049  1.00  0.00     0.354 C 
HETATM   19  O2  UNL     1       3.502   0.388   0.241  1.00  0.00    -0.283 OA
ENDBRANCH  16  18
ENDBRANCH  10  16
TORSDOF 4
