REMARK  2 active torsions:
REMARK  status: ('A' for Active; 'I' for Inactive)
REMARK    1  A    between atoms: C9_10  and  C10_11 
REMARK       I    between atoms: C10_11  and  N2_13 
REMARK    2  A    between atoms: N2_13  and  C11_15 
ROOT
HETATM    1  C1  UNL     1      -5.264   1.137   0.585  1.00  0.00     0.309 C 
HETATM    2  N1  UNL     1      -4.209   0.196   0.284  1.00  0.00     0.085 N 
HETATM    3  C2  UNL     1      -4.547  -1.157   0.610  1.00  0.00     0.272 C 
HETATM    4  C3  UNL     1      -3.371  -1.821   1.255  1.00  0.00     0.031 C 
HETATM    5  C4  UNL     1      -2.130  -1.696   0.379  1.00  0.00     0.013 C 
HETATM    6  C5  UNL     1      -1.893  -0.239  -0.003  1.00  0.00    -0.013 C 
HETATM    7  C6  UNL     1      -2.148  -0.104  -1.465  1.00  0.00     0.011 C 
HETATM    8  C7  UNL     1      -1.571   1.137  -2.080  1.00  0.00     0.002 C 
HETATM    9  C8  UNL     1      -0.073   1.131  -1.781  1.00  0.00     0.014 C 
HETATM   10  C9  UNL     1       0.039   1.344  -0.268  1.00  0.00     0.078 C 
HETATM   11  C16 UNL     1      -0.500   0.111   0.416  1.00  0.00     0.025 C 
HETATM   12  C17 UNL     1      -2.923   0.619   0.729  1.00  0.00     0.281 C 
ENDROOT
BRANCH  10  13
HETATM   13  C10 UNL     1       1.472   1.460   0.105  1.00  0.00     0.222 C 
HETATM   14  O1  UNL     1       1.847   2.532   0.653  1.00  0.00    -0.273 OA
HETATM   15  N2  UNL     1       2.394   0.417  -0.140  1.00  0.00    -0.356 N 
ATOM     16  H2  UNL     1       2.082  -0.446  -0.585  1.00  0.00     0.162 HD
BRANCH  15  17
HETATM   17  C11 UNL     1       3.788   0.575   0.242  1.00  0.00     0.088 C 
HETATM   18  C12 UNL     1       4.643   0.410  -0.996  1.00  0.00     0.051 C 
HETATM   19  C13 UNL     1       5.094  -1.034  -1.067  1.00  0.00     0.169 C 
HETATM   20  O2  UNL     1       6.054  -1.257  -0.083  1.00  0.00    -0.391 OA
HETATM   21  C14 UNL     1       5.672  -0.753   1.147  1.00  0.00     0.169 C 
HETATM   22  C15 UNL     1       4.182  -0.497   1.234  1.00  0.00     0.051 C 
ENDBRANCH  15  17
ENDBRANCH  10  13
TORSDOF 2
