REMARK  3 active torsions:
REMARK  status: ('A' for Active; 'I' for Inactive)
REMARK    1  A    between atoms: N1_8  and  C7_9 
REMARK    2  A    between atoms: C7_9  and  C8_10 
REMARK    3  A    between atoms: C14_17  and  O3_18 
ROOT
HETATM    1  C8  UNL     1      -0.060  -0.975  -0.377  1.00  0.00     0.008 C 
HETATM    2  C9  UNL     1      -0.241  -1.571   0.966  1.00  0.00     0.032 C 
HETATM    3  C10 UNL     1       0.708  -1.020   2.010  1.00  0.00     0.169 C 
HETATM    4  O2  UNL     1       1.381   0.108   1.551  1.00  0.00    -0.380 OA
HETATM    5  C11 UNL     1       2.176  -0.155   0.437  1.00  0.00     0.061 C 
HETATM    6  C12 UNL     1       2.804   1.173   0.045  1.00  0.00     0.040 C 
HETATM    7  C13 UNL     1       3.845   1.032  -1.022  1.00  0.00     0.034 C 
HETATM    8  C14 UNL     1       4.969   0.172  -0.431  1.00  0.00     0.118 C 
HETATM    9  C15 UNL     1       4.404  -1.181  -0.113  1.00  0.00     0.034 C 
HETATM   10  C16 UNL     1       3.262  -1.145   0.847  1.00  0.00     0.040 C 
HETATM   11  C17 UNL     1       1.426  -0.748  -0.708  1.00  0.00     0.044 C 
ENDROOT
BRANCH   1  12
HETATM   12  C7  UNL     1      -0.748   0.303  -0.668  1.00  0.00     0.130 C 
BRANCH  12  13
HETATM   13  N1  UNL     1      -2.181   0.307  -0.577  1.00  0.00    -0.352 N 
HETATM   14  C1  UNL     1      -2.714   0.678   0.681  1.00  0.00     0.219 C 
HETATM   15  O1  UNL     1      -1.965   1.355   1.432  1.00  0.00    -0.273 OA
HETATM   16  C2  UNL     1      -4.045   0.403   1.299  1.00  0.00     0.103 C 
HETATM   17  C3  UNL     1      -5.109   0.249   0.223  1.00  0.00     0.009 C 
HETATM   18  C4  UNL     1      -4.965   1.251  -0.870  1.00  0.00     0.002 C 
HETATM   19  C5  UNL     1      -4.015   0.972  -1.952  1.00  0.00     0.020 C 
HETATM   20  C6  UNL     1      -2.984  -0.062  -1.719  1.00  0.00     0.125 C 
ENDBRANCH  12  13
ENDBRANCH   1  12
BRANCH   8  21
HETATM   21  O3  UNL     1       5.465   0.830   0.676  1.00  0.00    -0.396 OA
ATOM     22  H3  UNL     1       6.161   0.297   1.042  1.00  0.00     0.210 HD
ENDBRANCH   8  21
TORSDOF 3
