REMARK  9 active torsions:
REMARK  status: ('A' for Active; 'I' for Inactive)
REMARK    1  A    between atoms: O1_2  and  C2_3 
REMARK    2  A    between atoms: C2_3  and  C3_5 
REMARK    3  A    between atoms: C3_5  and  C4_6 
REMARK    4  A    between atoms: C3_5  and  C5_9 
REMARK    5  A    between atoms: C4_6  and  O3_7 
REMARK    6  A    between atoms: C5_9  and  C6_10 
REMARK    7  A    between atoms: C6_10  and  O4_11 
REMARK    8  A    between atoms: C7_13  and  C8_14 
REMARK    9  A    between atoms: C8_14  and  C9_15 
ROOT
HETATM    1  C9  UNL     1      -0.806   0.369  -0.958  1.00  0.00     0.052 C 
HETATM    2  C10 UNL     1      -0.550   0.572  -2.439  1.00  0.00     0.186 C 
HETATM    3  O5  UNL     1      -0.398   1.980  -2.457  1.00  0.00    -0.379 OA
HETATM    4  C11 UNL     1      -1.441   2.482  -1.656  1.00  0.00     0.058 C 
HETATM    5  C12 UNL     1      -2.520   2.927  -2.657  1.00  0.00     0.046 C 
HETATM    6  C13 UNL     1      -1.011   3.702  -0.935  1.00  0.00     0.046 C 
HETATM    7  C14 UNL     1      -1.955   1.365  -0.870  1.00  0.00     0.038 C 
HETATM    8  C15 UNL     1      -2.389   1.502   0.493  1.00  0.00     0.010 C 
HETATM    9  C16 UNL     1      -3.645   0.702   0.752  1.00  0.00     0.011 C 
HETATM   10  C17 UNL     1      -3.773  -0.627   0.207  1.00  0.00    -0.025 A 
HETATM   11  C18 UNL     1      -5.200  -0.962  -0.293  1.00  0.00     0.016 C 
HETATM   12  C19 UNL     1      -2.732  -1.430  -0.309  1.00  0.00     0.073 A 
HETATM   13  C20 UNL     1      -1.391  -0.919  -0.613  1.00  0.00     0.144 C 
HETATM   14  O6  UNL     1      -0.547  -1.830  -0.560  1.00  0.00    -0.297 OA
HETATM   15  C21 UNL     1      -3.196  -1.749   1.057  1.00  0.00    -0.029 A 
HETATM   16  C22 UNL     1      -4.049  -2.989   1.287  1.00  0.00     0.016 C 
HETATM   17  C23 UNL     1      -2.242  -1.439   2.164  1.00  0.00     0.016 C 
ENDROOT
BRANCH   1  18
HETATM   18  C8  UNL     1       0.385   0.725  -0.129  1.00  0.00     0.049 C 
BRANCH  18  19
HETATM   19  C7  UNL     1       1.580  -0.088  -0.476  1.00  0.00     0.006 C 
HETATM   20  C6  UNL     1       2.239  -0.846   0.375  1.00  0.00     0.040 C 
BRANCH  20  21
HETATM   21  C5  UNL     1       3.412  -1.646   0.035  1.00  0.00     0.080 C 
BRANCH  21  22
HETATM   22  C3  UNL     1       4.647  -1.309   0.792  1.00  0.00     0.115 C 
BRANCH  22  23
HETATM   23  C2  UNL     1       5.112   0.066   0.623  1.00  0.00     0.265 C 
HETATM   24  O2  UNL     1       4.509   0.875  -0.121  1.00  0.00    -0.265 OA
BRANCH  23  25
HETATM   25  O1  UNL     1       6.237   0.501   1.289  1.00  0.00    -0.326 OA
HETATM   26  C1  UNL     1       6.737   1.834   1.162  1.00  0.00     0.213 C 
ENDBRANCH  23  25
ENDBRANCH  22  23
BRANCH  22  27
HETATM   27  C4  UNL     1       5.747  -2.241   0.336  1.00  0.00     0.179 C 
BRANCH  27  28
HETATM   28  O3  UNL     1       5.338  -3.587   0.483  1.00  0.00    -0.400 OA
ATOM     29  H3  UNL     1       6.029  -4.173   0.197  1.00  0.00     0.209 HD
ENDBRANCH  27  28
ENDBRANCH  22  27
ENDBRANCH  21  22
ENDBRANCH  20  21
BRANCH  20  30
HETATM   30  O4  UNL     1       1.779  -0.883   1.694  1.00  0.00    -0.365 OA
ATOM     31  H4  UNL     1       1.016  -0.362   1.915  1.00  0.00     0.217 HD
ENDBRANCH  20  30
ENDBRANCH  18  19
ENDBRANCH   1  18
TORSDOF 9
