REMARK  5 active torsions:
REMARK  status: ('A' for Active; 'I' for Inactive)
REMARK    1  A    between atoms: C5_8  and  N3_9 
REMARK    2  A    between atoms: N3_9  and  C6_11 
REMARK    3  A    between atoms: C6_11  and  C7_12 
REMARK    4  A    between atoms: C7_12  and  N4_13 
REMARK    5  A    between atoms: N4_13  and  C8_15 
ROOT
HETATM    1  C1  UNL     1       5.582   2.618   0.790  1.00  0.00     0.072 C 
HETATM    2  C2  UNL     1       4.385   2.008   0.196  1.00  0.00     0.051 A 
HETATM    3  N1  UNL     1       3.541   2.535  -0.688  1.00  0.00    -0.301 N 
ATOM      4  H1  UNL     1       3.628   3.472  -1.080  1.00  0.00     0.187 HD
HETATM    5  N2  UNL     1       2.568   1.677  -0.993  1.00  0.00    -0.291 N 
HETATM    6  C3  UNL     1       1.471   1.902  -1.928  1.00  0.00     0.178 C 
HETATM    7  C4  UNL     1       2.774   0.553  -0.290  1.00  0.00     0.123 A 
HETATM    8  C5  UNL     1       2.083  -0.663  -0.215  1.00  0.00     0.138 A 
HETATM    9  N5  UNL     1       2.601  -1.576   0.611  1.00  0.00    -0.317 N 
ATOM     10  H5  UNL     1       2.114  -2.470   0.681  1.00  0.00     0.170 HD
HETATM   11  C16 UNL     1       3.701  -1.421   1.353  1.00  0.00     0.181 A 
HETATM   12 CL1  UNL     1       4.285  -2.719   2.414  1.00  0.00    -0.045 Cl
HETATM   13  N6  UNL     1       4.364  -0.256   1.282  1.00  0.00    -0.329 N 
ATOM     14  H6  UNL     1       5.206  -0.112   1.839  1.00  0.00     0.168 HD
HETATM   15  C17 UNL     1       3.912   0.725   0.471  1.00  0.00     0.090 A 
ENDROOT
BRANCH   8  16
HETATM   16  N3  UNL     1       1.055  -0.782  -0.915  1.00  0.00    -0.351 N 
ATOM     17  H3  UNL     1       0.859   0.058  -1.459  1.00  0.00     0.166 HD
BRANCH  16  18
HETATM   18  C6  UNL     1       0.106  -1.789  -1.134  1.00  0.00     0.093 C 
BRANCH  18  19
HETATM   19  C7  UNL     1      -0.831  -2.146  -0.015  1.00  0.00     0.058 A 
HETATM   20  C14 UNL     1      -0.440  -3.370   0.875  1.00  0.00     0.039 A 
HETATM   21  C15 UNL     1      -1.421  -3.538  -0.212  1.00  0.00     0.039 A 
BRANCH  19  22
HETATM   22  N4  UNL     1      -1.718  -1.252   0.618  1.00  0.00    -0.404 N 
ATOM     23  H4  UNL     1      -1.579  -1.043   1.607  1.00  0.00     0.154 HD
BRANCH  22  24
HETATM   24  C8  UNL     1      -2.792  -0.634  -0.062  1.00  0.00     0.077 C 
HETATM   25  C9  UNL     1      -2.348   0.312  -1.089  1.00  0.00     0.024 C 
HETATM   26  C10 UNL     1      -3.327   1.403  -1.478  1.00  0.00     0.002 C 
HETATM   27  C11 UNL     1      -3.759   2.084  -0.201  1.00  0.00     0.000 C 
HETATM   28  C12 UNL     1      -4.573   1.042   0.538  1.00  0.00     0.002 C 
HETATM   29  C13 UNL     1      -3.737  -0.112   0.992  1.00  0.00     0.024 C 
ENDBRANCH  22  24
ENDBRANCH  19  22
ENDBRANCH  18  19
ENDBRANCH  16  18
ENDBRANCH   8  16
TORSDOF 5
