REMARK  6 active torsions:
REMARK  status: ('A' for Active; 'I' for Inactive)
REMARK    1  A    between atoms: C2_2  and  C3_3 
REMARK    2  A    between atoms: C3_3  and  C4_4 
REMARK    3  A    between atoms: C4_4  and  O1_5 
REMARK    4  A    between atoms: N1_10  and  C8_11 
REMARK    5  A    between atoms: C9_14  and  N3_15 
REMARK    6  A    between atoms: C11_19  and  N4_20 
ROOT
HETATM    1  C8  UNL     1      -0.734  -1.214   0.201  1.00  0.00     0.683 A 
HETATM    2  N2  UNL     1      -1.167  -2.499   0.199  1.00  0.00    -0.177 N 
ATOM      3  H2  UNL     1      -0.478  -3.250   0.234  1.00  0.00     0.185 HD
HETATM    4  C9  UNL     1      -2.471  -2.817   0.153  1.00  0.00     0.118 A 
HETATM    5  C10 UNL     1      -3.406  -1.811   0.106  1.00  0.00     0.097 A 
HETATM    6  C11 UNL     1      -2.973  -0.484   0.106  1.00  0.00     0.122 A 
HETATM    7  N5  UNL     1      -1.655  -0.255   0.154  1.00  0.00    -0.177 N 
ATOM      8  H5  UNL     1      -1.337   0.714   0.155  1.00  0.00     0.186 HD
ENDROOT
BRANCH   1   9
HETATM    9  N1  UNL     1       0.692  -0.969   0.233  1.00  0.00    -0.217 N 
HETATM   10  C7  UNL     1       1.269  -1.301   1.489  1.00  0.00     0.141 C 
HETATM   11  C6  UNL     1       2.688  -1.773   1.454  1.00  0.00     0.023 C 
HETATM   12  C5  UNL     1       3.586  -1.083   0.494  1.00  0.00     0.039 C 
HETATM   13  C4  UNL     1       3.264   0.323   0.195  1.00  0.00     0.059 C 
HETATM   14  C17 UNL     1       2.358   0.423  -0.985  1.00  0.00     0.058 C 
HETATM   15  C16 UNL     1       1.169  -0.456  -1.010  1.00  0.00     0.144 C 
BRANCH  13  16
HETATM   16  C3  UNL     1       4.463   1.208  -0.055  1.00  0.00     0.037 C 
BRANCH  16  17
HETATM   17  C2  UNL     1       5.370   0.789  -1.146  1.00  0.00    -0.002 C 
HETATM   18  C1  UNL     1       6.493   1.839  -1.199  1.00  0.00     0.005 C 
ENDBRANCH  16  17
ENDBRANCH  13  16
BRANCH  13  19
HETATM   19  O1  UNL     1       2.605   0.973   1.270  1.00  0.00    -0.390 OA
ATOM     20  H1  UNL     1       1.851   0.417   1.427  1.00  0.00     0.210 HD
ENDBRANCH  13  19
ENDBRANCH   1   9
BRANCH   4  21
HETATM   21  N3  UNL     1      -2.898  -4.036   0.152  1.00  0.00    -0.385 N 
ATOM     22  H32 UNL     1      -2.204  -4.783   0.187  1.00  0.00     0.157 HD
ATOM     23  H31 UNL     1      -3.888  -4.278   0.117  1.00  0.00     0.157 HD
ENDBRANCH   4  21
BRANCH   6  24
HETATM   24  N4  UNL     1      -3.962   0.505   0.042  1.00  0.00    -0.363 N 
HETATM   25  C12 UNL     1      -4.469   1.005  -1.213  1.00  0.00     0.150 C 
HETATM   26  C13 UNL     1      -5.963   1.314  -1.077  1.00  0.00     0.187 C 
HETATM   27  O2  UNL     1      -6.478   0.488  -0.081  1.00  0.00    -0.388 OA
HETATM   28  C14 UNL     1      -6.067   1.022   1.156  1.00  0.00     0.187 C 
HETATM   29  C15 UNL     1      -4.541   1.060   1.239  1.00  0.00     0.150 C 
ENDBRANCH   6  24
TORSDOF 6
