REMARK  9 active torsions:
REMARK  status: ('A' for Active; 'I' for Inactive)
REMARK    1  A    between atoms: C2_2  and  C3_3 
REMARK    2  A    between atoms: C5_5  and  C6_6 
REMARK    3  A    between atoms: C6_6  and  C7_7 
REMARK    4  A    between atoms: C7_7  and  C8_8 
REMARK    5  A    between atoms: C8_8  and  O1_9 
REMARK    6  A    between atoms: C8_8  and  C9_11 
REMARK    7  A    between atoms: C9_11  and  C10_12 
REMARK    8  A    between atoms: C10_12  and  C11_13 
REMARK    9  A    between atoms: C11_13  and  O2_14 
ROOT
HETATM    1  C6  UNL     1      -0.264   1.880   0.399  1.00  0.00     0.041 C 
ENDROOT
BRANCH   1   2
HETATM    2  C5  UNL     1      -1.357   1.025  -0.050  1.00  0.00    -0.057 A 
HETATM    3  C4  UNL     1      -2.546   0.975   0.653  1.00  0.00     0.019 A 
HETATM    4  C3  UNL     1      -3.592   0.185   0.227  1.00  0.00    -0.031 A 
HETATM    5  C15 UNL     1      -3.449  -0.571  -0.926  1.00  0.00    -0.052 A 
HETATM    6  C14 UNL     1      -2.268  -0.537  -1.647  1.00  0.00     0.008 A 
HETATM    7  C16 UNL     1      -4.596  -1.423  -1.375  1.00  0.00     0.049 C 
HETATM    8  C13 UNL     1      -1.221   0.273  -1.193  1.00  0.00     0.007 A 
BRANCH   4   9
HETATM    9  C2  UNL     1      -4.862   0.121   0.961  1.00  0.00     0.002 C 
HETATM   10  C1  UNL     1      -5.116   0.785   2.058  1.00  0.00     0.012 C 
ENDBRANCH   4   9
ENDBRANCH   1   2
BRANCH   1  11
HETATM   11  C7  UNL     1       0.682   1.328   1.386  1.00  0.00     0.036 C 
BRANCH  11  12
HETATM   12  C8  UNL     1       1.453   0.121   1.026  1.00  0.00     0.118 C 
BRANCH  12  13
HETATM   13  O1  UNL     1       0.746  -1.012   0.731  1.00  0.00    -0.396 OA
ATOM     14  H1  UNL     1       1.242  -1.788   0.499  1.00  0.00     0.210 HD
ENDBRANCH  12  13
BRANCH  12  15
HETATM   15  C9  UNL     1       2.471   0.349  -0.071  1.00  0.00     0.034 C 
BRANCH  15  16
HETATM   16  C10 UNL     1       3.159  -0.990  -0.303  1.00  0.00     0.029 C 
BRANCH  16  17
HETATM   17  C11 UNL     1       4.197  -0.921  -1.366  1.00  0.00     0.167 C 
BRANCH  17  18
HETATM   18  O2  UNL     1       5.202  -0.031  -1.117  1.00  0.00    -0.396 OA
HETATM   19  C12 UNL     1       5.865  -0.370   0.047  1.00  0.00     0.201 C 
ENDBRANCH  17  18
ENDBRANCH  16  17
ENDBRANCH  15  16
ENDBRANCH  12  15
ENDBRANCH  11  12
ENDBRANCH   1  11
TORSDOF 9
