REMARK  10 active torsions:
REMARK  status: ('A' for Active; 'I' for Inactive)
REMARK    1  A    between atoms: N1_1  and  C1_4 
REMARK    2  A    between atoms: C1_4  and  C2_6 
REMARK    3  A    between atoms: C5_9  and  C6_10 
REMARK    4  A    between atoms: C9_13  and  O1_14 
REMARK    5  A    between atoms: O1_14  and  C10_15 
REMARK    6  A    between atoms: C13_18  and  N3_19 
REMARK    7  A    between atoms: N3_19  and  C14_21 
REMARK    8  A    between atoms: C15_25  and  N5_26 
REMARK    9  A    between atoms: N5_26  and  C16_28 
REMARK   10  A    between atoms: C18_30  and  C19_31 
ROOT
HETATM    1  C10 UNL     1       0.349   1.107   0.453  1.00  0.00     0.148 A 
HETATM    2  C11 UNL     1      -0.102  -0.121   0.885  1.00  0.00     0.059 A 
HETATM    3  C12 UNL     1      -1.103  -0.784   0.178  1.00  0.00     0.036 A 
HETATM    4  C13 UNL     1      -1.654  -0.224  -0.959  1.00  0.00     0.064 A 
HETATM    5  C21 UNL     1      -1.170   1.007  -1.351  1.00  0.00     0.120 A 
HETATM    6  N10 UNL     1      -0.202   1.632  -0.654  1.00  0.00    -0.344 N 
ATOM      7  H10 UNL     1       0.126   2.541  -0.980  1.00  0.00     0.167 HD
ENDROOT
BRANCH   4   8
HETATM    8  N3  UNL     1      -2.666  -0.842  -1.719  1.00  0.00    -0.190 N 
ATOM      9  H3  UNL     1      -2.427  -1.424  -2.522  1.00  0.00     0.184 HD
BRANCH   8  10
HETATM   10  C14 UNL     1      -3.924  -0.659  -1.380  1.00  0.00     0.691 A 
HETATM   11  N4  UNL     1      -4.871  -1.250  -2.107  1.00  0.00    -0.157 N 
HETATM   12  S1  UNL     1      -6.292  -0.766  -1.350  1.00  0.00     0.039 SA
ATOM     13  H4  UNL     1      -4.761  -1.850  -2.924  1.00  0.00     0.193 HD
HETATM   14  C15 UNL     1      -5.606   0.186  -0.115  1.00  0.00     0.182 A 
HETATM   15  N9  UNL     1      -4.297   0.078  -0.358  1.00  0.00    -0.168 N 
ATOM     16  H9  UNL     1      -3.611   0.551   0.230  1.00  0.00     0.186 HD
BRANCH  14  17
HETATM   17  N5  UNL     1      -6.191   0.869   0.850  1.00  0.00    -0.321 N 
ATOM     18  H5  UNL     1      -5.654   1.404   1.533  1.00  0.00     0.169 HD
BRANCH  17  19
HETATM   19  C16 UNL     1      -7.610   0.818   0.885  1.00  0.00     0.107 A 
HETATM   20  C17 UNL     1      -8.370  -0.357   0.897  1.00  0.00     0.064 A 
HETATM   21  C18 UNL     1      -9.706  -0.031   0.932  1.00  0.00     0.024 A 
HETATM   22  C20 UNL     1      -9.767   1.342   0.942  1.00  0.00     0.104 A 
HETATM   23  N8  UNL     1      -8.491   1.825   0.913  1.00  0.00    -0.351 N 
ATOM     24  H8  UNL     1      -8.244   2.815   0.913  1.00  0.00     0.166 HD
BRANCH  21  25
HETATM   25  C19 UNL     1     -10.796  -0.988   0.953  1.00  0.00     0.121 C 
HETATM   26  N6  UNL     1     -10.584  -2.259   0.941  1.00  0.00    -0.387 N 
ATOM     27  H62 UNL     1      -9.625  -2.605   0.916  1.00  0.00     0.157 HD
ATOM     28  H61 UNL     1     -11.350  -2.932   0.956  1.00  0.00     0.157 HD
HETATM   29  N7  UNL     1     -12.125  -0.509   0.988  1.00  0.00    -0.082 NA
ENDBRANCH  21  25
ENDBRANCH  17  19
ENDBRANCH  14  17
ENDBRANCH   8  10
ENDBRANCH   4   8
BRANCH   1  30
HETATM   30  O1  UNL     1       1.353   1.745   1.184  1.00  0.00    -0.294 OA
BRANCH  30  31
HETATM   31  C9  UNL     1       2.665   1.386   0.899  1.00  0.00     0.077 A 
HETATM   32  C8  UNL     1       3.362   2.077  -0.067  1.00  0.00     0.038 A 
HETATM   33  C7  UNL     1       4.675   1.733  -0.366  1.00  0.00     0.015 A 
HETATM   34  C6  UNL     1       5.321   0.693   0.290  1.00  0.00    -0.026 A 
HETATM   35  C23 UNL     1       4.597   0.019   1.251  1.00  0.00     0.015 A 
HETATM   36  C22 UNL     1       3.278   0.356   1.561  1.00  0.00     0.038 A 
BRANCH  34  37
HETATM   37  C5  UNL     1       6.698   0.328  -0.023  1.00  0.00    -0.026 A 
HETATM   38  C4  UNL     1       7.171  -0.961   0.082  1.00  0.00     0.013 A 
HETATM   39  C3  UNL     1       8.478  -1.330  -0.210  1.00  0.00     0.015 A 
HETATM   40  C2  UNL     1       9.349  -0.352  -0.629  1.00  0.00     0.004 A 
HETATM   41  C25 UNL     1       8.910   0.971  -0.749  1.00  0.00     0.015 A 
HETATM   42  C24 UNL     1       7.602   1.277  -0.445  1.00  0.00     0.013 A 
BRANCH  40  43
HETATM   43  C1  UNL     1      10.718  -0.684  -0.945  1.00  0.00     0.120 C 
HETATM   44  N2  UNL     1      11.591   0.372  -1.379  1.00  0.00    -0.082 NA
BRANCH  43  45
HETATM   45  N1  UNL     1      11.179  -1.857  -0.857  1.00  0.00    -0.387 N 
ATOM     46  H12 UNL     1      12.146  -2.092  -1.080  1.00  0.00     0.157 HD
ATOM     47  H11 UNL     1      10.559  -2.606  -0.549  1.00  0.00     0.157 HD
ENDBRANCH  43  45
ENDBRANCH  40  43
ENDBRANCH  34  37
ENDBRANCH  30  31
ENDBRANCH   1  30
TORSDOF 10
