REMARK  6 active torsions:
REMARK  status: ('A' for Active; 'I' for Inactive)
REMARK    1  A    between atoms: C1_4  and  C2_5 
REMARK    2  A    between atoms: C1_4  and  N4_18 
REMARK    3  A    between atoms: C2_5  and  C3_6 
REMARK    4  A    between atoms: C3_6  and  C4_12 
REMARK    5  A    between atoms: N2_7  and  N3_9 
REMARK    6  A    between atoms: N4_18  and  C10_20 
ROOT
HETATM    1  C2  UNL     1      -0.587  -0.391   1.300  1.00  0.00     0.134 C 
ENDROOT
BRANCH   1   2
HETATM    2  C1  UNL     1       0.866  -0.060   1.294  1.00  0.00     0.076 C 
HETATM    3  N1  UNL     1       1.441   0.258   2.384  1.00  0.00    -0.389 N 
ATOM      4  H12 UNL     1       0.913   0.291   3.256  1.00  0.00     0.157 HD
ATOM      5  H11 UNL     1       2.436   0.485   2.380  1.00  0.00     0.157 HD
BRANCH   2   6
HETATM    6  N4  UNL     1       1.596  -0.105   0.089  1.00  0.00    -0.375 N 
ATOM      7  H4  UNL     1       1.334  -0.849  -0.558  1.00  0.00     0.161 HD
BRANCH   6   8
HETATM    8  C10 UNL     1       2.651   0.749  -0.347  1.00  0.00     0.082 C 
HETATM    9  C11 UNL     1       3.023   0.367  -1.796  1.00  0.00     0.025 C 
HETATM   10  C12 UNL     1       3.620  -1.002  -1.810  1.00  0.00     0.002 C 
HETATM   11  C13 UNL     1       4.856  -1.022  -0.969  1.00  0.00     0.000 C 
HETATM   12  C14 UNL     1       4.631  -0.556   0.453  1.00  0.00     0.002 C 
HETATM   13  C15 UNL     1       3.887   0.756   0.497  1.00  0.00     0.025 C 
ENDBRANCH   6   8
ENDBRANCH   2   6
ENDBRANCH   1   2
BRANCH   1  14
HETATM   14  C3  UNL     1      -1.372   0.551   0.416  1.00  0.00     0.038 C 
HETATM   15  N2  UNL     1      -0.723   1.418  -0.179  1.00  0.00    -0.310 N 
ATOM     16  H2  UNL     1       0.270   1.340   0.042  1.00  0.00     0.186 HD
BRANCH  15  17
HETATM   17  N3  UNL     1      -0.942   2.441  -1.038  1.00  0.00    -0.345 N 
ATOM     18  H32 UNL     1      -1.940   2.498  -1.243  1.00  0.00     0.176 HD
ATOM     19  H31 UNL     1      -0.406   3.157  -1.529  1.00  0.00     0.176 HD
ENDBRANCH  15  17
BRANCH  14  20
HETATM   20  C4  UNL     1      -2.790   0.360   0.337  1.00  0.00    -0.037 C 
HETATM   21  C5  UNL     1      -3.630   1.089  -0.395  1.00  0.00    -0.018 C 
HETATM   22  C6  UNL     1      -5.079   0.688  -0.307  1.00  0.00     0.028 C 
HETATM   23  C7  UNL     1      -5.120  -0.777  -0.690  1.00  0.00     0.004 C 
HETATM   24  C8  UNL     1      -4.388  -1.554   0.367  1.00  0.00     0.005 C 
HETATM   25  C9  UNL     1      -3.401  -0.763   1.156  1.00  0.00     0.040 C 
ENDBRANCH  14  20
ENDBRANCH   1  14
TORSDOF 6
