REMARK  8 active torsions:
REMARK  status: ('A' for Active; 'I' for Inactive)
REMARK    1  A    between atoms: C2_2  and  N1_3 
REMARK    2  A    between atoms: N1_3  and  C3_6 
REMARK    3  A    between atoms: C3_6  and  C4_7 
REMARK    4  A    between atoms: C4_7  and  S1_8 
REMARK    5  A    between atoms: S1_8  and  C5_9 
REMARK    6  A    between atoms: C5_9  and  N3_13 
REMARK    7  A    between atoms: N3_13  and  C6_15 
REMARK    8  A    between atoms: C6_15  and  C9_18 
ROOT
HETATM    1  C5  UNL     1      -0.043   0.473   1.428  1.00  0.00     0.134 C 
HETATM    2  N2  UNL     1      -0.462   1.146   2.407  1.00  0.00    -0.380 N 
ATOM      3  H21 UNL     1      -1.462   1.156   2.605  1.00  0.00     0.158 HD
ATOM      4  H22 UNL     1       0.167   1.686   3.001  1.00  0.00     0.158 HD
ENDROOT
BRANCH   1   5
HETATM    5  S1  UNL     1       1.698   0.456   1.083  1.00  0.00    -0.093 SA
BRANCH   5   6
HETATM    6  C4  UNL     1       1.997  -0.667  -0.300  1.00  0.00     0.110 C 
BRANCH   6   7
HETATM    7  C3  UNL     1       3.478  -0.702  -0.648  1.00  0.00     0.242 C 
BRANCH   7   8
HETATM    8  N1  UNL     1       4.279  -1.154   0.458  1.00  0.00    -0.075 N 
ATOM      9  H12 UNL     1       3.972  -2.064   0.801  1.00  0.00     0.277 HD
ATOM     10  H11 UNL     1       4.104  -0.607   1.301  1.00  0.00     0.277 HD
BRANCH   8  11
HETATM   11  C2  UNL     1       5.690  -1.159   0.100  1.00  0.00     0.228 C 
HETATM   12  C1  UNL     1       6.136   0.273  -0.071  1.00  0.00     0.034 C 
ENDBRANCH   8  11
ENDBRANCH   7   8
ENDBRANCH   6   7
ENDBRANCH   5   6
ENDBRANCH   1   5
BRANCH   1  13
HETATM   13  N3  UNL     1      -0.910  -0.271   0.610  1.00  0.00    -0.362 N 
ATOM     14  H3  UNL     1      -0.784  -1.282   0.647  1.00  0.00     0.162 HD
BRANCH  13  15
HETATM   15  C6  UNL     1      -1.940   0.183  -0.264  1.00  0.00     0.031 C 
HETATM   16  C7  UNL     1      -1.439   1.357  -1.097  1.00  0.00     0.039 C 
HETATM   17  C8  UNL     1      -2.079  -0.951  -1.341  1.00  0.00     0.039 C 
BRANCH  15  18
HETATM   18  C9  UNL     1      -3.300   0.337   0.280  1.00  0.00    -0.027 C 
HETATM   19  C10 UNL     1      -4.239   0.811  -0.828  1.00  0.00     0.017 C 
HETATM   20  C11 UNL     1      -3.769  -1.066   0.708  1.00  0.00     0.017 C 
HETATM   21  C12 UNL     1      -3.513   1.246   1.434  1.00  0.00     0.017 C 
ENDBRANCH  15  18
ENDBRANCH  13  15
ENDBRANCH   1  13
TORSDOF 8
