REMARK  4 active torsions:
REMARK  status: ('A' for Active; 'I' for Inactive)
REMARK    1  A    between atoms: C2_2  and  C3_3 
REMARK    2  A    between atoms: C5_5  and  C6_6 
REMARK    3  A    between atoms: C6_6  and  C7_7 
REMARK    4  A    between atoms: C9_16  and  C10_17 
ROOT
HETATM    1  C7  UNL     1      -0.617  -1.169  -0.236  1.00  0.00     0.056 A 
HETATM    2  N1  UNL     1      -0.214  -2.287   0.458  1.00  0.00    -0.194 N 
ATOM      3  H1  UNL     1       0.585  -2.870   0.209  1.00  0.00     0.184 HD
HETATM    4  C8  UNL     1      -1.015  -2.500   1.502  1.00  0.00     0.676 A 
HETATM    5  N2  UNL     1      -0.898  -3.463   2.343  1.00  0.00    -0.234 N 
ATOM      6  H21 UNL     1      -1.511  -3.626   3.142  1.00  0.00     0.174 HD
ATOM      7  H22 UNL     1      -0.191  -4.198   2.338  1.00  0.00     0.174 HD
HETATM    8  N3  UNL     1      -1.941  -1.538   1.508  1.00  0.00    -0.193 N 
ATOM      9  H3  UNL     1      -2.693  -1.436   2.190  1.00  0.00     0.184 HD
HETATM   10  C9  UNL     1      -1.707  -0.710   0.438  1.00  0.00     0.057 A 
ENDROOT
BRANCH   1  11
HETATM   11  C6  UNL     1       0.123  -0.674  -1.418  1.00  0.00     0.127 C 
BRANCH  11  12
HETATM   12  C5  UNL     1       1.184   0.311  -1.128  1.00  0.00     0.084 A 
HETATM   13  C4  UNL     1       2.500  -0.074  -0.775  1.00  0.00     0.062 A 
HETATM   14  C3  UNL     1       3.262   1.056  -0.568  1.00  0.00     0.034 A 
HETATM   15  N4  UNL     1       2.405   2.069  -0.794  1.00  0.00    -0.265 N 
HETATM   16  O1  UNL     1       1.232   1.596  -1.111  1.00  0.00    -0.242 OA
ATOM     17  H4  UNL     1       2.639   3.060  -0.727  1.00  0.00     0.194 HD
BRANCH  14  18
HETATM   18  C2  UNL     1       4.695   1.040  -0.194  1.00  0.00     0.054 C 
HETATM   19  C1  UNL     1       4.943   1.004   1.292  1.00  0.00     0.011 C 
ENDBRANCH  14  18
ENDBRANCH  11  12
ENDBRANCH   1  11
BRANCH  10  20
HETATM   20  C10 UNL     1      -2.543   0.447   0.104  1.00  0.00    -0.006 C 
HETATM   21  C11 UNL     1      -3.125   0.252  -1.290  1.00  0.00     0.021 C 
HETATM   22  C12 UNL     1      -1.931   1.794   0.321  1.00  0.00     0.021 C 
HETATM   23  C13 UNL     1      -3.792   0.429   1.024  1.00  0.00     0.021 C 
ENDBRANCH  10  20
TORSDOF 4
