REMARK  12 active torsions:
REMARK  status: ('A' for Active; 'I' for Inactive)
REMARK    1  A    between atoms: C2_2  and  C3_3 
REMARK    2  A    between atoms: C3_3  and  C4_4 
REMARK    3  A    between atoms: C5_5  and  C6_6 
REMARK    4  A    between atoms: C7_7  and  N1_8 
REMARK    5  A    between atoms: N1_8  and  C10_11 
REMARK    6  A    between atoms: C10_11  and  C11_12 
REMARK    7  A    between atoms: C12_13  and  C13_14 
REMARK    8  A    between atoms: C13_14  and  N2_15 
REMARK       I    between atoms: N2_15  and  C14_17 
REMARK    9  A    between atoms: C14_17  and  C15_19 
REMARK   10  A    between atoms: C16_20  and  C17_21 
REMARK   11  A    between atoms: C18_22  and  C19_23 
REMARK   12  A    between atoms: C19_23  and  N3_24 
ROOT
HETATM    1  N2  UNL     1       1.771  -1.187   0.237  1.00  0.00    -0.347 N 
ATOM      2  H2  UNL     1       1.171  -1.954   0.540  1.00  0.00     0.163 HD
HETATM    3  C14 UNL     1       3.140  -1.441  -0.059  1.00  0.00     0.242 C 
HETATM    4  O1  UNL     1       3.833  -0.460  -0.430  1.00  0.00    -0.269 OA
ENDROOT
BRANCH   1   5
HETATM    5  C13 UNL     1       1.218   0.144   0.114  1.00  0.00     0.217 C 
BRANCH   5   6
HETATM    6  C12 UNL     1      -0.201   0.169   0.469  1.00  0.00    -0.085 C 
HETATM    7  C11 UNL     1      -1.377   0.194   0.743  1.00  0.00    -0.076 C 
BRANCH   7   8
HETATM    8  C10 UNL     1      -2.818   0.248   1.066  1.00  0.00     0.346 C 
BRANCH   8   9
HETATM    9  N1  UNL     1      -3.456   0.925  -0.052  1.00  0.00     0.001 N 
HETATM   10  C8  UNL     1      -3.385   2.349   0.200  1.00  0.00     0.291 C 
HETATM   11  C9  UNL     1      -2.769   0.548  -1.272  1.00  0.00     0.291 C 
BRANCH   9  12
HETATM   12  C7  UNL     1      -4.775   0.462  -0.123  1.00  0.00     0.130 C 
HETATM   13  C6  UNL     1      -5.907   0.049  -0.200  1.00  0.00     0.015 C 
BRANCH  13  14
HETATM   14  C5  UNL     1      -7.229  -0.446  -0.310  1.00  0.00    -0.013 C 
HETATM   15  C4  UNL     1      -8.357  -0.865  -0.425  1.00  0.00    -0.092 C 
BRANCH  15  16
HETATM   16  C3  UNL     1      -9.729  -1.354  -0.579  1.00  0.00     0.094 C 
BRANCH  16  17
HETATM   17  C2  UNL     1     -10.629  -0.268  -1.162  1.00  0.00     0.007 C 
HETATM   18  C1  UNL     1     -10.579   0.892  -0.169  1.00  0.00     0.006 C 
ENDBRANCH  16  17
ENDBRANCH  15  16
ENDBRANCH  13  14
ENDBRANCH   9  12
ENDBRANCH   8   9
ENDBRANCH   7   8
ENDBRANCH   5   6
ENDBRANCH   1   5
BRANCH   3  19
HETATM   19  C15 UNL     1       3.684  -2.784   0.069  1.00  0.00     0.083 C 
HETATM   20  C16 UNL     1       4.945  -3.050  -0.198  1.00  0.00     0.070 C 
BRANCH  20  21
HETATM   21  C17 UNL     1       5.897  -2.076  -0.632  1.00  0.00    -0.077 C 
HETATM   22  C18 UNL     1       6.727  -1.265  -1.004  1.00  0.00    -0.072 C 
BRANCH  22  23
HETATM   23  C19 UNL     1       7.724  -0.312  -1.449  1.00  0.00     0.368 C 
BRANCH  23  24
HETATM   24  N3  UNL     1       8.067   0.598  -0.356  1.00  0.00     0.125 N 
HETATM   25  C20 UNL     1       9.053   1.521  -0.837  1.00  0.00     0.399 C 
HETATM   26  N4  UNL     1       9.968   1.736   0.242  1.00  0.00    -0.334 N 
HETATM   27  C21 UNL     1       9.615   0.843   1.293  1.00  0.00     0.247 C 
ATOM     28  H4  UNL     1      10.735   2.408   0.256  1.00  0.00     0.164 HD
HETATM   29  O2  UNL     1      10.010   0.847   2.468  1.00  0.00    -0.272 OA
HETATM   30  C22 UNL     1       8.646  -0.146   0.728  1.00  0.00     0.377 C 
ENDBRANCH  23  24
ENDBRANCH  22  23
ENDBRANCH  20  21
ENDBRANCH   3  19
TORSDOF 12
