REMARK  5 active torsions:
REMARK  status: ('A' for Active; 'I' for Inactive)
REMARK    1  A    between atoms: C2_2  and  N1_3 
REMARK    2  A    between atoms: N2_6  and  C5_7 
REMARK    3  A    between atoms: C5_7  and  C6_8 
REMARK    4  A    between atoms: C6_8  and  C7_9 
REMARK    5  A    between atoms: C7_9  and  C8_10 
REMARK       I    between atoms: C8_10  and  N3_12 
ROOT
HETATM    1  C8  UNL     1       1.531   0.191   0.848  1.00  0.00     0.219 C 
HETATM    2  O1  UNL     1       1.055   0.850   1.825  1.00  0.00    -0.273 OA
HETATM    3  N3  UNL     1       2.923  -0.044   0.793  1.00  0.00    -0.352 N 
HETATM    4  C9  UNL     1       3.790   0.459   1.831  1.00  0.00     0.128 C 
HETATM    5  C10 UNL     1       5.028   1.100   1.309  1.00  0.00     0.051 C 
HETATM    6  C11 UNL     1       5.597   0.432   0.093  1.00  0.00     0.034 C 
HETATM    7  C12 UNL     1       6.654   1.327  -0.517  1.00  0.00     0.038 C 
HETATM    8  C13 UNL     1       7.457   0.285  -1.310  1.00  0.00     0.075 C 
HETATM    9  C14 UNL     1       7.362  -0.869  -0.363  1.00  0.00     0.089 C 
HETATM   10  N4  UNL     1       8.290  -1.942  -0.309  1.00  0.00    -0.088 NA
HETATM   11  N5  UNL     1       6.332  -0.748   0.384  1.00  0.00    -0.372 N 
ATOM     12  H5  UNL     1       6.069  -1.420   1.105  1.00  0.00     0.161 HD
HETATM   13  C15 UNL     1       4.555   0.092  -0.941  1.00  0.00     0.051 C 
HETATM   14  C16 UNL     1       3.487  -0.781  -0.293  1.00  0.00     0.128 C 
ENDROOT
BRANCH   1  15
HETATM   15  C7  UNL     1       0.593  -0.302  -0.191  1.00  0.00     0.105 C 
BRANCH  15  16
HETATM   16  C6  UNL     1      -0.794   0.111   0.161  1.00  0.00     0.037 C 
BRANCH  16  17
HETATM   17  C5  UNL     1      -1.803  -0.362  -0.864  1.00  0.00     0.238 C 
BRANCH  17  18
HETATM   18  N2  UNL     1      -3.133   0.037  -0.522  1.00  0.00    -0.062 N 
HETATM   19  C4  UNL     1      -3.724  -1.035   0.269  1.00  0.00     0.265 C 
HETATM   20  C3  UNL     1      -5.067  -0.628   0.781  1.00  0.00     0.265 C 
HETATM   21  N1  UNL     1      -5.524   0.551   0.065  1.00  0.00    -0.063 N 
HETATM   22  C18 UNL     1      -5.415   0.247  -1.350  1.00  0.00     0.265 C 
HETATM   23  C20 UNL     1      -4.659   1.677   0.335  1.00  0.00     0.265 C 
HETATM   24  C17 UNL     1      -3.953   0.236  -1.720  1.00  0.00     0.265 C 
HETATM   25  C19 UNL     1      -3.205   1.245   0.243  1.00  0.00     0.265 C 
BRANCH  21  26
HETATM   26  C2  UNL     1      -6.860   0.894   0.457  1.00  0.00     0.233 C 
HETATM   27  C1  UNL     1      -7.612  -0.266   1.074  1.00  0.00     0.035 C 
ENDBRANCH  21  26
ENDBRANCH  17  18
ENDBRANCH  16  17
ENDBRANCH  15  16
ENDBRANCH   1  15
TORSDOF 5
