REMARK  10 active torsions:
REMARK  status: ('A' for Active; 'I' for Inactive)
REMARK    1  A    between atoms: C3_3  and  N1_4 
REMARK    2  A    between atoms: N1_4  and  C4_6 
REMARK    3  A    between atoms: N2_9  and  C6_10 
REMARK    4  A    between atoms: C6_10  and  C7_11 
REMARK    5  A    between atoms: C7_11  and  N3_12 
REMARK    6  A    between atoms: N3_12  and  C10_15 
REMARK    7  A    between atoms: N4_20  and  C16_22 
REMARK    8  A    between atoms: C16_22  and  C17_23 
REMARK    9  A    between atoms: C18_24  and  C19_25 
REMARK   10  A    between atoms: C20_26  and  C21_27 
ROOT
HETATM    1  C1  UNL     1       0.568  -4.568  -2.891  1.00  0.00     0.113 C 
HETATM    2  C2  UNL     1       1.099  -3.397  -2.181  1.00  0.00    -0.088 C 
HETATM    3  C3  UNL     1       1.550  -2.426  -1.602  1.00  0.00     0.007 C 
ENDROOT
BRANCH   3   4
HETATM    4  N1  UNL     1       2.081  -1.289  -0.957  1.00  0.00    -0.314 N 
ATOM      5  H1  UNL     1       2.986  -0.939  -1.272  1.00  0.00     0.172 HD
BRANCH   4   6
HETATM    6  C4  UNL     1       1.426  -0.594   0.115  1.00  0.00     0.389 C 
HETATM    7  C5  UNL     1       0.061  -0.175  -0.301  1.00  0.00     0.271 C 
HETATM    8  O1  UNL     1      -0.337  -0.719  -1.358  1.00  0.00    -0.269 OA
HETATM    9  N2  UNL     1      -0.844   0.733   0.308  1.00  0.00    -0.347 N 
HETATM   10  C12 UNL     1      -0.660   1.403   1.578  1.00  0.00     0.127 C 
HETATM   11  C13 UNL     1       0.556   0.856   2.311  1.00  0.00     0.048 C 
HETATM   12  C14 UNL     1       0.585  -0.622   2.360  1.00  0.00     0.243 C 
HETATM   13  N4  UNL     1       1.427  -1.278   1.380  1.00  0.00    -0.031 N 
HETATM   14  C15 UNL     1       0.823  -2.584   1.184  1.00  0.00     0.276 C 
BRANCH   9  15
HETATM   15  C6  UNL     1      -2.085   1.061  -0.354  1.00  0.00     0.154 C 
BRANCH  15  16
HETATM   16  C7  UNL     1      -3.171   0.086   0.083  1.00  0.00     0.256 C 
BRANCH  16  17
HETATM   17  N3  UNL     1      -4.431   0.361  -0.538  1.00  0.00    -0.073 N 
HETATM   18  C8  UNL     1      -5.136  -0.878  -0.710  1.00  0.00     0.272 C 
HETATM   19  C9  UNL     1      -4.258   1.029  -1.825  1.00  0.00     0.272 C 
BRANCH  17  20
HETATM   20  C10 UNL     1      -5.160   1.288   0.313  1.00  0.00     0.232 C 
HETATM   21  C11 UNL     1      -6.630   1.300  -0.028  1.00  0.00     0.034 C 
ENDBRANCH  17  20
ENDBRANCH  16  17
ENDBRANCH  15  16
ENDBRANCH   9  15
BRANCH  13  22
HETATM   22  C16 UNL     1       2.748  -1.528   1.901  1.00  0.00     0.334 C 
BRANCH  22  23
HETATM   23  C17 UNL     1       3.693  -0.492   1.521  1.00  0.00    -0.064 C 
HETATM   24  C18 UNL     1       4.470   0.375   1.185  1.00  0.00    -0.013 C 
BRANCH  24  25
HETATM   25  C19 UNL     1       5.364   1.401   0.776  1.00  0.00    -0.015 C 
HETATM   26  C20 UNL     1       6.112   2.280   0.412  1.00  0.00    -0.093 C 
BRANCH  26  27
HETATM   27  C21 UNL     1       7.012   3.339  -0.053  1.00  0.00     0.090 C 
HETATM   28  C22 UNL     1       8.451   2.913  -0.073  1.00  0.00     0.018 C 
ENDBRANCH  26  27
ENDBRANCH  24  25
ENDBRANCH  22  23
ENDBRANCH  13  22
ENDBRANCH   4   6
ENDBRANCH   3   4
TORSDOF 10
