REMARK  11 active torsions:
REMARK  status: ('A' for Active; 'I' for Inactive)
REMARK    1  A    between atoms: C2_2  and  N1_3 
REMARK    2  A    between atoms: C2_2  and  C9_14 
REMARK    3  A    between atoms: N1_3  and  C3_6 
REMARK    4  A    between atoms: C3_6  and  C4_7 
REMARK    5  A    between atoms: C5_8  and  C6_9 
REMARK    6  A    between atoms: C6_9  and  N2_10 
REMARK       I    between atoms: C9_14  and  N3_16 
REMARK    7  A    between atoms: N3_16  and  C10_18 
REMARK    8  A    between atoms: C11_19  and  C12_20 
REMARK    9  A    between atoms: C12_20  and  C13_21 
REMARK   10  A    between atoms: C14_22  and  C15_23 
REMARK   11  A    between atoms: C15_23  and  N4_24 
ROOT
HETATM    1  C9  UNL     1       0.924  -0.828  -0.244  1.00  0.00     0.248 C 
HETATM    2  O2  UNL     1       0.844   0.421  -0.146  1.00  0.00    -0.271 OA
HETATM    3  N3  UNL     1      -0.221  -1.670  -0.281  1.00  0.00    -0.353 N 
ATOM      4  H3  UNL     1      -0.076  -2.676  -0.362  1.00  0.00     0.163 HD
ENDROOT
BRANCH   1   5
HETATM    5  C2  UNL     1       2.272  -1.434  -0.324  1.00  0.00     0.274 C 
HETATM    6  C1  UNL     1       2.393  -2.411   0.824  1.00  0.00     0.050 C 
BRANCH   5   7
HETATM    7  N1  UNL     1       3.311  -0.423  -0.274  1.00  0.00    -0.053 N 
ATOM      8  H12 UNL     1       3.157   0.309  -0.968  1.00  0.00     0.279 HD
ATOM      9  H11 UNL     1       3.242   0.146   0.570  1.00  0.00     0.279 HD
BRANCH   7  10
HETATM   10  C3  UNL     1       4.630  -1.021  -0.410  1.00  0.00     0.326 C 
BRANCH  10  11
HETATM   11  C4  UNL     1       5.684  -0.023  -0.363  1.00  0.00    -0.077 C 
HETATM   12  C5  UNL     1       6.564   0.813  -0.334  1.00  0.00    -0.069 C 
BRANCH  12  13
HETATM   13  C6  UNL     1       7.632   1.818  -0.324  1.00  0.00     0.404 C 
BRANCH  13  14
HETATM   14  N2  UNL     1       8.692   1.341   0.535  1.00  0.00     0.015 N 
HETATM   15  C7  UNL     1       9.958   1.970   0.241  1.00  0.00     0.357 C 
HETATM   16  C8  UNL     1       8.321   1.667   1.906  1.00  0.00     0.357 C 
HETATM   17  O1  UNL     1       8.792  -0.008   0.364  1.00  0.00    -0.064 OA
ENDBRANCH  13  14
ENDBRANCH  12  13
ENDBRANCH  10  11
ENDBRANCH   7  10
ENDBRANCH   5   7
ENDBRANCH   1   5
BRANCH   3  18
HETATM   18  C10 UNL     1      -1.564  -1.186  -0.211  1.00  0.00     0.098 A 
HETATM   19  C11 UNL     1      -2.644  -2.046   0.483  1.00  0.00     0.030 A 
HETATM   20  C19 UNL     1      -2.685  -1.925  -0.953  1.00  0.00    -0.020 A 
HETATM   21  C20 UNL     1      -3.532  -1.039  -1.782  1.00  0.00     0.017 C 
HETATM   22  C21 UNL     1      -2.104  -3.111  -1.755  1.00  0.00     0.017 C 
BRANCH  19  23
HETATM   23  C12 UNL     1      -3.358  -1.327   1.543  1.00  0.00     0.101 C 
BRANCH  23  24
HETATM   24  C13 UNL     1      -4.044  -0.148   1.105  1.00  0.00    -0.104 C 
HETATM   25  C14 UNL     1      -4.638   0.870   0.766  1.00  0.00    -0.079 C 
BRANCH  25  26
HETATM   26  C15 UNL     1      -5.369   2.076   0.369  1.00  0.00     0.329 C 
BRANCH  26  27
HETATM   27  N4  UNL     1      -6.746   1.678   0.155  1.00  0.00    -0.069 N 
HETATM   28  C16 UNL     1      -7.223   0.791   1.195  1.00  0.00     0.272 C 
HETATM   29  C17 UNL     1      -7.550   2.883   0.208  1.00  0.00     0.272 C 
HETATM   30  C18 UNL     1      -6.923   1.109  -1.175  1.00  0.00     0.272 C 
ENDBRANCH  26  27
ENDBRANCH  25  26
ENDBRANCH  23  24
ENDBRANCH  19  23
ENDBRANCH   3  18
TORSDOF 11
