REMARK  6 active torsions:
REMARK  status: ('A' for Active; 'I' for Inactive)
REMARK    1  A    between atoms: C3_3  and  N1_4 
REMARK    2  A    between atoms: N1_4  and  C4_5 
REMARK    3  A    between atoms: N1_4  and  C6_7 
REMARK    4  A    between atoms: N1_4  and  C10_14 
REMARK    5  A    between atoms: C6_7  and  C7_8 
REMARK    6  A    between atoms: C12_16  and  N2_17 
ROOT
HETATM    1  C1  UNL     1       3.484   2.739   2.610  1.00  0.00     0.013 C 
HETATM    2  C2  UNL     1       2.435   2.290   2.228  1.00  0.00    -0.089 C 
HETATM    3  C3  UNL     1       1.172   1.727   1.748  1.00  0.00     0.330 C 
ENDROOT
BRANCH   3   4
HETATM    4  N1  UNL     1       1.430   0.845   0.573  1.00  0.00    -0.046 N 
BRANCH   4   5
HETATM    5  C4  UNL     1       1.973   1.597  -0.498  1.00  0.00     0.235 C 
HETATM    6  C5  UNL     1       1.160   2.842  -0.879  1.00  0.00     0.035 C 
ENDBRANCH   4   5
BRANCH   4   7
HETATM    7  C6  UNL     1       2.510  -0.005   1.111  1.00  0.00     0.284 C 
BRANCH   7   8
HETATM    8  C7  UNL     1       2.682  -1.307   0.465  1.00  0.00     0.240 C 
HETATM    9  O1  UNL     1       3.736  -2.008   1.121  1.00  0.00    -0.371 OA
HETATM   10  C8  UNL     1       3.846  -3.206   0.398  1.00  0.00     0.182 C 
HETATM   11  C9  UNL     1       4.333  -2.821  -1.006  1.00  0.00     0.137 C 
HETATM   12  S1  UNL     1       3.513  -1.218  -1.141  1.00  0.00     0.048 S 
HETATM   13  O2  UNL     1       4.769  -0.080  -1.000  1.00  0.00    -0.255 OA
ENDBRANCH   7   8
ENDBRANCH   4   7
BRANCH   4  14
HETATM   14  C10 UNL     1       0.246   0.123   0.408  1.00  0.00     0.224 C 
HETATM   15  C11 UNL     1      -1.052   0.886   0.748  1.00  0.00     0.076 C 
HETATM   16  C12 UNL     1      -1.674  -0.212  -0.076  1.00  0.00     0.224 C 
HETATM   17  C18 UNL     1      -0.404  -0.204  -0.851  1.00  0.00    -0.028 C 
HETATM   18  C19 UNL     1      -0.236  -0.444  -2.136  1.00  0.00     0.018 C 
BRANCH  16  19
HETATM   19  N2  UNL     1      -2.900   0.083  -0.706  1.00  0.00    -0.047 N 
HETATM   20  C13 UNL     1      -2.811   1.072  -1.754  1.00  0.00     0.275 C 
HETATM   21  C14 UNL     1      -3.786   0.612   0.323  1.00  0.00     0.249 C 
HETATM   22  C15 UNL     1      -4.693  -0.374   0.956  1.00  0.00     0.131 C 
HETATM   23  C16 UNL     1      -4.254  -1.776   0.936  1.00  0.00     0.220 C 
HETATM   24  O3  UNL     1      -4.400  -2.609   1.849  1.00  0.00    -0.274 OA
HETATM   25  N3  UNL     1      -3.595  -2.161  -0.295  1.00  0.00    -0.337 N 
HETATM   26  C17 UNL     1      -3.580  -1.058  -1.263  1.00  0.00     0.362 C 
ATOM     27  H3  UNL     1      -3.192  -3.082  -0.467  1.00  0.00     0.164 HD
ENDBRANCH  16  19
ENDBRANCH   4  14
ENDBRANCH   3   4
TORSDOF 6
