REMARK  9 active torsions:
REMARK  status: ('A' for Active; 'I' for Inactive)
REMARK    1  A    between atoms: C3_3  and  N1_4 
REMARK    2  A    between atoms: N2_7  and  C6_8 
REMARK    3  A    between atoms: C6_8  and  C7_9 
REMARK    4  A    between atoms: C7_9  and  C8_10 
REMARK    5  A    between atoms: C8_10  and  C9_11 
REMARK       I    between atoms: C9_11  and  N3_13 
REMARK    6  A    between atoms: C11_15  and  N4_16 
REMARK    7  A    between atoms: C12_20  and  C13_21 
REMARK    8  A    between atoms: C13_21  and  N5_22 
REMARK    9  A    between atoms: C14_26  and  C15_27 
ROOT
HETATM    1  C1  UNL     1       8.053  -1.874  -0.884  1.00  0.00     0.013 C 
HETATM    2  C2  UNL     1       7.619  -0.866  -0.370  1.00  0.00    -0.089 C 
HETATM    3  C3  UNL     1       7.095   0.349   0.268  1.00  0.00     0.330 C 
ENDROOT
BRANCH   3   4
HETATM    4  N1  UNL     1       5.664   0.302   0.192  1.00  0.00    -0.052 N 
HETATM    5  C4  UNL     1       5.280   0.306  -1.205  1.00  0.00     0.266 C 
HETATM    6  C5  UNL     1       3.843  -0.189  -1.273  1.00  0.00     0.265 C 
HETATM    7  N2  UNL     1       3.191   0.142  -0.033  1.00  0.00    -0.062 N 
HETATM    8  C18 UNL     1       3.558   1.467   0.365  1.00  0.00     0.265 C 
HETATM    9  C20 UNL     1       3.695  -0.780   0.983  1.00  0.00     0.265 C 
HETATM   10  C19 UNL     1       5.018   1.418   0.832  1.00  0.00     0.266 C 
HETATM   11  C21 UNL     1       5.189  -0.923   0.809  1.00  0.00     0.266 C 
BRANCH   7  12
HETATM   12  C6  UNL     1       1.760  -0.072  -0.091  1.00  0.00     0.238 C 
BRANCH  12  13
HETATM   13  C7  UNL     1       1.058   0.767  -1.084  1.00  0.00     0.037 C 
BRANCH  13  14
HETATM   14  C8  UNL     1      -0.410   0.462  -1.055  1.00  0.00     0.105 C 
BRANCH  14  15
HETATM   15  C9  UNL     1      -1.046   0.787   0.241  1.00  0.00     0.219 C 
HETATM   16  O1  UNL     1      -0.407   1.551   1.028  1.00  0.00    -0.273 OA
HETATM   17  N3  UNL     1      -2.316   0.266   0.583  1.00  0.00    -0.350 N 
HETATM   18  C10 UNL     1      -2.931   0.590   1.845  1.00  0.00     0.159 C 
HETATM   19  C17 UNL     1      -3.007  -0.591  -0.324  1.00  0.00     0.130 C 
HETATM   20  C11 UNL     1      -4.324   1.076   1.525  1.00  0.00     0.207 C 
HETATM   21  C12 UNL     1      -5.110  -0.090   0.952  1.00  0.00     0.049 C 
HETATM   22  C14 UNL     1      -4.300  -1.124   0.302  1.00  0.00     0.011 C 
BRANCH  20  23
HETATM   23  N4  UNL     1      -4.204   2.168   0.592  1.00  0.00    -0.073 N 
ATOM     24  H43 UNL     1      -3.592   2.912   0.929  1.00  0.00     0.274 HD
ATOM     25  H42 UNL     1      -3.669   1.921  -0.241  1.00  0.00     0.274 HD
ATOM     26  H41 UNL     1      -5.145   2.496   0.376  1.00  0.00     0.274 HD
ENDBRANCH  20  23
BRANCH  21  27
HETATM   27  C13 UNL     1      -6.221   0.502   0.132  1.00  0.00     0.236 C 
BRANCH  27  28
HETATM   28  N5  UNL     1      -7.063   1.336   1.010  1.00  0.00    -0.079 N 
ATOM     29  H53 UNL     1      -7.407   0.824   1.822  1.00  0.00     0.274 HD
ATOM     30  H52 UNL     1      -6.525   2.045   1.508  1.00  0.00     0.274 HD
ATOM     31  H51 UNL     1      -7.817   1.738   0.453  1.00  0.00     0.274 HD
ENDBRANCH  27  28
ENDBRANCH  21  27
BRANCH  22  32
HETATM   32  C15 UNL     1      -4.936  -1.970  -0.758  1.00  0.00     0.002 C 
HETATM   33  C16 UNL     1      -6.105  -2.770  -0.304  1.00  0.00     0.005 C 
ENDBRANCH  22  32
ENDBRANCH  14  15
ENDBRANCH  13  14
ENDBRANCH  12  13
ENDBRANCH   7  12
ENDBRANCH   3   4
TORSDOF 9
