REMARK  2 active torsions:
REMARK  status: ('A' for Active; 'I' for Inactive)
REMARK    1  A    between atoms: C2_2  and  O1_6 
REMARK    2  A    between atoms: O1_6  and  N2_7 
ROOT
HETATM    1  N2  UNL     1       1.225  -0.511  -0.566  1.00  0.00    -0.255 N 
ATOM      2  H2  UNL     1       1.322  -1.321  -1.178  1.00  0.00     0.195 HD
HETATM    3  C3  UNL     1       0.123  -0.292   0.066  1.00  0.00     0.097 C 
HETATM    4  C4  UNL     1      -1.060  -1.185  -0.049  1.00  0.00     0.338 C 
HETATM    5  N3  UNL     1      -2.303  -0.472  -0.057  1.00  0.00     0.091 N 
HETATM    6  C5  UNL     1      -3.373  -1.173  -0.694  1.00  0.00     0.310 C 
HETATM    7  C6  UNL     1      -2.201   0.901  -0.431  1.00  0.00     0.283 C 
HETATM    8  C7  UNL     1      -1.798   1.690   0.820  1.00  0.00     0.111 C 
HETATM    9  S1  UNL     1      -0.088   1.122   1.155  1.00  0.00    -0.111 SA
ENDROOT
BRANCH   1  10
HETATM   10  O1  UNL     1       2.259   0.363  -0.400  1.00  0.00    -0.225 OA
BRANCH  10  11
HETATM   11  C2  UNL     1       3.516  -0.098  -0.060  1.00  0.00     0.136 C 
HETATM   12  C1  UNL     1       4.469   0.849   0.557  1.00  0.00     0.099 C 
HETATM   13  N1  UNL     1       3.792  -1.333  -0.299  1.00  0.00    -0.382 N 
ATOM     14  H12 UNL     1       4.720  -1.673  -0.048  1.00  0.00     0.158 HD
ATOM     15  H11 UNL     1       3.134  -1.986  -0.725  1.00  0.00     0.158 HD
ENDBRANCH  10  11
ENDBRANCH   1  10
TORSDOF 2
