REMARK  2 active torsions:
REMARK  status: ('A' for Active; 'I' for Inactive)
REMARK    1  A    between atoms: C2_2  and  C5_5 
REMARK       I    between atoms: C5_5  and  N1_7 
REMARK    2  A    between atoms: N2_9  and  C6_11 
ROOT
HETATM    1  C5  UNL     1      -1.307  -0.980  -1.187  1.00  0.00     0.243 C 
HETATM    2  O1  UNL     1      -1.754  -1.669  -2.119  1.00  0.00    -0.271 OA
HETATM    3  N1  UNL     1       0.060  -0.970  -0.871  1.00  0.00    -0.267 N 
ATOM      4  H1  UNL     1       0.668  -1.696  -1.249  1.00  0.00     0.190 HD
HETATM    5  N2  UNL     1       0.555  -0.064  -0.116  1.00  0.00    -0.269 N 
ATOM      6  H2  UNL     1      -0.059   0.659   0.259  1.00  0.00     0.190 HD
ENDROOT
BRANCH   5   7
HETATM    7  C6  UNL     1       1.938  -0.037   0.215  1.00  0.00     0.190 C 
HETATM    8  N3  UNL     1       2.642  -1.132   0.276  1.00  0.00    -0.360 N 
HETATM    9  C7  UNL     1       4.012  -0.829   0.631  1.00  0.00     0.142 C 
ATOM     10  H3  UNL     1       2.279  -2.069   0.099  1.00  0.00     0.162 HD
HETATM   11  C8  UNL     1       4.148   0.671   0.532  1.00  0.00     0.142 C 
HETATM   12  N4  UNL     1       2.755   1.088   0.519  1.00  0.00    -0.360 N 
ATOM     13  H4  UNL     1       2.418   2.034   0.699  1.00  0.00     0.162 HD
ENDBRANCH   5   7
BRANCH   1  14
HETATM   14  C2  UNL     1      -2.242  -0.142  -0.380  1.00  0.00     0.032 C 
HETATM   15  C1  UNL     1      -1.840   1.317  -0.488  1.00  0.00     0.025 C 
HETATM   16  C3  UNL     1      -3.667  -0.294  -0.901  1.00  0.00     0.025 C 
HETATM   17  C4  UNL     1      -2.135  -0.542   1.064  1.00  0.00     0.025 C 
ENDBRANCH   1  14
TORSDOF 2
