REMARK  1 active torsions:
REMARK  status: ('A' for Active; 'I' for Inactive)
REMARK    1  A    between atoms: C4_6  and  N2_7 
ROOT
HETATM    1  C1  UNL     1      -3.231   0.245  -0.327  1.00  0.00     0.002 C 
HETATM    2  C2  UNL     1      -2.968  -1.112   0.273  1.00  0.00     0.020 C 
HETATM    3  C3  UNL     1      -2.051  -1.079   1.452  1.00  0.00     0.121 C 
HETATM    4  N1  UNL     1      -0.691  -0.844   0.995  1.00  0.00    -0.380 N 
ATOM      5  H1  UNL     1      -0.023  -1.576   1.236  1.00  0.00     0.160 HD
HETATM    6  C4  UNL     1      -0.198   0.148   0.331  1.00  0.00     0.075 C 
HETATM    7  C9  UNL     1      -0.984   1.318  -0.123  1.00  0.00     0.076 C 
HETATM    8  C10 UNL     1      -2.055   0.814  -1.056  1.00  0.00     0.007 C 
ENDROOT
BRANCH   6   9
HETATM    9  N2  UNL     1       1.190   0.088   0.030  1.00  0.00    -0.367 N 
HETATM   10  C5  UNL     1       2.010  -0.651   0.980  1.00  0.00     0.150 C 
HETATM   11  C6  UNL     1       3.377  -0.946   0.489  1.00  0.00     0.187 C 
HETATM   12  O1  UNL     1       3.607  -0.671  -0.832  1.00  0.00    -0.388 OA
HETATM   13  C7  UNL     1       3.269   0.686  -1.036  1.00  0.00     0.187 C 
HETATM   14  C8  UNL     1       1.758   0.720  -1.145  1.00  0.00     0.150 C 
ENDBRANCH   6   9
TORSDOF 1
