REMARK  9 active torsions:
REMARK  status: ('A' for Active; 'I' for Inactive)
REMARK    1  A    between atoms: C2_2  and  C5_5 
REMARK    2  A    between atoms: C5_5  and  C7_7 
REMARK    3  A    between atoms: C5_5  and  N3_25 
REMARK    4  A    between atoms: C7_7  and  C8_8 
REMARK       I    between atoms: C8_8  and  N1_10 
REMARK    5  A    between atoms: C12_17  and  C13_18 
REMARK    6  A    between atoms: C13_18  and  C14_19 
REMARK    7  A    between atoms: C14_19  and  C15_20 
REMARK    8  A    between atoms: C15_20  and  C16_21 
REMARK    9  A    between atoms: C17_22  and  C18_23 
ROOT
HETATM    1  C8  UNL     1      -0.822  -0.442   1.014  1.00  0.00     0.223 C 
HETATM    2  O1  UNL     1      -0.544   0.161   2.105  1.00  0.00    -0.273 OA
HETATM    3  N1  UNL     1       0.215  -0.801   0.155  1.00  0.00    -0.337 N 
HETATM    4  C9  UNL     1       0.112  -1.477  -1.105  1.00  0.00     0.229 C 
HETATM    5  C10 UNL     1       1.157  -2.510  -1.310  1.00  0.00     0.235 C 
HETATM    6  O2  UNL     1       1.053  -3.317  -2.254  1.00  0.00    -0.272 OA
HETATM    7  N2  UNL     1       2.274  -2.553  -0.405  1.00  0.00    -0.358 N 
ATOM      8  H2  UNL     1       3.098  -3.110  -0.631  1.00  0.00     0.162 HD
HETATM    9  C11 UNL     1       2.218  -1.796   0.835  1.00  0.00     0.147 C 
HETATM   10  C12 UNL     1       1.638  -0.466   0.539  1.00  0.00     0.105 C 
ENDROOT
BRANCH   1  11
HETATM   11  C7  UNL     1      -2.255  -0.696   0.781  1.00  0.00     0.135 C 
BRANCH  11  12
HETATM   12  C5  UNL     1      -2.987   0.544   0.313  1.00  0.00     0.056 C 
HETATM   13  C6  UNL     1      -2.854   1.686   1.304  1.00  0.00     0.041 C 
BRANCH  12  14
HETATM   14  C2  UNL     1      -4.436   0.195   0.100  1.00  0.00    -0.025 C 
HETATM   15  C1  UNL     1      -5.210   1.373  -0.443  1.00  0.00     0.017 C 
HETATM   16  C3  UNL     1      -4.560  -0.964  -0.861  1.00  0.00     0.017 C 
HETATM   17  C4  UNL     1      -5.071  -0.298   1.407  1.00  0.00     0.017 C 
ENDBRANCH  12  14
BRANCH  12  18
HETATM   18  N3  UNL     1      -2.433   0.983  -0.933  1.00  0.00    -0.332 N 
HETATM   19  N4  UNL     1      -1.999   2.144  -1.074  1.00  0.00    -0.349 N 
ATOM     20  H42 UNL     1      -2.047   2.780  -0.278  1.00  0.00     0.176 HD
ATOM     21  H41 UNL     1      -1.605   2.457  -1.961  1.00  0.00     0.176 HD
ATOM     22  H3  UNL     1      -2.393   0.334  -1.719  1.00  0.00     0.180 HD
ENDBRANCH  12  18
ENDBRANCH  11  12
ENDBRANCH   1  11
BRANCH  10  23
HETATM   23  C13 UNL     1       2.209   0.391  -0.500  1.00  0.00     0.028 C 
BRANCH  23  24
HETATM   24  C14 UNL     1       3.575   0.869  -0.347  1.00  0.00     0.014 C 
BRANCH  24  25
HETATM   25  C15 UNL     1       4.672  -0.145  -0.338  1.00  0.00     0.094 C 
BRANCH  25  26
HETATM   26  C16 UNL     1       5.998   0.560  -0.215  1.00  0.00    -0.106 C 
HETATM   27  C17 UNL     1       7.033   1.131  -0.106  1.00  0.00    -0.096 C 
BRANCH  27  28
HETATM   28  C18 UNL     1       8.304   1.852   0.047  1.00  0.00     0.178 C 
HETATM   29 BR1  UNL     1       8.062   3.423   1.173  1.00  0.00    -0.083 Br
ENDBRANCH  27  28
ENDBRANCH  25  26
ENDBRANCH  24  25
ENDBRANCH  23  24
ENDBRANCH  10  23
TORSDOF 9
