REMARK  6 active torsions:
REMARK  status: ('A' for Active; 'I' for Inactive)
REMARK    1  A    between atoms: N1_2  and  S1_4 
REMARK    2  A    between atoms: S1_4  and  N2_7 
REMARK    3  A    between atoms: N3_10  and  C5_12 
REMARK    4  A    between atoms: C5_12  and  C6_13 
REMARK    5  A    between atoms: C6_13  and  C8_15 
REMARK    6  A    between atoms: C6_13  and  C9_17 
ROOT
HETATM    1  N2  UNL     1       2.313   0.205  -0.635  1.00  0.00    -0.190 NA
HETATM    2  C2  UNL     1       1.747  -1.004  -0.088  1.00  0.00     0.137 C 
HETATM    3  C3  UNL     1       0.348  -0.778   0.470  1.00  0.00     0.252 C 
HETATM    4  N3  UNL     1      -0.634  -0.551  -0.610  1.00  0.00    -0.068 N 
HETATM    5  C4  UNL     1      -1.019  -1.845  -1.058  1.00  0.00     0.272 C 
HETATM    6  C10 UNL     1       0.216  -0.016  -1.702  1.00  0.00     0.252 C 
HETATM    7  C11 UNL     1       1.207   1.004  -1.129  1.00  0.00     0.137 C 
ENDROOT
BRANCH   4   8
HETATM    8  C5  UNL     1      -1.588   0.411  -0.323  1.00  0.00     0.247 C 
BRANCH   8   9
HETATM    9  C6  UNL     1      -2.945   0.140   0.144  1.00  0.00    -0.002 C 
HETATM   10  C7  UNL     1      -3.573   1.556   0.310  1.00  0.00     0.018 C 
BRANCH   9  11
HETATM   11  C8  UNL     1      -3.901  -0.505  -0.810  1.00  0.00     0.096 C 
HETATM   12 BR1  UNL     1      -5.641  -0.747   0.058  1.00  0.00    -0.096 Br
ENDBRANCH   9  11
BRANCH   9  13
HETATM   13  C9  UNL     1      -3.075  -0.460   1.513  1.00  0.00     0.096 C 
HETATM   14 BR2  UNL     1      -2.313   0.702   2.889  1.00  0.00    -0.096 Br
ENDBRANCH   9  13
ENDBRANCH   8   9
ENDBRANCH   4   8
BRANCH   1  15
HETATM   15  S1  UNL     1       3.292   1.050   0.486  1.00  0.00     0.298 S 
HETATM   16  O1  UNL     1       2.475   1.336   1.726  1.00  0.00    -0.188 OA
HETATM   17  O2  UNL     1       3.772   2.308  -0.130  1.00  0.00    -0.188 OA
BRANCH  15  18
HETATM   18  N1  UNL     1       4.608   0.014   0.923  1.00  0.00    -0.311 N 
HETATM   19  C1  UNL     1       5.728   0.213   0.030  1.00  0.00     0.160 C 
ATOM     20  H1  UNL     1       4.595  -0.645   1.702  1.00  0.00     0.172 HD
ENDBRANCH  15  18
ENDBRANCH   1  15
TORSDOF 6
