REMARK  8 active torsions:
REMARK  status: ('A' for Active; 'I' for Inactive)
REMARK    1  A    between atoms: C2_2  and  C3_3 
REMARK    2  A    between atoms: C3_3  and  C4_4 
REMARK    3  A    between atoms: C4_4  and  N1_5 
REMARK    4  A    between atoms: N2_8  and  C7_9 
REMARK    5  A    between atoms: C7_9  and  C8_10 
REMARK    6  A    between atoms: C8_10  and  N3_11 
REMARK    7  A    between atoms: C17_22  and  C18_23 
REMARK    8  A    between atoms: C18_23  and  O2_24 
ROOT
HETATM    1  N1  UNL     1      -1.538  -0.138  -0.301  1.00  0.00    -0.052 N 
HETATM    2  C5  UNL     1      -0.876   0.734   0.637  1.00  0.00     0.266 C 
HETATM    3  C6  UNL     1       0.608   0.676   0.604  1.00  0.00     0.265 C 
HETATM    4  N2  UNL     1       1.137  -0.173  -0.421  1.00  0.00    -0.062 N 
HETATM    5  C12 UNL     1       0.488   0.106  -1.686  1.00  0.00     0.265 C 
HETATM    6  C13 UNL     1      -0.977  -0.006  -1.656  1.00  0.00     0.266 C 
HETATM    7  C14 UNL     1       1.072  -1.537  -0.035  1.00  0.00     0.245 C 
HETATM    8  C15 UNL     1      -0.221  -2.203  -0.010  1.00  0.00     0.053 A 
HETATM    9  C16 UNL     1      -0.996  -2.022   1.331  1.00  0.00     0.051 A 
HETATM   10  C17 UNL     1      -1.471  -1.527   0.020  1.00  0.00     0.156 A 
ENDROOT
BRANCH   4  11
HETATM   11  C7  UNL     1       2.535   0.173  -0.687  1.00  0.00     0.257 C 
BRANCH  11  12
HETATM   12  C8  UNL     1       3.348   0.333   0.552  1.00  0.00     0.155 C 
BRANCH  12  13
HETATM   13  N3  UNL     1       4.700   0.672   0.144  1.00  0.00    -0.336 N 
HETATM   14  C9  UNL     1       5.422   1.893  -0.117  1.00  0.00     0.223 C 
HETATM   15  O1  UNL     1       5.078   2.999  -0.555  1.00  0.00    -0.273 OA
HETATM   16  C10 UNL     1       6.634   1.201   0.359  1.00  0.00     0.140 C 
HETATM   17  C11 UNL     1       5.929  -0.032  -0.186  1.00  0.00     0.168 C 
HETATM   18 BR1  UNL     1       6.135  -0.218  -2.089  1.00  0.00    -0.068 Br
ENDBRANCH  12  13
ENDBRANCH  11  12
ENDBRANCH   4  11
BRANCH   1  19
HETATM   19  C4  UNL     1      -2.894   0.356  -0.438  1.00  0.00     0.238 C 
BRANCH  19  20
HETATM   20  C3  UNL     1      -3.547   0.677   0.871  1.00  0.00     0.028 C 
BRANCH  20  21
HETATM   21  C2  UNL     1      -4.955   1.179   0.545  1.00  0.00    -0.003 C 
HETATM   22  C1  UNL     1      -4.824   2.421  -0.336  1.00  0.00     0.005 C 
ENDBRANCH  20  21
ENDBRANCH  19  20
ENDBRANCH   1  19
BRANCH  10  23
HETATM   23  C18 UNL     1      -2.686  -2.306  -0.520  1.00  0.00     0.203 C 
BRANCH  23  24
HETATM   24  O2  UNL     1      -2.484  -3.653  -0.134  1.00  0.00    -0.398 OA
ATOM     25  H2  UNL     1      -3.233  -4.133  -0.467  1.00  0.00     0.209 HD
ENDBRANCH  23  24
ENDBRANCH  10  23
TORSDOF 8
