REMARK  6 active torsions:
REMARK  status: ('A' for Active; 'I' for Inactive)
REMARK    1  A    between atoms: C4_5  and  S1_6 
REMARK    2  A    between atoms: C7_11  and  C8_12 
REMARK       I    between atoms: C8_12  and  N2_14 
REMARK       I    between atoms: C9_16  and  N4_18 
REMARK    3  A    between atoms: N4_18  and  C10_20 
REMARK    4  A    between atoms: C10_20  and  C11_21 
REMARK    5  A    between atoms: C11_21  and  C12_22 
REMARK    6  A    between atoms: C12_22  and  C13_23 
ROOT
HETATM    1  C1  UNL     1       3.073  -4.087  -0.817  1.00  0.00     0.221 C 
HETATM    2  N1  UNL     1       2.608  -3.071  -0.489  1.00  0.00    -0.461 NA
HETATM    3  C2  UNL     1       2.047  -1.830  -0.100  1.00  0.00     0.197 A 
HETATM    4  C3  UNL     1       3.118  -0.788  -0.195  1.00  0.00    -0.028 A 
HETATM    5  C4  UNL     1       4.314  -0.625   0.363  1.00  0.00     0.115 C 
HETATM    6  C6  UNL     1       2.344   0.025  -1.166  1.00  0.00     0.040 A 
HETATM    7  C7  UNL     1       0.902   0.288  -0.932  1.00  0.00     0.095 A 
HETATM    8  C14 UNL     1       1.295  -1.108  -1.161  1.00  0.00     0.049 A 
ENDROOT
BRANCH   5   9
HETATM    9  S1  UNL     1       5.309   0.759  -0.002  1.00  0.00     0.162 S 
HETATM   10  C5  UNL     1       6.871   0.300  -0.688  1.00  0.00     0.166 C 
HETATM   11  O1  UNL     1       4.602   1.659  -0.951  1.00  0.00    -0.224 OA
HETATM   12  O2  UNL     1       5.598   1.555   1.263  1.00  0.00    -0.224 OA
ENDBRANCH   5   9
BRANCH   7  13
HETATM   13  C8  UNL     1       0.560   0.818   0.391  1.00  0.00     0.229 C 
HETATM   14  O3  UNL     1       1.072   0.429   1.477  1.00  0.00    -0.273 OA
HETATM   15  N2  UNL     1      -0.412   1.843   0.502  1.00  0.00    -0.301 N 
HETATM   16  C9  UNL     1      -1.577   1.581   0.970  1.00  0.00     0.190 C 
ATOM     17  H2  UNL     1      -0.184   2.793   0.209  1.00  0.00     0.171 HD
HETATM   18  N3  UNL     1      -2.519   2.625   1.069  1.00  0.00    -0.063 NA
HETATM   19  N4  UNL     1      -1.888   0.271   1.373  1.00  0.00    -0.364 N 
ATOM     20  H4  UNL     1      -1.143  -0.377   1.631  1.00  0.00     0.162 HD
BRANCH  19  21
HETATM   21  C10 UNL     1      -3.310  -0.166   1.421  1.00  0.00     0.122 C 
BRANCH  21  22
HETATM   22  C11 UNL     1      -3.751  -0.218  -0.004  1.00  0.00     0.020 C 
BRANCH  22  23
HETATM   23  C12 UNL     1      -5.112  -0.685  -0.312  1.00  0.00     0.012 C 
BRANCH  23  24
HETATM   24  C13 UNL     1      -6.258   0.063   0.274  1.00  0.00     0.085 C 
HETATM   25 BR1  UNL     1      -6.282  -0.034   2.186  1.00  0.00    -0.097 Br
ENDBRANCH  23  24
ENDBRANCH  22  23
ENDBRANCH  21  22
ENDBRANCH  19  21
ENDBRANCH   7  13
TORSDOF 6
