REMARK  0 active torsions:
REMARK  status: ('A' for Active; 'I' for Inactive)
ROOT
HETATM    1  C1  UNL     1      -1.304  -2.476  -1.119  1.00  0.00     0.049 C 
HETATM    2  C2  UNL     1      -2.104  -1.203  -0.865  1.00  0.00    -0.045 A 
HETATM    3  C3  UNL     1      -3.448  -1.227  -1.120  1.00  0.00     0.059 A 
HETATM    4  S1  UNL     1      -3.996   0.308  -0.672  1.00  0.00    -0.076 SA
HETATM    5  C4  UNL     1      -2.475   0.968  -0.158  1.00  0.00     0.126 A 
HETATM    6  C5  UNL     1      -1.578  -0.044  -0.358  1.00  0.00    -0.000 A 
HETATM    7  C6  UNL     1      -0.162   0.263  -0.029  1.00  0.00     0.015 C 
HETATM    8  C7  UNL     1       0.865  -0.221  -1.026  1.00  0.00     0.017 C 
HETATM    9  C8  UNL     1       2.168   0.197  -0.362  1.00  0.00     0.005 C 
HETATM   10  C9  UNL     1       1.905  -0.045   1.086  1.00  0.00    -0.017 C 
HETATM   11  C10 UNL     1       2.669  -1.287   1.495  1.00  0.00     0.010 C 
HETATM   12  C11 UNL     1       0.384  -0.260   1.240  1.00  0.00     0.020 C 
HETATM   13  C12 UNL     1       0.103   1.773   0.002  1.00  0.00     0.180 C 
HETATM   14  C13 UNL     1       0.191   2.314  -1.368  1.00  0.00     0.073 C 
HETATM   15  N1  UNL     1       0.259   2.756  -2.431  1.00  0.00    -0.196 NA
HETATM   16  C14 UNL     1      -0.919   2.550   0.704  1.00  0.00     0.137 C 
HETATM   17  N2  UNL     1      -0.641   3.430   1.566  1.00  0.00    -0.382 N 
ATOM     18  H21 UNL     1      -1.353   3.972   2.055  1.00  0.00     0.158 HD
ATOM     19  H22 UNL     1       0.320   3.653   1.826  1.00  0.00     0.158 HD
HETATM   20  O1  UNL     1      -2.201   2.253   0.357  1.00  0.00    -0.289 OA
ENDROOT
TORSDOF 0
