REMARK  7 active torsions:
REMARK  status: ('A' for Active; 'I' for Inactive)
REMARK    1  A    between atoms: C3_3  and  O1_4 
REMARK    2  A    between atoms: O1_4  and  C4_5 
REMARK    3  A    between atoms: C7_8  and  C8_9 
REMARK    4  A    between atoms: C9_12  and  C10_13 
REMARK    5  A    between atoms: C10_13  and  C11_14 
REMARK    6  A    between atoms: C11_14  and  N2_15 
REMARK    7  A    between atoms: C17_23  and  O2_24 
ROOT
HETATM    1  C1  UNL     1       8.612   3.004   0.257  1.00  0.00     0.014 C 
HETATM    2  C2  UNL     1       7.428   2.743   0.213  1.00  0.00    -0.091 C 
HETATM    3  C3  UNL     1       6.008   2.409   0.175  1.00  0.00     0.270 C 
ENDROOT
BRANCH   3   4
HETATM    4  O1  UNL     1       5.822   1.002   0.246  1.00  0.00    -0.324 OA
BRANCH   4   5
HETATM    5  C4  UNL     1       4.520   0.497   0.222  1.00  0.00     0.146 A 
HETATM    6  C5  UNL     1       3.422   1.334   0.132  1.00  0.00     0.057 A 
HETATM    7  C6  UNL     1       2.175   0.753   0.114  1.00  0.00     0.022 A 
HETATM    8  C7  UNL     1       1.969  -0.634   0.182  1.00  0.00     0.045 A 
HETATM    9  C17 UNL     1       3.103  -1.378   0.270  1.00  0.00     0.156 A 
HETATM   10  N4  UNL     1       4.361  -0.827   0.290  1.00  0.00    -0.312 N 
HETATM   11  C18 UNL     1       5.519  -1.694   0.385  1.00  0.00     0.160 C 
BRANCH   8  12
HETATM   12  C8  UNL     1       0.590  -1.092   0.216  1.00  0.00     0.082 A 
HETATM   13  N1  UNL     1      -0.437  -0.270   0.634  1.00  0.00    -0.343 N 
HETATM   14  C9  UNL     1      -1.612  -0.869   0.526  1.00  0.00     0.086 A 
ATOM     15  H1  UNL     1      -0.307   0.680   0.982  1.00  0.00     0.167 HD
HETATM   16  N3  UNL     1      -1.392  -2.084   0.040  1.00  0.00    -0.333 N 
HETATM   17  C15 UNL     1      -2.352  -3.128  -0.258  1.00  0.00     0.158 C 
HETATM   18  C16 UNL     1      -0.045  -2.235  -0.157  1.00  0.00     0.111 A 
HETATM   19 BR1  UNL     1       0.730  -3.798  -0.918  1.00  0.00    -0.029 Br
BRANCH  14  20
HETATM   20  C10 UNL     1      -2.970  -0.315   0.876  1.00  0.00     0.104 C 
BRANCH  20  21
HETATM   21  C11 UNL     1      -3.561   0.373  -0.335  1.00  0.00     0.243 C 
BRANCH  21  22
HETATM   22  N2  UNL     1      -4.853   0.928  -0.088  1.00  0.00    -0.078 N 
HETATM   23  C12 UNL     1      -5.585   0.194   0.930  1.00  0.00     0.271 C 
HETATM   24  C13 UNL     1      -4.794   2.337   0.281  1.00  0.00     0.271 C 
HETATM   25  C14 UNL     1      -5.623   0.840  -1.316  1.00  0.00     0.271 C 
ENDBRANCH  21  22
ENDBRANCH  20  21
ENDBRANCH  14  20
ENDBRANCH   8  12
BRANCH   9  26
HETATM   26  O2  UNL     1       3.049  -2.744   0.353  1.00  0.00    -0.345 OA
ATOM     27  H2  UNL     1       3.842  -3.264   0.415  1.00  0.00     0.219 HD
ENDBRANCH   9  26
ENDBRANCH   4   5
ENDBRANCH   3   4
TORSDOF 7
