REMARK  14 active torsions:
REMARK  status: ('A' for Active; 'I' for Inactive)
REMARK    1  A    between atoms: O1_2  and  C2_3 
REMARK    2  A    between atoms: C2_3  and  C3_5 
REMARK    3  A    between atoms: C5_10  and  S1_11 
REMARK    4  A    between atoms: S1_11  and  C6_12 
REMARK    5  A    between atoms: C6_12  and  C7_13 
REMARK    6  A    between atoms: C7_13  and  C8_14 
REMARK    7  A    between atoms: C8_14  and  S2_15 
REMARK    8  A    between atoms: S2_15  and  C9_16 
REMARK    9  A    between atoms: C9_16  and  C10_17 
REMARK   10  A    between atoms: C12_19  and  O3_20 
REMARK   11  A    between atoms: C13_22  and  O4_23 
REMARK   12  A    between atoms: C14_25  and  O5_26 
REMARK   13  A    between atoms: O5_26  and  C15_27 
REMARK   14  A    between atoms: C19_31  and  O6_32 
ROOT
HETATM    1  S2  UNL     1       0.062  -0.150  -2.849  1.00  0.00    -0.169 SA
ENDROOT
BRANCH   1   2
HETATM    2  C8  UNL     1       0.938   1.358  -2.932  1.00  0.00     0.074 C 
BRANCH   2   3
HETATM    3  C7  UNL     1       2.291   1.320  -2.289  1.00  0.00     0.020 C 
BRANCH   3   4
HETATM    4  C6  UNL     1       2.312   0.952  -0.851  1.00  0.00     0.077 C 
BRANCH   4   5
HETATM    5  S1  UNL     1       4.068   1.071  -0.311  1.00  0.00    -0.135 SA
BRANCH   5   6
HETATM    6  C5  UNL     1       5.055  -0.198  -1.157  1.00  0.00     0.275 C 
HETATM    7  C4  UNL     1       4.581  -1.537  -0.652  1.00  0.00     0.279 C 
HETATM    8  N1  UNL     1       5.318  -1.647   0.617  1.00  0.00    -0.034 N 
HETATM    9  C3  UNL     1       6.627  -1.096   0.298  1.00  0.00     0.481 C 
ATOM     10  H12 UNL     1       5.340  -2.587   1.013  1.00  0.00     0.280 HD
ATOM     11  H11 UNL     1       4.857  -1.207   1.413  1.00  0.00     0.280 HD
HETATM   12  N2  UNL     1       6.427  -0.129  -0.729  1.00  0.00    -0.022 N 
ATOM     13  H22 UNL     1       6.701   0.810  -0.442  1.00  0.00     0.281 HD
ATOM     14  H21 UNL     1       7.085  -0.236  -1.501  1.00  0.00     0.281 HD
BRANCH   9  15
HETATM   15  C2  UNL     1       7.260  -0.481   1.489  1.00  0.00     0.317 C 
HETATM   16  O2  UNL     1       6.670  -0.477   2.607  1.00  0.00    -0.261 OA
BRANCH  15  17
HETATM   17  O1  UNL     1       8.509   0.108   1.421  1.00  0.00    -0.323 OA
HETATM   18  C1  UNL     1       9.127   0.695   2.531  1.00  0.00     0.213 C 
ENDBRANCH  15  17
ENDBRANCH   9  15
ENDBRANCH   5   6
ENDBRANCH   4   5
ENDBRANCH   3   4
ENDBRANCH   2   3
ENDBRANCH   1   2
BRANCH   1  19
HETATM   19  C9  UNL     1      -0.701  -0.590  -1.335  1.00  0.00     0.081 C 
BRANCH  19  20
HETATM   20  C10 UNL     1      -1.975   0.211  -1.071  1.00  0.00     0.029 C 
HETATM   21  C11 UNL     1      -1.787   1.680  -0.996  1.00  0.00     0.042 C 
HETATM   22  C12 UNL     1      -2.917   2.311  -0.200  1.00  0.00     0.150 C 
HETATM   23  C13 UNL     1      -4.150   1.440  -0.251  1.00  0.00     0.178 C 
HETATM   24  C14 UNL     1      -3.934   0.167   0.525  1.00  0.00     0.182 C 
HETATM   25  C19 UNL     1      -2.547  -0.320   0.226  1.00  0.00     0.154 C 
BRANCH  22  26
HETATM   26  O3  UNL     1      -2.508   2.521   1.094  1.00  0.00    -0.393 OA
ATOM     27  H3  UNL     1      -3.215   2.916   1.592  1.00  0.00     0.210 HD
ENDBRANCH  22  26
BRANCH  23  28
HETATM   28  O4  UNL     1      -5.216   2.164   0.286  1.00  0.00    -0.390 OA
ATOM     29  H4  UNL     1      -5.991   1.616   0.254  1.00  0.00     0.210 HD
ENDBRANCH  23  28
BRANCH  24  30
HETATM   30  O5  UNL     1      -4.822  -0.766   0.033  1.00  0.00    -0.371 OA
BRANCH  30  31
HETATM   31  C15 UNL     1      -5.726  -1.293   0.894  1.00  0.00     0.051 C 
HETATM   32  C16 UNL     1      -6.567  -2.287   0.073  1.00  0.00     0.045 C 
HETATM   33  C17 UNL     1      -6.724  -0.323   1.481  1.00  0.00     0.045 C 
HETATM   34  C18 UNL     1      -5.118  -2.123   2.004  1.00  0.00     0.045 C 
ENDBRANCH  30  31
ENDBRANCH  24  30
BRANCH  25  35
HETATM   35  O6  UNL     1      -1.633  -0.138   1.251  1.00  0.00    -0.392 OA
ATOM     36  H6  UNL     1      -1.992  -0.471   2.065  1.00  0.00     0.210 HD
ENDBRANCH  25  35
ENDBRANCH  19  20
ENDBRANCH   1  19
TORSDOF 14
