REMARK  14 active torsions:
REMARK  status: ('A' for Active; 'I' for Inactive)
REMARK    1  A    between atoms: N2_5  and  C3_6 
REMARK    2  A    between atoms: C5_8  and  O1_9 
REMARK    3  A    between atoms: C6_11  and  C7_12 
REMARK    4  A    between atoms: C7_12  and  O2_13 
REMARK    5  A    between atoms: C9_17  and  C10_18 
REMARK    6  A    between atoms: C10_18  and  O4_20 
REMARK    7  A    between atoms: C10_18  and  C12_22 
REMARK    8  A    between atoms: C12_22  and  C13_23 
REMARK    9  A    between atoms: C13_23  and  C14_24 
REMARK   10  A    between atoms: C14_24  and  S1_25 
REMARK   11  A    between atoms: S1_25  and  C15_26 
REMARK   12  A    between atoms: C15_26  and  C16_27 
REMARK   13  A    between atoms: C19_31  and  O6_32 
REMARK   14  A    between atoms: C21_35  and  O7_36 
ROOT
HETATM    1  C10 UNL     1       0.977  -1.678  -0.867  1.00  0.00     0.084 C 
HETATM    2  C11 UNL     1       0.954  -3.094  -1.464  1.00  0.00     0.051 C 
ENDROOT
BRANCH   1   3
HETATM    3  C9  UNL     1       2.312  -1.111  -0.852  1.00  0.00     0.016 A 
HETATM    4  C2  UNL     1       3.149  -0.795  -1.903  1.00  0.00     0.033 A 
HETATM    5  C1  UNL     1       2.806  -0.994  -3.310  1.00  0.00     0.070 C 
HETATM    6  N1  UNL     1       4.293  -0.289  -1.357  1.00  0.00    -0.300 N 
HETATM    7  N2  UNL     1       4.209  -0.276  -0.060  1.00  0.00    -0.273 N 
ATOM      8  H1  UNL     1       5.100   0.033  -1.891  1.00  0.00     0.187 HD
HETATM    9  C8  UNL     1       3.010  -0.772   0.288  1.00  0.00     0.125 A 
BRANCH   7  10
HETATM   10  C3  UNL     1       5.294   0.217   0.803  1.00  0.00     0.246 C 
HETATM   11  C4  UNL     1       6.604   0.131   0.054  1.00  0.00     0.089 C 
HETATM   12  C5  UNL     1       7.305   1.409   0.392  1.00  0.00     0.153 C 
HETATM   13  C6  UNL     1       6.413   1.948   1.500  1.00  0.00     0.176 C 
HETATM   14  O3  UNL     1       5.155   1.547   1.083  1.00  0.00    -0.355 OA
BRANCH  12  15
HETATM   15  O1  UNL     1       7.292   2.337  -0.647  1.00  0.00    -0.393 OA
ATOM     16  H1  UNL     1       7.737   3.148  -0.432  1.00  0.00     0.210 HD
ENDBRANCH  12  15
BRANCH  13  17
HETATM   17  C7  UNL     1       6.847   1.251   2.782  1.00  0.00     0.198 C 
BRANCH  17  18
HETATM   18  O2  UNL     1       8.111   1.696   3.160  1.00  0.00    -0.398 OA
ATOM     19  H2  UNL     1       8.382   1.261   3.960  1.00  0.00     0.209 HD
ENDBRANCH  17  18
ENDBRANCH  13  17
ENDBRANCH   7  10
ENDBRANCH   1   3
BRANCH   1  20
HETATM   20  O4  UNL     1       0.518  -1.823   0.441  1.00  0.00    -0.385 OA
ATOM     21  H4  UNL     1      -0.356  -2.194   0.431  1.00  0.00     0.211 HD
ENDBRANCH   1  20
BRANCH   1  22
HETATM   22  C12 UNL     1      -0.055  -0.888  -1.603  1.00  0.00     0.043 C 
BRANCH  22  23
HETATM   23  C13 UNL     1      -1.371  -1.637  -1.502  1.00  0.00     0.013 C 
BRANCH  23  24
HETATM   24  C14 UNL     1      -2.477  -0.885  -2.233  1.00  0.00     0.074 C 
BRANCH  24  25
HETATM   25  S1  UNL     1      -2.743   0.755  -1.562  1.00  0.00    -0.166 SA
BRANCH  25  26
HETATM   26  C15 UNL     1      -3.383   0.742   0.111  1.00  0.00     0.108 C 
BRANCH  26  27
HETATM   27  C16 UNL     1      -4.784   0.180   0.228  1.00  0.00     0.160 C 
HETATM   28  O5  UNL     1      -5.131   0.233   1.556  1.00  0.00    -0.375 OA
HETATM   29  C17 UNL     1      -5.999   1.238   1.899  1.00  0.00     0.146 C 
HETATM   30  C18 UNL     1      -6.139   1.302   3.392  1.00  0.00     0.042 C 
HETATM   31  C19 UNL     1      -7.333   0.874   1.233  1.00  0.00     0.149 C 
HETATM   32  C20 UNL     1      -7.127   1.016  -0.239  1.00  0.00     0.068 C 
HETATM   33  C21 UNL     1      -5.743   0.789  -0.728  1.00  0.00     0.150 C 
BRANCH  31  34
HETATM   34  O6  UNL     1      -7.597  -0.438   1.621  1.00  0.00    -0.393 OA
ATOM     35  H6  UNL     1      -8.423  -0.663   1.209  1.00  0.00     0.210 HD
ENDBRANCH  31  34
BRANCH  33  36
HETATM   36  O7  UNL     1      -5.810   0.006  -1.905  1.00  0.00    -0.393 OA
ATOM     37  H7  UNL     1      -6.424   0.396  -2.517  1.00  0.00     0.210 HD
ENDBRANCH  33  36
ENDBRANCH  26  27
ENDBRANCH  25  26
ENDBRANCH  24  25
ENDBRANCH  23  24
ENDBRANCH  22  23
ENDBRANCH   1  22
TORSDOF 14
