REMARK  13 active torsions:
REMARK  status: ('A' for Active; 'I' for Inactive)
REMARK    1  A    between atoms: C9_12  and  C10_13 
REMARK    2  A    between atoms: C11_14  and  C12_15 
REMARK    3  A    between atoms: C12_15  and  C13_16 
REMARK    4  A    between atoms: C13_16  and  S1_17 
REMARK    5  A    between atoms: S1_17  and  C14_18 
REMARK    6  A    between atoms: C14_18  and  C15_19 
REMARK    7  A    between atoms: C15_19  and  O4_20 
REMARK    8  A    between atoms: O4_20  and  C16_21 
REMARK    9  A    between atoms: C17_23  and  C18_24 
REMARK   10  A    between atoms: C18_24  and  O6_25 
REMARK   11  A    between atoms: C19_27  and  O7_28 
REMARK   12  A    between atoms: C20_30  and  O8_31 
REMARK   13  A    between atoms: C21_33  and  O9_34 
ROOT
HETATM    1  C14 UNL     1       1.659  -2.192   0.758  1.00  0.00     0.100 C 
ENDROOT
BRANCH   1   2
HETATM    2  S1  UNL     1       0.959  -0.797   1.589  1.00  0.00    -0.167 SA
BRANCH   2   3
HETATM    3  C13 UNL     1      -0.629  -0.239   1.077  1.00  0.00     0.077 C 
BRANCH   3   4
HETATM    4  C12 UNL     1      -0.690   0.411  -0.252  1.00  0.00     0.037 C 
BRANCH   4   5
HETATM    5  C11 UNL     1      -2.089   0.883  -0.580  1.00  0.00    -0.029 C 
HETATM    6  C10 UNL     1      -3.095   0.737   0.210  1.00  0.00    -0.019 C 
BRANCH   6   7
HETATM    7  C9  UNL     1      -4.495   1.091   0.123  1.00  0.00     0.073 C 
HETATM    8  C2  UNL     1      -5.026   1.806  -1.023  1.00  0.00    -0.078 C 
HETATM    9  C1  UNL     1      -4.709   1.696  -2.264  1.00  0.00     0.015 C 
HETATM   10  C3  UNL     1      -6.164   2.773  -0.666  1.00  0.00     0.037 C 
HETATM   11  C4  UNL     1      -6.977   1.941   0.329  1.00  0.00     0.040 C 
HETATM   12  C5  UNL     1      -6.864   0.454   0.050  1.00  0.00     0.170 C 
HETATM   13  O1  UNL     1      -7.609  -0.197   1.059  1.00  0.00    -0.290 OA
HETATM   14  C7  UNL     1      -5.467  -0.094   0.303  1.00  0.00     0.106 C 
HETATM   15  C6  UNL     1      -6.780  -0.782   1.995  1.00  0.00     0.407 C 
HETATM   16  O2  UNL     1      -7.066  -1.491   2.994  1.00  0.00    -0.229 OA
HETATM   17  O3  UNL     1      -5.468  -0.458   1.661  1.00  0.00    -0.283 OA
HETATM   18  C8  UNL     1      -5.136  -1.255  -0.558  1.00  0.00     0.050 C 
ENDBRANCH   6   7
ENDBRANCH   4   5
ENDBRANCH   3   4
ENDBRANCH   2   3
ENDBRANCH   1   2
BRANCH   1  19
HETATM   19  C15 UNL     1       2.095  -1.895  -0.634  1.00  0.00     0.181 C 
BRANCH  19  20
HETATM   20  O4  UNL     1       3.035  -0.913  -0.690  1.00  0.00    -0.358 OA
BRANCH  20  21
HETATM   21  C16 UNL     1       4.273  -1.182  -0.108  1.00  0.00     0.291 C 
HETATM   22  O5  UNL     1       5.139  -1.294  -1.191  1.00  0.00    -0.348 OA
HETATM   23  C17 UNL     1       6.344  -0.705  -1.119  1.00  0.00     0.179 C 
HETATM   24  C19 UNL     1       6.226   0.742  -0.618  1.00  0.00     0.180 C 
HETATM   25  C20 UNL     1       5.833   0.605   0.823  1.00  0.00     0.183 C 
HETATM   26  C21 UNL     1       4.570  -0.175   0.911  1.00  0.00     0.204 C 
BRANCH  23  27
HETATM   27  C18 UNL     1       7.384  -1.474  -0.338  1.00  0.00     0.198 C 
BRANCH  27  28
HETATM   28  O6  UNL     1       8.588  -0.785  -0.320  1.00  0.00    -0.398 OA
ATOM     29  H6  UNL     1       9.242  -1.269   0.171  1.00  0.00     0.209 HD
ENDBRANCH  27  28
ENDBRANCH  23  27
BRANCH  24  30
HETATM   30  O7  UNL     1       7.446   1.386  -0.783  1.00  0.00    -0.390 OA
ATOM     31  H7  UNL     1       7.373   2.281  -0.473  1.00  0.00     0.210 HD
ENDBRANCH  24  30
BRANCH  25  32
HETATM   32  O8  UNL     1       5.651   1.845   1.437  1.00  0.00    -0.390 OA
ATOM     33  H8  UNL     1       5.402   1.758   2.350  1.00  0.00     0.210 HD
ENDBRANCH  25  32
BRANCH  26  34
HETATM   34  O9  UNL     1       4.568  -0.824   2.181  1.00  0.00    -0.388 OA
ATOM     35  H9  UNL     1       4.761  -0.170   2.843  1.00  0.00     0.210 HD
ENDBRANCH  26  34
ENDBRANCH  20  21
ENDBRANCH  19  20
ENDBRANCH   1  19
TORSDOF 13
