REMARK  14 active torsions:
REMARK  status: ('A' for Active; 'I' for Inactive)
REMARK    1  A    between atoms: C2_2  and  C3_3 
REMARK    2  A    between atoms: C3_3  and  C4_4 
REMARK    3  A    between atoms: C5_5  and  O1_6 
REMARK    4  A    between atoms: C6_9  and  C7_10 
REMARK    5  A    between atoms: C8_11  and  C9_12 
REMARK    6  A    between atoms: C9_12  and  C10_13 
REMARK    7  A    between atoms: C10_13  and  N1_14 
REMARK    8  A    between atoms: C16_21  and  O4_22 
REMARK    9  A    between atoms: O4_22  and  C17_23 
REMARK   10  A    between atoms: C18_25  and  C19_26 
REMARK   11  A    between atoms: C19_26  and  O6_27 
REMARK   12  A    between atoms: C20_29  and  O7_30 
REMARK   13  A    between atoms: C21_32  and  O8_33 
REMARK   14  A    between atoms: C22_35  and  O9_36 
ROOT
HETATM    1  C4  UNL     1      -1.543   2.586   0.305  1.00  0.00     0.036 A 
HETATM    2  C5  UNL     1      -0.570   3.240  -0.386  1.00  0.00     0.193 A 
HETATM    3  O2  UNL     1       0.286   2.359  -0.778  1.00  0.00    -0.285 OA
HETATM    4  C6  UNL     1      -0.037   1.138  -0.402  1.00  0.00     0.112 A 
HETATM    5  C16 UNL     1      -1.227   1.232   0.311  1.00  0.00     0.117 A 
ENDROOT
BRANCH   5   6
HETATM    6  O4  UNL     1      -1.885   0.179   0.868  1.00  0.00    -0.314 OA
BRANCH   6   7
HETATM    7  C17 UNL     1      -2.878  -0.624   0.285  1.00  0.00     0.298 C 
HETATM    8  O5  UNL     1      -4.029  -0.508   1.052  1.00  0.00    -0.348 OA
HETATM    9  C18 UNL     1      -5.118  -0.880   0.304  1.00  0.00     0.179 C 
HETATM   10  C20 UNL     1      -4.782  -1.836  -0.784  1.00  0.00     0.180 C 
HETATM   11  C21 UNL     1      -3.649  -2.785  -0.470  1.00  0.00     0.183 C 
HETATM   12  C22 UNL     1      -2.517  -2.087   0.259  1.00  0.00     0.205 C 
BRANCH   9  13
HETATM   13  C19 UNL     1      -6.279  -1.350   1.161  1.00  0.00     0.198 C 
BRANCH  13  14
HETATM   14  O6  UNL     1      -5.942  -2.451   1.943  1.00  0.00    -0.398 OA
ATOM     15  H6  UNL     1      -6.669  -2.745   2.479  1.00  0.00     0.209 HD
ENDBRANCH  13  14
ENDBRANCH   9  13
BRANCH  10  16
HETATM   16  O7  UNL     1      -5.867  -2.641  -1.154  1.00  0.00    -0.390 OA
ATOM     17  H7  UNL     1      -5.652  -3.252  -1.849  1.00  0.00     0.210 HD
ENDBRANCH  10  16
BRANCH  11  18
HETATM   18  O8  UNL     1      -4.059  -3.880   0.282  1.00  0.00    -0.390 OA
ATOM     19  H8  UNL     1      -3.347  -4.477   0.479  1.00  0.00     0.210 HD
ENDBRANCH  11  18
BRANCH  12  20
HETATM   20  O9  UNL     1      -2.389  -2.613   1.548  1.00  0.00    -0.388 OA
ATOM     21  H9  UNL     1      -2.161  -3.535   1.532  1.00  0.00     0.210 HD
ENDBRANCH  12  20
ENDBRANCH   6   7
ENDBRANCH   5   6
BRANCH   1  22
HETATM   22  C3  UNL     1      -2.753   3.132   0.960  1.00  0.00     0.046 C 
BRANCH  22  23
HETATM   23  C2  UNL     1      -2.447   3.832   2.266  1.00  0.00     0.000 C 
HETATM   24  C1  UNL     1      -1.805   2.922   3.277  1.00  0.00     0.005 C 
ENDBRANCH  22  23
ENDBRANCH   1  22
BRANCH   4  25
HETATM   25  C7  UNL     1       0.745  -0.035  -0.707  1.00  0.00     0.036 C 
HETATM   26  C8  UNL     1       1.866   0.059  -1.401  1.00  0.00    -0.022 C 
BRANCH  26  27
HETATM   27  C9  UNL     1       2.677  -1.124  -1.723  1.00  0.00     0.057 C 
BRANCH  27  28
HETATM   28  C10 UNL     1       4.049  -1.196  -1.180  1.00  0.00     0.277 C 
BRANCH  28  29
HETATM   29  N1  UNL     1       4.961  -0.185  -1.556  1.00  0.00     0.097 N 
HETATM   30  C11 UNL     1       4.660   1.078  -0.952  1.00  0.00     0.299 C 
HETATM   31  C12 UNL     1       5.920   1.701  -0.344  1.00  0.00     0.198 C 
HETATM   32  O3  UNL     1       6.577   0.844   0.499  1.00  0.00    -0.387 OA
HETATM   33  C13 UNL     1       6.661  -0.463   0.085  1.00  0.00     0.203 C 
HETATM   34  C14 UNL     1       6.353  -0.535  -1.385  1.00  0.00     0.242 C 
HETATM   35  C15 UNL     1       6.697  -1.878  -1.933  1.00  0.00     0.045 C 
ENDBRANCH  28  29
ENDBRANCH  27  28
ENDBRANCH  26  27
ENDBRANCH   4  25
BRANCH   2  36
HETATM   36  O1  UNL     1      -0.555   4.624  -0.598  1.00  0.00    -0.340 OA
ATOM     37  H1  UNL     1       0.124   5.081  -1.080  1.00  0.00     0.220 HD
ENDBRANCH   2  36
TORSDOF 14
