REMARK  16 active torsions:
REMARK  status: ('A' for Active; 'I' for Inactive)
REMARK    1  A    between atoms: C2_2  and  C3_3 
REMARK    2  A    between atoms: C3_3  and  C4_4 
REMARK    3  A    between atoms: C4_4  and  C5_5 
REMARK    4  A    between atoms: C5_5  and  C6_6 
REMARK    5  A    between atoms: C6_6  and  C7_7 
REMARK    6  A    between atoms: C7_7  and  C8_8 
REMARK    7  A    between atoms: C8_8  and  O2_10 
REMARK    8  A    between atoms: O2_10  and  C9_11 
REMARK    9  A    between atoms: C10_13  and  C11_14 
REMARK   10  A    between atoms: C11_14  and  O4_15 
REMARK   11  A    between atoms: C12_17  and  O5_18 
REMARK   12  A    between atoms: C13_20  and  O6_21 
REMARK   13  A    between atoms: O6_21  and  C14_22 
REMARK   14  A    between atoms: C18_27  and  O7_28 
REMARK   15  A    between atoms: C19_30  and  O8_31 
REMARK   16  A    between atoms: C20_33  and  O9_34 
ROOT
HETATM    1  C9  UNL     1       0.069  -1.422  -0.257  1.00  0.00     0.301 C 
HETATM    2  O3  UNL     1       0.224  -1.067  -1.582  1.00  0.00    -0.348 OA
HETATM    3  C10 UNL     1      -0.991  -0.897  -2.202  1.00  0.00     0.179 C 
HETATM    4  C12 UNL     1      -1.540   0.439  -1.675  1.00  0.00     0.180 C 
HETATM    5  C13 UNL     1      -1.854   0.225  -0.225  1.00  0.00     0.187 C 
HETATM    6  C20 UNL     1      -1.187  -0.976   0.381  1.00  0.00     0.205 C 
ENDROOT
BRANCH   5   7
HETATM    7  O6  UNL     1      -3.237   0.222  -0.070  1.00  0.00    -0.371 OA
BRANCH   7   8
HETATM    8  C14 UNL     1      -3.723   1.235   0.716  1.00  0.00     0.166 C 
HETATM    9  C15 UNL     1      -4.347   0.648   1.951  1.00  0.00     0.075 C 
HETATM   10  C16 UNL     1      -4.536  -0.851   1.870  1.00  0.00     0.024 C 
HETATM   11  S1  UNL     1      -5.964   1.380   2.330  1.00  0.00    -0.159 SA
HETATM   12  C17 UNL     1      -6.920   1.476   0.792  1.00  0.00     0.108 C 
HETATM   13  C18 UNL     1      -5.966   1.699  -0.345  1.00  0.00     0.158 C 
HETATM   14  C19 UNL     1      -4.630   2.210   0.054  1.00  0.00     0.177 C 
BRANCH  13  15
HETATM   15  O7  UNL     1      -5.932   0.564  -1.128  1.00  0.00    -0.392 OA
ATOM     16  H7  UNL     1      -5.328   0.705  -1.848  1.00  0.00     0.210 HD
ENDBRANCH  13  15
BRANCH  14  17
HETATM   17  O8  UNL     1      -4.842   3.264   0.975  1.00  0.00    -0.390 OA
ATOM     18  H8  UNL     1      -5.421   3.887   0.552  1.00  0.00     0.210 HD
ENDBRANCH  14  17
ENDBRANCH   7   8
ENDBRANCH   5   7
BRANCH   4  19
HETATM   19  O5  UNL     1      -2.701   0.777  -2.380  1.00  0.00    -0.390 OA
ATOM     20  H5  UNL     1      -3.040   1.602  -2.054  1.00  0.00     0.210 HD
ENDBRANCH   4  19
BRANCH   6  21
HETATM   21  O9  UNL     1      -0.891  -0.713   1.740  1.00  0.00    -0.388 OA
ATOM     22  H9  UNL     1      -1.698  -0.426   2.150  1.00  0.00     0.210 HD
ENDBRANCH   6  21
BRANCH   3  23
HETATM   23  C11 UNL     1      -0.871  -0.859  -3.709  1.00  0.00     0.198 C 
BRANCH  23  24
HETATM   24  O4  UNL     1      -0.319  -2.076  -4.102  1.00  0.00    -0.398 OA
ATOM     25  H4  UNL     1      -0.244  -2.052  -5.049  1.00  0.00     0.209 HD
ENDBRANCH  23  24
ENDBRANCH   3  23
BRANCH   1  26
HETATM   26  O2  UNL     1       1.236  -0.992   0.430  1.00  0.00    -0.287 OA
BRANCH  26  27
HETATM   27  C8  UNL     1       2.159  -1.847   0.975  1.00  0.00     0.261 C 
HETATM   28  O1  UNL     1       1.945  -3.086   0.849  1.00  0.00    -0.265 OA
BRANCH  27  29
HETATM   29  C7  UNL     1       3.390  -1.468   1.700  1.00  0.00     0.111 C 
BRANCH  29  30
HETATM   30  C6  UNL     1       3.658  -0.009   1.789  1.00  0.00     0.010 C 
BRANCH  30  31
HETATM   31  C5  UNL     1       3.828   0.694   0.473  1.00  0.00     0.000 C 
BRANCH  31  32
HETATM   32  C4  UNL     1       4.958   0.164  -0.343  1.00  0.00     0.000 C 
BRANCH  32  33
HETATM   33  C3  UNL     1       6.296   0.279   0.347  1.00  0.00    -0.000 C 
BRANCH  33  34
HETATM   34  C2  UNL     1       7.338  -0.306  -0.615  1.00  0.00    -0.005 C 
HETATM   35  C1  UNL     1       8.731  -0.235  -0.003  1.00  0.00     0.005 C 
ENDBRANCH  33  34
ENDBRANCH  32  33
ENDBRANCH  31  32
ENDBRANCH  30  31
ENDBRANCH  29  30
ENDBRANCH  27  29
ENDBRANCH  26  27
ENDBRANCH   1  26
TORSDOF 16
