REMARK  13 active torsions:
REMARK  status: ('A' for Active; 'I' for Inactive)
REMARK    1  A    between atoms: C6_8  and  C7_9 
REMARK    2  A    between atoms: C7_9  and  C8_10 
REMARK    3  A    between atoms: C8_10  and  C9_11 
REMARK    4  A    between atoms: C9_11  and  C10_12 
REMARK    5  A    between atoms: C10_12  and  C11_13 
REMARK    6  A    between atoms: C11_13  and  C12_14 
REMARK    7  A    between atoms: C12_14  and  N1_15 
REMARK    8  A    between atoms: C13_16  and  C14_17 
REMARK    9  A    between atoms: C15_19  and  C16_20 
REMARK   10  A    between atoms: C16_20  and  O4_21 
REMARK   11  A    between atoms: C17_23  and  O5_24 
REMARK   12  A    between atoms: C18_26  and  O6_27 
REMARK   13  A    between atoms: C19_29  and  O7_30 
ROOT
HETATM    1  N1  UNL     1      -1.447  -0.595   1.676  1.00  0.00    -0.309 N 
HETATM    2  C13 UNL     1      -2.760  -0.263   1.425  1.00  0.00     0.132 A 
HETATM    3  N2  UNL     1      -3.365  -0.305   2.614  1.00  0.00    -0.284 N 
ATOM      4  H2  UNL     1      -4.353  -0.105   2.768  1.00  0.00     0.188 HD
HETATM    5  N3  UNL     1      -2.521  -0.636   3.554  1.00  0.00    -0.275 N 
ATOM      6  H3  UNL     1      -2.733  -0.736   4.547  1.00  0.00     0.189 HD
HETATM    7  C20 UNL     1      -1.299  -0.824   2.964  1.00  0.00     0.194 A 
HETATM    8  S1  UNL     1       0.032  -1.296   3.837  1.00  0.00    -0.039 SA
ENDROOT
BRANCH   2   9
HETATM    9  C14 UNL     1      -3.377   0.051   0.092  1.00  0.00     0.222 C 
HETATM   10  O3  UNL     1      -4.099   1.172   0.220  1.00  0.00    -0.365 OA
HETATM   11  C15 UNL     1      -5.158   1.414  -0.570  1.00  0.00     0.177 C 
HETATM   12  C17 UNL     1      -5.369   0.488  -1.730  1.00  0.00     0.180 C 
HETATM   13  C18 UNL     1      -5.230  -0.948  -1.299  1.00  0.00     0.181 C 
HETATM   14  C19 UNL     1      -4.055  -1.181  -0.398  1.00  0.00     0.185 C 
BRANCH  11  15
HETATM   15  C16 UNL     1      -6.462   1.625   0.214  1.00  0.00     0.198 C 
BRANCH  15  16
HETATM   16  O4  UNL     1      -6.800   0.536   0.969  1.00  0.00    -0.398 OA
ATOM     17  H4  UNL     1      -7.606   0.666   1.454  1.00  0.00     0.209 HD
ENDBRANCH  15  16
ENDBRANCH  11  15
BRANCH  12  18
HETATM   18  O5  UNL     1      -4.498   0.841  -2.745  1.00  0.00    -0.390 OA
ATOM     19  H5  UNL     1      -4.632   0.254  -3.480  1.00  0.00     0.210 HD
ENDBRANCH  12  18
BRANCH  13  20
HETATM   20  O6  UNL     1      -5.148  -1.705  -2.485  1.00  0.00    -0.390 OA
ATOM     21  H6  UNL     1      -5.060  -2.611  -2.213  1.00  0.00     0.210 HD
ENDBRANCH  13  20
BRANCH  14  22
HETATM   22  O7  UNL     1      -4.496  -1.948   0.684  1.00  0.00    -0.390 OA
ATOM     23  H7  UNL     1      -4.929  -2.734   0.371  1.00  0.00     0.210 HD
ENDBRANCH  14  22
ENDBRANCH   2   9
BRANCH   1  24
HETATM   24  C12 UNL     1      -0.475  -0.671   0.603  1.00  0.00     0.133 C 
BRANCH  24  25
HETATM   25  C11 UNL     1       0.201   0.583   0.231  1.00  0.00     0.020 C 
BRANCH  25  26
HETATM   26  C10 UNL     1       1.128   1.248   1.164  1.00  0.00     0.002 C 
BRANCH  26  27
HETATM   27  C9  UNL     1       2.407   0.508   1.465  1.00  0.00     0.000 C 
BRANCH  27  28
HETATM   28  C8  UNL     1       3.212   0.310   0.176  1.00  0.00     0.001 C 
BRANCH  28  29
HETATM   29  C7  UNL     1       4.499  -0.431   0.464  1.00  0.00     0.012 C 
BRANCH  29  30
HETATM   30  C6  UNL     1       5.235  -0.591  -0.834  1.00  0.00     0.053 C 
HETATM   31  C2  UNL     1       6.513  -1.298  -0.700  1.00  0.00     0.014 C 
HETATM   32  C1  UNL     1       6.793  -2.230   0.183  1.00  0.00     0.025 C 
HETATM   33  C3  UNL     1       7.382  -0.745  -1.746  1.00  0.00     0.289 C 
HETATM   34  O1  UNL     1       8.548  -1.170  -2.000  1.00  0.00    -0.260 OA
HETATM   35  O2  UNL     1       6.674   0.282  -2.350  1.00  0.00    -0.312 OA
HETATM   36  C4  UNL     1       5.648   0.722  -1.448  1.00  0.00     0.136 C 
HETATM   37  C5  UNL     1       6.296   1.642  -0.445  1.00  0.00     0.041 C 
ENDBRANCH  29  30
ENDBRANCH  28  29
ENDBRANCH  27  28
ENDBRANCH  26  27
ENDBRANCH  25  26
ENDBRANCH  24  25
ENDBRANCH   1  24
TORSDOF 13
