REMARK  14 active torsions:
REMARK  status: ('A' for Active; 'I' for Inactive)
REMARK    1  A    between atoms: C2_2  and  C3_3 
REMARK    2  A    between atoms: C3_3  and  C4_4 
REMARK    3  A    between atoms: C4_4  and  C5_5 
REMARK    4  A    between atoms: C5_5  and  C6_6 
REMARK    5  A    between atoms: C6_6  and  O1_7 
REMARK    6  A    between atoms: C6_6  and  C12_19 
REMARK    7  A    between atoms: O1_7  and  C7_8 
REMARK    8  A    between atoms: C10_13  and  O4_14 
REMARK    9  A    between atoms: C11_16  and  O5_17 
REMARK   10  A    between atoms: C13_20  and  O6_21 
REMARK   11  A    between atoms: C14_23  and  O7_25 
REMARK   12  A    between atoms: C16_27  and  O8_28 
REMARK   13  A    between atoms: C16_27  and  C17_30 
REMARK   14  A    between atoms: C20_34  and  O10_36 
ROOT
HETATM    1  C12 UNL     1       0.412   0.572  -0.281  1.00  0.00     0.081 C 
HETATM    2  C13 UNL     1       0.675   0.284  -1.784  1.00  0.00     0.165 C 
HETATM    3  C14 UNL     1       1.950   1.044  -2.097  1.00  0.00     0.118 C 
HETATM    4  C15 UNL     1       2.150   1.014  -3.596  1.00  0.00     0.052 C 
HETATM    5  C16 UNL     1       3.083   0.433  -1.331  1.00  0.00     0.153 C 
HETATM    6  C19 UNL     1       2.679  -0.559  -0.304  1.00  0.00     0.087 C 
HETATM    7  C20 UNL     1       1.438  -0.201   0.498  1.00  0.00     0.068 C 
HETATM    8  C21 UNL     1       1.942   0.594   1.682  1.00  0.00     0.047 C 
ENDROOT
BRANCH   1   9
HETATM    9  C6  UNL     1      -1.020   0.302   0.017  1.00  0.00     0.134 C 
BRANCH   9  10
HETATM   10  C5  UNL     1      -1.348   0.665   1.479  1.00  0.00     0.032 C 
BRANCH  10  11
HETATM   11  C4  UNL     1      -1.208   2.098   1.803  1.00  0.00     0.002 C 
BRANCH  11  12
HETATM   12  C3  UNL     1      -1.536   2.260   3.297  1.00  0.00    -0.000 C 
BRANCH  12  13
HETATM   13  C2  UNL     1      -1.413   3.702   3.700  1.00  0.00    -0.005 C 
HETATM   14  C1  UNL     1      -0.011   4.209   3.461  1.00  0.00     0.005 C 
ENDBRANCH  12  13
ENDBRANCH  11  12
ENDBRANCH  10  11
ENDBRANCH   9  10
BRANCH   9  15
HETATM   15  O1  UNL     1      -1.337  -1.054  -0.001  1.00  0.00    -0.353 OA
BRANCH  15  16
HETATM   16  C7  UNL     1      -2.488  -1.377  -0.657  1.00  0.00     0.296 C 
HETATM   17  O2  UNL     1      -3.537  -1.678   0.259  1.00  0.00    -0.329 OA
HETATM   18  C8  UNL     1      -3.791  -3.026   0.314  1.00  0.00     0.262 C 
HETATM   19  C9  UNL     1      -4.709  -3.417   1.447  1.00  0.00     0.071 C 
HETATM   20  O3  UNL     1      -4.229  -3.574  -0.881  1.00  0.00    -0.329 OA
HETATM   21  C10 UNL     1      -3.938  -2.782  -1.986  1.00  0.00     0.293 C 
HETATM   22  C11 UNL     1      -2.487  -2.298  -1.797  1.00  0.00     0.228 C 
BRANCH  21  23
HETATM   23  O4  UNL     1      -4.810  -1.739  -2.155  1.00  0.00    -0.368 OA
ATOM     24  H4  UNL     1      -4.611  -1.198  -2.910  1.00  0.00     0.212 HD
ENDBRANCH  21  23
BRANCH  22  25
HETATM   25  O5  UNL     1      -1.752  -3.465  -1.663  1.00  0.00    -0.386 OA
ATOM     26  H5  UNL     1      -1.751  -4.062  -2.402  1.00  0.00     0.210 HD
ENDBRANCH  22  25
ENDBRANCH  15  16
ENDBRANCH   9  15
ENDBRANCH   1   9
BRANCH   2  27
HETATM   27  O6  UNL     1       0.866  -1.017  -2.082  1.00  0.00    -0.392 OA
ATOM     28  H6  UNL     1       1.027  -1.193  -3.002  1.00  0.00     0.210 HD
ENDBRANCH   2  27
BRANCH   7  29
HETATM   29  O10 UNL     1       0.937  -1.393   1.008  1.00  0.00    -0.385 OA
HETATM   30  C22 UNL     1       1.843  -2.113   1.739  1.00  0.00     0.202 C 
ENDBRANCH   7  29
BRANCH   3  31
HETATM   31  O7  UNL     1       1.732   2.367  -1.729  1.00  0.00    -0.384 OA
ATOM     32  H7  UNL     1       2.530   2.843  -1.925  1.00  0.00     0.210 HD
ENDBRANCH   3  31
BRANCH   5  33
HETATM   33  O8  UNL     1       3.794   1.506  -0.742  1.00  0.00    -0.379 OA
ATOM     34  H8  UNL     1       4.513   1.118  -0.256  1.00  0.00     0.211 HD
ENDBRANCH   5  33
BRANCH   5  35
HETATM   35  C17 UNL     1       4.002  -0.222  -2.297  1.00  0.00     0.160 C 
HETATM   36  C18 UNL     1       5.395   0.242  -2.503  1.00  0.00     0.094 C 
HETATM   37  O9  UNL     1       3.614  -1.175  -2.949  1.00  0.00    -0.295 OA
ENDBRANCH   5  35
TORSDOF 14
