REMARK  15 active torsions:
REMARK  status: ('A' for Active; 'I' for Inactive)
REMARK    1  A    between atoms: C2_2  and  C3_3 
REMARK    2  A    between atoms: C3_3  and  N1_4 
REMARK    3  A    between atoms: C6_7  and  S1_8 
REMARK    4  A    between atoms: S1_8  and  C7_9 
REMARK    5  A    between atoms: C7_9  and  C8_10 
REMARK    6  A    between atoms: C9_12  and  C10_13 
REMARK    7  A    between atoms: C10_13  and  N2_14 
REMARK    8  A    between atoms: C10_13  and  O2_18 
REMARK    9  A    between atoms: C11_20  and  O3_21 
REMARK   10  A    between atoms: O3_21  and  C12_22 
REMARK   11  A    between atoms: C12_22  and  C13_24 
REMARK   12  A    between atoms: C13_24  and  C15_26 
REMARK   13  A    between atoms: C17_28  and  C18_29 
REMARK   14  A    between atoms: C18_29  and  N3_30 
REMARK   15  A    between atoms: C19_34  and  O5_35 
ROOT
HETATM    1  C8  UNL     1      -0.132  -0.274  -0.332  1.00  0.00     0.160 C 
HETATM    2  O1  UNL     1      -1.004  -1.029  -1.118  1.00  0.00    -0.370 OA
HETATM    3  C9  UNL     1      -2.200  -0.361  -1.248  1.00  0.00     0.208 C 
HETATM    4  C11 UNL     1      -2.539   0.517  -0.056  1.00  0.00     0.173 C 
HETATM    5  C17 UNL     1      -1.984   0.028   1.220  1.00  0.00     0.074 C 
HETATM    6  C19 UNL     1      -0.563  -0.531   1.105  1.00  0.00     0.156 C 
ENDROOT
BRANCH   1   7
HETATM    7  C7  UNL     1       1.307  -0.668  -0.557  1.00  0.00     0.108 C 
BRANCH   7   8
HETATM    8  S1  UNL     1       2.455   0.279   0.433  1.00  0.00    -0.162 SA
BRANCH   8   9
HETATM    9  C6  UNL     1       4.158  -0.199   0.154  1.00  0.00     0.050 C 
HETATM   10  C5  UNL     1       4.609   0.139  -1.268  1.00  0.00     0.034 C 
HETATM   11  C4  UNL     1       6.001  -0.449  -1.480  1.00  0.00     0.118 C 
HETATM   12  N1  UNL     1       6.549  -0.795  -0.217  1.00  0.00    -0.409 N 
HETATM   13  C21 UNL     1       5.936  -1.869   0.476  1.00  0.00     0.118 C 
HETATM   14  C20 UNL     1       4.417  -1.669   0.359  1.00  0.00     0.034 C 
BRANCH  12  15
HETATM   15  C3  UNL     1       7.942  -0.601  -0.036  1.00  0.00     0.143 C 
BRANCH  15  16
HETATM   16  C2  UNL     1       8.209   0.859  -0.037  1.00  0.00    -0.018 C 
HETATM   17  C1  UNL     1       9.005   1.465  -0.908  1.00  0.00     0.008 C 
ENDBRANCH  15  16
ENDBRANCH  12  15
ENDBRANCH   8   9
ENDBRANCH   7   8
ENDBRANCH   1   7
BRANCH   6  18
HETATM   18  O5  UNL     1      -0.637  -1.876   1.391  1.00  0.00    -0.392 OA
ATOM     19  H5  UNL     1      -0.906  -2.036   2.288  1.00  0.00     0.210 HD
ENDBRANCH   6  18
BRANCH   3  20
HETATM   20  C10 UNL     1      -3.302  -1.327  -1.577  1.00  0.00     0.348 C 
BRANCH  20  21
HETATM   21  N2  UNL     1      -3.522  -2.339  -0.613  1.00  0.00    -0.050 N 
ATOM     22  H23 UNL     1      -2.655  -2.844  -0.430  1.00  0.00     0.277 HD
ATOM     23  H22 UNL     1      -3.683  -1.922   0.304  1.00  0.00     0.277 HD
ATOM     24  H21 UNL     1      -4.270  -2.995  -0.836  1.00  0.00     0.277 HD
ENDBRANCH  20  21
BRANCH  20  25
HETATM   25  O2  UNL     1      -2.984  -1.922  -2.798  1.00  0.00    -0.368 OA
ATOM     26  H2  UNL     1      -3.681  -2.533  -3.006  1.00  0.00     0.212 HD
ENDBRANCH  20  25
ENDBRANCH   3  20
BRANCH   5  27
HETATM   27  C18 UNL     1      -1.896   1.131   2.242  1.00  0.00     0.239 C 
BRANCH  27  28
HETATM   28  N3  UNL     1      -3.153   1.735   2.588  1.00  0.00    -0.079 N 
ATOM     29  H33 UNL     1      -3.627   2.068   1.749  1.00  0.00     0.274 HD
ATOM     30  H32 UNL     1      -3.815   1.022   2.894  1.00  0.00     0.274 HD
ATOM     31  H31 UNL     1      -3.093   2.482   3.280  1.00  0.00     0.274 HD
ENDBRANCH  27  28
ENDBRANCH   5  27
BRANCH   4  32
HETATM   32  O3  UNL     1      -3.961   0.542   0.019  1.00  0.00    -0.312 OA
BRANCH  32  33
HETATM   33  C12 UNL     1      -4.738   1.641  -0.235  1.00  0.00     0.263 C 
HETATM   34  O4  UNL     1      -4.196   2.740  -0.567  1.00  0.00    -0.265 OA
BRANCH  33  35
HETATM   35  C13 UNL     1      -6.200   1.580  -0.131  1.00  0.00     0.081 C 
HETATM   36  C14 UNL     1      -6.805   2.928  -0.394  1.00  0.00     0.020 C 
BRANCH  35  37
HETATM   37  C15 UNL     1      -6.690   1.058   1.205  1.00  0.00     0.010 C 
HETATM   38  C16 UNL     1      -6.182  -0.337   1.440  1.00  0.00     0.006 C 
ENDBRANCH  35  37
ENDBRANCH  33  35
ENDBRANCH  32  33
ENDBRANCH   4  32
TORSDOF 15
