REMARK  5 active torsions:
REMARK  status: ('A' for Active; 'I' for Inactive)
REMARK    1  A    between atoms: C5_5  and  N1_6 
REMARK    2  A    between atoms: N1_6  and  C6_7 
REMARK    3  A    between atoms: N1_6  and  C12_14 
REMARK    4  A    between atoms: C6_7  and  C7_8 
REMARK    5  A    between atoms: C16_21  and  O2_22 
ROOT
HETATM    1  N1  UNL     1      -0.142   0.332   0.458  1.00  0.00    -0.358 N 
ENDROOT
BRANCH   1   2
HETATM    2  C5  UNL     1       0.793  -0.365  -0.308  1.00  0.00     0.117 C 
HETATM    3  C4  UNL     1       1.708   0.382  -1.204  1.00  0.00     0.028 C 
HETATM    4  C3  UNL     1       3.089  -0.242  -1.354  1.00  0.00     0.006 C 
HETATM    5  C2  UNL     1       3.847  -0.366  -0.070  1.00  0.00    -0.016 C 
HETATM    6  C1  UNL     1       4.753  -1.595  -0.237  1.00  0.00     0.010 C 
HETATM    7  C17 UNL     1       2.889  -0.727   1.067  1.00  0.00     0.038 C 
HETATM    8  C16 UNL     1       1.686  -1.350   0.424  1.00  0.00     0.141 C 
BRANCH   8   9
HETATM    9  O2  UNL     1       1.037  -2.261   1.218  1.00  0.00    -0.393 OA
ATOM     10  H2  UNL     1       1.596  -2.878   1.676  1.00  0.00     0.210 HD
ENDBRANCH   8   9
ENDBRANCH   1   2
BRANCH   1  11
HETATM   11  C6  UNL     1      -1.276  -0.281   0.955  1.00  0.00     0.069 C 
BRANCH  11  12
HETATM   12  C7  UNL     1      -2.453  -0.705   0.203  1.00  0.00     0.028 C 
HETATM   13  C8  UNL     1      -3.456  -1.366   1.170  1.00  0.00     0.036 C 
HETATM   14  C9  UNL     1      -4.725  -1.688   0.499  1.00  0.00     0.168 C 
HETATM   15  O1  UNL     1      -4.626  -2.235  -0.774  1.00  0.00    -0.391 OA
HETATM   16  C10 UNL     1      -3.853  -1.480  -1.614  1.00  0.00     0.168 C 
HETATM   17  C11 UNL     1      -2.421  -1.533  -0.995  1.00  0.00     0.036 C 
ENDBRANCH  11  12
ENDBRANCH   1  11
BRANCH   1  18
HETATM   18  C12 UNL     1      -0.230   1.730   0.490  1.00  0.00     0.016 C 
HETATM   19  C13 UNL     1      -0.547   2.517  -0.729  1.00  0.00     0.082 C 
HETATM   20  C14 UNL     1       0.004   3.884  -0.389  1.00  0.00     0.238 C 
HETATM   21  N2  UNL     1       0.374   3.868   1.012  1.00  0.00    -0.070 N 
HETATM   22  C15 UNL     1       0.769   2.499   1.310  1.00  0.00     0.284 C 
ATOM     23  H22 UNL     1       1.086   4.558   1.252  1.00  0.00     0.277 HD
ATOM     24  H21 UNL     1      -0.356   4.224   1.629  1.00  0.00     0.277 HD
ENDBRANCH   1  18
TORSDOF 5
