REMARK  5 active torsions:
REMARK  status: ('A' for Active; 'I' for Inactive)
REMARK    1  A    between atoms: N4_11  and  C6_12 
REMARK    2  A    between atoms: C6_12  and  C7_13 
REMARK    3  A    between atoms: C7_13  and  C8_14 
REMARK    4  A    between atoms: N5_19  and  C13_20 
REMARK    5  A    between atoms: C13_20  and  S1_24 
ROOT
HETATM    1  C1  UNL     1       3.455   1.105  -1.540  1.00  0.00     0.147 C 
HETATM    2  N1  UNL     1       3.955   0.684  -0.301  1.00  0.00    -0.378 N 
ATOM      3  H1  UNL     1       4.974   0.639  -0.284  1.00  0.00     0.160 HD
HETATM    4  C2  UNL     1       3.433   0.347   0.802  1.00  0.00     0.140 A 
HETATM    5  C3  UNL     1       4.276  -0.034   1.876  1.00  0.00     0.106 A 
HETATM    6  C4  UNL     1       5.706  -0.097   1.886  1.00  0.00     0.104 C 
HETATM    7  N2  UNL     1       6.865  -0.160   1.909  1.00  0.00    -0.191 NA
HETATM    8  C5  UNL     1       3.436  -0.330   2.911  1.00  0.00     0.134 A 
HETATM    9  N3  UNL     1       2.198  -0.149   2.508  1.00  0.00    -0.306 N 
ATOM     10  H3  UNL     1       1.374  -0.301   3.089  1.00  0.00     0.186 HD
HETATM   11  N4  UNL     1       2.161   0.266   1.219  1.00  0.00    -0.276 N 
ENDROOT
BRANCH  11  12
HETATM   12  C6  UNL     1       0.936   0.539   0.487  1.00  0.00     0.153 C 
BRANCH  12  13
HETATM   13  C7  UNL     1       0.488  -0.754  -0.142  1.00  0.00     0.047 C 
BRANCH  13  14
HETATM   14  C8  UNL     1      -0.768  -0.631  -0.937  1.00  0.00     0.088 C 
HETATM   15  C9  UNL     1      -1.075  -2.024  -1.499  1.00  0.00     0.025 C 
HETATM   16  C10 UNL     1      -2.533  -2.154  -1.862  1.00  0.00     0.004 C 
HETATM   17  C11 UNL     1      -3.378  -2.138  -0.624  1.00  0.00     0.020 C 
HETATM   18  C12 UNL     1      -2.671  -1.345   0.479  1.00  0.00     0.125 C 
HETATM   19  N5  UNL     1      -1.912  -0.260  -0.138  1.00  0.00    -0.357 N 
BRANCH  19  20
HETATM   20  C13 UNL     1      -2.348   1.051   0.089  1.00  0.00     0.135 C 
HETATM   21  N6  UNL     1      -2.838   1.389   1.215  1.00  0.00    -0.380 N 
ATOM     22  H62 UNL     1      -2.922   0.710   1.972  1.00  0.00     0.158 HD
ATOM     23  H61 UNL     1      -3.156   2.344   1.380  1.00  0.00     0.158 HD
BRANCH  20  24
HETATM   24  S1  UNL     1      -2.202   2.231  -1.226  1.00  0.00    -0.099 SA
HETATM   25  C14 UNL     1      -2.817   3.870  -0.742  1.00  0.00     0.099 C 
ENDBRANCH  20  24
ENDBRANCH  19  20
ENDBRANCH  13  14
ENDBRANCH  12  13
ENDBRANCH  11  12
TORSDOF 5
