REMARK  6 active torsions:
REMARK  status: ('A' for Active; 'I' for Inactive)
REMARK    1  A    between atoms: S1_2  and  C2_3 
REMARK    2  A    between atoms: C2_3  and  C3_4 
REMARK    3  A    between atoms: C3_4  and  N1_5 
REMARK    4  A    between atoms: N1_5  and  C4_7 
REMARK    5  A    between atoms: C8_14  and  N3_15 
REMARK    6  A    between atoms: N3_15  and  C9_17 
ROOT
HETATM    1  C4  UNL     1       0.391  -0.258  -0.175  1.00  0.00     0.679 A 
HETATM    2  N2  UNL     1       0.473  -1.599  -0.232  1.00  0.00    -0.195 N 
ATOM      3  H2  UNL     1       1.382  -2.058  -0.290  1.00  0.00     0.184 HD
HETATM    4  C5  UNL     1      -0.671  -2.337  -0.211  1.00  0.00     0.043 A 
HETATM    5  C6  UNL     1      -0.600  -3.820  -0.272  1.00  0.00     0.070 C 
HETATM    6  C7  UNL     1      -1.891  -1.696  -0.131  1.00  0.00     0.077 A 
HETATM    7 BR1  UNL     1      -3.452  -2.798  -0.106  1.00  0.00    -0.045 Br
HETATM    8  C8  UNL     1      -1.964  -0.322  -0.074  1.00  0.00     0.136 A 
HETATM    9  N4  UNL     1      -0.814   0.366  -0.097  1.00  0.00    -0.176 N 
ATOM     10  H4  UNL     1      -0.844   1.385  -0.055  1.00  0.00     0.186 HD
ENDROOT
BRANCH   1  11
HETATM   11  N1  UNL     1       1.450   0.436  -0.195  1.00  0.00    -0.225 N 
ATOM     12  H1  UNL     1       1.336   1.449  -0.149  1.00  0.00     0.177 HD
BRANCH  11  13
HETATM   13  C3  UNL     1       2.790  -0.058  -0.276  1.00  0.00     0.148 C 
BRANCH  13  14
HETATM   14  C2  UNL     1       3.725   1.023  -0.814  1.00  0.00     0.093 C 
BRANCH  14  15
HETATM   15  S1  UNL     1       5.415   0.376  -0.909  1.00  0.00    -0.172 SA
HETATM   16  C1  UNL     1       6.077   0.029   0.748  1.00  0.00     0.089 C 
ENDBRANCH  14  15
ENDBRANCH  13  14
ENDBRANCH  11  13
ENDBRANCH   1  11
BRANCH   8  17
HETATM   17  N3  UNL     1      -3.073   0.275  -0.002  1.00  0.00    -0.371 N 
ATOM     18  H3  UNL     1      -3.902  -0.319   0.010  1.00  0.00     0.161 HD
BRANCH  17  19
HETATM   19  C9  UNL     1      -3.308   1.679   0.064  1.00  0.00     0.075 C 
HETATM   20  C10 UNL     1      -3.153   2.250   1.456  1.00  0.00     0.031 C 
HETATM   21  C11 UNL     1      -4.725   2.019  -0.393  1.00  0.00     0.031 C 
ENDBRANCH  17  19
ENDBRANCH   8  17
TORSDOF 6
