REMARK  5 active torsions:
REMARK  status: ('A' for Active; 'I' for Inactive)
REMARK    1  A    between atoms: C2_2  and  C3_3 
REMARK    2  A    between atoms: C3_3  and  C5_5 
REMARK    3  A    between atoms: C7_9  and  C8_10 
REMARK    4  A    between atoms: C9_11  and  C10_12 
REMARK    5  A    between atoms: N1_14  and  O1_16 
ROOT
HETATM    1  C5  UNL     1      -1.097  -1.321   0.020  1.00  0.00     0.020 C 
HETATM    2  S1  UNL     1      -1.522  -3.167   0.285  1.00  0.00    -0.057 SA
HETATM    3  S2  UNL     1      -0.623  -3.639  -1.644  1.00  0.00    -0.088 SA
HETATM    4  C6  UNL     1       0.146  -1.973  -1.874  1.00  0.00     0.126 C 
HETATM    5  C7  UNL     1       0.271  -1.527  -0.393  1.00  0.00    -0.030 C 
ENDROOT
BRANCH   5   6
HETATM    6  C8  UNL     1       1.410  -0.745  -0.125  1.00  0.00     0.011 C 
HETATM    7  C9  UNL     1       1.605   0.425   0.382  1.00  0.00     0.027 C 
BRANCH   7   8
HETATM    8  C10 UNL     1       2.977   0.995   0.535  1.00  0.00     0.028 C 
HETATM    9  C11 UNL     1       3.178   2.332   1.116  1.00  0.00     0.070 C 
HETATM   10  N1  UNL     1       3.992   0.315   0.159  1.00  0.00    -0.274 N 
ATOM     11  H1  UNL     1       3.846  -0.611  -0.242  1.00  0.00     0.193 HD
BRANCH  10  12
HETATM   12  O1  UNL     1       5.256   0.789   0.278  1.00  0.00    -0.290 OA
ATOM     13  H1  UNL     1       6.010   0.284  -0.001  1.00  0.00     0.244 HD
ENDBRANCH  10  12
ENDBRANCH   7   8
ENDBRANCH   5   6
BRANCH   1  14
HETATM   14  C3  UNL     1      -2.032  -0.442   0.221  1.00  0.00    -0.066 C 
HETATM   15  C4  UNL     1      -3.405  -0.989   0.672  1.00  0.00     0.044 C 
BRANCH  14  16
HETATM   16  C2  UNL     1      -2.037   1.018   0.097  1.00  0.00     0.030 C 
HETATM   17  C1  UNL     1      -3.207   1.454  -0.809  1.00  0.00     0.010 C 
ENDBRANCH  14  16
ENDBRANCH   1  14
TORSDOF 5
