REMARK  4 active torsions:
REMARK  status: ('A' for Active; 'I' for Inactive)
REMARK    1  A    between atoms: C2_2  and  C3_3 
REMARK    2  A    between atoms: C3_3  and  C4_4 
REMARK    3  A    between atoms: C4_4  and  C8_14 
REMARK    4  A    between atoms: C5_5  and  C6_6 
ROOT
HETATM    1  C4  UNL     1       0.020   0.498  -0.027  1.00  0.00    -0.070 C 
HETATM    2  C5  UNL     1       1.274   0.583  -0.393  1.00  0.00     0.042 C 
ENDROOT
BRANCH   2   3
HETATM    3  C6  UNL     1       2.290  -0.489  -0.264  1.00  0.00     0.091 A 
HETATM    4  N1  UNL     1       2.280  -1.766  -0.527  1.00  0.00    -0.292 N 
HETATM    5  N2  UNL     1       3.290  -2.500  -0.324  1.00  0.00    -0.284 N 
ATOM      6  H1  UNL     1       1.432  -2.186  -0.908  1.00  0.00     0.187 HD
HETATM    7  C7  UNL     1       4.397  -1.942   0.175  1.00  0.00     0.159 A 
ATOM      8  H2  UNL     1       3.260  -3.497  -0.537  1.00  0.00     0.188 HD
HETATM    9  S1  UNL     1       5.835  -2.684   0.527  1.00  0.00    -0.051 SA
HETATM   10  S2  UNL     1       3.914  -0.310   0.337  1.00  0.00    -0.040 SA
ENDBRANCH   2   3
BRANCH   1  11
HETATM   11  C3  UNL     1      -0.443  -0.732   0.561  1.00  0.00     0.034 C 
BRANCH  11  12
HETATM   12  C2  UNL     1      -1.481  -1.528  -0.149  1.00  0.00    -0.000 C 
HETATM   13  C1  UNL     1      -1.762  -2.755   0.716  1.00  0.00     0.005 C 
ENDBRANCH  11  12
ENDBRANCH   1  11
BRANCH   1  14
HETATM   14  C8  UNL     1      -0.797   1.717  -0.260  1.00  0.00    -0.028 C 
HETATM   15  C9  UNL     1      -0.046   2.839  -0.916  1.00  0.00     0.019 C 
HETATM   16  C10 UNL     1      -2.084   1.511  -0.962  1.00  0.00     0.019 C 
HETATM   17  C11 UNL     1      -1.160   2.260   1.135  1.00  0.00     0.019 C 
ENDBRANCH   1  14
TORSDOF 4
