REMARK  3 active torsions:
REMARK  status: ('A' for Active; 'I' for Inactive)
REMARK    1  A    between atoms: S1_2  and  C2_3 
REMARK    2  A    between atoms: C11_12  and  C12_13 
REMARK    3  A    between atoms: N1_14  and  O1_16 
ROOT
HETATM    1  C2  UNL     1       1.370  -1.180  -0.481  1.00  0.00     0.047 C 
HETATM    2  C3  UNL     1       0.297  -1.530  -1.409  1.00  0.00     0.015 C 
HETATM    3  C4  UNL     1      -0.842  -2.356  -0.959  1.00  0.00     0.001 C 
HETATM    4  C5  UNL     1      -1.810  -1.932   0.064  1.00  0.00     0.000 C 
HETATM    5  C6  UNL     1      -2.984  -1.134  -0.330  1.00  0.00     0.000 C 
HETATM    6  C7  UNL     1      -3.160   0.236   0.364  1.00  0.00     0.000 C 
HETATM    7  C8  UNL     1      -1.873   0.927  -0.003  1.00  0.00     0.000 C 
HETATM    8  C9  UNL     1      -1.464   2.212   0.516  1.00  0.00     0.001 C 
HETATM    9  C10 UNL     1       0.076   2.221   0.652  1.00  0.00     0.010 C 
HETATM   10  C11 UNL     1       0.795   1.320  -0.298  1.00  0.00     0.027 C 
HETATM   11  C13 UNL     1       1.411   0.088   0.260  1.00  0.00     0.025 C 
ENDROOT
BRANCH  10  12
HETATM   12  C12 UNL     1       1.917   2.152  -0.891  1.00  0.00     0.091 C 
HETATM   13  N1  UNL     1       2.204   3.311  -0.468  1.00  0.00    -0.284 N 
ATOM     14  H1  UNL     1       1.641   3.672   0.302  1.00  0.00     0.192 HD
BRANCH  13  15
HETATM   15  O1  UNL     1       3.183   4.115  -0.938  1.00  0.00    -0.291 OA
ATOM     16  H1  UNL     1       3.398   4.984  -0.621  1.00  0.00     0.244 HD
ENDBRANCH  13  15
ENDBRANCH  10  12
BRANCH   1  17
HETATM   17  S1  UNL     1       1.409  -2.541   0.771  1.00  0.00    -0.169 SA
HETATM   18  C1  UNL     1       2.724  -2.139   1.933  1.00  0.00     0.090 C 
ENDBRANCH   1  17
TORSDOF 3
