REMARK  5 active torsions:
REMARK  status: ('A' for Active; 'I' for Inactive)
REMARK    1  A    between atoms: O1_1  and  C1_3 
REMARK    2  A    between atoms: C3_5  and  C4_6 
REMARK    3  A    between atoms: C4_6  and  C5_7 
REMARK    4  A    between atoms: C5_7  and  C6_8 
REMARK    5  A    between atoms: C7_9  and  C8_10 
ROOT
HETATM    1  C4  UNL     1       2.723   0.698   0.609  1.00  0.00     0.006 C 
ENDROOT
BRANCH   1   2
HETATM    2  C3  UNL     1       4.101   0.840   1.062  1.00  0.00     0.023 A 
HETATM    3  C2  UNL     1       5.050   1.738   0.653  1.00  0.00     0.076 A 
HETATM    4  C1  UNL     1       6.256   1.639   1.216  1.00  0.00     0.147 A 
HETATM    5  N1  UNL     1       6.454   0.691   2.124  1.00  0.00    -0.307 N 
HETATM    6  S1  UNL     1       4.945  -0.093   2.213  1.00  0.00    -0.013 SA
ATOM      7  H1  UNL     1       7.306   0.482   2.644  1.00  0.00     0.176 HD
BRANCH   4   8
HETATM    8  O1  UNL     1       7.345   2.498   0.891  1.00  0.00    -0.346 OA
ATOM      9  H1  UNL     1       8.203   2.428   1.292  1.00  0.00     0.219 HD
ENDBRANCH   4   8
ENDBRANCH   1   2
BRANCH   1  10
HETATM   10  C5  UNL     1       1.904  -0.191   1.113  1.00  0.00     0.122 C 
BRANCH  10  11
HETATM   11  C6  UNL     1       0.472  -0.168   0.475  1.00  0.00    -0.102 C 
HETATM   12  C7  UNL     1      -0.490  -0.152   0.046  1.00  0.00    -0.102 C 
BRANCH  12  13
HETATM   13  C8  UNL     1      -1.813  -0.127  -0.547  1.00  0.00     0.065 C 
HETATM   14  C9  UNL     1      -2.095  -1.581  -1.050  1.00  0.00     0.017 C 
HETATM   15  C10 UNL     1      -3.425  -1.517  -1.750  1.00  0.00     0.001 C 
HETATM   16  C11 UNL     1      -4.476  -1.299  -0.658  1.00  0.00     0.000 C 
HETATM   17  C12 UNL     1      -4.246   0.104  -0.113  1.00  0.00     0.001 C 
HETATM   18  C13 UNL     1      -2.855   0.181   0.529  1.00  0.00     0.017 C 
ENDBRANCH  12  13
ENDBRANCH  10  11
ENDBRANCH   1  10
TORSDOF 5
