REMARK  7 active torsions:
REMARK  status: ('A' for Active; 'I' for Inactive)
REMARK    1  A    between atoms: O1_1  and  N1_3 
REMARK    2  A    between atoms: N1_3  and  N2_5 
REMARK    3  A    between atoms: N2_5  and  C1_7 
REMARK    4  A    between atoms: C2_10  and  C3_11 
REMARK    5  A    between atoms: C3_11  and  O2_12 
REMARK    6  A    between atoms: C3_11  and  C4_14 
REMARK    7  A    between atoms: C4_14  and  C5_15 
ROOT
HETATM    1  C1  UNL     1      -2.237  -1.090  -0.022  1.00  0.00     0.165 A 
HETATM    2  N3  UNL     1      -1.402  -0.068   0.062  1.00  0.00    -0.333 N 
ATOM      3  H3  UNL     1      -1.757   0.870   0.250  1.00  0.00     0.168 HD
HETATM    4  C2  UNL     1      -0.077  -0.273  -0.102  1.00  0.00     0.074 A 
HETATM    5  C6  UNL     1       0.273  -1.569  -0.346  1.00  0.00     0.085 A 
HETATM    6  S1  UNL     1      -1.241  -2.405  -0.333  1.00  0.00    -0.062 SA
ENDROOT
BRANCH   4   7
HETATM    7  C3  UNL     1       0.856   0.837  -0.014  1.00  0.00     0.095 C 
BRANCH   7   8
HETATM    8  O2  UNL     1       0.252   2.015   0.237  1.00  0.00    -0.358 OA
ATOM      9  H2  UNL     1       0.862   2.741   0.295  1.00  0.00     0.217 HD
ENDBRANCH   7   8
BRANCH   7  10
HETATM   10  C4  UNL     1       2.227   0.987  -0.124  1.00  0.00     0.075 C 
BRANCH  10  11
HETATM   11  C5  UNL     1       3.314   0.354  -0.334  1.00  0.00     0.106 C 
HETATM   12 CL1  UNL     1       3.720  -1.284  -0.640  1.00  0.00    -0.071 Cl
HETATM   13 CL2  UNL     1       4.798   1.436  -0.305  1.00  0.00    -0.071 Cl
ENDBRANCH  10  11
ENDBRANCH   7  10
ENDBRANCH   4   7
BRANCH   1  14
HETATM   14  N2  UNL     1      -3.558  -1.043   0.116  1.00  0.00    -0.260 N 
ATOM     15  H2  UNL     1      -4.097  -1.905   0.030  1.00  0.00     0.191 HD
BRANCH  14  16
HETATM   16  N1  UNL     1      -4.224   0.146   0.374  1.00  0.00    -0.208 N 
ATOM     17  H1  UNL     1      -4.432   0.399   1.340  1.00  0.00     0.215 HD
BRANCH  16  18
HETATM   18  O1  UNL     1      -4.581   0.926  -0.558  1.00  0.00    -0.274 OA
ATOM     19  H1  UNL     1      -5.037   1.740  -0.381  1.00  0.00     0.246 HD
ENDBRANCH  16  18
ENDBRANCH  14  16
ENDBRANCH   1  14
TORSDOF 7
