REMARK  3 active torsions:
REMARK  status: ('A' for Active; 'I' for Inactive)
REMARK    1  A    between atoms: S1_2  and  C2_3 
REMARK    2  A    between atoms: C2_3  and  C3_4 
REMARK    3  A    between atoms: N3_11  and  C5_12 
ROOT
HETATM    1  C3  UNL     1       0.514  -0.511   0.797  1.00  0.00     0.111 A 
HETATM    2  N1  UNL     1       0.671  -0.151   2.082  1.00  0.00    -0.286 N 
ATOM      3  H1  UNL     1       1.546  -0.230   2.600  1.00  0.00     0.188 HD
HETATM    4  N2  UNL     1      -0.444   0.313   2.582  1.00  0.00    -0.275 N 
ATOM      5  H2  UNL     1      -0.577   0.648   3.536  1.00  0.00     0.189 HD
HETATM    6  C4  UNL     1      -1.399   0.272   1.610  1.00  0.00     0.196 A 
HETATM    7  S2  UNL     1      -2.935   0.774   1.876  1.00  0.00    -0.039 SA
HETATM    8  N3  UNL     1      -0.799  -0.233   0.527  1.00  0.00    -0.287 N 
ENDROOT
BRANCH   8   9
HETATM    9  C5  UNL     1      -1.416  -0.478  -0.732  1.00  0.00     0.111 C 
HETATM   10  C6  UNL     1      -0.692   0.109  -1.931  1.00  0.00     0.056 C 
HETATM   11  C7  UNL     1      -2.827   0.054  -0.863  1.00  0.00     0.056 C 
HETATM   12 CL1  UNL     1      -1.434  -2.259  -1.010  1.00  0.00    -0.096 Cl
ENDBRANCH   8   9
BRANCH   1  13
HETATM   13  C2  UNL     1       1.560  -1.095  -0.080  1.00  0.00     0.151 C 
BRANCH  13  14
HETATM   14  S1  UNL     1       2.609   0.160  -0.848  1.00  0.00    -0.166 SA
HETATM   15  C1  UNL     1       3.583   1.007   0.420  1.00  0.00     0.090 C 
ENDBRANCH  13  14
ENDBRANCH   1  13
TORSDOF 3
