REMARK  7 active torsions:
REMARK  status: ('A' for Active; 'I' for Inactive)
REMARK    1  A    between atoms: C2_2  and  C3_4 
REMARK    2  A    between atoms: C3_4  and  S1_5 
REMARK    3  A    between atoms: S1_5  and  C4_6 
REMARK    4  A    between atoms: C4_6  and  N1_7 
REMARK    5  A    between atoms: C4_6  and  C7_16 
REMARK    6  A    between atoms: N1_7  and  N2_9 
REMARK    7  A    between atoms: C5_11  and  C6_12 
ROOT
HETATM    1  C4  UNL     1       0.249  -0.984   0.994  1.00  0.00     0.217 C 
ENDROOT
BRANCH   1   2
HETATM    2  S1  UNL     1       0.987  -0.700  -0.663  1.00  0.00    -0.130 SA
BRANCH   2   3
HETATM    3  C3  UNL     1       2.502   0.260  -0.379  1.00  0.00     0.126 C 
BRANCH   3   4
HETATM    4  C2  UNL     1       3.222   0.585  -1.601  1.00  0.00     0.011 C 
HETATM    5  C1  UNL     1       3.435   1.841  -1.939  1.00  0.00     0.033 C 
HETATM    6 CL1  UNL     1       3.814  -0.686  -2.640  1.00  0.00    -0.089 Cl
ENDBRANCH   3   4
ENDBRANCH   2   3
ENDBRANCH   1   2
BRANCH   1   7
HETATM    7  N1  UNL     1      -0.199   0.244   1.580  1.00  0.00    -0.316 N 
ATOM      8  H1  UNL     1       0.211   0.534   2.468  1.00  0.00     0.182 HD
BRANCH   7   9
HETATM    9  N2  UNL     1      -1.168   1.064   0.998  1.00  0.00    -0.314 N 
HETATM   10  C5  UNL     1      -0.909   2.048   0.222  1.00  0.00     0.138 C 
ATOM     11  H2  UNL     1      -2.147   0.866   1.205  1.00  0.00     0.185 HD
BRANCH  10  12
HETATM   12  C6  UNL     1      -2.002   2.857  -0.346  1.00  0.00     0.222 C 
HETATM   13 CL2  UNL     1      -1.887   4.546   0.120  1.00  0.00    -0.078 Cl
HETATM   14 CL3  UNL     1      -3.590   2.191   0.084  1.00  0.00    -0.078 Cl
HETATM   15 CL4  UNL     1      -1.852   2.756  -2.130  1.00  0.00    -0.078 Cl
ENDBRANCH  10  12
ENDBRANCH   7   9
ENDBRANCH   1   7
BRANCH   1  16
HETATM   16  C7  UNL     1      -0.805  -2.006   0.871  1.00  0.00     0.086 A 
HETATM   17  C8  UNL     1      -2.069  -1.798   0.388  1.00  0.00     0.038 A 
HETATM   18  C9  UNL     1      -2.739  -3.011   0.441  1.00  0.00     0.027 A 
HETATM   19  C10 UNL     1      -1.851  -3.903   0.955  1.00  0.00     0.142 A 
HETATM   20  O1  UNL     1      -0.716  -3.284   1.200  1.00  0.00    -0.324 OA
ENDBRANCH   1  16
TORSDOF 7
