REMARK  11 active torsions:
REMARK  status: ('A' for Active; 'I' for Inactive)
REMARK    1  A    between atoms: C2_2  and  O1_5 
REMARK    2  A    between atoms: O1_5  and  C5_6 
REMARK    3  A    between atoms: C5_6  and  C6_8 
REMARK    4  A    between atoms: C7_9  and  O3_10 
REMARK    5  A    between atoms: C7_9  and  C22_35 
REMARK    6  A    between atoms: O3_10  and  C8_11 
REMARK    7  A    between atoms: C9_14  and  C10_15 
REMARK    8  A    between atoms: C13_18  and  N2_19 
REMARK    9  A    between atoms: C15_23  and  C16_24 
REMARK   10  A    between atoms: C17_27  and  C18_28 
REMARK   11  A    between atoms: C18_28  and  O6_29 
ROOT
HETATM    1  C8  UNL     1      -0.260  -0.009   0.132  1.00  0.00     0.154 C 
HETATM    2  N1  UNL     1      -1.410   0.815   0.320  1.00  0.00    -0.360 N 
ATOM      3  H1  UNL     1      -1.398   1.792   0.026  1.00  0.00     0.162 HD
HETATM    4  C9  UNL     1      -2.585   0.252   0.928  1.00  0.00     0.148 C 
HETATM    5  C17 UNL     1      -2.277  -1.219   1.038  1.00  0.00     0.173 C 
HETATM    6  O7  UNL     1      -1.140  -1.371   1.872  1.00  0.00    -0.363 OA
HETATM    7  C19 UNL     1       0.014  -1.052   1.135  1.00  0.00     0.119 C 
HETATM    8  C20 UNL     1       0.360  -2.360   0.402  1.00  0.00     0.055 C 
HETATM    9  C21 UNL     1       1.127  -0.834   2.100  1.00  0.00     0.055 C 
ENDROOT
BRANCH   1  10
HETATM   10  O3  UNL     1       0.876   0.644  -0.293  1.00  0.00    -0.293 OA
BRANCH  10  11
HETATM   11  C7  UNL     1       1.654   1.641   0.114  1.00  0.00     0.125 C 
HETATM   12  C6  UNL     1       2.965   1.602   0.066  1.00  0.00     0.120 C 
BRANCH  12  13
HETATM   13  C5  UNL     1       3.725   0.485  -0.434  1.00  0.00     0.286 C 
HETATM   14  O2  UNL     1       3.212  -0.564  -0.878  1.00  0.00    -0.260 OA
BRANCH  13  15
HETATM   15  O1  UNL     1       5.113   0.570  -0.425  1.00  0.00    -0.308 OA
BRANCH  15  16
HETATM   16  C2  UNL     1       5.978  -0.423  -0.874  1.00  0.00     0.060 C 
HETATM   17  C1  UNL     1       5.844  -1.719  -0.141  1.00  0.00     0.046 C 
HETATM   18  C3  UNL     1       7.428   0.053  -0.734  1.00  0.00     0.046 C 
HETATM   19  C4  UNL     1       5.775  -0.683  -2.371  1.00  0.00     0.046 C 
ENDBRANCH  15  16
ENDBRANCH  13  15
ENDBRANCH  12  13
BRANCH  11  20
HETATM   20  C22 UNL     1       1.046   2.906   0.661  1.00  0.00     0.410 C 
HETATM   21  F3  UNL     1       0.164   3.443  -0.259  1.00  0.00    -0.207 F 
HETATM   22  F4  UNL     1       0.421   2.769   1.850  1.00  0.00    -0.207 F 
ENDBRANCH  11  20
ENDBRANCH  10  11
ENDBRANCH   1  10
BRANCH   4  23
HETATM   23  C10 UNL     1      -3.772   0.521   0.068  1.00  0.00    -0.021 A 
HETATM   24  C11 UNL     1      -4.157  -0.406  -0.877  1.00  0.00     0.012 A 
HETATM   25  C12 UNL     1      -5.214  -0.163  -1.721  1.00  0.00     0.037 A 
HETATM   26  C13 UNL     1      -5.919   1.020  -1.641  1.00  0.00     0.103 A 
HETATM   27  C14 UNL     1      -5.513   1.922  -0.689  1.00  0.00     0.049 A 
HETATM   28  C15 UNL     1      -4.438   1.705   0.188  1.00  0.00     0.016 A 
BRANCH  26  29
HETATM   29  N2  UNL     1      -7.014   1.274  -2.514  1.00  0.00    -0.116 N 
HETATM   30  O4  UNL     1      -7.621   2.348  -2.395  1.00  0.00    -0.532 OA
HETATM   31  O5  UNL     1      -7.347   0.327  -3.438  1.00  0.00    -0.532 OA
ENDBRANCH  26  29
BRANCH  28  32
HETATM   32  C16 UNL     1      -4.166   2.775   1.183  1.00  0.00     0.387 C 
HETATM   33  F1  UNL     1      -4.533   2.271   2.423  1.00  0.00    -0.209 F 
HETATM   34  F2  UNL     1      -2.881   3.178   1.309  1.00  0.00    -0.209 F 
ENDBRANCH  28  32
ENDBRANCH   4  23
BRANCH   5  35
HETATM   35  C18 UNL     1      -3.325  -2.029   1.722  1.00  0.00     0.198 C 
BRANCH  35  36
HETATM   36  O6  UNL     1      -2.870  -3.339   1.799  1.00  0.00    -0.398 OA
ATOM     37  H6  UNL     1      -3.538  -3.855   2.235  1.00  0.00     0.209 HD
ENDBRANCH  35  36
ENDBRANCH   5  35
TORSDOF 11
