REMARK  6 active torsions:
REMARK  status: ('A' for Active; 'I' for Inactive)
REMARK    1  A    between atoms: N2_4  and  N3_6 
REMARK       I    between atoms: N3_6  and  C1_8 
REMARK    2  A    between atoms: C1_8  and  C2_10 
REMARK    3  A    between atoms: C3_15  and  N6_16 
REMARK    4  A    between atoms: N6_16  and  O2_18 
REMARK    5  A    between atoms: N7_20  and  N8_21 
REMARK    6  A    between atoms: N8_21  and  O3_23 
ROOT
HETATM    1  C2  UNL     1      -0.092  -0.576  -0.714  1.00  0.00     0.232 A 
HETATM    2  N4  UNL     1       0.561  -1.035  -1.798  1.00  0.00    -0.264 N 
ATOM      3  H4  UNL     1       0.099  -1.423  -2.620  1.00  0.00     0.189 HD
HETATM    4  N5  UNL     1       1.867  -0.923  -1.670  1.00  0.00    -0.127 N 
ATOM      5  H5  UNL     1       2.574  -1.200  -2.351  1.00  0.00     0.206 HD
HETATM    6  C3  UNL     1       2.083  -0.372  -0.465  1.00  0.00     0.741 A 
HETATM    7  N7  UNL     1       0.864  -0.161   0.119  1.00  0.00    -0.040 N 
ENDROOT
BRANCH   1   8
HETATM    8  C1  UNL     1      -1.548  -0.588  -0.606  1.00  0.00     0.309 C 
HETATM    9  N3  UNL     1      -2.292  -0.128   0.487  1.00  0.00    -0.249 N 
ATOM     10  H3  UNL     1      -1.814   0.258   1.301  1.00  0.00     0.192 HD
HETATM   11  O1  UNL     1      -2.233  -1.059  -1.588  1.00  0.00    -0.262 OA
BRANCH   9  12
HETATM   12  N2  UNL     1      -3.679  -0.196   0.466  1.00  0.00    -0.246 N 
HETATM   13  N1  UNL     1      -4.285   0.157  -0.593  1.00  0.00    -0.331 N 
ATOM     14  H12 UNL     1      -3.751   0.480  -1.400  1.00  0.00     0.178 HD
ATOM     15  H11 UNL     1      -5.304   0.107  -0.608  1.00  0.00     0.178 HD
ATOM     16  H2  UNL     1      -4.198  -0.522   1.281  1.00  0.00     0.207 HD
ENDBRANCH   9  12
ENDBRANCH   1   8
BRANCH   7  17
HETATM   17  N8  UNL     1       0.661   0.395   1.373  1.00  0.00    -0.187 N 
ATOM     18  H8  UNL     1       0.389  -0.191   2.162  1.00  0.00     0.217 HD
BRANCH  17  19
HETATM   19  O3  UNL     1       0.815   1.607   1.518  1.00  0.00    -0.273 OA
ATOM     20  H3  UNL     1       0.676   1.988   2.377  1.00  0.00     0.246 HD
ENDBRANCH  17  19
ENDBRANCH   7  17
BRANCH   6  21
HETATM   21  N6  UNL     1       3.226  -0.097   0.039  1.00  0.00    -0.095 N 
ATOM     22  H6  UNL     1       4.045  -0.317  -0.528  1.00  0.00     0.213 HD
BRANCH  21  23
HETATM   23  O2  UNL     1       3.451   0.455   1.245  1.00  0.00    -0.276 OA
ATOM     24  H2  UNL     1       4.300   0.659   1.619  1.00  0.00     0.245 HD
ENDBRANCH  21  23
ENDBRANCH   6  21
TORSDOF 6
