REMARK  1 active torsions:
REMARK  status: ('A' for Active; 'I' for Inactive)
REMARK    1  A    between atoms: C2_2  and  C3_3 
ROOT
HETATM    1  C3  UNL     1       0.372  -0.513   0.363  1.00  0.00     0.101 C 
HETATM    2  C4  UNL     1      -0.768  -1.034  -0.485  1.00  0.00     0.037 C 
HETATM    3  C5  UNL     1      -1.681   0.155  -0.588  1.00  0.00     0.123 C 
HETATM    4  N1  UNL     1      -1.488   0.859   0.682  1.00  0.00    -0.360 N 
ATOM      5  H1  UNL     1      -2.064   1.630   1.020  1.00  0.00     0.162 HD
HETATM    6  C6  UNL     1      -0.374   0.304   1.372  1.00  0.00     0.225 C 
HETATM    7  O1  UNL     1      -0.111   0.493   2.587  1.00  0.00    -0.273 OA
ENDROOT
BRANCH   1   8
HETATM    8  C2  UNL     1       1.256   0.401  -0.375  1.00  0.00    -0.023 C 
HETATM    9  C1  UNL     1       2.561   0.203  -0.351  1.00  0.00     0.008 C 
ENDBRANCH   1   8
TORSDOF 1
