REMARK  1 active torsions:
REMARK  status: ('A' for Active; 'I' for Inactive)
REMARK    1  A    between atoms: C3_3  and  C5_5 
ROOT
HETATM    1  C1  UNL     1      -1.582   1.461  -0.781  1.00  0.00     0.018 C 
HETATM    2  C2  UNL     1      -0.979   0.559  -0.255  1.00  0.00    -0.073 C 
HETATM    3  C3  UNL     1      -0.263  -0.542   0.371  1.00  0.00     0.072 C 
HETATM    4  C4  UNL     1      -0.758  -1.757   0.330  1.00  0.00     0.038 C 
ENDROOT
BRANCH   3   5
HETATM    5  C5  UNL     1       0.989  -0.294   1.033  1.00  0.00     0.272 C 
HETATM    6  N1  UNL     1       1.533   1.027   1.081  1.00  0.00    -0.057 NA
HETATM    7  O1  UNL     1       1.645  -1.195   1.586  1.00  0.00    -0.270 OA
ENDBRANCH   3   5
TORSDOF 1
