REMARK  2 active torsions:
REMARK  status: ('A' for Active; 'I' for Inactive)
REMARK    1  A    between atoms: C2_2  and  C3_3 
REMARK       I    between atoms: C3_3  and  N1_5 
REMARK    2  A    between atoms: N1_5  and  C4_7 
ROOT
HETATM    1  C3  UNL     1       1.293  -0.251  -0.723  1.00  0.00     0.240 C 
HETATM    2  O1  UNL     1       1.241  -1.022  -1.742  1.00  0.00    -0.269 OA
HETATM    3  N1  UNL     1       0.111  -0.000   0.026  1.00  0.00    -0.353 N 
ATOM      4  H1  UNL     1       0.131   0.613   0.841  1.00  0.00     0.163 HD
ENDROOT
BRANCH   3   5
HETATM    5  C4  UNL     1      -1.147  -0.646  -0.401  1.00  0.00     0.084 A 
HETATM    6  C5  UNL     1      -2.351   0.244  -0.229  1.00  0.00     0.027 A 
HETATM    7  C6  UNL     1      -2.170  -0.989   0.610  1.00  0.00     0.027 A 
ENDBRANCH   3   5
BRANCH   1   8
HETATM    8  C2  UNL     1       2.546   0.352  -0.351  1.00  0.00     0.064 C 
HETATM    9  C1  UNL     1       2.655   1.141   0.671  1.00  0.00     0.017 C 
ENDBRANCH   1   8
TORSDOF 2
