REMARK  10 active torsions:
REMARK  status: ('A' for Active; 'I' for Inactive)
REMARK    1  A    between atoms: O1_2  and  C2_3 
REMARK    2  A    between atoms: C2_3  and  C3_5 
REMARK    3  A    between atoms: C5_7  and  O3_8 
REMARK    4  A    between atoms: O3_8  and  C6_9 
REMARK       I    between atoms: C6_9  and  N1_11 
REMARK    5  A    between atoms: N1_11  and  C7_13 
REMARK       I    between atoms: N2_24  and  C18_25 
REMARK    6  A    between atoms: C18_25  and  C19_27 
REMARK    7  A    between atoms: C21_29  and  S1_30 
REMARK    8  A    between atoms: C23_32  and  N3_33 
REMARK       I    between atoms: N3_33  and  C24_35 
REMARK    9  A    between atoms: N4_38  and  O7_39 
REMARK   10  A    between atoms: C26_41  and  O8_42 
ROOT
HETATM    1  C3  UNL     1       1.125   2.402   1.449  1.00  0.00     0.189 C 
HETATM    2  C4  UNL     1      -0.278   1.977   1.829  1.00  0.00     0.070 C 
HETATM    3  C5  UNL     1      -0.714   1.177   0.648  1.00  0.00     0.154 C 
HETATM    4  C17 UNL     1       0.547   0.526   0.149  1.00  0.00     0.159 C 
HETATM    5  N2  UNL     1       1.622   1.110   0.951  1.00  0.00    -0.335 N 
HETATM    6  C18 UNL     1       2.895   0.590   1.239  1.00  0.00     0.232 C 
HETATM    7  O5  UNL     1       3.690   1.234   1.960  1.00  0.00    -0.272 OA
ENDROOT
BRANCH   1   8
HETATM    8  C2  UNL     1       1.069   3.330   0.309  1.00  0.00     0.281 C 
HETATM    9  O2  UNL     1       0.650   4.516   0.525  1.00  0.00    -0.263 OA
BRANCH   8  10
HETATM   10  O1  UNL     1       1.430   3.034  -0.983  1.00  0.00    -0.325 OA
HETATM   11  C1  UNL     1       1.362   3.959  -2.061  1.00  0.00     0.213 C 
ENDBRANCH   8  10
ENDBRANCH   1   8
BRANCH   6  12
HETATM   12  C19 UNL     1       3.352  -0.728   0.712  1.00  0.00     0.156 C 
HETATM   13  C20 UNL     1       3.470  -0.779  -0.769  1.00  0.00     0.041 C 
HETATM   14  C21 UNL     1       4.824  -0.978  -1.334  1.00  0.00     0.093 C 
HETATM   15  C23 UNL     1       5.973  -0.877  -0.390  1.00  0.00     0.230 C 
HETATM   16  N4  UNL     1       5.692  -1.293   0.959  1.00  0.00    -0.217 N 
HETATM   17  C26 UNL     1       4.528  -1.231   1.460  1.00  0.00     0.155 C 
BRANCH  14  18
HETATM   18  S1  UNL     1       4.889  -2.636  -2.112  1.00  0.00    -0.165 SA
HETATM   19  C22 UNL     1       4.734  -3.939  -0.880  1.00  0.00     0.090 C 
ENDBRANCH  14  18
BRANCH  15  20
HETATM   20  N3  UNL     1       6.435   0.496  -0.320  1.00  0.00    -0.337 N 
HETATM   21  C24 UNL     1       7.776   0.847  -0.625  1.00  0.00     0.215 C 
HETATM   22  C25 UNL     1       8.261   2.245  -0.558  1.00  0.00     0.117 C 
HETATM   23  O6  UNL     1       8.565  -0.063  -0.960  1.00  0.00    -0.274 OA
ATOM     24  H3  UNL     1       5.780   1.228  -0.045  1.00  0.00     0.164 HD
ENDBRANCH  15  20
BRANCH  16  25
HETATM   25  O7  UNL     1       6.735  -1.770   1.713  1.00  0.00    -0.284 OA
ATOM     26  H7  UNL     1       6.550  -2.045   2.603  1.00  0.00     0.245 HD
ENDBRANCH  16  25
BRANCH  17  27
HETATM   27  O8  UNL     1       4.350  -1.646   2.747  1.00  0.00    -0.342 OA
HETATM   28  C27 UNL     1       5.294  -2.137   3.630  1.00  0.00     0.211 C 
ENDBRANCH  17  27
ENDBRANCH   6  12
BRANCH   3  29
HETATM   29  O3  UNL     1      -1.702   0.218   0.969  1.00  0.00    -0.297 OA
BRANCH  29  30
HETATM   30  C6  UNL     1      -2.936   0.305   0.340  1.00  0.00     0.361 C 
HETATM   31  O4  UNL     1      -3.094   1.244  -0.477  1.00  0.00    -0.238 OA
HETATM   32  N1  UNL     1      -3.976  -0.642   0.620  1.00  0.00    -0.328 N 
ATOM     33  H1  UNL     1      -3.775  -1.382   1.293  1.00  0.00     0.165 HD
BRANCH  32  34
HETATM   34  C7  UNL     1      -5.275  -0.622   0.022  1.00  0.00     0.036 C 
HETATM   35  C8  UNL     1      -6.088  -1.792   0.557  1.00  0.00     0.035 C 
HETATM   36  C9  UNL     1      -7.447  -1.798  -0.054  1.00  0.00    -0.012 C 
HETATM   37  C10 UNL     1      -7.384  -1.906  -1.558  1.00  0.00     0.009 C 
HETATM   38  C14 UNL     1      -8.156  -0.525   0.318  1.00  0.00     0.009 C 
HETATM   39  C11 UNL     1      -6.592  -0.737  -2.082  1.00  0.00    -0.012 C 
HETATM   40  C12 UNL     1      -7.249   0.573  -1.738  1.00  0.00     0.009 C 
HETATM   41  C16 UNL     1      -5.204  -0.737  -1.471  1.00  0.00     0.035 C 
HETATM   42  C13 UNL     1      -7.374   0.653  -0.232  1.00  0.00    -0.012 C 
HETATM   43  C15 UNL     1      -6.021   0.637   0.412  1.00  0.00     0.035 C 
ENDBRANCH  32  34
ENDBRANCH  29  30
ENDBRANCH   3  29
TORSDOF 10
