REMARK  4 active torsions:
REMARK  status: ('A' for Active; 'I' for Inactive)
REMARK    1  A    between atoms: N1_1  and  C1_4 
REMARK    2  A    between atoms: N3_8  and  C3_9 
REMARK    3  A    between atoms: C3_9  and  C4_10 
REMARK    4  A    between atoms: C4_10  and  C5_11 
ROOT
HETATM    1  C1  UNL     1       4.672  -0.089  -0.339  1.00  0.00     0.691 A 
HETATM    2  N2  UNL     1       4.478  -0.841   0.759  1.00  0.00    -0.185 N 
ATOM      3  H2  UNL     1       5.173  -1.444   1.199  1.00  0.00     0.185 HD
HETATM    4  C2  UNL     1       3.207  -0.664   1.181  1.00  0.00     0.218 A 
HETATM    5  N3  UNL     1       2.601   0.204   0.344  1.00  0.00    -0.273 N 
HETATM    6  N4  UNL     1       3.500   0.534  -0.559  1.00  0.00    -0.129 N 
ATOM      7  H4  UNL     1       3.330   1.181  -1.329  1.00  0.00     0.206 HD
ENDROOT
BRANCH   5   8
HETATM    8  C3  UNL     1       1.234   0.677   0.424  1.00  0.00     0.153 C 
BRANCH   8   9
HETATM    9  C4  UNL     1       0.306  -0.228  -0.361  1.00  0.00     0.053 C 
BRANCH   9  10
HETATM   10  C5  UNL     1      -1.120   0.260  -0.282  1.00  0.00     0.123 C 
HETATM   11  C6  UNL     1      -1.986  -0.692  -1.088  1.00  0.00     0.032 C 
HETATM   12  C7  UNL     1      -3.220  -1.101  -0.312  1.00  0.00     0.004 C 
HETATM   13  C8  UNL     1      -3.781   0.016   0.513  1.00  0.00     0.026 C 
HETATM   14  C9  UNL     1      -2.754   0.823   1.236  1.00  0.00     0.168 C 
HETATM   15  O1  UNL     1      -1.509   0.253   1.051  1.00  0.00    -0.386 OA
ENDBRANCH   9  10
ENDBRANCH   8   9
ENDBRANCH   5   8
BRANCH   1  16
HETATM   16  N1  UNL     1       5.775   0.011  -1.041  1.00  0.00    -0.233 N 
ATOM     17  H12 UNL     1       6.664  -0.461  -0.874  1.00  0.00     0.174 HD
ATOM     18  H11 UNL     1       5.922   0.581  -1.874  1.00  0.00     0.174 HD
ENDBRANCH   1  16
TORSDOF 4
