REMARK  4 active torsions:
REMARK  status: ('A' for Active; 'I' for Inactive)
REMARK    1  A    between atoms: N1_2  and  N2_3 
REMARK    2  A    between atoms: N1_2  and  C3_9 
REMARK    3  A    between atoms: C3_9  and  O1_10 
REMARK    4  A    between atoms: C3_9  and  C4_12 
ROOT
HETATM    1  N2  UNL     1       2.248  -0.107   0.941  1.00  0.00    -0.234 N 
ATOM      2  H2  UNL     1       1.849   0.044   1.867  1.00  0.00     0.209 HD
HETATM    3  N3  UNL     1       3.162   0.647   0.507  1.00  0.00    -0.222 N 
ATOM      4  H3  UNL     1       3.534   0.463  -0.425  1.00  0.00     0.201 HD
HETATM    5  C2  UNL     1       3.694   1.717   1.226  1.00  0.00     0.199 C 
HETATM    6  N4  UNL     1       4.146   2.597   1.826  1.00  0.00    -0.170 NA
ENDROOT
BRANCH   1   7
HETATM    7  N1  UNL     1       1.797  -1.139   0.143  1.00  0.00    -0.288 N 
HETATM    8  C1  UNL     1       2.556  -2.363   0.061  1.00  0.00     0.175 C 
BRANCH   7   9
HETATM    9  C3  UNL     1       0.596  -1.013  -0.615  1.00  0.00     0.240 C 
BRANCH   9  10
HETATM   10  O1  UNL     1       0.979  -1.123  -1.974  1.00  0.00    -0.375 OA
ATOM     11  H1  UNL     1       0.179  -1.039  -2.479  1.00  0.00     0.212 HD
ENDBRANCH   9  10
BRANCH   9  12
HETATM   12  C4  UNL     1      -0.170   0.287  -0.404  1.00  0.00     0.036 C 
HETATM   13  C5  UNL     1      -0.568   0.392   1.016  1.00  0.00     0.009 C 
HETATM   14  C6  UNL     1      -1.926   0.876   1.346  1.00  0.00     0.001 C 
HETATM   15  C7  UNL     1      -3.004   0.648   0.350  1.00  0.00     0.000 C 
HETATM   16  C8  UNL     1      -2.472   1.144  -1.002  1.00  0.00     0.001 C 
HETATM   17  C9  UNL     1      -1.345   0.219  -1.329  1.00  0.00     0.009 C 
ENDBRANCH   9  12
ENDBRANCH   7   9
ENDBRANCH   1   7
TORSDOF 4
