REMARK  8 active torsions:
REMARK  status: ('A' for Active; 'I' for Inactive)
REMARK    1  A    between atoms: N1_1  and  C1_5 
REMARK    2  A    between atoms: C1_5  and  C2_6 
REMARK    3  A    between atoms: C2_6  and  C3_7 
REMARK    4  A    between atoms: C3_7  and  C4_8 
REMARK    5  A    between atoms: C4_8  and  C5_9 
REMARK    6  A    between atoms: C5_9  and  C6_10 
REMARK    7  A    between atoms: C6_10  and  N2_11 
REMARK    8  A    between atoms: N2_11  and  C7_13 
ROOT
HETATM    1  C7  UNL     1      -2.302   0.577  -0.191  1.00  0.00     0.672 C 
HETATM    2  N3  UNL     1      -2.210   0.068   1.002  1.00  0.00    -0.223 N 
ATOM      3  H3  UNL     1      -1.511   0.484   1.617  1.00  0.00     0.177 HD
HETATM    4  C8  UNL     1      -2.985  -1.022   1.558  1.00  0.00     0.201 C 
HETATM    5  C9  UNL     1      -4.208  -1.377   0.812  1.00  0.00     0.409 C 
HETATM    6  N4  UNL     1      -4.996  -0.315   0.282  1.00  0.00     0.003 N 
ATOM      7  H41 UNL     1      -4.939   0.620   0.685  1.00  0.00     0.284 HD
ATOM      8  H42 UNL     1      -6.007  -0.304   0.419  1.00  0.00     0.284 HD
HETATM    9  C10 UNL     1      -4.428  -0.588  -1.050  1.00  0.00     0.504 C 
HETATM   10  N5  UNL     1      -3.186   0.187  -1.235  1.00  0.00    -0.173 N 
ATOM     11  H5  UNL     1      -2.942   0.465  -2.186  1.00  0.00     0.181 HD
HETATM   12  N6  UNL     1      -4.014  -1.874  -0.522  1.00  0.00     0.003 N 
ATOM     13  H61 UNL     1      -4.483  -2.728  -0.824  1.00  0.00     0.284 HD
ATOM     14  H62 UNL     1      -3.117  -2.275  -0.794  1.00  0.00     0.284 HD
ENDROOT
BRANCH   1  15
HETATM   15  N2  UNL     1      -1.427   1.640  -0.486  1.00  0.00    -0.227 N 
ATOM     16  H2  UNL     1      -1.841   2.566  -0.591  1.00  0.00     0.177 HD
BRANCH  15  17
HETATM   17  C6  UNL     1       0.002   1.538  -0.653  1.00  0.00     0.138 C 
BRANCH  17  18
HETATM   18  C5  UNL     1       0.732   1.206   0.596  1.00  0.00     0.020 C 
BRANCH  18  19
HETATM   19  C4  UNL     1       2.210   1.142   0.337  1.00  0.00     0.002 C 
BRANCH  19  20
HETATM   20  C3  UNL     1       2.648   0.132  -0.661  1.00  0.00     0.002 C 
BRANCH  20  21
HETATM   21  C2  UNL     1       4.149   0.128  -0.854  1.00  0.00     0.027 C 
BRANCH  21  22
HETATM   22  C1  UNL     1       4.888  -0.187   0.408  1.00  0.00     0.229 C 
BRANCH  22  23
HETATM   23  N1  UNL     1       4.459  -1.509   0.853  1.00  0.00    -0.079 N 
ATOM     24  H13 UNL     1       3.447  -1.584   0.956  1.00  0.00     0.274 HD
ATOM     25  H12 UNL     1       4.574  -2.226   0.136  1.00  0.00     0.274 HD
ATOM     26  H11 UNL     1       4.963  -1.724   1.713  1.00  0.00     0.274 HD
ENDBRANCH  22  23
ENDBRANCH  21  22
ENDBRANCH  20  21
ENDBRANCH  19  20
ENDBRANCH  18  19
ENDBRANCH  17  18
ENDBRANCH  15  17
ENDBRANCH   1  15
TORSDOF 8
