REMARK  8 active torsions:
REMARK  status: ('A' for Active; 'I' for Inactive)
REMARK    1  A    between atoms: N1_1  and  C1_4 
REMARK    2  A    between atoms: N5_14  and  C5_15 
REMARK    3  A    between atoms: C5_15  and  C6_16 
REMARK    4  A    between atoms: C6_16  and  N6_17 
REMARK    5  A    between atoms: N6_17  and  C7_19 
REMARK    6  A    between atoms: C7_19  and  C8_20 
REMARK    7  A    between atoms: C8_20  and  C9_21 
REMARK    8  A    between atoms: C9_21  and  N7_22 
ROOT
HETATM    1  C1  UNL     1       4.438  -0.059  -0.054  1.00  0.00     0.132 A 
HETATM    2  N2  UNL     1       4.499  -1.396  -0.020  1.00  0.00    -0.337 N 
ATOM      3  H2  UNL     1       5.388  -1.868  -0.184  1.00  0.00     0.168 HD
HETATM    4  C2  UNL     1       3.400  -2.114   0.228  1.00  0.00     0.183 A 
HETATM    5  N3  UNL     1       2.244  -1.467   0.441  1.00  0.00    -0.335 N 
ATOM      6  H3  UNL     1       1.409  -2.021   0.630  1.00  0.00     0.168 HD
HETATM    7  C3  UNL     1       2.127  -0.130   0.419  1.00  0.00     0.155 A 
HETATM    8  C4  UNL     1       3.255   0.641   0.163  1.00  0.00     0.138 A 
HETATM    9  N4  UNL     1       2.538   1.769   0.272  1.00  0.00    -0.290 N 
ATOM     10  H4  UNL     1       2.738   2.766   0.198  1.00  0.00     0.187 HD
HETATM   11  N5  UNL     1       1.469   1.045   0.514  1.00  0.00    -0.272 N 
ENDROOT
BRANCH  11  12
HETATM   12  C5  UNL     1       0.053   1.343   0.779  1.00  0.00     0.170 C 
BRANCH  12  13
HETATM   13  C6  UNL     1      -0.644   1.438  -0.563  1.00  0.00     0.135 C 
BRANCH  13  14
HETATM   14  N6  UNL     1      -2.024   1.729  -0.510  1.00  0.00    -0.419 N 
ATOM     15  H6  UNL     1      -2.378   2.630  -0.830  1.00  0.00     0.153 HD
BRANCH  14  16
HETATM   16  C7  UNL     1      -2.908   0.744  -0.003  1.00  0.00     0.115 C 
BRANCH  16  17
HETATM   17  C8  UNL     1      -3.054  -0.469  -0.899  1.00  0.00     0.046 C 
BRANCH  17  18
HETATM   18  C9  UNL     1      -4.040  -1.438  -0.242  1.00  0.00     0.231 C 
BRANCH  18  19
HETATM   19  N7  UNL     1      -3.557  -1.860   1.050  1.00  0.00    -0.079 N 
ATOM     20  H73 UNL     1      -2.619  -2.257   0.992  1.00  0.00     0.274 HD
ATOM     21  H72 UNL     1      -3.350  -1.065   1.654  1.00  0.00     0.274 HD
ATOM     22  H71 UNL     1      -4.214  -2.506   1.488  1.00  0.00     0.274 HD
ENDBRANCH  18  19
ENDBRANCH  17  18
ENDBRANCH  16  17
ENDBRANCH  14  16
ENDBRANCH  13  14
ENDBRANCH  12  13
ENDBRANCH  11  12
BRANCH   1  23
HETATM   23  N1  UNL     1       5.477   0.694  -0.296  1.00  0.00    -0.383 N 
ATOM     24  H12 UNL     1       6.344   0.181  -0.455  1.00  0.00     0.157 HD
ATOM     25  H11 UNL     1       5.431   1.713  -0.322  1.00  0.00     0.157 HD
ENDBRANCH   1  23
TORSDOF 8
