REMARK  6 active torsions:
REMARK  status: ('A' for Active; 'I' for Inactive)
REMARK    1  A    between atoms: O1_2  and  C2_3 
REMARK    2  A    between atoms: C5_6  and  C6_7 
REMARK    3  A    between atoms: C6_7  and  C7_8 
REMARK    4  A    between atoms: C7_8  and  N1_9 
REMARK    5  A    between atoms: N1_9  and  C8_11 
REMARK    6  A    between atoms: C11_16  and  N3_17 
ROOT
HETATM    1  N1  UNL     1      -2.110  -1.464  -1.128  1.00  0.00    -0.376 N 
ATOM      2  H1  UNL     1      -2.275  -2.342  -1.620  1.00  0.00     0.161 HD
ENDROOT
BRANCH   1   3
HETATM    3  C7  UNL     1      -0.795  -0.908  -1.182  1.00  0.00     0.126 C 
BRANCH   3   4
HETATM    4  C6  UNL     1       0.055  -1.348  -0.006  1.00  0.00     0.058 C 
BRANCH   4   5
HETATM    5  C5  UNL     1       1.414  -0.755  -0.089  1.00  0.00    -0.057 A 
HETATM    6  C4  UNL     1       1.670   0.465   0.496  1.00  0.00     0.010 A 
HETATM    7  C3  UNL     1       2.922   1.065   0.448  1.00  0.00     0.037 A 
HETATM    8  C2  UNL     1       3.964   0.437  -0.203  1.00  0.00     0.068 A 
HETATM    9  C13 UNL     1       3.702  -0.783  -0.786  1.00  0.00     0.037 A 
HETATM   10  C12 UNL     1       2.456  -1.381  -0.739  1.00  0.00     0.010 A 
BRANCH   8  11
HETATM   11  O1  UNL     1       5.240   0.965  -0.297  1.00  0.00    -0.356 OA
HETATM   12  C1  UNL     1       5.637   2.187   0.247  1.00  0.00     0.210 C 
ENDBRANCH   8  11
ENDBRANCH   4   5
ENDBRANCH   3   4
ENDBRANCH   1   3
BRANCH   1  13
HETATM   13  C8  UNL     1      -3.103  -0.931  -0.500  1.00  0.00     0.118 A 
HETATM   14  C9  UNL     1      -4.331  -1.558  -0.517  1.00  0.00     0.066 A 
HETATM   15  C10 UNL     1      -5.418  -0.992   0.160  1.00  0.00     0.110 A 
HETATM   16  N2  UNL     1      -5.206   0.148   0.800  1.00  0.00    -0.202 N 
HETATM   17  C11 UNL     1      -4.025   0.782   0.836  1.00  0.00     0.677 A 
ATOM     18  H2  UNL     1      -5.990   0.570   1.297  1.00  0.00     0.183 HD
HETATM   19  N4  UNL     1      -2.986   0.223   0.177  1.00  0.00    -0.177 N 
ATOM     20  H4  UNL     1      -2.081   0.694   0.194  1.00  0.00     0.185 HD
BRANCH  17  21
HETATM   21  N3  UNL     1      -3.901   1.897   1.486  1.00  0.00    -0.234 N 
ATOM     22  H32 UNL     1      -4.685   2.319   1.983  1.00  0.00     0.174 HD
ATOM     23  H31 UNL     1      -3.003   2.379   1.513  1.00  0.00     0.174 HD
ENDBRANCH  17  21
ENDBRANCH   1  13
TORSDOF 6
