REMARK  7 active torsions:
REMARK  status: ('A' for Active; 'I' for Inactive)
REMARK    1  A    between atoms: O1_1  and  C1_3 
REMARK    2  A    between atoms: C1_3  and  O2_4 
REMARK    3  A    between atoms: O2_4  and  C2_5 
REMARK    4  A    between atoms: C2_5  and  C3_6 
REMARK    5  A    between atoms: C3_6  and  O3_7 
REMARK    6  A    between atoms: C3_6  and  C4_9 
REMARK    7  A    between atoms: C3_6  and  C10_15 
ROOT
HETATM    1  C3  UNL     1       0.266  -0.182   0.867  1.00  0.00     0.133 C 
ENDROOT
BRANCH   1   2
HETATM    2  C2  UNL     1       1.654  -0.537   0.434  1.00  0.00     0.218 C 
BRANCH   2   3
HETATM    3  O2  UNL     1       1.912  -0.405  -0.904  1.00  0.00    -0.364 OA
BRANCH   3   4
HETATM    4  C1  UNL     1       3.240  -0.776  -1.119  1.00  0.00     0.334 C 
BRANCH   4   5
HETATM    5  O1  UNL     1       3.559  -0.660  -2.472  1.00  0.00    -0.377 OA
ATOM      6  H1  UNL     1       4.463  -0.913  -2.618  1.00  0.00     0.212 HD
ENDBRANCH   4   5
ENDBRANCH   3   4
ENDBRANCH   2   3
ENDBRANCH   1   2
BRANCH   1   7
HETATM    7  O3  UNL     1       0.225  -0.407   2.265  1.00  0.00    -0.378 OA
ATOM      8  H3  UNL     1      -0.656  -0.182   2.540  1.00  0.00     0.211 HD
ENDBRANCH   1   7
BRANCH   1   9
HETATM    9  C4  UNL     1      -0.753  -1.091   0.228  1.00  0.00    -0.017 A 
HETATM   10  C5  UNL     1      -0.956  -1.078  -1.135  1.00  0.00     0.011 A 
HETATM   11  C6  UNL     1      -1.903  -1.929  -1.698  1.00  0.00     0.001 A 
HETATM   12  C7  UNL     1      -2.643  -2.785  -0.912  1.00  0.00     0.000 A 
HETATM   13  C8  UNL     1      -2.452  -2.810   0.457  1.00  0.00     0.001 A 
HETATM   14  C9  UNL     1      -1.507  -1.957   0.989  1.00  0.00     0.011 A 
ENDBRANCH   1   9
BRANCH   1  15
HETATM   15  C10 UNL     1      -0.101   1.228   0.689  1.00  0.00    -0.017 A 
HETATM   16  C11 UNL     1       0.814   2.128   0.222  1.00  0.00     0.011 A 
HETATM   17  C12 UNL     1       0.475   3.479   0.044  1.00  0.00     0.001 A 
HETATM   18  C13 UNL     1      -0.787   3.901   0.342  1.00  0.00     0.000 A 
HETATM   19  C14 UNL     1      -1.709   2.985   0.815  1.00  0.00     0.001 A 
HETATM   20  C15 UNL     1      -1.374   1.637   0.993  1.00  0.00     0.011 A 
ENDBRANCH   1  15
TORSDOF 7
