REMARK  7 active torsions:
REMARK  status: ('A' for Active; 'I' for Inactive)
REMARK    1  A    between atoms: N1_2  and  C2_5 
REMARK    2  A    between atoms: C2_5  and  C3_6 
REMARK    3  A    between atoms: C3_6  and  N2_8 
REMARK    4  A    between atoms: N2_8  and  C5_10 
REMARK    5  A    between atoms: C5_10  and  N3_12 
REMARK    6  A    between atoms: N3_12  and  C6_14 
REMARK    7  A    between atoms: C6_14  and  C7_15 
ROOT
HETATM    1  C5  UNL     1      -0.041  -0.510  -0.051  1.00  0.00     0.168 C 
HETATM    2  S1  UNL     1      -0.316  -0.770  -1.625  1.00  0.00    -0.041 SA
ENDROOT
BRANCH   1   3
HETATM    3  N2  UNL     1      -1.098  -0.661   0.878  1.00  0.00    -0.361 N 
ATOM      4  H2  UNL     1      -0.927  -0.528   1.875  1.00  0.00     0.162 HD
BRANCH   3   5
HETATM    5  C3  UNL     1      -2.411  -1.002   0.411  1.00  0.00     0.105 C 
HETATM    6  C4  UNL     1      -3.347  -1.369   1.551  1.00  0.00     0.034 C 
BRANCH   5   7
HETATM    7  C2  UNL     1      -3.035   0.174  -0.292  1.00  0.00     0.256 C 
BRANCH   7   8
HETATM    8  N1  UNL     1      -4.342  -0.293  -0.766  1.00  0.00    -0.077 N 
HETATM    9  C1  UNL     1      -4.956   0.825  -1.445  1.00  0.00     0.267 C 
ATOM     10  H12 UNL     1      -4.924  -0.685  -0.025  1.00  0.00     0.276 HD
ATOM     11  H11 UNL     1      -4.286  -1.134  -1.341  1.00  0.00     0.276 HD
ENDBRANCH   7   8
ENDBRANCH   5   7
ENDBRANCH   3   5
ENDBRANCH   1   3
BRANCH   1  12
HETATM   12  N3  UNL     1       1.272  -0.158   0.368  1.00  0.00    -0.363 N 
ATOM     13  H3  UNL     1       1.484  -0.006   1.354  1.00  0.00     0.162 HD
BRANCH  12  14
HETATM   14  C6  UNL     1       2.280  -0.024  -0.623  1.00  0.00     0.160 C 
BRANCH  14  15
HETATM   15  C7  UNL     1       3.620   0.344  -0.158  1.00  0.00    -0.038 A 
HETATM   16  C8  UNL     1       3.954   0.642   1.138  1.00  0.00     0.025 A 
HETATM   17  C9  UNL     1       5.274   0.980   1.465  1.00  0.00     0.088 A 
HETATM   18  N4  UNL     1       6.244   1.028   0.553  1.00  0.00    -0.375 N 
HETATM   19  C10 UNL     1       5.942   0.740  -0.726  1.00  0.00     0.088 A 
ATOM     20  H4  UNL     1       7.196   1.278   0.819  1.00  0.00     0.164 HD
HETATM   21  C11 UNL     1       4.657   0.403  -1.087  1.00  0.00     0.025 A 
ENDBRANCH  14  15
ENDBRANCH  12  14
ENDBRANCH   1  12
TORSDOF 7
