REMARK  7 active torsions:
REMARK  status: ('A' for Active; 'I' for Inactive)
REMARK    1  A    between atoms: N1_1  and  C1_5 
REMARK    2  A    between atoms: C1_5  and  C2_6 
REMARK    3  A    between atoms: C1_5  and  C7_13 
REMARK    4  A    between atoms: C2_6  and  N2_7 
REMARK    5  A    between atoms: N2_7  and  C3_9 
REMARK    6  A    between atoms: C3_9  and  C4_10 
REMARK    7  A    between atoms: C7_13  and  C8_14 
ROOT
HETATM    1  C1  UNL     1       0.336  -0.617  -1.057  1.00  0.00     0.225 C 
ENDROOT
BRANCH   1   2
HETATM    2  N1  UNL     1       0.906  -1.932  -0.927  1.00  0.00    -0.070 N 
ATOM      3  H13 UNL     1       0.334  -2.509  -0.310  1.00  0.00     0.275 HD
ATOM      4  H12 UNL     1       0.802  -2.453  -1.798  1.00  0.00     0.275 HD
ATOM      5  H11 UNL     1       1.879  -1.939  -0.621  1.00  0.00     0.275 HD
ENDBRANCH   1   2
BRANCH   1   6
HETATM    6  C2  UNL     1      -1.078  -0.607  -1.501  1.00  0.00     0.088 C 
BRANCH   6   7
HETATM    7  N2  UNL     1      -2.048  -1.263  -0.730  1.00  0.00    -0.400 N 
ATOM      8  H2  UNL     1      -2.486  -2.113  -1.085  1.00  0.00     0.158 HD
BRANCH   7   9
HETATM    9  C3  UNL     1      -2.423  -0.758   0.533  1.00  0.00     0.123 C 
BRANCH   9  10
HETATM   10  C4  UNL     1      -3.149   0.571   0.458  1.00  0.00     0.003 A 
HETATM   11  C5  UNL     1      -3.596   1.201   1.758  1.00  0.00     0.007 A 
HETATM   12  C6  UNL     1      -4.628   0.581   0.872  1.00  0.00     0.007 A 
ENDBRANCH   9  10
ENDBRANCH   7   9
ENDBRANCH   6   7
ENDBRANCH   1   6
BRANCH   1  13
HETATM   13  C7  UNL     1       0.719   0.272   0.069  1.00  0.00     0.076 C 
BRANCH  13  14
HETATM   14  C8  UNL     1       2.223   0.415   0.074  1.00  0.00    -0.056 A 
HETATM   15  C9  UNL     1       2.811   1.427  -0.650  1.00  0.00     0.007 A 
HETATM   16  C10 UNL     1       4.182   1.563  -0.649  1.00  0.00     0.001 A 
HETATM   17  C11 UNL     1       4.951   0.682   0.080  1.00  0.00     0.000 A 
HETATM   18  C12 UNL     1       4.409  -0.346   0.820  1.00  0.00     0.001 A 
HETATM   19  C13 UNL     1       3.030  -0.442   0.787  1.00  0.00     0.007 A 
ENDBRANCH  13  14
ENDBRANCH   1  13
TORSDOF 7
