REMARK  7 active torsions:
REMARK  status: ('A' for Active; 'I' for Inactive)
REMARK    1  A    between atoms: C2_2  and  N1_3 
REMARK    2  A    between atoms: C2_2  and  C3_7 
REMARK    3  A    between atoms: C3_7  and  N2_8 
REMARK    4  A    between atoms: N2_8  and  C4_11 
REMARK    5  A    between atoms: C4_11  and  C6_14 
REMARK    6  A    between atoms: C6_14  and  C7_15 
REMARK    7  A    between atoms: C7_15  and  C8_16 
ROOT
HETATM    1  C4  UNL     1      -0.448  -0.859   0.727  1.00  0.00     0.291 C 
HETATM    2  C5  UNL     1      -0.806  -0.594   2.127  1.00  0.00     0.092 C 
HETATM    3  N3  UNL     1      -1.080  -0.408   3.225  1.00  0.00    -0.195 NA
ENDROOT
BRANCH   1   4
HETATM    4  N2  UNL     1      -1.599  -1.468   0.073  1.00  0.00    -0.057 N 
ATOM      5  H22 UNL     1      -1.823  -2.364   0.505  1.00  0.00     0.278 HD
ATOM      6  H21 UNL     1      -1.351  -1.785  -0.864  1.00  0.00     0.278 HD
BRANCH   4   7
HETATM    7  C3  UNL     1      -2.754  -0.633   0.029  1.00  0.00     0.266 C 
BRANCH   7   8
HETATM    8  C2  UNL     1      -2.644   0.576  -0.849  1.00  0.00     0.205 C 
HETATM    9  C1  UNL     1      -3.985   1.307  -0.742  1.00  0.00     0.041 C 
BRANCH   8  10
HETATM   10  N1  UNL     1      -2.350   0.297  -2.216  1.00  0.00    -0.074 N 
ATOM     11  H13 UNL     1      -3.104  -0.217  -2.672  1.00  0.00     0.274 HD
ATOM     12  H12 UNL     1      -2.374   1.138  -2.792  1.00  0.00     0.274 HD
ATOM     13  H11 UNL     1      -1.457  -0.190  -2.287  1.00  0.00     0.274 HD
ENDBRANCH   8  10
ENDBRANCH   7   8
ENDBRANCH   4   7
ENDBRANCH   1   4
BRANCH   1  14
HETATM   14  C6  UNL     1       0.651  -1.888   0.652  1.00  0.00     0.052 C 
BRANCH  14  15
HETATM   15  C7  UNL     1       1.953  -1.477   1.244  1.00  0.00     0.041 C 
BRANCH  15  16
HETATM   16  C8  UNL     1       2.574  -0.295   0.595  1.00  0.00    -0.058 A 
HETATM   17  C9  UNL     1       2.331   0.961   1.093  1.00  0.00     0.007 A 
HETATM   18  C10 UNL     1       2.937   2.032   0.425  1.00  0.00     0.001 A 
HETATM   19  C11 UNL     1       3.738   1.870  -0.675  1.00  0.00     0.000 A 
HETATM   20  C12 UNL     1       3.961   0.599  -1.147  1.00  0.00     0.001 A 
HETATM   21  C13 UNL     1       3.392  -0.490  -0.531  1.00  0.00     0.007 A 
ENDBRANCH  15  16
ENDBRANCH  14  15
ENDBRANCH   1  14
TORSDOF 7
