REMARK  6 active torsions:
REMARK  status: ('A' for Active; 'I' for Inactive)
REMARK    1  A    between atoms: C2_2  and  C3_3 
REMARK    2  A    between atoms: C3_3  and  N1_4 
REMARK    3  A    between atoms: N1_4  and  C4_6 
REMARK    4  A    between atoms: C4_6  and  C5_7 
REMARK    5  A    between atoms: C5_7  and  N2_8 
REMARK    6  A    between atoms: N2_8  and  C6_11 
ROOT
HETATM    1  C6  UNL     1      -1.186  -0.924  -0.292  1.00  0.00     0.240 C 
HETATM    2  C7  UNL     1      -1.407   0.568  -0.240  1.00  0.00     0.079 C 
HETATM    3  C8  UNL     1      -2.871   0.722  -0.217  1.00  0.00    -0.044 A 
HETATM    4  C9  UNL     1      -3.695   1.805  -0.499  1.00  0.00     0.008 A 
HETATM    5  C10 UNL     1      -5.060   1.677  -0.394  1.00  0.00     0.001 A 
HETATM    6  C11 UNL     1      -5.652   0.476  -0.007  1.00  0.00     0.001 A 
HETATM    7  C12 UNL     1      -4.825  -0.582   0.268  1.00  0.00     0.014 A 
HETATM    8  C13 UNL     1      -3.439  -0.470   0.166  1.00  0.00    -0.006 A 
HETATM    9  C14 UNL     1      -2.369  -1.465   0.409  1.00  0.00     0.045 C 
HETATM   10  N3  UNL     1      -2.558  -2.526   1.095  1.00  0.00    -0.400 N 
ATOM     11  H31 UNL     1      -3.375  -2.899   1.579  1.00  0.00     0.156 HD
ATOM     12  H32 UNL     1      -1.821  -3.211   1.262  1.00  0.00     0.156 HD
ENDROOT
BRANCH   1  13
HETATM   13  N2  UNL     1       0.042  -1.216   0.410  1.00  0.00    -0.064 N 
ATOM     14  H22 UNL     1       0.166  -2.223   0.515  1.00  0.00     0.278 HD
ATOM     15  H21 UNL     1      -0.033  -0.950   1.392  1.00  0.00     0.278 HD
BRANCH  13  16
HETATM   16  C5  UNL     1       1.213  -0.618  -0.193  1.00  0.00     0.252 C 
BRANCH  16  17
HETATM   17  C4  UNL     1       2.386  -1.017   0.666  1.00  0.00     0.141 C 
BRANCH  17  18
HETATM   18  N1  UNL     1       3.655  -0.533   0.243  1.00  0.00    -0.417 N 
ATOM     19  H1  UNL     1       4.385  -1.150  -0.112  1.00  0.00     0.153 HD
BRANCH  18  20
HETATM   20  C3  UNL     1       3.833   0.888   0.353  1.00  0.00     0.140 C 
BRANCH  20  21
HETATM   21  C2  UNL     1       5.215   1.228  -0.081  1.00  0.00    -0.018 C 
HETATM   22  C1  UNL     1       6.108   0.362  -0.483  1.00  0.00     0.008 C 
ENDBRANCH  20  21
ENDBRANCH  18  20
ENDBRANCH  17  18
ENDBRANCH  16  17
ENDBRANCH  13  16
ENDBRANCH   1  13
TORSDOF 6
