REMARK  6 active torsions:
REMARK  status: ('A' for Active; 'I' for Inactive)
REMARK    1  A    between atoms: C2_2  and  C3_3 
REMARK    2  A    between atoms: C3_3  and  N1_4 
REMARK       I    between atoms: N1_4  and  C4_6 
REMARK       I    between atoms: C4_6  and  N3_10 
REMARK    3  A    between atoms: N3_10  and  C5_12 
REMARK    4  A    between atoms: C5_12  and  C6_13 
REMARK    5  A    between atoms: C6_13  and  O1_14 
REMARK    6  A    between atoms: O1_14  and  C7_15 
ROOT
HETATM    1  N1  UNL     1      -3.537  -1.868   0.340  1.00  0.00    -0.223 N 
ATOM      2  H1  UNL     1      -3.761  -2.852   0.488  1.00  0.00     0.178 HD
HETATM    3  C4  UNL     1      -2.281  -1.375   0.774  1.00  0.00     0.667 C 
HETATM    4  N2  UNL     1      -2.119  -0.935   1.984  1.00  0.00    -0.235 N 
ATOM      5  H21 UNL     1      -1.215  -0.580   2.296  1.00  0.00     0.174 HD
ATOM      6  H22 UNL     1      -2.914  -0.947   2.622  1.00  0.00     0.174 HD
HETATM    7  N3  UNL     1      -1.166  -1.358  -0.121  1.00  0.00    -0.225 N 
ATOM      8  H3  UNL     1      -0.559  -2.173  -0.211  1.00  0.00     0.177 HD
ENDROOT
BRANCH   7   9
HETATM    9  C5  UNL     1      -0.917  -0.166  -0.894  1.00  0.00     0.164 C 
BRANCH   9  10
HETATM   10  C6  UNL     1      -0.478   1.018  -0.083  1.00  0.00     0.188 C 
BRANCH  10  11
HETATM   11  O1  UNL     1       0.659   0.871   0.606  1.00  0.00    -0.384 OA
BRANCH  11  12
HETATM   12  C7  UNL     1       1.834   0.623   0.003  1.00  0.00     0.121 C 
HETATM   13  C8  UNL     1       2.441  -0.632   0.568  1.00  0.00     0.032 C 
HETATM   14  C9  UNL     1       3.574  -1.028  -0.359  1.00  0.00     0.002 C 
HETATM   15  C10 UNL     1       4.646  -0.012  -0.227  1.00  0.00     0.000 C 
HETATM   16  C11 UNL     1       4.195   1.406  -0.357  1.00  0.00     0.002 C 
HETATM   17  C12 UNL     1       2.868   1.719   0.204  1.00  0.00     0.032 C 
ENDBRANCH  11  12
ENDBRANCH  10  11
ENDBRANCH   9  10
ENDBRANCH   7   9
BRANCH   1  18
HETATM   18  C3  UNL     1      -4.503  -1.023  -0.302  1.00  0.00     0.164 C 
BRANCH  18  19
HETATM   19  C2  UNL     1      -5.033  -0.026   0.673  1.00  0.00    -0.017 C 
HETATM   20  C1  UNL     1      -4.881   1.265   0.441  1.00  0.00     0.008 C 
ENDBRANCH  18  19
ENDBRANCH   1  18
TORSDOF 6
