REMARK  8 active torsions:
REMARK  status: ('A' for Active; 'I' for Inactive)
REMARK    1  A    between atoms: C2_2  and  C3_3 
REMARK    2  A    between atoms: C3_3  and  C4_4 
REMARK    3  A    between atoms: C4_4  and  C5_5 
REMARK    4  A    between atoms: C5_5  and  N1_6 
REMARK    5  A    between atoms: C5_5  and  C6_10 
REMARK    6  A    between atoms: C6_10  and  N3_14 
REMARK    7  A    between atoms: N3_14  and  C7_16 
REMARK    8  A    between atoms: C7_16  and  C8_17 
ROOT
HETATM    1  C6  UNL     1      -0.071  -0.029  -1.043  1.00  0.00     0.102 C 
HETATM    2  N2  UNL     1       0.836  -0.137  -1.978  1.00  0.00    -0.387 N 
ATOM      3  H21 UNL     1       1.520   0.611  -2.094  1.00  0.00     0.157 HD
ATOM      4  H22 UNL     1       0.859  -0.960  -2.581  1.00  0.00     0.157 HD
ENDROOT
BRANCH   1   5
HETATM    5  C5  UNL     1      -1.060  -1.110  -0.876  1.00  0.00     0.250 C 
BRANCH   5   6
HETATM    6  C4  UNL     1      -2.425  -0.815  -1.390  1.00  0.00     0.044 C 
BRANCH   6   7
HETATM    7  C3  UNL     1      -3.123   0.347  -0.763  1.00  0.00     0.028 C 
BRANCH   7   8
HETATM    8  C2  UNL     1      -3.276   0.067   0.686  1.00  0.00    -0.037 C 
HETATM    9  C1  UNL     1      -4.484   0.029   1.228  1.00  0.00     0.007 C 
ENDBRANCH   7   8
ENDBRANCH   6   7
ENDBRANCH   5   6
BRANCH   5  10
HETATM   10  N1  UNL     1      -0.482  -2.285  -1.544  1.00  0.00    -0.068 N 
ATOM     11  H13 UNL     1      -1.094  -3.097  -1.469  1.00  0.00     0.275 HD
ATOM     12  H12 UNL     1      -0.486  -2.179  -2.558  1.00  0.00     0.275 HD
ATOM     13  H11 UNL     1       0.454  -2.487  -1.192  1.00  0.00     0.275 HD
ENDBRANCH   5  10
ENDBRANCH   1   5
BRANCH   1  14
HETATM   14  N3  UNL     1      -0.103   1.109  -0.209  1.00  0.00    -0.374 N 
ATOM     15  H3  UNL     1      -0.518   1.976  -0.550  1.00  0.00     0.161 HD
BRANCH  14  16
HETATM   16  C7  UNL     1       0.458   1.052   1.147  1.00  0.00     0.159 C 
BRANCH  16  17
HETATM   17  C8  UNL     1       1.893   0.708   0.998  1.00  0.00    -0.041 A 
HETATM   18  C9  UNL     1       2.835   1.709   0.864  1.00  0.00     0.009 A 
HETATM   19  C10 UNL     1       4.176   1.410   0.724  1.00  0.00     0.001 A 
HETATM   20  C11 UNL     1       4.556   0.087   0.719  1.00  0.00     0.000 A 
HETATM   21  C12 UNL     1       3.657  -0.952   0.848  1.00  0.00     0.001 A 
HETATM   22  C13 UNL     1       2.321  -0.616   0.987  1.00  0.00     0.009 A 
ENDBRANCH  16  17
ENDBRANCH  14  16
ENDBRANCH   1  14
TORSDOF 8
