REMARK  5 active torsions:
REMARK  status: ('A' for Active; 'I' for Inactive)
REMARK    1  A    between atoms: C3_5  and  C4_6 
REMARK    2  A    between atoms: N3_9  and  N4_10 
REMARK    3  A    between atoms: C6_15  and  C7_16 
REMARK    4  A    between atoms: C9_21  and  N7_22 
REMARK    5  A    between atoms: N7_22  and  N8_24 
ROOT
HETATM    1  C1  UNL     1       0.645   1.375   1.885  1.00  0.00     0.069 C 
HETATM    2  C2  UNL     1       1.140   0.647   0.663  1.00  0.00     0.024 A 
HETATM    3  N1  UNL     1       2.495   0.684   0.421  1.00  0.00    -0.340 N 
ATOM      4  H1  UNL     1       3.094   1.213   1.054  1.00  0.00     0.167 HD
HETATM    5  C3  UNL     1       3.050   0.052  -0.613  1.00  0.00     0.194 A 
HETATM    6  N3  UNL     1       2.291  -0.654  -1.469  1.00  0.00    -0.230 N 
HETATM    7  C5  UNL     1       0.991  -0.690  -1.240  1.00  0.00     0.140 A 
HETATM    8  S1  UNL     1       0.071  -1.544  -2.278  1.00  0.00    -0.057 SA
HETATM    9  C6  UNL     1       0.344  -0.054  -0.179  1.00  0.00     0.072 A 
ENDROOT
BRANCH   9  10
HETATM   10  C7  UNL     1      -1.101  -0.116  -0.042  1.00  0.00     0.151 A 
HETATM   11  N5  UNL     1      -1.824  -1.030  -0.794  1.00  0.00    -0.268 N 
HETATM   12  N6  UNL     1      -3.094  -0.968  -0.518  1.00  0.00    -0.125 N 
ATOM     13  H5  UNL     1      -1.413  -1.668  -1.475  1.00  0.00     0.189 HD
HETATM   14  C8  UNL     1      -4.182  -1.745  -1.077  1.00  0.00     0.197 C 
HETATM   15  C9  UNL     1      -3.229  -0.024   0.407  1.00  0.00     0.714 A 
HETATM   16  N9  UNL     1      -2.009   0.484   0.685  1.00  0.00    -0.172 N 
ATOM     17  H9  UNL     1      -1.823   1.225   1.361  1.00  0.00     0.186 HD
BRANCH  15  18
HETATM   18  N7  UNL     1      -4.310   0.400   0.997  1.00  0.00    -0.137 N 
ATOM     19  H7  UNL     1      -5.204  -0.022   0.746  1.00  0.00     0.205 HD
BRANCH  18  20
HETATM   20  N8  UNL     1      -4.291   1.408   1.958  1.00  0.00    -0.331 N 
ATOM     21  H82 UNL     1      -3.389   1.819   2.197  1.00  0.00     0.177 HD
ATOM     22  H81 UNL     1      -5.138   1.740   2.420  1.00  0.00     0.177 HD
ENDBRANCH  18  20
ENDBRANCH  15  18
ENDBRANCH   9  10
BRANCH   6  23
HETATM   23  N4  UNL     1       2.892  -1.309  -2.548  1.00  0.00    -0.336 N 
ATOM     24  H42 UNL     1       3.896  -1.281  -2.725  1.00  0.00     0.177 HD
ATOM     25  H41 UNL     1       2.316  -1.845  -3.197  1.00  0.00     0.177 HD
ENDBRANCH   6  23
BRANCH   5  26
HETATM   26  C4  UNL     1       4.509   0.106  -0.854  1.00  0.00     0.300 C 
HETATM   27  N2  UNL     1       5.314   0.847   0.043  1.00  0.00    -0.054 NA
HETATM   28  O1  UNL     1       5.003  -0.498  -1.835  1.00  0.00    -0.268 OA
ENDBRANCH   5  26
TORSDOF 5
