REMARK  7 active torsions:
REMARK  status: ('A' for Active; 'I' for Inactive)
REMARK    1  A    between atoms: C2_2  and  C3_3 
REMARK    2  A    between atoms: C6_6  and  N1_7 
REMARK    3  A    between atoms: C7_8  and  S1_9 
REMARK    4  A    between atoms: S1_9  and  C8_10 
REMARK    5  A    between atoms: C8_10  and  C9_11 
REMARK    6  A    between atoms: C9_11  and  N2_12 
REMARK    7  A    between atoms: C10_20  and  N5_21 
REMARK       I    between atoms: N5_21  and  C11_23 
REMARK       I    between atoms: C11_23  and  N6_25 
ROOT
HETATM    1  N1  UNL     1       1.034   1.148  -0.152  1.00  0.00    -0.154 N 
HETATM    2  C7  UNL     1       2.223   0.751  -0.686  1.00  0.00     0.177 A 
HETATM    3  N3  UNL     1       3.057   1.805  -0.721  1.00  0.00    -0.265 N 
ATOM      4  H3  UNL     1       4.014   1.794  -1.073  1.00  0.00     0.189 HD
HETATM    5  N4  UNL     1       2.436   2.850  -0.228  1.00  0.00    -0.130 N 
ATOM      6  H4  UNL     1       2.821   3.789  -0.128  1.00  0.00     0.205 HD
HETATM    7  C10 UNL     1       1.200   2.455   0.121  1.00  0.00     0.705 A 
ENDROOT
BRANCH   1   8
HETATM    8  C6  UNL     1      -0.072   0.274   0.027  1.00  0.00     0.110 C 
HETATM    9  C5  UNL     1      -0.800   0.022  -1.255  1.00  0.00     0.027 C 
HETATM   10  C4  UNL     1      -1.865  -1.053  -1.067  1.00  0.00     0.006 C 
HETATM   11  C3  UNL     1      -2.798  -0.640   0.035  1.00  0.00    -0.015 C 
HETATM   12  C13 UNL     1      -1.996  -0.487   1.304  1.00  0.00     0.006 C 
HETATM   13  C12 UNL     1      -1.050   0.702   1.080  1.00  0.00     0.027 C 
BRANCH  11  14
HETATM   14  C2  UNL     1      -3.887  -1.666   0.212  1.00  0.00     0.000 C 
HETATM   15  C1  UNL     1      -4.680  -1.816  -1.045  1.00  0.00     0.005 C 
ENDBRANCH  11  14
ENDBRANCH   1   8
BRANCH   2  16
HETATM   16  S1  UNL     1       2.674  -0.877  -1.265  1.00  0.00    -0.090 SA
BRANCH  16  17
HETATM   17  C8  UNL     1       3.377  -1.779   0.142  1.00  0.00     0.109 C 
BRANCH  17  18
HETATM   18  C9  UNL     1       3.793  -3.178  -0.243  1.00  0.00     0.240 C 
BRANCH  18  19
HETATM   19  N2  UNL     1       4.338  -3.811   0.944  1.00  0.00    -0.079 N 
ATOM     20  H23 UNL     1       5.093  -3.274   1.371  1.00  0.00     0.274 HD
ATOM     21  H22 UNL     1       3.696  -3.790   1.737  1.00  0.00     0.274 HD
ATOM     22  H21 UNL     1       4.619  -4.756   0.684  1.00  0.00     0.274 HD
ENDBRANCH  18  19
ENDBRANCH  17  18
ENDBRANCH  16  17
ENDBRANCH   2  16
BRANCH   7  23
HETATM   23  N5  UNL     1       0.279   3.181   0.641  1.00  0.00    -0.138 N 
HETATM   24  C11 UNL     1       0.494   4.542   0.910  1.00  0.00     0.362 C 
HETATM   25  O1  UNL     1       0.378   4.907   2.125  1.00  0.00    -0.244 OA
HETATM   26  N6  UNL     1       0.824   5.511  -0.064  1.00  0.00    -0.173 N 
HETATM   27  F1  UNL     1       1.015   6.799   0.275  1.00  0.00    -0.097 F 
ATOM     28  H6  UNL     1       0.919   5.230  -1.040  1.00  0.00     0.204 HD
ATOM     29  H5  UNL     1      -0.624   2.763   0.863  1.00  0.00     0.189 HD
ENDBRANCH   7  23
TORSDOF 7
