REMARK  6 active torsions:
REMARK  status: ('A' for Active; 'I' for Inactive)
REMARK    1  A    between atoms: O1_2  and  C2_3 
REMARK    2  A    between atoms: C2_3  and  C4_5 
REMARK    3  A    between atoms: C4_5  and  C5_6 
REMARK    4  A    between atoms: C7_10  and  O2_11 
REMARK    5  A    between atoms: O2_11  and  C8_12 
REMARK    6  A    between atoms: C9_15  and  N3_16 
ROOT
HETATM    1  O2  UNL     1       2.305   1.312  -0.950  1.00  0.00    -0.274 OA
ENDROOT
BRANCH   1   2
HETATM    2  C7  UNL     1       0.950   1.087  -1.123  1.00  0.00     0.166 A 
HETATM    3  C6  UNL     1       0.462   0.433  -2.258  1.00  0.00     0.145 A 
HETATM    4  N1  UNL     1      -0.874   0.368  -2.134  1.00  0.00    -0.351 N 
HETATM    5  C5  UNL     1      -1.260   0.943  -0.988  1.00  0.00     0.085 A 
ATOM      6  H1  UNL     1      -1.503  -0.058  -2.814  1.00  0.00     0.166 HD
HETATM    7  N5  UNL     1      -0.117   1.375  -0.391  1.00  0.00    -0.325 N 
ATOM      8  H5  UNL     1      -0.085   1.859   0.506  1.00  0.00     0.169 HD
BRANCH   5   9
HETATM    9  C4  UNL     1      -2.645   1.087  -0.465  1.00  0.00     0.108 C 
BRANCH   9  10
HETATM   10  C2  UNL     1      -3.029  -0.104   0.388  1.00  0.00     0.123 C 
HETATM   11  C3  UNL     1      -3.119  -1.368  -0.453  1.00  0.00     0.040 C 
BRANCH  10  12
HETATM   12  O1  UNL     1      -4.349   0.137   0.829  1.00  0.00    -0.391 OA
HETATM   13  C1  UNL     1      -4.313   0.030   2.220  1.00  0.00     0.202 C 
ENDBRANCH  10  12
ENDBRANCH   9  10
ENDBRANCH   5   9
ENDBRANCH   1   2
BRANCH   1  14
HETATM   14  C8  UNL     1       3.188   0.522  -0.280  1.00  0.00     0.183 A 
HETATM   15  N2  UNL     1       3.750  -0.527  -0.916  1.00  0.00    -0.169 N 
HETATM   16  C9  UNL     1       4.626  -1.352  -0.330  1.00  0.00     0.677 A 
ATOM     17  H2  UNL     1       3.495  -0.699  -1.889  1.00  0.00     0.186 HD
HETATM   18  N4  UNL     1       4.948  -1.102   0.959  1.00  0.00    -0.201 N 
HETATM   19  C10 UNL     1       4.426  -0.077   1.647  1.00  0.00     0.129 A 
ATOM     20  H4  UNL     1       5.614  -1.717   1.426  1.00  0.00     0.183 HD
HETATM   21  C11 UNL     1       3.521   0.770   1.031  1.00  0.00     0.078 A 
HETATM   22 BR1  UNL     1       2.794   2.225   2.019  1.00  0.00    -0.045 Br
BRANCH  16  23
HETATM   23  N3  UNL     1       5.173  -2.360  -0.924  1.00  0.00    -0.234 N 
ATOM     24  H32 UNL     1       4.930  -2.549  -1.897  1.00  0.00     0.174 HD
ATOM     25  H31 UNL     1       5.841  -2.989  -0.477  1.00  0.00     0.174 HD
ENDBRANCH  16  23
ENDBRANCH   1  14
TORSDOF 6
