REMARK  6 active torsions:
REMARK  status: ('A' for Active; 'I' for Inactive)
REMARK    1  A    between atoms: C2_2  and  C3_3 
REMARK    2  A    between atoms: C2_2  and  C11_14 
REMARK    3  A    between atoms: C4_4  and  C5_5 
REMARK    4  A    between atoms: N1_6  and  N2_8 
REMARK    5  A    between atoms: C11_14  and  N3_16 
REMARK    6  A    between atoms: N3_16  and  O1_18 
ROOT
HETATM    1  C3  UNL     1       2.479  -1.656  -0.756  1.00  0.00     0.014 C 
HETATM    2  C4  UNL     1       1.251  -1.806  -0.461  1.00  0.00     0.019 C 
ENDROOT
BRANCH   2   3
HETATM    3  C5  UNL     1       0.116  -0.994  -0.180  1.00  0.00     0.107 C 
HETATM    4  N1  UNL     1      -1.034  -1.626   0.092  1.00  0.00    -0.314 N 
ATOM      5  H1  UNL     1      -1.057  -2.646   0.089  1.00  0.00     0.185 HD
BRANCH   4   6
HETATM    6  N2  UNL     1      -2.183  -0.926   0.375  1.00  0.00    -0.328 N 
HETATM    7  C6  UNL     1      -2.626   0.157  -0.488  1.00  0.00     0.142 C 
HETATM    8  C7  UNL     1      -3.628   1.041   0.167  1.00  0.00     0.021 C 
HETATM    9  C8  UNL     1      -3.368   1.288   1.631  1.00  0.00     0.003 C 
HETATM   10  C9  UNL     1      -3.027   0.041   2.394  1.00  0.00     0.021 C 
HETATM   11  C10 UNL     1      -3.035  -1.192   1.523  1.00  0.00     0.142 C 
ENDBRANCH   4   6
ENDBRANCH   2   3
BRANCH   1  12
HETATM   12  C2  UNL     1       3.484  -0.705  -0.991  1.00  0.00    -0.018 C 
HETATM   13  C1  UNL     1       4.723  -1.268  -1.294  1.00  0.00     0.026 C 
BRANCH  12  14
HETATM   14  C11 UNL     1       3.539   0.705  -0.993  1.00  0.00     0.054 C 
HETATM   15  C12 UNL     1       2.652   1.608  -0.772  1.00  0.00     0.046 C 
BRANCH  14  16
HETATM   16  N3  UNL     1       4.887   1.294  -1.314  1.00  0.00    -0.269 N 
ATOM     17  H3  UNL     1       5.720   1.176  -0.737  1.00  0.00     0.194 HD
BRANCH  16  18
HETATM   18  O1  UNL     1       4.849   2.009  -2.482  1.00  0.00    -0.289 OA
ATOM     19  H1  UNL     1       5.700   2.381  -2.685  1.00  0.00     0.244 HD
ENDBRANCH  16  18
ENDBRANCH  14  16
ENDBRANCH  12  14
ENDBRANCH   1  12
TORSDOF 6
