REMARK  5 active torsions:
REMARK  status: ('A' for Active; 'I' for Inactive)
REMARK    1  A    between atoms: O1_1  and  N1_3 
REMARK    2  A    between atoms: C1_5  and  C2_6 
REMARK    3  A    between atoms: C2_6  and  C3_7 
REMARK    4  A    between atoms: C3_7  and  N2_8 
REMARK    5  A    between atoms: N2_8  and  C4_10 
ROOT
HETATM    1  C4  UNL     1      -0.279  -0.462   0.045  1.00  0.00     0.030 C 
HETATM    2  C5  UNL     1      -1.430  -1.342   0.585  1.00  0.00     0.035 C 
HETATM    3  C6  UNL     1      -2.689  -0.607   0.815  1.00  0.00    -0.012 C 
HETATM    4  C7  UNL     1      -3.187   0.009  -0.454  1.00  0.00     0.009 C 
HETATM    5  C8  UNL     1      -2.074   0.885  -1.008  1.00  0.00    -0.012 C 
HETATM    6  C9  UNL     1      -1.884   2.013  -0.021  1.00  0.00     0.009 C 
HETATM    7  C10 UNL     1      -1.382   1.384   1.263  1.00  0.00    -0.012 C 
HETATM    8  C11 UNL     1      -2.401   0.466   1.852  1.00  0.00     0.009 C 
HETATM    9  C12 UNL     1      -0.073   0.680   0.962  1.00  0.00     0.035 C 
HETATM   10  C13 UNL     1      -0.833   0.108  -1.262  1.00  0.00     0.035 C 
ENDROOT
BRANCH   1  11
HETATM   11  N2  UNL     1       0.756  -1.375  -0.176  1.00  0.00    -0.393 N 
ATOM     12  H2  UNL     1       0.537  -2.359  -0.017  1.00  0.00     0.159 HD
BRANCH  11  13
HETATM   13  C3  UNL     1       2.036  -1.089  -0.584  1.00  0.00     0.061 C 
BRANCH  13  14
HETATM   14  C2  UNL     1       2.898  -0.434   0.447  1.00  0.00     0.090 C 
BRANCH  14  15
HETATM   15  C1  UNL     1       4.280  -0.180  -0.077  1.00  0.00     0.091 C 
HETATM   16  N1  UNL     1       4.780  -0.931  -0.993  1.00  0.00    -0.284 N 
ATOM     17  H1  UNL     1       4.243  -1.710  -1.374  1.00  0.00     0.192 HD
BRANCH  16  18
HETATM   18  O1  UNL     1       6.045  -0.670  -1.449  1.00  0.00    -0.291 OA
ATOM     19  H1  UNL     1       6.414  -1.225  -2.126  1.00  0.00     0.244 HD
ENDBRANCH  16  18
ENDBRANCH  14  15
ENDBRANCH  13  14
ENDBRANCH  11  13
ENDBRANCH   1  11
TORSDOF 5
