REMARK  6 active torsions:
REMARK  status: ('A' for Active; 'I' for Inactive)
REMARK    1  A    between atoms: C2_2  and  C3_3 
REMARK    2  A    between atoms: C2_2  and  C4_6 
REMARK    3  A    between atoms: C3_3  and  O1_4 
REMARK    4  A    between atoms: C4_6  and  O2_7 
REMARK    5  A    between atoms: C4_6  and  C5_9 
REMARK    6  A    between atoms: C6_10  and  C7_11 
ROOT
HETATM    1  C4  UNL     1       1.882  -0.929  -0.544  1.00  0.00     0.146 C 
ENDROOT
BRANCH   1   2
HETATM    2  C2  UNL     1       2.824   0.250  -0.598  1.00  0.00     0.038 C 
HETATM    3  C1  UNL     1       4.119  -0.095  -1.278  1.00  0.00     0.015 C 
BRANCH   2   4
HETATM    4  C3  UNL     1       3.098   0.746   0.822  1.00  0.00     0.171 C 
BRANCH   4   5
HETATM    5  O1  UNL     1       3.737  -0.196   1.592  1.00  0.00    -0.400 OA
ATOM      6  H1  UNL     1       3.907   0.112   2.474  1.00  0.00     0.209 HD
ENDBRANCH   4   5
ENDBRANCH   2   4
ENDBRANCH   1   2
BRANCH   1   7
HETATM    7  O2  UNL     1       1.542  -1.413  -1.783  1.00  0.00    -0.391 OA
ATOM      8  H2  UNL     1       0.949  -2.155  -1.749  1.00  0.00     0.210 HD
ENDBRANCH   1   7
BRANCH   1   9
HETATM    9  C5  UNL     1       0.708  -0.528   0.270  1.00  0.00     0.001 C 
HETATM   10  C6  UNL     1      -0.478  -0.250  -0.250  1.00  0.00    -0.023 C 
BRANCH  10  11
HETATM   11  C7  UNL     1      -1.587   0.142   0.650  1.00  0.00     0.017 C 
HETATM   12  C8  UNL     1      -2.706  -0.857   0.672  1.00  0.00     0.010 C 
HETATM   13  C9  UNL     1      -3.828  -0.531  -0.274  1.00  0.00     0.011 C 
HETATM   14  C10 UNL     1      -4.756   0.492   0.382  1.00  0.00     0.074 C 
HETATM   15  S1  UNL     1      -3.670   1.821   1.001  1.00  0.00    -0.168 SA
HETATM   16  C11 UNL     1      -2.031   1.523   0.242  1.00  0.00     0.082 C 
ENDBRANCH  10  11
ENDBRANCH   1   9
TORSDOF 6
