REMARK  3 active torsions:
REMARK  status: ('A' for Active; 'I' for Inactive)
REMARK    1  A    between atoms: C12_12  and  C14_14 
REMARK    2  A    between atoms: C14_14  and  O2_16 
REMARK    3  A    between atoms: C17_19  and  O3_20 
ROOT
HETATM    1  C1  UNL     1      -4.817   1.232  -0.445  1.00  0.00     0.017 C 
HETATM    2  C2  UNL     1      -3.589   0.748  -0.422  1.00  0.00    -0.060 C 
HETATM    3  C3  UNL     1      -3.175  -0.538  -1.056  1.00  0.00     0.045 C 
HETATM    4  C4  UNL     1      -1.818  -0.833  -0.384  1.00  0.00    -0.034 C 
HETATM    5  C5  UNL     1      -2.116  -1.548   0.853  1.00  0.00     0.016 C 
HETATM    6  C6  UNL     1      -0.886  -1.598  -1.249  1.00  0.00     0.010 C 
HETATM    7  C7  UNL     1       0.289  -0.860  -1.747  1.00  0.00     0.007 C 
HETATM    8  C8  UNL     1       0.968   0.087  -0.852  1.00  0.00     0.008 C 
HETATM    9  C9  UNL     1       0.045   0.789   0.155  1.00  0.00    -0.002 C 
HETATM   10  C10 UNL     1       0.451   0.310   1.483  1.00  0.00     0.007 C 
HETATM   11  C11 UNL     1       1.516  -0.776   1.270  1.00  0.00     0.020 C 
HETATM   12  C12 UNL     1       2.099  -0.447  -0.056  1.00  0.00     0.048 C 
HETATM   13  C13 UNL     1       2.814  -1.599  -0.700  1.00  0.00     0.026 C 
HETATM   14  C16 UNL     1      -1.315   0.570  -0.311  1.00  0.00     0.031 C 
HETATM   15  C17 UNL     1      -2.428   1.405   0.239  1.00  0.00     0.151 C 
ENDROOT
BRANCH  12  16
HETATM   16  C14 UNL     1       3.111   0.648   0.160  1.00  0.00     0.267 C 
HETATM   17  O1  UNL     1       2.935   1.799  -0.299  1.00  0.00    -0.264 OA
BRANCH  16  18
HETATM   18  O2  UNL     1       4.275   0.420   0.877  1.00  0.00    -0.326 OA
HETATM   19  C15 UNL     1       5.244   1.430   1.097  1.00  0.00     0.213 C 
ENDBRANCH  16  18
ENDBRANCH  12  16
BRANCH  15  20
HETATM   20  O3  UNL     1      -2.506   1.479   1.589  1.00  0.00    -0.391 OA
ATOM     21  H3  UNL     1      -1.765   1.898   2.011  1.00  0.00     0.210 HD
ENDBRANCH  15  20
TORSDOF 3
