REMARK  3 active torsions:
REMARK  status: ('A' for Active; 'I' for Inactive)
REMARK    1  A    between atoms: C7_8  and  C8_9 
REMARK    2  A    between atoms: C8_9  and  O2_10 
REMARK    3  A    between atoms: C11_14  and  C12_15 
ROOT
HETATM    1  C1  UNL     1       4.827  -1.924   0.603  1.00  0.00     0.010 C 
HETATM    2  C2  UNL     1       3.658  -1.190   0.059  1.00  0.00    -0.009 C 
HETATM    3  C3  UNL     1       2.911  -0.315   1.074  1.00  0.00     0.073 C 
HETATM    4  C4  UNL     1       1.664  -0.709   0.279  1.00  0.00     0.166 C 
HETATM    5  C5  UNL     1       2.363  -1.994  -0.025  1.00  0.00     0.073 C 
HETATM    6  O1  UNL     1       1.514   0.169  -0.784  1.00  0.00    -0.347 OA
HETATM    7  C6  UNL     1       0.693   1.154  -0.201  1.00  0.00     0.160 C 
HETATM    8  C7  UNL     1       0.184   2.091  -1.204  1.00  0.00     0.041 C 
HETATM    9  C9  UNL     1      -1.198   1.907  -1.692  1.00  0.00     0.010 C 
HETATM   10  C10 UNL     1      -2.116   1.165  -0.789  1.00  0.00     0.009 C 
HETATM   11  C11 UNL     1      -1.391  -0.095  -0.354  1.00  0.00     0.024 C 
HETATM   12  C16 UNL     1      -0.288   0.337   0.549  1.00  0.00     0.159 C 
HETATM   13  O3  UNL     1       0.501  -0.756   0.981  1.00  0.00    -0.347 OA
ENDROOT
BRANCH   8  14
HETATM   14  C8  UNL     1       0.361   3.518  -0.666  1.00  0.00     0.171 C 
BRANCH  14  15
HETATM   15  O2  UNL     1      -0.359   3.607   0.502  1.00  0.00    -0.400 OA
ATOM     16  H2  UNL     1      -0.249   4.490   0.835  1.00  0.00     0.209 HD
ENDBRANCH  14  15
ENDBRANCH   8  14
BRANCH  11  17
HETATM   17  C12 UNL     1      -2.380  -1.026   0.274  1.00  0.00    -0.045 C 
HETATM   18  C13 UNL     1      -1.720  -2.307   0.732  1.00  0.00     0.015 C 
HETATM   19  C14 UNL     1      -3.380  -1.426  -0.811  1.00  0.00     0.015 C 
HETATM   20  C15 UNL     1      -3.170  -0.407   1.393  1.00  0.00     0.015 C 
ENDBRANCH  11  17
TORSDOF 3
