REMARK  3 active torsions:
REMARK  status: ('A' for Active; 'I' for Inactive)
REMARK    1  A    between atoms: O1_2  and  C2_3 
REMARK    2  A    between atoms: C2_3  and  C3_5 
REMARK    3  A    between atoms: C7_9  and  O3_11 
ROOT
HETATM    1  C3  UNL     1      -0.290   0.040  -0.428  1.00  0.00     0.068 C 
HETATM    2  C4  UNL     1       0.353   0.150  -1.738  1.00  0.00     0.004 C 
HETATM    3  C5  UNL     1      -0.100  -0.654  -2.873  1.00  0.00     0.011 C 
HETATM    4  C6  UNL     1       1.869  -0.007  -1.522  1.00  0.00     0.044 C 
HETATM    5  C7  UNL     1       2.000   0.881  -0.309  1.00  0.00     0.063 C 
HETATM    6  C8  UNL     1       3.302   0.772   0.391  1.00  0.00     0.046 C 
HETATM    7  C9  UNL     1       0.837   0.355   0.541  1.00  0.00     0.005 C 
HETATM    8  C10 UNL     1       0.508   1.458   1.505  1.00  0.00     0.020 C 
HETATM    9  C11 UNL     1       1.361  -0.841   1.270  1.00  0.00     0.013 C 
HETATM   10  C12 UNL     1       0.321  -1.658   1.960  1.00  0.00     0.002 C 
HETATM   11  C13 UNL     1      -1.052  -1.418   1.441  1.00  0.00     0.010 C 
HETATM   12  C14 UNL     1      -1.058  -1.175  -0.080  1.00  0.00    -0.030 C 
HETATM   13  C15 UNL     1      -0.616  -2.469  -0.676  1.00  0.00     0.016 C 
HETATM   14  C16 UNL     1      -2.544  -1.007  -0.429  1.00  0.00     0.016 C 
ENDROOT
BRANCH   1  15
HETATM   15  C2  UNL     1      -1.263   1.193  -0.284  1.00  0.00     0.269 C 
HETATM   16  O2  UNL     1      -1.382   2.051  -1.227  1.00  0.00    -0.264 OA
BRANCH  15  17
HETATM   17  O1  UNL     1      -2.055   1.407   0.803  1.00  0.00    -0.326 OA
HETATM   18  C1  UNL     1      -2.954   2.472   0.937  1.00  0.00     0.213 C 
ENDBRANCH  15  17
ENDBRANCH   1  15
BRANCH   5  19
HETATM   19  O3  UNL     1       1.774   2.189  -0.664  1.00  0.00    -0.389 OA
ATOM     20  H3  UNL     1       1.856   2.748   0.100  1.00  0.00     0.210 HD
ENDBRANCH   5  19
TORSDOF 3
