REMARK  3 active torsions:
REMARK  status: ('A' for Active; 'I' for Inactive)
REMARK    1  A    between atoms: C2_2  and  S1_3 
REMARK    2  A    between atoms: S1_3  and  C3_4 
REMARK    3  A    between atoms: C5_8  and  N2_9 
ROOT
HETATM    1  N2  UNL     1      -0.611  -1.166  -0.054  1.00  0.00    -0.373 N 
ATOM      2  H2  UNL     1      -0.538  -2.180   0.026  1.00  0.00     0.161 HD
HETATM    3  C6  UNL     1      -1.794  -0.705   0.032  1.00  0.00     0.007 C 
HETATM    4  C7  UNL     1      -2.887  -1.662   0.231  1.00  0.00     0.054 C 
HETATM    5  C8  UNL     1      -4.215  -1.058   0.528  1.00  0.00     0.012 C 
HETATM    6  C9  UNL     1      -4.356   0.383   0.212  1.00  0.00     0.081 C 
HETATM    7  C10 UNL     1      -3.355   0.952  -0.730  1.00  0.00     0.264 C 
HETATM    8  F1  UNL     1      -3.375   0.337  -1.959  1.00  0.00    -0.204 F 
HETATM    9  F2  UNL     1      -3.619   2.301  -0.875  1.00  0.00    -0.204 F 
HETATM   10  C11 UNL     1      -1.978   0.765  -0.077  1.00  0.00     0.210 C 
HETATM   11  C12 UNL     1      -2.060   1.366   1.267  1.00  0.00     0.076 C 
HETATM   12  N3  UNL     1      -2.115   1.823   2.334  1.00  0.00    -0.196 NA
ENDROOT
BRANCH   1  13
HETATM   13  C5  UNL     1       0.595  -0.506  -0.240  1.00  0.00     0.200 C 
HETATM   14  C4  UNL     1       1.626  -1.496  -0.792  1.00  0.00     0.168 C 
HETATM   15  N1  UNL     1       2.852  -0.821  -0.423  1.00  0.00    -0.367 N 
HETATM   16  C3  UNL     1       2.662  -0.025   0.572  1.00  0.00     0.137 C 
ATOM     17  H1  UNL     1       3.749  -0.958  -0.890  1.00  0.00     0.161 HD
HETATM   18  N4  UNL     1       1.278  -0.091   0.969  1.00  0.00    -0.348 N 
ATOM     19  H4  UNL     1       0.875   0.107   1.885  1.00  0.00     0.163 HD
BRANCH  16  20
HETATM   20  S1  UNL     1       3.950   0.972   1.296  1.00  0.00    -0.095 SA
BRANCH  20  21
HETATM   21  C2  UNL     1       5.515   0.709   0.443  1.00  0.00     0.078 C 
HETATM   22  C1  UNL     1       5.362   1.250  -0.967  1.00  0.00     0.016 C 
ENDBRANCH  20  21
ENDBRANCH  16  20
ENDBRANCH   1  13
TORSDOF 3
