REMARK  2 active torsions:
REMARK  status: ('A' for Active; 'I' for Inactive)
REMARK       I    between atoms: C1_2  and  N2_4 
REMARK    1  A    between atoms: C3_6  and  C4_7 
REMARK    2  A    between atoms: C8_15  and  C9_16 
ROOT
HETATM    1  N1  UNL     1      -0.709   3.158  -0.498  1.00  0.00    -0.040 NA
HETATM    2  C1  UNL     1      -1.375   1.990  -0.047  1.00  0.00     0.335 C 
HETATM    3  O1  UNL     1      -2.598   1.929  -0.223  1.00  0.00    -0.251 OA
HETATM    4  N2  UNL     1      -0.580   0.966   0.579  1.00  0.00    -0.296 N 
HETATM    5  C2  UNL     1       0.801   1.072   0.768  1.00  0.00     0.090 C 
HETATM    6  C3  UNL     1       1.437  -0.138   1.275  1.00  0.00     0.128 C 
HETATM    7  S2  UNL     1       0.167  -1.405   1.005  1.00  0.00    -0.122 SA
HETATM    8  C8  UNL     1      -1.223  -0.236   1.049  1.00  0.00     0.196 C 
ENDROOT
BRANCH   6   9
HETATM    9  C4  UNL     1       2.724  -0.496   0.625  1.00  0.00     0.007 A 
HETATM   10  C5  UNL     1       3.054  -0.700  -0.681  1.00  0.00     0.062 A 
HETATM   11  C6  UNL     1       4.323  -1.017  -0.963  1.00  0.00     0.163 A 
HETATM   12  F1  UNL     1       4.803  -1.254  -2.251  1.00  0.00    -0.202 F 
HETATM   13  C7  UNL     1       5.196  -1.113   0.092  1.00  0.00     0.196 A 
HETATM   14  F2  UNL     1       6.539  -1.423   0.052  1.00  0.00    -0.195 F 
HETATM   15  S1  UNL     1       4.201  -0.753   1.434  1.00  0.00    -0.060 SA
ENDBRANCH   6   9
BRANCH   8  16
HETATM   16  C9  UNL     1      -2.322  -0.698   0.148  1.00  0.00     0.016 A 
HETATM   17  C10 UNL     1      -3.585  -1.091   0.497  1.00  0.00     0.018 A 
HETATM   18  C11 UNL     1      -4.410  -1.477  -0.481  1.00  0.00     0.008 A 
HETATM   19  C12 UNL     1      -3.923  -1.448  -1.762  1.00  0.00     0.050 A 
HETATM   20  S3  UNL     1      -2.330  -0.882  -1.547  1.00  0.00    -0.103 SA
ENDBRANCH   8  16
TORSDOF 2
