REMARK  4 active torsions:
REMARK  status: ('A' for Active; 'I' for Inactive)
REMARK    1  A    between atoms: O1_1  and  N1_3 
REMARK    2  A    between atoms: C1_5  and  C2_6 
REMARK    3  A    between atoms: C1_5  and  N3_13 
REMARK    4  A    between atoms: C7_16  and  C8_17 
ROOT
HETATM    1  N3  UNL     1      -1.284  -0.895   0.176  1.00  0.00    -0.365 N 
HETATM    2  C5  UNL     1      -0.672   0.239   0.829  1.00  0.00     0.125 C 
HETATM    3  C6  UNL     1       0.242   0.907  -0.128  1.00  0.00     0.029 C 
HETATM    4  C7  UNL     1       1.281   0.017  -0.734  1.00  0.00     0.021 C 
HETATM    5  C14 UNL     1       1.033  -1.448  -0.505  1.00  0.00     0.029 C 
HETATM    6  C15 UNL     1      -0.386  -1.842  -0.421  1.00  0.00     0.125 C 
ENDROOT
BRANCH   1   7
HETATM    7  C1  UNL     1      -2.694  -1.111   0.104  1.00  0.00     0.142 C 
HETATM    8  N1  UNL     1      -3.091  -2.317  -0.035  1.00  0.00    -0.252 N 
ATOM      9  H1  UNL     1      -2.398  -3.064  -0.090  1.00  0.00     0.196 HD
BRANCH   8  10
HETATM   10  O1  UNL     1      -4.420  -2.635  -0.112  1.00  0.00    -0.288 OA
ATOM     11  H1  UNL     1      -4.715  -3.532  -0.215  1.00  0.00     0.244 HD
ENDBRANCH   8  10
BRANCH   7  12
HETATM   12  C2  UNL     1      -3.647   0.009   0.191  1.00  0.00     0.070 A 
HETATM   13  C3  UNL     1      -4.889   0.063   0.766  1.00  0.00     0.113 A 
HETATM   14  N2  UNL     1      -5.539   1.177   0.705  1.00  0.00    -0.336 N 
HETATM   15  C4  UNL     1      -5.006   2.227   0.101  1.00  0.00     0.231 A 
ATOM     16  H2  UNL     1      -6.466   1.248   1.124  1.00  0.00     0.168 HD
HETATM   17  F1  UNL     1      -5.549   3.486  -0.060  1.00  0.00    -0.178 F 
HETATM   18  S1  UNL     1      -3.499   1.618  -0.416  1.00  0.00    -0.036 SA
ENDBRANCH   7  12
ENDBRANCH   1   7
BRANCH   4  19
HETATM   19  C8  UNL     1       2.657   0.352  -0.296  1.00  0.00    -0.054 A 
HETATM   20  C9  UNL     1       3.587   0.768  -1.220  1.00  0.00     0.009 A 
HETATM   21  C10 UNL     1       4.886   1.099  -0.894  1.00  0.00     0.024 A 
HETATM   22  C11 UNL     1       5.264   1.005   0.428  1.00  0.00     0.034 A 
HETATM   23 CL1  UNL     1       6.915   1.412   0.923  1.00  0.00    -0.084 Cl
HETATM   24  C12 UNL     1       4.329   0.587   1.358  1.00  0.00     0.024 A 
HETATM   25  C13 UNL     1       3.051   0.264   1.022  1.00  0.00     0.009 A 
ENDBRANCH   4  19
TORSDOF 4
