REMARK  6 active torsions:
REMARK  status: ('A' for Active; 'I' for Inactive)
REMARK    1  A    between atoms: C1_4  and  N2_6 
REMARK    2  A    between atoms: N3_8  and  C2_10 
REMARK    3  A    between atoms: C3_11  and  C4_12 
REMARK    4  A    between atoms: N4_20  and  C11_21 
REMARK    5  A    between atoms: C11_21  and  O1_22 
REMARK    6  A    between atoms: C11_21  and  N5_24 
ROOT
HETATM    1  C2  UNL     1       1.573  -0.361  -0.146  1.00  0.00     0.140 A 
HETATM    2  C3  UNL     1       2.458   0.464  -0.764  1.00  0.00     0.029 A 
HETATM    3  C5  UNL     1       1.740   1.578  -1.125  1.00  0.00     0.004 A 
HETATM    4  C6  UNL     1       2.130   2.746  -1.766  1.00  0.00     0.014 A 
HETATM    5  C7  UNL     1       1.210   3.729  -1.990  1.00  0.00     0.001 A 
HETATM    6  C8  UNL     1      -0.086   3.554  -1.582  1.00  0.00     0.002 A 
HETATM    7  C9  UNL     1      -0.489   2.400  -0.946  1.00  0.00     0.031 A 
HETATM    8  C10 UNL     1       0.420   1.397  -0.711  1.00  0.00     0.055 A 
HETATM    9  N4  UNL     1       0.296   0.204  -0.105  1.00  0.00    -0.261 N 
ENDROOT
BRANCH   1  10
HETATM   10  N3  UNL     1       1.954  -1.641   0.359  1.00  0.00    -0.282 N 
HETATM   11  N2  UNL     1       3.124  -1.992   0.564  1.00  0.00    -0.274 N 
ATOM     12  H2  UNL     1       3.862  -1.319   0.357  1.00  0.00     0.189 HD
ATOM     13  H3  UNL     1       1.213  -2.311   0.565  1.00  0.00     0.188 HD
BRANCH  11  14
HETATM   14  C1  UNL     1       3.515  -3.262   1.066  1.00  0.00     0.187 C 
HETATM   15  N1  UNL     1       3.155  -4.322   0.398  1.00  0.00    -0.375 N 
ATOM     16  H12 UNL     1       3.436  -5.234   0.758  1.00  0.00     0.158 HD
ATOM     17  H11 UNL     1       2.609  -4.225  -0.458  1.00  0.00     0.158 HD
HETATM   18 CL1  UNL     1       4.454  -3.429   2.538  1.00  0.00    -0.044 Cl
ENDBRANCH  11  14
ENDBRANCH   1  10
BRANCH   2  19
HETATM   19  C4  UNL     1       3.904   0.265  -1.014  1.00  0.00     0.265 C 
HETATM   20  F1  UNL     1       4.161  -0.634  -2.029  1.00  0.00    -0.250 F 
ENDBRANCH   2  19
BRANCH   9  21
HETATM   21  C11 UNL     1      -0.764  -0.450   0.524  1.00  0.00     0.228 C 
BRANCH  21  22
HETATM   22  O1  UNL     1      -0.329  -1.514   1.232  1.00  0.00    -0.332 OA
ATOM     23  H1  UNL     1      -1.051  -1.959   1.660  1.00  0.00     0.221 HD
ENDBRANCH  21  22
BRANCH  21  24
HETATM   24  N5  UNL     1      -2.125  -0.358   0.650  1.00  0.00    -0.347 N 
HETATM   25  C12 UNL     1      -2.891  -1.338   1.539  1.00  0.00     0.126 C 
HETATM   26  C13 UNL     1      -4.050  -1.690   0.649  1.00  0.00     0.021 C 
HETATM   27  C14 UNL     1      -4.477  -0.323   0.171  1.00  0.00     0.021 C 
HETATM   28  C15 UNL     1      -3.164   0.433   0.093  1.00  0.00     0.126 C 
ENDBRANCH  21  24
ENDBRANCH   9  21
TORSDOF 6
