REMARK  6 active torsions:
REMARK  status: ('A' for Active; 'I' for Inactive)
REMARK    1  A    between atoms: N1_1  and  N2_4 
REMARK    2  A    between atoms: N2_4  and  C1_5 
REMARK    3  A    between atoms: N2_4  and  C3_10 
REMARK    4  A    between atoms: C1_5  and  C2_6 
REMARK    5  A    between atoms: C3_10  and  O1_11 
REMARK    6  A    between atoms: C3_10  and  C4_13 
ROOT
HETATM    1  C4  UNL     1      -1.165  -0.611   0.386  1.00  0.00     0.018 A 
HETATM    2  C5  UNL     1      -0.759  -0.166   1.611  1.00  0.00     0.017 A 
HETATM    3  C6  UNL     1       0.599  -0.116   1.968  1.00  0.00     0.021 A 
HETATM    4  C7  UNL     1       1.572  -0.515   1.094  1.00  0.00     0.022 A 
HETATM    5  C8  UNL     1       1.198  -0.967  -0.144  1.00  0.00     0.023 A 
HETATM    6  C9  UNL     1      -0.136  -1.008  -0.472  1.00  0.00     0.036 A 
HETATM    7  S1  UNL     1       2.450  -1.503  -1.327  1.00  0.00    -0.088 SA
HETATM    8  C10 UNL     1       3.850  -0.416  -1.153  1.00  0.00     0.022 A 
HETATM    9  C11 UNL     1       4.582  -0.010  -2.245  1.00  0.00     0.020 A 
HETATM   10  C12 UNL     1       5.676   0.839  -2.118  1.00  0.00     0.001 A 
HETATM   11  C13 UNL     1       6.044   1.290  -0.862  1.00  0.00     0.001 A 
HETATM   12  C14 UNL     1       5.291   0.869   0.235  1.00  0.00     0.020 A 
HETATM   13  C15 UNL     1       4.215   0.033   0.099  1.00  0.00     0.022 A 
HETATM   14  S2  UNL     1       3.319  -0.445   1.568  1.00  0.00    -0.088 SA
ENDROOT
BRANCH   1  15
HETATM   15  C3  UNL     1      -2.551  -0.678  -0.020  1.00  0.00     0.167 C 
BRANCH  15  16
HETATM   16  N2  UNL     1      -3.705  -0.333   0.684  1.00  0.00    -0.269 N 
BRANCH  16  17
HETATM   17  N1  UNL     1      -3.770   0.163   1.960  1.00  0.00    -0.341 N 
ATOM     18  H12 UNL     1      -4.614   0.415   2.475  1.00  0.00     0.177 HD
ATOM     19  H11 UNL     1      -2.876   0.286   2.435  1.00  0.00     0.177 HD
ENDBRANCH  16  17
BRANCH  16  20
HETATM   20  C1  UNL     1      -4.994  -0.511  -0.001  1.00  0.00     0.268 C 
BRANCH  20  21
HETATM   21  C2  UNL     1      -5.422   0.698  -0.763  1.00  0.00     0.405 C 
HETATM   22  F1  UNL     1      -5.554   1.767   0.097  1.00  0.00    -0.169 F 
HETATM   23  F2  UNL     1      -4.562   1.046  -1.772  1.00  0.00    -0.169 F 
HETATM   24  F3  UNL     1      -6.651   0.438  -1.312  1.00  0.00    -0.169 F 
ENDBRANCH  20  21
ENDBRANCH  16  20
ENDBRANCH  15  16
BRANCH  15  25
HETATM   25  O1  UNL     1      -2.708  -1.137  -1.239  1.00  0.00    -0.344 OA
ATOM     26  H1  UNL     1      -1.922  -1.372  -1.718  1.00  0.00     0.219 HD
ENDBRANCH  15  25
ENDBRANCH   1  15
TORSDOF 6
