REMARK  4 active torsions:
REMARK  status: ('A' for Active; 'I' for Inactive)
REMARK    1  A    between atoms: N1_6  and  C4_7 
REMARK    2  A    between atoms: C4_7  and  N2_9 
REMARK    3  A    between atoms: N2_9  and  C5_11 
REMARK    4  A    between atoms: C8_14  and  C9_15 
ROOT
HETATM    1  C5  UNL     1       1.177  -0.114   0.150  1.00  0.00     0.034 A 
HETATM    2  C6  UNL     1       1.946   0.758  -0.564  1.00  0.00     0.030 A 
HETATM    3  C7  UNL     1       3.354   0.733  -0.529  1.00  0.00     0.016 A 
HETATM    4  C8  UNL     1       4.003  -0.172   0.225  1.00  0.00    -0.001 A 
HETATM    5  C11 UNL     1       3.261  -1.067   0.958  1.00  0.00     0.016 A 
HETATM    6  C12 UNL     1       1.882  -1.048   0.929  1.00  0.00     0.030 A 
ENDROOT
BRANCH   1   7
HETATM    7  N2  UNL     1      -0.226  -0.172   0.227  1.00  0.00    -0.333 N 
ATOM      8  H2  UNL     1      -0.609  -1.084   0.474  1.00  0.00     0.168 HD
BRANCH   7   9
HETATM    9  C4  UNL     1      -1.172   0.831   0.016  1.00  0.00     0.174 C 
HETATM   10  S1  UNL     1      -0.762   2.352  -0.332  1.00  0.00    -0.041 SA
BRANCH   9  11
HETATM   11  N1  UNL     1      -2.571   0.552   0.131  1.00  0.00    -0.358 N 
HETATM   12  C3  UNL     1      -3.003  -0.798   0.473  1.00  0.00     0.131 C 
HETATM   13  C2  UNL     1      -4.492  -0.895   0.473  1.00  0.00     0.099 C 
HETATM   14  C1  UNL     1      -5.130  -0.313  -0.761  1.00  0.00     0.246 C 
HETATM   15  F1  UNL     1      -5.068  -1.225  -1.797  1.00  0.00    -0.206 F 
HETATM   16  F2  UNL     1      -6.466  -0.100  -0.477  1.00  0.00    -0.206 F 
HETATM   17  C14 UNL     1      -4.530   1.018  -1.146  1.00  0.00     0.099 C 
HETATM   18  C13 UNL     1      -3.593   1.541  -0.073  1.00  0.00     0.131 C 
ENDBRANCH   9  11
ENDBRANCH   7   9
ENDBRANCH   1   7
BRANCH   4  19
HETATM   19  C9  UNL     1       5.464  -0.193   0.258  1.00  0.00     0.100 A 
HETATM   20  N3  UNL     1       6.348   0.575  -0.368  1.00  0.00    -0.293 N 
HETATM   21  N4  UNL     1       7.582   0.389  -0.202  1.00  0.00    -0.304 N 
ATOM     22  H3  UNL     1       6.026   1.319  -0.986  1.00  0.00     0.187 HD
HETATM   23  C10 UNL     1       8.011  -0.579   0.603  1.00  0.00     0.158 A 
ATOM     24  H4  UNL     1       8.255   0.983  -0.687  1.00  0.00     0.186 HD
HETATM   25  S2  UNL     1       6.524  -1.239   1.133  1.00  0.00    -0.064 SA
ENDBRANCH   4  19
TORSDOF 4
