REMARK  3 active torsions:
REMARK  status: ('A' for Active; 'I' for Inactive)
REMARK    1  A    between atoms: C5_6  and  N1_7 
REMARK    2  A    between atoms: N1_7  and  C6_9 
REMARK    3  A    between atoms: C8_13  and  N3_14 
ROOT
HETATM    1  C6  UNL     1       1.569  -1.614   0.309  1.00  0.00     0.151 A 
HETATM    2  N2  UNL     1       0.498  -2.392   0.456  1.00  0.00    -0.344 N 
ATOM      3  H2  UNL     1       0.547  -3.239   1.022  1.00  0.00     0.167 HD
HETATM    4  C7  UNL     1      -0.609  -2.055  -0.132  1.00  0.00     0.127 A 
HETATM    5  C8  UNL     1      -0.623  -0.905  -0.882  1.00  0.00     0.095 A 
HETATM    6  S2  UNL     1       0.997  -0.360  -0.696  1.00  0.00    -0.035 SA
ENDROOT
BRANCH   1   7
HETATM    7  N1  UNL     1       2.767  -1.791   0.823  1.00  0.00    -0.336 N 
ATOM      8  H1  UNL     1       2.984  -2.593   1.415  1.00  0.00     0.168 HD
BRANCH   7   9
HETATM    9  C5  UNL     1       3.753  -0.798   0.508  1.00  0.00     0.036 A 
HETATM   10  C4  UNL     1       3.525   0.544   0.764  1.00  0.00     0.029 A 
HETATM   11  C3  UNL     1       4.533   1.430   0.427  1.00  0.00     0.005 A 
HETATM   12  C2  UNL     1       5.713   1.030  -0.136  1.00  0.00     0.042 A 
HETATM   13  C1  UNL     1       5.907  -0.323  -0.379  1.00  0.00     0.118 A 
HETATM   14  F1  UNL     1       7.070  -0.772  -0.940  1.00  0.00    -0.206 F 
HETATM   15  C13 UNL     1       4.929  -1.244  -0.059  1.00  0.00     0.071 A 
ENDBRANCH   7   9
ENDBRANCH   1   7
BRANCH   5  16
HETATM   16  N3  UNL     1      -1.669  -0.321  -1.628  1.00  0.00    -0.329 N 
HETATM   17  C9  UNL     1      -2.650   0.285  -1.117  1.00  0.00     0.158 C 
HETATM   18  S1  UNL     1      -3.951   1.003  -2.162  1.00  0.00    -0.093 SA
HETATM   19  N4  UNL     1      -2.803   0.464   0.281  1.00  0.00    -0.270 N 
HETATM   20  C10 UNL     1      -5.350   1.382  -1.088  1.00  0.00     0.084 C 
HETATM   21  C11 UNL     1      -4.920   1.574   0.350  1.00  0.00     0.032 C 
HETATM   22  C12 UNL     1      -4.133   0.378   0.842  1.00  0.00     0.146 C 
HETATM   23 CL1  UNL     1      -1.412   0.794   1.299  1.00  0.00     0.015 Cl
ATOM     24  H3  UNL     1      -1.629  -0.394  -2.645  1.00  0.00     0.168 HD
ENDBRANCH   5  16
TORSDOF 3
