REMARK  2 active torsions:
REMARK  status: ('A' for Active; 'I' for Inactive)
REMARK    1  A    between atoms: C1_2  and  C2_3 
REMARK       I    between atoms: C1_2  and  N1_7 
REMARK    2  A    between atoms: C2_3  and  S1_5 
ROOT
HETATM    1  O1  UNL     1      -2.798  -1.020  -1.029  1.00  0.00    -0.269 OA
HETATM    2  C1  UNL     1      -1.679  -1.342  -0.614  1.00  0.00     0.272 C 
HETATM    3  N1  UNL     1      -0.768  -0.417  -0.098  1.00  0.00    -0.220 N 
HETATM    4  N2  UNL     1       0.407  -0.895   0.235  1.00  0.00    -0.290 N 
ATOM      5  H2  UNL     1       0.359  -1.785   0.732  1.00  0.00     0.188 HD
HETATM    6  C3  UNL     1       1.680  -0.442   0.051  1.00  0.00     0.065 A 
HETATM    7  C4  UNL     1       2.637  -1.417   0.329  1.00  0.00     0.032 A 
HETATM    8  C5  UNL     1       3.979  -1.159   0.199  1.00  0.00     0.002 A 
HETATM    9  C6  UNL     1       4.431   0.070  -0.210  1.00  0.00     0.002 A 
HETATM   10  C7  UNL     1       3.495   1.073  -0.497  1.00  0.00     0.021 A 
HETATM   11  C8  UNL     1       2.156   0.794  -0.360  1.00  0.00     0.033 A 
HETATM   12  S2  UNL     1       1.078   2.106  -0.730  1.00  0.00    -0.086 SA
HETATM   13  C9  UNL     1      -0.599   2.056  -0.236  1.00  0.00     0.034 A 
HETATM   14  C10 UNL     1      -1.206   3.271  -0.083  1.00  0.00     0.021 A 
HETATM   15  C11 UNL     1      -2.499   3.315   0.357  1.00  0.00     0.002 A 
HETATM   16  C12 UNL     1      -3.148   2.114   0.635  1.00  0.00     0.002 A 
HETATM   17  C13 UNL     1      -2.534   0.899   0.481  1.00  0.00     0.033 A 
HETATM   18  C14 UNL     1      -1.207   0.827   0.026  1.00  0.00     0.077 A 
ENDROOT
BRANCH   2  19
HETATM   19  C2  UNL     1      -1.363  -2.807  -0.696  1.00  0.00     0.253 C 
HETATM   20 CL1  UNL     1      -2.501  -3.669  -1.740  1.00  0.00    -0.102 Cl
BRANCH  19  21
HETATM   21  S1  UNL     1      -1.525  -3.587   0.957  1.00  0.00    -0.029 SA
HETATM   22 CL2  UNL     1      -3.555  -3.501   1.500  1.00  0.00    -0.042 Cl
ENDBRANCH  19  21
ENDBRANCH   2  19
TORSDOF 2
