REMARK  3 active torsions:
REMARK  status: ('A' for Active; 'I' for Inactive)
REMARK    1  A    between atoms: C3_5  and  C4_6 
REMARK    2  A    between atoms: C5_10  and  N3_11 
REMARK    3  A    between atoms: N3_11  and  C6_13 
ROOT
HETATM    1  C1  UNL     1      -0.992  -2.604   0.840  1.00  0.00     0.047 C 
HETATM    2  C2  UNL     1      -1.328  -1.374   0.518  1.00  0.00     0.068 A 
HETATM    3  N1  UNL     1      -2.587  -0.844   0.501  1.00  0.00    -0.340 N 
ATOM      4  H1  UNL     1      -3.447  -1.338   0.739  1.00  0.00     0.167 HD
HETATM    5  C3  UNL     1      -2.497   0.432   0.119  1.00  0.00     0.114 A 
HETATM    6  N2  UNL     1      -1.188   0.694  -0.100  1.00  0.00    -0.327 N 
ATOM      7  H2  UNL     1      -0.818   1.595  -0.403  1.00  0.00     0.169 HD
HETATM    8  C5  UNL     1      -0.450  -0.391   0.136  1.00  0.00     0.129 A 
ENDROOT
BRANCH   8   9
HETATM    9  N3  UNL     1       0.798  -0.490   0.029  1.00  0.00    -0.370 N 
ATOM     10  H3  UNL     1       1.192  -1.404   0.252  1.00  0.00     0.161 HD
BRANCH   9  11
HETATM   11  C6  UNL     1       1.727   0.505  -0.362  1.00  0.00     0.075 C 
HETATM   12  C7  UNL     1       2.682  -0.132  -1.381  1.00  0.00     0.031 C 
HETATM   13  C8  UNL     1       2.598   1.020   0.760  1.00  0.00     0.031 C 
ENDBRANCH   9  11
ENDBRANCH   8   9
BRANCH   5  14
HETATM   14  C4  UNL     1      -3.524   1.270  -0.013  1.00  0.00     0.104 C 
HETATM   15 BR1  UNL     1      -3.277   3.079  -0.567  1.00  0.00    -0.060 Br
ENDBRANCH   5  14
TORSDOF 3
