REMARK  2 active torsions:
REMARK  status: ('A' for Active; 'I' for Inactive)
REMARK    1  A    between atoms: C4_9  and  N3_10 
REMARK    2  A    between atoms: N3_10  and  S1_12 
ROOT
HETATM    1  C1  UNL     1      -1.613   1.672   0.990  1.00  0.00     0.055 C 
HETATM    2  C2  UNL     1      -1.508   0.323   0.358  1.00  0.00     0.019 A 
HETATM    3  C3  UNL     1      -2.547  -0.578   0.230  1.00  0.00     0.104 A 
HETATM    4 BR1  UNL     1      -4.356  -0.329   0.819  1.00  0.00    -0.029 Br
HETATM    5  N1  UNL     1      -2.023  -1.656  -0.393  1.00  0.00    -0.291 N 
ATOM      6  H1  UNL     1      -2.537  -2.502  -0.638  1.00  0.00     0.187 HD
HETATM    7  N2  UNL     1      -0.724  -1.442  -0.640  1.00  0.00    -0.284 N 
ATOM      8  H2  UNL     1      -0.098  -2.102  -1.101  1.00  0.00     0.188 HD
HETATM    9  C4  UNL     1      -0.371  -0.231  -0.191  1.00  0.00     0.136 A 
ENDROOT
BRANCH   9  10
HETATM   10  N3  UNL     1       0.769   0.374  -0.222  1.00  0.00    -0.290 N 
ATOM     11  H3  UNL     1       0.844   1.310   0.176  1.00  0.00     0.178 HD
BRANCH  10  12
HETATM   12  S1  UNL     1       2.186  -0.365  -0.927  1.00  0.00     0.111 S 
HETATM   13  C5  UNL     1       3.644   0.523  -0.354  1.00  0.00     0.152 C 
HETATM   14  O1  UNL     1       2.307  -1.831  -0.596  1.00  0.00    -0.236 OA
ENDBRANCH  10  12
ENDBRANCH   9  10
TORSDOF 2
