REMARK  1 active torsions:
REMARK  status: ('A' for Active; 'I' for Inactive)
REMARK    1  A    between atoms: N3_8  and  S1_10 
ROOT
HETATM    1  C1  UNL     1      -3.062   0.890   0.557  1.00  0.00     0.071 C 
HETATM    2  C2  UNL     1      -1.951  -0.078   0.387  1.00  0.00     0.043 A 
HETATM    3  N1  UNL     1      -1.966  -1.387   0.685  1.00  0.00    -0.302 N 
ATOM      4  H1  UNL     1      -2.761  -1.893   1.075  1.00  0.00     0.186 HD
HETATM    5  N2  UNL     1      -0.795  -1.917   0.396  1.00  0.00    -0.284 N 
ATOM      6  H2  UNL     1      -0.543  -2.897   0.528  1.00  0.00     0.188 HD
HETATM    7  C3  UNL     1       0.023  -0.959  -0.103  1.00  0.00     0.149 A 
HETATM    8  N3  UNL     1       1.199  -1.203  -0.457  1.00  0.00    -0.268 N 
ATOM      9  H3  UNL     1       1.475  -2.177  -0.334  1.00  0.00     0.180 HD
HETATM   10  C5  UNL     1      -0.692   0.207  -0.115  1.00  0.00     0.080 A 
HETATM   11 BR1  UNL     1      -0.170   1.948  -0.686  1.00  0.00    -0.045 Br
ENDROOT
BRANCH   8  12
HETATM   12  S1  UNL     1       2.411  -0.226  -1.098  1.00  0.00     0.228 S 
HETATM   13  C4  UNL     1       3.056   0.982   0.026  1.00  0.00     0.186 C 
HETATM   14  O1  UNL     1       3.599  -1.124  -1.465  1.00  0.00    -0.206 OA
HETATM   15  O2  UNL     1       2.034   0.427  -2.419  1.00  0.00    -0.206 OA
ENDBRANCH   8  12
TORSDOF 1
