REMARK  13 active torsions:
REMARK  status: ('A' for Active; 'I' for Inactive)
REMARK    1  A    between atoms: C2_2  and  O1_3 
REMARK    2  A    between atoms: O1_3  and  C3_4 
REMARK    3  A    between atoms: C3_4  and  C4_6 
REMARK    4  A    between atoms: N1_10  and  C8_11 
REMARK    5  A    between atoms: C8_11  and  O3_12 
REMARK    6  A    between atoms: C8_11  and  C9_14 
REMARK    7  A    between atoms: C9_14  and  C10_15 
REMARK    8  A    between atoms: C10_15  and  C11_16 
REMARK    9  A    between atoms: C11_16  and  O4_17 
REMARK   10  A    between atoms: N2_19  and  O5_21 
REMARK   11  A    between atoms: N3_26  and  C15_27 
REMARK   12  A    between atoms: C15_27  and  C16_28 
REMARK   13  A    between atoms: C16_28  and  C18_30 
ROOT
HETATM    1  C9  UNL     1      -0.128  -1.482  -0.164  1.00  0.00     0.033 C 
HETATM    2  C12 UNL     1      -0.517  -1.656  -1.632  1.00  0.00     0.020 C 
HETATM    3  C13 UNL     1      -1.824  -2.304  -1.871  1.00  0.00     0.021 C 
HETATM    4  C14 UNL     1      -2.912  -1.287  -2.089  1.00  0.00     0.117 C 
HETATM    5  N3  UNL     1      -3.279  -0.548  -0.921  1.00  0.00    -0.412 N 
HETATM    6  C19 UNL     1      -2.580  -0.924   0.266  1.00  0.00     0.118 C 
HETATM    7  C20 UNL     1      -1.167  -0.529   0.383  1.00  0.00     0.038 C 
ENDROOT
BRANCH   1   8
HETATM    8  C8  UNL     1       1.159  -0.758  -0.189  1.00  0.00     0.123 C 
BRANCH   8   9
HETATM    9  N1  UNL     1       2.041  -0.451   0.870  1.00  0.00    -0.351 N 
HETATM   10  C4  UNL     1       3.265   0.322   0.715  1.00  0.00     0.185 C 
HETATM   11  C5  UNL     1       3.953   0.330   2.040  1.00  0.00     0.037 C 
HETATM   12  C6  UNL     1       3.007  -0.183   3.057  1.00  0.00     0.022 C 
HETATM   13  C7  UNL     1       1.937  -0.837   2.232  1.00  0.00     0.126 C 
BRANCH  10  14
HETATM   14  C3  UNL     1       2.978   1.711   0.270  1.00  0.00     0.281 C 
HETATM   15  O2  UNL     1       1.798   2.091   0.213  1.00  0.00    -0.263 OA
BRANCH  14  16
HETATM   16  O1  UNL     1       3.978   2.588  -0.080  1.00  0.00    -0.320 OA
BRANCH  16  17
HETATM   17  C2  UNL     1       3.699   3.932  -0.503  1.00  0.00     0.174 C 
HETATM   18  C1  UNL     1       5.035   4.568  -0.826  1.00  0.00     0.034 C 
ENDBRANCH  16  17
ENDBRANCH  14  16
ENDBRANCH  10  14
ENDBRANCH   8   9
BRANCH   8  19
HETATM   19  O3  UNL     1       1.599  -0.308  -1.334  1.00  0.00    -0.349 OA
ATOM     20  H3  UNL     1       1.006  -0.515  -2.047  1.00  0.00     0.219 HD
ENDBRANCH   8  19
ENDBRANCH   1   8
BRANCH   1  21
HETATM   21  C10 UNL     1      -0.146  -2.742   0.592  1.00  0.00     0.104 C 
BRANCH  21  22
HETATM   22  C11 UNL     1       0.774  -3.790   0.182  1.00  0.00     0.136 C 
HETATM   23  N2  UNL     1       1.623  -3.739  -0.772  1.00  0.00    -0.251 N 
ATOM     24  H2  UNL     1       1.672  -2.875  -1.313  1.00  0.00     0.196 HD
BRANCH  22  25
HETATM   25  O4  UNL     1       0.749  -4.997   0.892  1.00  0.00    -0.348 OA
ATOM     26  H4  UNL     1       1.350  -5.682   0.624  1.00  0.00     0.219 HD
ENDBRANCH  22  25
BRANCH  23  27
HETATM   27  O5  UNL     1       2.466  -4.747  -1.122  1.00  0.00    -0.288 OA
ATOM     28  H5  UNL     1       3.097  -4.709  -1.831  1.00  0.00     0.244 HD
ENDBRANCH  23  27
ENDBRANCH  21  22
ENDBRANCH   1  21
BRANCH   5  29
HETATM   29  C15 UNL     1      -3.476   0.842  -1.135  1.00  0.00     0.130 C 
BRANCH  29  30
HETATM   30  C16 UNL     1      -3.898   1.646   0.048  1.00  0.00     0.107 C 
HETATM   31  C17 UNL     1      -5.194   1.226   0.653  1.00  0.00     0.021 C 
BRANCH  30  32
HETATM   32  C18 UNL     1      -4.016   3.109  -0.356  1.00  0.00     0.392 C 
HETATM   33  F1  UNL     1      -4.396   3.896   0.703  1.00  0.00    -0.171 F 
HETATM   34  F2  UNL     1      -2.864   3.574  -0.927  1.00  0.00    -0.171 F 
HETATM   35  F3  UNL     1      -5.027   3.261  -1.316  1.00  0.00    -0.171 F 
ENDBRANCH  30  32
ENDBRANCH  29  30
ENDBRANCH   5  29
TORSDOF 13
