REMARK  12 active torsions:
REMARK  status: ('A' for Active; 'I' for Inactive)
REMARK    1  A    between atoms: C2_2  and  C3_3 
REMARK    2  A    between atoms: C3_3  and  O1_4 
REMARK    3  A    between atoms: C3_3  and  C4_6 
REMARK    4  A    between atoms: C6_8  and  C7_9 
REMARK    5  A    between atoms: C7_9  and  N1_10 
REMARK    6  A    between atoms: C11_14  and  N2_15 
REMARK    7  A    between atoms: C11_14  and  C12_21 
REMARK    8  A    between atoms: N2_15  and  N3_17 
REMARK    9  A    between atoms: N3_17  and  N4_18 
REMARK   10  A    between atoms: C15_26  and  O4_27 
REMARK   11  A    between atoms: C15_26  and  C16_29 
REMARK   12  A    between atoms: C16_29  and  C17_31 
ROOT
HETATM    1  C4  UNL     1      -2.146   0.518  -0.033  1.00  0.00    -0.025 C 
HETATM    2  C5  UNL     1      -0.906   0.152  -0.460  1.00  0.00    -0.010 C 
HETATM    3  C6  UNL     1      -0.216  -1.069  -0.053  1.00  0.00     0.040 C 
HETATM    4  C14 UNL     1      -1.044  -2.168   0.496  1.00  0.00     0.057 C 
HETATM    5  C15 UNL     1      -2.463  -1.857   0.736  1.00  0.00     0.135 C 
HETATM    6  C18 UNL     1      -2.774  -0.368   0.886  1.00  0.00     0.059 C 
HETATM    7  C19 UNL     1      -4.248  -0.178   1.074  1.00  0.00     0.018 C 
ENDROOT
BRANCH   3   8
HETATM    8  C7  UNL     1       0.962  -0.745   0.892  1.00  0.00     0.281 C 
BRANCH   8   9
HETATM    9  N1  UNL     1       1.886   0.120   0.181  1.00  0.00     0.092 N 
HETATM   10  C8  UNL     1       2.549  -0.539  -0.897  1.00  0.00     0.280 C 
HETATM   11  C9  UNL     1       4.038  -0.293  -0.746  1.00  0.00     0.053 C 
HETATM   12  C10 UNL     1       4.670  -1.454  -0.034  1.00  0.00     0.015 C 
HETATM   13  C11 UNL     1       4.032   0.944   0.128  1.00  0.00     0.178 C 
HETATM   14  C13 UNL     1       2.882   0.642   1.064  1.00  0.00     0.317 C 
BRANCH  13  15
HETATM   15  N2  UNL     1       3.656   2.113  -0.647  1.00  0.00    -0.230 N 
ATOM     16  H2  UNL     1       2.687   2.430  -0.630  1.00  0.00     0.198 HD
BRANCH  15  17
HETATM   17  N3  UNL     1       4.482   2.736  -1.329  1.00  0.00    -0.247 NA
BRANCH  17  18
HETATM   18  N4  UNL     1       5.254   3.041  -2.225  1.00  0.00    -0.261 N 
ATOM     19  H42 UNL     1       5.101   2.197  -2.777  1.00  0.00     0.193 HD
ATOM     20  H41 UNL     1       5.934   3.554  -2.786  1.00  0.00     0.193 HD
ENDBRANCH  17  18
ENDBRANCH  15  17
ENDBRANCH  13  15
BRANCH  13  21
HETATM   21  C12 UNL     1       5.296   1.166   0.850  1.00  0.00     0.207 C 
HETATM   22  O2  UNL     1       5.829   0.342   1.610  1.00  0.00    -0.646 OA
HETATM   23  O3  UNL     1       5.942   2.402   0.664  1.00  0.00    -0.646 OA
ENDBRANCH  13  21
ENDBRANCH   8   9
ENDBRANCH   3   8
BRANCH   1  24
HETATM   24  C3  UNL     1      -2.644   1.750  -0.547  1.00  0.00     0.049 C 
BRANCH  24  25
HETATM   25  C2  UNL     1      -3.869   2.503  -0.355  1.00  0.00     0.060 C 
HETATM   26  C1  UNL     1      -3.657   3.582   0.732  1.00  0.00     0.012 C 
ENDBRANCH  24  25
BRANCH  24  27
HETATM   27  O1  UNL     1      -1.839   2.399  -1.400  1.00  0.00    -0.364 OA
ATOM     28  H1  UNL     1      -1.037   1.906  -1.526  1.00  0.00     0.217 HD
ENDBRANCH  24  27
ENDBRANCH   1  24
BRANCH   5  29
HETATM   29  O4  UNL     1      -2.761  -2.336   2.053  1.00  0.00    -0.381 OA
ATOM     30  H4  UNL     1      -3.677  -2.135   2.208  1.00  0.00     0.211 HD
ENDBRANCH   5  29
BRANCH   5  31
HETATM   31  C16 UNL     1      -3.439  -2.532  -0.155  1.00  0.00     0.267 C 
HETATM   32  O5  UNL     1      -4.352  -3.215   0.368  1.00  0.00    -0.285 OA
BRANCH  31  33
HETATM   33  C17 UNL     1      -3.475  -2.506  -1.620  1.00  0.00     0.454 C 
HETATM   34  F1  UNL     1      -3.728  -1.308  -2.214  1.00  0.00    -0.163 F 
HETATM   35  F2  UNL     1      -2.325  -3.109  -2.171  1.00  0.00    -0.163 F 
HETATM   36  F3  UNL     1      -4.496  -3.346  -2.094  1.00  0.00    -0.163 F 
ENDBRANCH  31  33
ENDBRANCH   5  31
TORSDOF 12
