REMARK  4 active torsions:
REMARK  status: ('A' for Active; 'I' for Inactive)
REMARK    1  A    between atoms: N2_9  and  C8_10 
REMARK    2  A    between atoms: C10_12  and  O1_13 
REMARK    3  A    between atoms: C11_15  and  C12_16 
REMARK    4  A    between atoms: C12_16  and  O2_17 
ROOT
HETATM    1  N1  UNL     1       1.710   1.638  -1.841  1.00  0.00    -0.100 NA
HETATM    2  C1  UNL     1       2.400   1.031  -0.760  1.00  0.00     0.074 A 
HETATM    3  C2  UNL     1       3.660   1.522  -0.495  1.00  0.00     0.029 A 
HETATM    4  C3  UNL     1       4.386   0.976   0.541  1.00  0.00     0.003 A 
HETATM    5  C4  UNL     1       3.809  -0.048   1.272  1.00  0.00     0.014 A 
HETATM    6  C5  UNL     1       2.546  -0.524   0.990  1.00  0.00    -0.006 A 
HETATM    7  C6  UNL     1       1.792  -1.518   1.577  1.00  0.00     0.031 A 
HETATM    8  C7  UNL     1       0.610  -1.550   0.871  1.00  0.00     0.092 A 
HETATM    9  N2  UNL     1       0.607  -0.625  -0.117  1.00  0.00    -0.350 N 
HETATM   10  C14 UNL     1       1.789   0.014  -0.058  1.00  0.00     0.069 A 
ENDROOT
BRANCH   9  11
HETATM   11  C8  UNL     1      -0.445  -0.352  -1.067  1.00  0.00     0.092 C 
HETATM   12  C9  UNL     1      -1.389  -1.528  -1.159  1.00  0.00     0.057 C 
HETATM   13  C10 UNL     1      -2.631  -1.176  -0.375  1.00  0.00     0.126 C 
HETATM   14  C11 UNL     1      -2.213   0.052   0.413  1.00  0.00     0.040 C 
HETATM   15  C13 UNL     1      -1.342   0.757  -0.573  1.00  0.00     0.035 C 
BRANCH  13  16
HETATM   16  O1  UNL     1      -3.004  -2.237   0.413  1.00  0.00    -0.395 OA
ATOM     17  H1  UNL     1      -3.785  -2.016   0.906  1.00  0.00     0.210 HD
ENDBRANCH  13  16
BRANCH  14  18
HETATM   18  C12 UNL     1      -3.405   0.865   0.849  1.00  0.00     0.171 C 
BRANCH  18  19
HETATM   19  O2  UNL     1      -2.895   1.966   1.563  1.00  0.00    -0.400 OA
ATOM     20  H2  UNL     1      -3.646   2.478   1.838  1.00  0.00     0.209 HD
ENDBRANCH  18  19
ENDBRANCH  14  18
ENDBRANCH   9  11
TORSDOF 4
