REMARK  12 active torsions:
REMARK  status: ('A' for Active; 'I' for Inactive)
REMARK    1  A    between atoms: N1_1  and  C1_4 
REMARK    2  A    between atoms: C2_7  and  C3_8 
REMARK    3  A    between atoms: C4_11  and  N4_12 
REMARK    4  A    between atoms: N4_12  and  C5_14 
REMARK    5  A    between atoms: C8_22  and  C9_23 
REMARK    6  A    between atoms: C9_23  and  C10_24 
REMARK    7  A    between atoms: C10_24  and  C11_25 
REMARK    8  A    between atoms: C11_25  and  C12_26 
REMARK    9  A    between atoms: C12_26  and  C13_27 
REMARK   10  A    between atoms: C13_27  and  N7_28 
REMARK   11  A    between atoms: C20_37  and  C21_38 
REMARK   12  A    between atoms: C21_38  and  O3_39 
ROOT
HETATM    1  N4  UNL     1       3.067  -0.478  -0.359  1.00  0.00    -0.322 N 
ATOM      2  H4  UNL     1       2.535  -0.380  -1.224  1.00  0.00     0.169 HD
ENDROOT
BRANCH   1   3
HETATM    3  C4  UNL     1       4.515  -0.632  -0.336  1.00  0.00     0.151 A 
HETATM    4  N3  UNL     1       5.429   0.283  -0.357  1.00  0.00    -0.333 N 
HETATM    5  C3  UNL     1       6.718  -0.020  -0.331  1.00  0.00     0.095 A 
ATOM      6  H3  UNL     1       5.150   1.263  -0.395  1.00  0.00     0.168 HD
HETATM    7  C20 UNL     1       7.025  -1.334  -0.281  1.00  0.00     0.040 A 
HETATM    8  S1  UNL     1       5.433  -2.059  -0.274  1.00  0.00    -0.054 SA
BRANCH   5   9
HETATM    9  C2  UNL     1       7.685   1.099  -0.358  1.00  0.00     0.153 A 
HETATM   10  N2  UNL     1       8.982   0.909  -0.333  1.00  0.00    -0.174 N 
HETATM   11  C1  UNL     1       9.882   1.953  -0.362  1.00  0.00     0.681 A 
ATOM     12  H2  UNL     1       9.338  -0.046  -0.291  1.00  0.00     0.186 HD
HETATM   13  N9  UNL     1       9.393   3.185  -0.418  1.00  0.00    -0.141 N 
HETATM   14  C22 UNL     1       8.073   3.435  -0.445  1.00  0.00     0.340 A 
ATOM     15  H9  UNL     1      10.043   3.971  -0.441  1.00  0.00     0.189 HD
HETATM   16  N8  UNL     1       7.255   2.377  -0.414  1.00  0.00    -0.292 N 
HETATM   17  O4  UNL     1       7.620   4.613  -0.498  1.00  0.00    -0.246 OA
ATOM     18  H8  UNL     1       6.249   2.546  -0.434  1.00  0.00     0.172 HD
BRANCH  11  19
HETATM   19  N1  UNL     1      11.135   1.755  -0.337  1.00  0.00    -0.234 N 
ATOM     20  H12 UNL     1      11.511   0.808  -0.294  1.00  0.00     0.174 HD
ATOM     21  H11 UNL     1      11.801   2.527  -0.358  1.00  0.00     0.174 HD
ENDBRANCH  11  19
ENDBRANCH   5   9
BRANCH   7  22
HETATM   22  C21 UNL     1       8.301  -2.105  -0.245  1.00  0.00     0.213 C 
BRANCH  22  23
HETATM   23  O3  UNL     1       7.962  -3.497  -0.191  1.00  0.00    -0.396 OA
ATOM     24  H3  UNL     1       8.775  -3.988  -0.168  1.00  0.00     0.209 HD
ENDBRANCH  22  23
ENDBRANCH   7  22
ENDBRANCH   1   3
BRANCH   1  25
HETATM   25  C5  UNL     1       2.513  -0.476   0.806  1.00  0.00     0.122 A 
HETATM   26  N5  UNL     1       3.177  -0.602   1.970  1.00  0.00    -0.338 N 
HETATM   27  C6  UNL     1       2.520  -0.593   3.158  1.00  0.00     0.184 A 
ATOM     28  H5  UNL     1       4.192  -0.706   1.959  1.00  0.00     0.168 HD
HETATM   29  N6  UNL     1       1.192  -0.461   3.251  1.00  0.00    -0.332 N 
HETATM   30  C7  UNL     1       0.480  -0.332   2.118  1.00  0.00     0.162 A 
ATOM     31  H6  UNL     1       0.730  -0.458   4.161  1.00  0.00     0.168 HD
HETATM   32  O1  UNL     1      -0.804  -0.191   1.906  1.00  0.00    -0.297 OA
HETATM   33  C19 UNL     1       1.144  -0.339   0.885  1.00  0.00     0.062 A 
HETATM   34  C8  UNL     1      -1.065  -0.101   0.623  1.00  0.00     0.056 A 
HETATM   35  C18 UNL     1       0.142  -0.191  -0.048  1.00  0.00     0.052 A 
BRANCH  34  36
HETATM   36  C9  UNL     1      -2.380   0.066  -0.056  1.00  0.00     0.065 C 
BRANCH  36  37
HETATM   37  C10 UNL     1      -2.979  -1.283  -0.364  1.00  0.00     0.007 C 
BRANCH  37  38
HETATM   38  C11 UNL     1      -4.303  -1.213  -1.054  1.00  0.00     0.005 C 
BRANCH  38  39
HETATM   39  C12 UNL     1      -5.378  -0.500  -0.260  1.00  0.00     0.044 C 
BRANCH  39  40
HETATM   40  C13 UNL     1      -6.618  -0.523  -1.107  1.00  0.00     0.058 C 
BRANCH  40  41
HETATM   41  N7  UNL     1      -7.767   0.084  -0.560  1.00  0.00    -0.389 N 
HETATM   42  C14 UNL     1      -8.369  -0.565   0.569  1.00  0.00     0.148 C 
HETATM   43  C15 UNL     1      -9.874  -0.277   0.451  1.00  0.00     0.187 C 
HETATM   44  O2  UNL     1     -10.087   1.053   0.148  1.00  0.00    -0.388 OA
HETATM   45  C16 UNL     1      -9.001   1.872   0.384  1.00  0.00     0.187 C 
HETATM   46  C17 UNL     1      -7.803   1.506  -0.503  1.00  0.00     0.148 C 
ENDBRANCH  40  41
ENDBRANCH  39  40
ENDBRANCH  38  39
ENDBRANCH  37  38
ENDBRANCH  36  37
ENDBRANCH  34  36
ENDBRANCH   1  25
TORSDOF 12
