REMARK  1 active torsions:
REMARK  status: ('A' for Active; 'I' for Inactive)
REMARK    1  A    between atoms: N1_8  and  N2_10 
ROOT
HETATM    1  C1  UNL     1      -3.197   0.792   1.723  1.00  0.00     0.016 C 
HETATM    2  C2  UNL     1      -2.250  -0.163   1.026  1.00  0.00     0.029 C 
HETATM    3  C3  UNL     1      -2.804  -0.660  -0.280  1.00  0.00     0.010 C 
HETATM    4  C4  UNL     1      -2.882   0.355  -1.352  1.00  0.00     0.001 C 
HETATM    5  C5  UNL     1      -1.924   1.479  -1.267  1.00  0.00     0.006 C 
HETATM    6  C6  UNL     1      -0.694   1.204  -0.459  1.00  0.00     0.054 C 
HETATM    7  C7  UNL     1      -0.934   0.444   0.762  1.00  0.00     0.007 C 
HETATM    8  N1  UNL     1       0.007   0.298   1.621  1.00  0.00    -0.308 N 
ATOM      9  H1  UNL     1      -0.158  -0.233   2.476  1.00  0.00     0.186 HD
ENDROOT
BRANCH   8  10
HETATM   10  N2  UNL     1       1.241   0.861   1.384  1.00  0.00    -0.298 N 
HETATM   11  C8  UNL     1       2.173   0.185   0.869  1.00  0.00     0.062 C 
HETATM   12  C9  UNL     1       2.003  -1.221   0.495  1.00  0.00     0.066 C 
HETATM   13  S1  UNL     1       3.761   0.907   0.564  1.00  0.00    -0.115 SA
HETATM   14  C10 UNL     1       2.351  -1.502  -0.931  1.00  0.00     0.007 C 
HETATM   15  C11 UNL     1       3.419  -0.706  -1.549  1.00  0.00     0.011 C 
HETATM   16  C12 UNL     1       4.525  -0.218  -0.677  1.00  0.00     0.080 C 
ATOM     17  H2  UNL     1       1.404   1.838   1.628  1.00  0.00     0.187 HD
ENDBRANCH   8  10
TORSDOF 1
