REMARK  3 active torsions:
REMARK  status: ('A' for Active; 'I' for Inactive)
REMARK    1  A    between atoms: N1_2  and  C2_4 
REMARK    2  A    between atoms: C11_13  and  N2_14 
REMARK    3  A    between atoms: N2_14  and  C12_16 
ROOT
HETATM    1  C2  UNL     1      -0.875   0.447   0.409  1.00  0.00     0.011 C 
HETATM    2  C3  UNL     1      -1.923  -0.465  -0.131  1.00  0.00     0.055 C 
HETATM    3  C4  UNL     1      -1.524  -1.897  -0.257  1.00  0.00     0.006 C 
HETATM    4  C5  UNL     1      -0.100  -2.157  -0.649  1.00  0.00     0.008 C 
HETATM    5  C6  UNL     1       0.727  -0.926  -0.577  1.00  0.00     0.024 C 
HETATM    6  C7  UNL     1       1.688  -0.447  -1.262  1.00  0.00    -0.003 A 
HETATM    7  C8  UNL     1       2.794   0.432  -1.794  1.00  0.00     0.010 A 
HETATM    8  C9  UNL     1       1.825   1.085  -0.972  1.00  0.00    -0.007 A 
HETATM    9  C10 UNL     1       1.586   1.009   0.499  1.00  0.00     0.042 C 
HETATM   10  C11 UNL     1       0.497  -0.019   0.623  1.00  0.00     0.072 C 
ENDROOT
BRANCH  10  11
HETATM   11  N2  UNL     1       0.610  -0.766   1.850  1.00  0.00    -0.375 N 
ATOM     12  H2  UNL     1      -0.047  -1.515   2.070  1.00  0.00     0.160 HD
BRANCH  11  13
HETATM   13  C12 UNL     1       1.563  -0.463   2.662  1.00  0.00     0.166 C 
HETATM   14  S1  UNL     1       2.799  -0.804   3.639  1.00  0.00    -0.075 SA
ENDBRANCH  11  13
ENDBRANCH  10  11
BRANCH   1  15
HETATM   15  N1  UNL     1      -1.162   1.653   0.694  1.00  0.00    -0.399 N 
HETATM   16  C1  UNL     1      -2.505   2.104   0.484  1.00  0.00     0.145 C 
ATOM     17  H1  UNL     1      -0.452   2.285   1.064  1.00  0.00     0.158 HD
ENDBRANCH   1  15
TORSDOF 3
