REMARK  2 active torsions:
REMARK  status: ('A' for Active; 'I' for Inactive)
REMARK    1  A    between atoms: C3_3  and  C4_4 
REMARK    2  A    between atoms: N1_14  and  O1_16 
ROOT
HETATM    1  C4  UNL     1       0.794   0.317  -0.393  1.00  0.00     0.123 C 
HETATM    2  C5  UNL     1       0.296  -0.678  -1.368  1.00  0.00     0.050 C 
HETATM    3  C6  UNL     1      -0.721  -1.706  -0.817  1.00  0.00     0.015 C 
HETATM    4  C7  UNL     1      -1.796  -1.010   0.083  1.00  0.00    -0.018 C 
HETATM    5  C8  UNL     1      -3.097  -1.074  -0.698  1.00  0.00     0.018 C 
HETATM    6  C9  UNL     1      -2.003  -1.814   1.344  1.00  0.00     0.018 C 
HETATM    7  C10 UNL     1      -1.282   0.287   0.194  1.00  0.00     0.154 C 
HETATM    8  C11 UNL     1      -1.514   1.546   0.794  1.00  0.00     0.008 C 
HETATM    9  C12 UNL     1      -0.543   2.426   0.404  1.00  0.00     0.029 C 
HETATM   10  C13 UNL     1       0.424   1.755  -0.518  1.00  0.00     0.070 C 
HETATM   11  N1  UNL     1       0.947   2.489  -1.451  1.00  0.00    -0.270 N 
ATOM     12  H1  UNL     1       1.613   2.055  -2.090  1.00  0.00     0.194 HD
HETATM   13  O2  UNL     1       0.005  -0.031   0.731  1.00  0.00    -0.360 OA
ENDROOT
BRANCH   1  14
HETATM   14  C3  UNL     1       2.238   0.211  -0.088  1.00  0.00     0.013 C 
HETATM   15  C2  UNL     1       2.745  -0.249   1.018  1.00  0.00    -0.032 C 
HETATM   16  C1  UNL     1       4.214  -0.303   1.199  1.00  0.00     0.036 C 
ENDBRANCH   1  14
BRANCH  11  17
HETATM   17  O1  UNL     1       0.656   3.801  -1.623  1.00  0.00    -0.290 OA
ATOM     18  H1  UNL     1       1.039   4.339  -2.306  1.00  0.00     0.244 HD
ENDBRANCH  11  17
TORSDOF 2
