REMARK  5 active torsions:
REMARK  status: ('A' for Active; 'I' for Inactive)
REMARK    1  A    between atoms: O1_1  and  C1_3 
REMARK    2  A    between atoms: N1_5  and  C3_6 
REMARK    3  A    between atoms: C3_6  and  C4_7 
REMARK    4  A    between atoms: C5_9  and  O2_10 
REMARK    5  A    between atoms: C6_12  and  O3_13 
ROOT
HETATM    1  C1  UNL     1       1.693  -0.341  -0.700  1.00  0.00     0.169 C 
HETATM    2  C2  UNL     1       0.291   0.019  -1.242  1.00  0.00     0.159 C 
HETATM    3  N1  UNL     1      -0.376   0.428  -0.104  1.00  0.00    -0.362 N 
HETATM    4  C5  UNL     1       0.299   0.175   1.107  1.00  0.00     0.251 C 
HETATM    5  C6  UNL     1       1.434  -0.741   0.736  1.00  0.00     0.197 C 
ENDROOT
BRANCH   3   6
HETATM    6  C3  UNL     1      -1.656   0.938  -0.052  1.00  0.00     0.071 C 
BRANCH   6   7
HETATM    7  C4  UNL     1      -2.728  -0.084  -0.322  1.00  0.00     0.129 C 
HETATM    8 BR1  UNL     1      -2.658  -0.869  -2.053  1.00  0.00    -0.091 Br
ENDBRANCH   6   7
ENDBRANCH   3   6
BRANCH   4   9
HETATM    9  O2  UNL     1       0.781   1.308   1.750  1.00  0.00    -0.374 OA
ATOM     10  H2  UNL     1       1.236   1.137   2.566  1.00  0.00     0.212 HD
ENDBRANCH   4   9
BRANCH   1  11
HETATM   11  O1  UNL     1       2.551   0.728  -0.731  1.00  0.00    -0.391 OA
ATOM     12  H1  UNL     1       3.413   0.507  -0.398  1.00  0.00     0.210 HD
ENDBRANCH   1  11
BRANCH   5  13
HETATM   13  O3  UNL     1       1.084  -2.089   0.744  1.00  0.00    -0.389 OA
ATOM     14  H3  UNL     1       0.921  -2.340   1.646  1.00  0.00     0.210 HD
ENDBRANCH   5  13
TORSDOF 5
