REMARK  3 active torsions:
REMARK  status: ('A' for Active; 'I' for Inactive)
REMARK    1  A    between atoms: N2_4  and  N3_6 
REMARK       I    between atoms: N3_6  and  C1_8 
REMARK    2  A    between atoms: N5_10  and  C2_12 
REMARK    3  A    between atoms: C5_15  and  N6_17 
ROOT
HETATM    1  N3  UNL     1       3.598  -0.043   0.950  1.00  0.00    -0.260 N 
ATOM      2  H3  UNL     1       3.645  -0.037   1.969  1.00  0.00     0.191 HD
HETATM    3  C1  UNL     1       2.340   0.160   0.350  1.00  0.00     0.206 C 
HETATM    4  N4  UNL     1       2.293   0.373  -1.052  1.00  0.00    -0.062 NA
HETATM    5  N5  UNL     1       1.280   0.152   1.045  1.00  0.00    -0.337 N 
ATOM      6  H5  UNL     1       1.377  -0.007   2.048  1.00  0.00     0.164 HD
ENDROOT
BRANCH   5   7
HETATM    7  C2  UNL     1      -0.056   0.350   0.528  1.00  0.00     0.223 C 
HETATM    8  C3  UNL     1      -0.969  -0.570   1.296  1.00  0.00     0.059 C 
HETATM    9  C4  UNL     1      -2.340  -0.676   0.750  1.00  0.00     0.079 C 
HETATM   10  C5  UNL     1      -2.500  -0.343  -0.684  1.00  0.00     0.257 C 
HETATM   11  F1  UNL     1      -2.600  -1.496  -1.465  1.00  0.00    -0.210 F 
HETATM   12  C6  UNL     1      -1.397   0.493  -1.265  1.00  0.00     0.243 C 
HETATM   13  O3  UNL     1      -0.162   0.061  -0.824  1.00  0.00    -0.361 OA
BRANCH  10  14
HETATM   14  N6  UNL     1      -3.755   0.370  -0.854  1.00  0.00    -0.110 N 
HETATM   15  O1  UNL     1      -4.682  -0.038  -1.578  1.00  0.00    -0.534 OA
HETATM   16  O2  UNL     1      -3.969   1.576  -0.189  1.00  0.00    -0.534 OA
ENDBRANCH  10  14
ENDBRANCH   5   7
BRANCH   1  17
HETATM   17  N2  UNL     1       4.778  -0.250   0.250  1.00  0.00    -0.247 N 
HETATM   18  N1  UNL     1       5.547  -1.183   0.590  1.00  0.00    -0.331 N 
ATOM     19  H12 UNL     1       5.291  -1.776   1.379  1.00  0.00     0.178 HD
ATOM     20  H11 UNL     1       6.414  -1.335   0.075  1.00  0.00     0.178 HD
ATOM     21  H2  UNL     1       5.020   0.353  -0.537  1.00  0.00     0.207 HD
ENDBRANCH   1  17
TORSDOF 3
