REMARK  7 active torsions:
REMARK  status: ('A' for Active; 'I' for Inactive)
REMARK    1  A    between atoms: N1_2  and  C2_3 
REMARK    2  A    between atoms: N1_2  and  C3_5 
REMARK    3  A    between atoms: C3_5  and  C4_6 
REMARK    4  A    between atoms: C6_9  and  C7_10 
REMARK    5  A    between atoms: C7_10  and  O1_11 
REMARK    6  A    between atoms: C8_13  and  O2_14 
REMARK    7  A    between atoms: C9_16  and  O3_17 
ROOT
HETATM    1  C4  UNL     1       0.063  -0.491   0.404  1.00  0.00     0.044 C 
HETATM    2  N2  UNL     1      -0.874  -0.676  -0.442  1.00  0.00    -0.379 N 
HETATM    3  C5  UNL     1      -0.642  -1.241  -1.750  1.00  0.00     0.150 C 
HETATM    4  C6  UNL     1      -2.139  -0.309   0.029  1.00  0.00     0.138 C 
HETATM    5  C8  UNL     1      -1.906   0.443   1.298  1.00  0.00     0.177 C 
HETATM    6  C9  UNL     1      -0.500   0.084   1.659  1.00  0.00     0.196 C 
ENDROOT
BRANCH   1   7
HETATM    7  C3  UNL     1       1.518  -0.770   0.316  1.00  0.00     0.328 C 
BRANCH   7   8
HETATM    8  N1  UNL     1       2.391   0.347   0.516  1.00  0.00     0.102 N 
HETATM    9  C1  UNL     1       3.744  -0.303   0.639  1.00  0.00     0.311 C 
BRANCH   8  10
HETATM   10  C2  UNL     1       2.595   1.160  -0.695  1.00  0.00     0.386 C 
HETATM   11 CL1  UNL     1       1.194   2.126  -1.114  1.00  0.00    -0.098 Cl
ENDBRANCH   8  10
ENDBRANCH   7   8
ENDBRANCH   1   7
BRANCH   6  12
HETATM   12  O3  UNL     1      -0.573  -0.966   2.613  1.00  0.00    -0.387 OA
ATOM     13  H3  UNL     1      -0.932  -0.600   3.413  1.00  0.00     0.210 HD
ENDBRANCH   6  12
BRANCH   4  14
HETATM   14  C7  UNL     1      -3.037   0.387  -0.959  1.00  0.00     0.192 C 
BRANCH  14  15
HETATM   15  O1  UNL     1      -2.509   1.549  -1.464  1.00  0.00    -0.399 OA
ATOM     16  H1  UNL     1      -3.076   1.988  -2.087  1.00  0.00     0.209 HD
ENDBRANCH  14  15
ENDBRANCH   4  14
BRANCH   5  17
HETATM   17  O2  UNL     1      -2.049   1.822   1.143  1.00  0.00    -0.390 OA
ATOM     18  H2  UNL     1      -1.901   2.300   1.950  1.00  0.00     0.210 HD
ENDBRANCH   5  17
TORSDOF 7
