REMARK  6 active torsions:
REMARK  status: ('A' for Active; 'I' for Inactive)
REMARK    1  A    between atoms: C3_3  and  N1_4 
REMARK    2  A    between atoms: N1_4  and  C4_5 
REMARK    3  A    between atoms: N1_4  and  C5_7 
REMARK    4  A    between atoms: C7_9  and  O2_10 
REMARK    5  A    between atoms: C9_14  and  O3_15 
REMARK    6  A    between atoms: C10_17  and  O4_18 
ROOT
HETATM    1  C1  UNL     1       3.347  -0.830   1.959  1.00  0.00     0.014 C 
HETATM    2  C2  UNL     1       2.910  -0.124   1.082  1.00  0.00    -0.098 C 
HETATM    3  C3  UNL     1       2.359   0.744   0.029  1.00  0.00     0.218 C 
ENDROOT
BRANCH   3   4
HETATM    4  N1  UNL     1       1.484   0.022  -0.863  1.00  0.00    -0.341 N 
BRANCH   4   5
HETATM    5  C4  UNL     1       2.041  -0.589  -2.013  1.00  0.00     0.352 C 
HETATM    6  O1  UNL     1       3.274  -0.499  -2.245  1.00  0.00    -0.283 OA
ENDBRANCH   4   5
BRANCH   4   7
HETATM    7  C5  UNL     1       0.075  -0.114  -0.654  1.00  0.00     0.121 C 
HETATM    8  C6  UNL     1      -0.534   1.267  -0.687  1.00  0.00     0.062 C 
HETATM    9  C7  UNL     1      -2.048   1.225  -0.557  1.00  0.00     0.156 C 
HETATM   10  C8  UNL     1      -2.318   0.607   0.819  1.00  0.00     0.230 C 
HETATM   11  F1  UNL     1      -3.628   0.678   1.170  1.00  0.00    -0.244 F 
HETATM   12  C9  UNL     1      -1.797  -0.812   0.737  1.00  0.00     0.185 C 
HETATM   13  C10 UNL     1      -0.282  -0.762   0.659  1.00  0.00     0.172 C 
BRANCH   9  14
HETATM   14  O2  UNL     1      -2.525   0.382  -1.541  1.00  0.00    -0.393 OA
ATOM     15  H2  UNL     1      -3.471   0.356  -1.460  1.00  0.00     0.210 HD
ENDBRANCH   9  14
BRANCH  12  16
HETATM   16  O3  UNL     1      -2.197  -1.572   1.834  1.00  0.00    -0.390 OA
ATOM     17  H3  UNL     1      -1.870  -2.462   1.783  1.00  0.00     0.210 HD
ENDBRANCH  12  16
BRANCH  13  18
HETATM   18  O4  UNL     1       0.151  -2.086   0.723  1.00  0.00    -0.391 OA
ATOM     19  H4  UNL     1      -0.074  -2.494   1.551  1.00  0.00     0.210 HD
ENDBRANCH  13  18
ENDBRANCH   4   7
ENDBRANCH   3   4
TORSDOF 6
