REMARK  4 active torsions:
REMARK  status: ('A' for Active; 'I' for Inactive)
REMARK    1  A    between atoms: N3_4  and  C2_6 
REMARK    2  A    between atoms: C4_8  and  N4_9 
REMARK    3  A    between atoms: C7_13  and  C8_14 
REMARK    4  A    between atoms: C8_14  and  O1_15 
ROOT
HETATM    1  N4  UNL     1      -0.284  -0.600  -0.521  1.00  0.00    -0.264 N 
HETATM    2  C5  UNL     1      -1.046  -1.687  -0.065  1.00  0.00     0.128 C 
HETATM    3  C6  UNL     1      -2.399  -1.398   0.473  1.00  0.00     0.218 C 
HETATM    4  F1  UNL     1      -3.310  -2.274  -0.130  1.00  0.00    -0.243 F 
HETATM    5  C7  UNL     1      -2.903  -0.020   0.280  1.00  0.00     0.074 C 
HETATM    6  C9  UNL     1      -2.153   0.654  -0.826  1.00  0.00     0.211 C 
HETATM    7  O2  UNL     1      -0.803   0.611  -0.477  1.00  0.00    -0.278 OA
ENDROOT
BRANCH   1   8
HETATM    8  C4  UNL     1       1.090  -0.549  -0.069  1.00  0.00     0.138 A 
HETATM    9  C2  UNL     1       1.905   0.638  -0.438  1.00  0.00     0.111 A 
HETATM   10  C3  UNL     1       1.428   0.517   1.009  1.00  0.00     0.057 A 
BRANCH   9  11
HETATM   11  N3  UNL     1       3.258   0.578  -0.765  1.00  0.00    -0.360 N 
HETATM   12  C1  UNL     1       4.345   0.382  -0.221  1.00  0.00     0.197 C 
HETATM   13  N1  UNL     1       5.554   0.419  -1.010  1.00  0.00    -0.067 NA
HETATM   14  N2  UNL     1       4.509   0.116   1.149  1.00  0.00    -0.067 NA
ATOM     15  H3  UNL     1       3.388   0.749  -1.762  1.00  0.00     0.162 HD
ENDBRANCH   9  11
ENDBRANCH   1   8
BRANCH   5  16
HETATM   16  C8  UNL     1      -4.388   0.031  -0.069  1.00  0.00     0.174 C 
BRANCH  16  17
HETATM   17  O1  UNL     1      -4.782   1.356  -0.234  1.00  0.00    -0.400 OA
ATOM     18  H1  UNL     1      -5.706   1.388  -0.451  1.00  0.00     0.209 HD
ENDBRANCH  16  17
ENDBRANCH   5  16
TORSDOF 4
