REMARK  3 active torsions:
REMARK  status: ('A' for Active; 'I' for Inactive)
REMARK    1  A    between atoms: N1_2  and  C3_5 
REMARK    2  A    between atoms: C5_8  and  N2_9 
REMARK    3  A    between atoms: C5_8  and  C7_16 
REMARK       I    between atoms: N2_9  and  C6_11 
ROOT
HETATM    1  C3  UNL     1      -0.883   0.285  -0.501  1.00  0.00     0.256 C 
HETATM    2  C4  UNL     1      -0.502   0.894   0.795  1.00  0.00     0.208 C 
HETATM    3  O1  UNL     1       0.543   0.174   1.339  1.00  0.00    -0.349 OA
HETATM    4  C5  UNL     1       1.088  -0.609   0.331  1.00  0.00     0.229 C 
HETATM    5  C8  UNL     1      -0.118  -1.026  -0.490  1.00  0.00     0.112 C 
ENDROOT
BRANCH   4   6
HETATM    6  N2  UNL     1       2.046   0.107  -0.471  1.00  0.00    -0.324 N 
HETATM    7  C6  UNL     1       3.235   0.577   0.113  1.00  0.00     0.184 C 
HETATM    8  N3  UNL     1       4.403   0.211  -0.323  1.00  0.00    -0.374 N 
HETATM    9  N4  UNL     1       3.192   1.472   1.202  1.00  0.00    -0.064 NA
ATOM     10  H32 UNL     1       4.434  -0.436  -1.111  1.00  0.00     0.158 HD
ATOM     11  H31 UNL     1       5.266   0.552   0.101  1.00  0.00     0.158 HD
ATOM     12  H2  UNL     1       1.862   0.273  -1.461  1.00  0.00     0.165 HD
ENDBRANCH   4   6
BRANCH   4  13
HETATM   13  C7  UNL     1       1.694  -1.834   0.903  1.00  0.00     0.231 C 
HETATM   14  O2  UNL     1       2.877  -2.182   0.704  1.00  0.00    -0.644 OA
HETATM   15  O3  UNL     1       0.919  -2.662   1.712  1.00  0.00    -0.644 OA
ENDBRANCH   4  13
BRANCH   1  16
HETATM   16  N1  UNL     1      -2.284   0.105  -0.716  1.00  0.00     0.082 N 
HETATM   17  C1  UNL     1      -3.115   1.084  -0.064  1.00  0.00     0.317 C 
HETATM   18  C2  UNL     1      -2.759  -1.208  -0.311  1.00  0.00     0.317 C 
HETATM   19  F1  UNL     1      -2.503   0.197  -2.054  1.00  0.00    -0.018 F 
ENDBRANCH   1  16
TORSDOF 3
