REMARK  4 active torsions:
REMARK  status: ('A' for Active; 'I' for Inactive)
REMARK    1  A    between atoms: C3_3  and  C4_4 
REMARK    2  A    between atoms: N1_5  and  N2_7 
REMARK    3  A    between atoms: C6_13  and  C7_14 
REMARK    4  A    between atoms: C7_14  and  O2_15 
ROOT
HETATM    1  C1  UNL     1      -0.343  -2.849   0.359  1.00  0.00     0.022 C 
HETATM    2  C2  UNL     1      -0.999  -1.850  -0.202  1.00  0.00    -0.001 C 
HETATM    3  C3  UNL     1      -0.316  -0.722  -0.836  1.00  0.00     0.197 C 
HETATM    4  O1  UNL     1      -0.792   0.522  -0.468  1.00  0.00    -0.348 OA
HETATM    5  C6  UNL     1      -2.026   0.519   0.123  1.00  0.00     0.266 C 
HETATM    6  N5  UNL     1      -2.910  -0.494  -0.335  1.00  0.00    -0.266 N 
HETATM    7  N6  UNL     1      -4.001  -0.274  -0.841  1.00  0.00    -0.342 N 
ATOM      8  H61 UNL     1      -4.636  -1.001  -1.170  1.00  0.00     0.176 HD
ATOM      9  H62 UNL     1      -4.299   0.696  -0.943  1.00  0.00     0.176 HD
HETATM   10  C8  UNL     1      -2.489  -1.865  -0.191  1.00  0.00     0.320 C 
HETATM   11  F1  UNL     1      -2.907  -2.399   1.012  1.00  0.00    -0.220 F 
ENDROOT
BRANCH   3  12
HETATM   12  C4  UNL     1       1.134  -0.840  -0.569  1.00  0.00     0.116 C 
HETATM   13  N1  UNL     1       1.754   0.044   0.110  1.00  0.00    -0.311 N 
ATOM     14  H1  UNL     1       1.254   0.852   0.482  1.00  0.00     0.185 HD
BRANCH  13  15
HETATM   15  N2  UNL     1       3.118  -0.103   0.339  1.00  0.00    -0.277 N 
HETATM   16  C5  UNL     1       3.900   0.917   0.387  1.00  0.00     0.215 C 
HETATM   17  N3  UNL     1       3.348   2.198   0.203  1.00  0.00    -0.065 NA
HETATM   18  N4  UNL     1       5.281   0.673   0.626  1.00  0.00    -0.065 NA
ATOM     19  H2  UNL     1       3.505  -1.037   0.471  1.00  0.00     0.189 HD
ENDBRANCH  13  15
ENDBRANCH   3  12
BRANCH   5  20
HETATM   20  C7  UNL     1      -2.699   1.870  -0.101  1.00  0.00     0.219 C 
BRANCH  20  21
HETATM   21  O2  UNL     1      -3.894   1.869   0.635  1.00  0.00    -0.397 OA
ATOM     22  H2  UNL     1      -4.313   2.710   0.496  1.00  0.00     0.209 HD
ENDBRANCH  20  21
ENDBRANCH   5  20
TORSDOF 4
