REMARK  6 active torsions:
REMARK  status: ('A' for Active; 'I' for Inactive)
REMARK    1  A    between atoms: N1_2  and  C3_5 
REMARK    2  A    between atoms: C3_5  and  C4_6 
REMARK    3  A    between atoms: C4_6  and  O1_7 
REMARK    4  A    between atoms: C4_6  and  C5_9 
REMARK    5  A    between atoms: C5_9  and  O2_10 
REMARK    6  A    between atoms: C6_13  and  O4_14 
ROOT
HETATM    1  C4  UNL     1       0.643  -1.030  -0.001  1.00  0.00     0.212 C 
ENDROOT
BRANCH   1   2
HETATM    2  C3  UNL     1      -0.723  -0.796  -0.538  1.00  0.00     0.287 C 
BRANCH   2   3
HETATM    3  N1  UNL     1      -1.547   0.123   0.140  1.00  0.00    -0.015 N 
HETATM    4  C1  UNL     1      -1.469   1.485  -0.404  1.00  0.00     0.287 C 
HETATM    5  C2  UNL     1      -2.955  -0.254  -0.091  1.00  0.00     0.287 C 
HETATM    6 BR1  UNL     1      -1.353   0.202   1.996  1.00  0.00     0.163 Br
ENDBRANCH   2   3
ENDBRANCH   1   2
BRANCH   1   7
HETATM    7  O1  UNL     1       0.705  -1.509   1.278  1.00  0.00    -0.388 OA
ATOM      8  H1  UNL     1       1.578  -1.659   1.621  1.00  0.00     0.210 HD
ENDBRANCH   1   7
BRANCH   1   9
HETATM    9  C5  UNL     1       1.549   0.179  -0.109  1.00  0.00     0.243 A 
HETATM   10  O3  UNL     1       1.817   0.938   1.002  1.00  0.00    -0.313 OA
HETATM   11  C6  UNL     1       2.880   0.071   0.577  1.00  0.00     0.326 A 
BRANCH   9  12
HETATM   12  O2  UNL     1       1.626   0.824  -1.361  1.00  0.00    -0.359 OA
ATOM     13  H2  UNL     1       2.194   1.582  -1.429  1.00  0.00     0.213 HD
ENDBRANCH   9  12
BRANCH  11  14
HETATM   14  O4  UNL     1       3.968   0.784   0.124  1.00  0.00    -0.366 OA
ATOM     15  H4  UNL     1       4.810   0.716   0.558  1.00  0.00     0.212 HD
ENDBRANCH  11  14
ENDBRANCH   1   9
TORSDOF 6
