REMARK  6 active torsions:
REMARK  status: ('A' for Active; 'I' for Inactive)
REMARK    1  A    between atoms: C4_4  and  C5_5 
REMARK    2  A    between atoms: C5_5  and  C7_7 
REMARK    3  A    between atoms: C10_12  and  C11_13 
REMARK    4  A    between atoms: C11_13  and  C12_14 
REMARK    5  A    between atoms: C12_14  and  C13_15 
REMARK    6  A    between atoms: C13_15  and  O3_16 
ROOT
HETATM    1  C1  UNL     1      -4.203  -1.951  -0.324  1.00  0.00     0.014 C 
HETATM    2  C2  UNL     1      -2.911  -1.257  -0.586  1.00  0.00     0.005 C 
HETATM    3  C3  UNL     1      -2.945   0.189  -0.237  1.00  0.00    -0.018 C 
HETATM    4  C4  UNL     1      -1.895   0.895   0.192  1.00  0.00    -0.065 C 
HETATM    5  C8  UNL     1      -0.568   0.270   0.425  1.00  0.00     0.024 C 
HETATM    6  C9  UNL     1       0.609   1.011  -0.148  1.00  0.00     0.041 C 
HETATM    7  C10 UNL     1       1.836   0.146   0.237  1.00  0.00     0.123 C 
HETATM    8  O4  UNL     1       1.781  -1.070  -0.442  1.00  0.00    -0.375 OA
HETATM    9  C14 UNL     1       0.725  -1.859   0.002  1.00  0.00     0.058 C 
HETATM   10  C15 UNL     1       0.888  -2.331   1.415  1.00  0.00     0.046 C 
HETATM   11  C16 UNL     1       0.677  -3.072  -0.921  1.00  0.00     0.046 C 
HETATM   12  C17 UNL     1      -0.549  -1.089  -0.229  1.00  0.00     0.028 C 
HETATM   13  C18 UNL     1      -1.763  -1.857   0.244  1.00  0.00     0.016 C 
ENDROOT
BRANCH   4  14
HETATM   14  C5  UNL     1      -2.166   2.342   0.482  1.00  0.00     0.112 C 
HETATM   15  C6  UNL     1      -1.383   3.246  -0.479  1.00  0.00     0.026 C 
BRANCH  14  16
HETATM   16  C7  UNL     1      -3.607   2.698   0.256  1.00  0.00     0.180 C 
HETATM   17  O1  UNL     1      -4.414   2.838   1.203  1.00  0.00    -0.647 OA
HETATM   18  O2  UNL     1      -4.097   2.886  -1.049  1.00  0.00    -0.647 OA
ENDBRANCH  14  16
ENDBRANCH   4  14
BRANCH   7  19
HETATM   19  C11 UNL     1       3.060   0.879  -0.243  1.00  0.00     0.034 C 
BRANCH  19  20
HETATM   20  C12 UNL     1       4.281   0.031   0.132  1.00  0.00     0.028 C 
BRANCH  20  21
HETATM   21  C13 UNL     1       5.527   0.775  -0.355  1.00  0.00     0.164 C 
BRANCH  21  22
HETATM   22  O3  UNL     1       5.427   0.926  -1.737  1.00  0.00    -0.401 OA
ATOM     23  H3  UNL     1       6.200   1.388  -2.039  1.00  0.00     0.209 HD
ENDBRANCH  21  22
ENDBRANCH  20  21
ENDBRANCH  19  20
ENDBRANCH   7  19
TORSDOF 6
