REMARK  8 active torsions:
REMARK  status: ('A' for Active; 'I' for Inactive)
REMARK    1  A    between atoms: C4_6  and  N2_7 
REMARK    2  A    between atoms: N2_7  and  C5_9 
REMARK    3  A    between atoms: C5_9  and  C8_12 
REMARK    4  A    between atoms: C8_12  and  C9_13 
REMARK    5  A    between atoms: C9_13  and  C10_14 
REMARK    6  A    between atoms: C10_14  and  C11_15 
REMARK    7  A    between atoms: C11_15  and  N3_16 
REMARK       I    between atoms: N3_16  and  C12_17 
REMARK    8  A    between atoms: C12_17  and  C13_19 
ROOT
HETATM    1  C5  UNL     1       2.584   0.845   0.380  1.00  0.00     0.025 C 
HETATM    2  C6  UNL     1       2.889   0.469  -1.025  1.00  0.00     0.038 C 
HETATM    3  C7  UNL     1       2.363   2.386   0.341  1.00  0.00     0.038 C 
ENDROOT
BRANCH   1   4
HETATM    4  N2  UNL     1       3.607   0.656   1.349  1.00  0.00    -0.362 N 
ATOM      5  H2  UNL     1       3.445   1.014   2.290  1.00  0.00     0.162 HD
BRANCH   4   6
HETATM    6  C4  UNL     1       4.742   0.053   1.111  1.00  0.00     0.145 A 
HETATM    7  N1  UNL     1       5.683  -0.113   2.034  1.00  0.00    -0.346 N 
HETATM    8  C3  UNL     1       6.791  -0.729   1.688  1.00  0.00     0.104 A 
ATOM      9  H1  UNL     1       5.549   0.229   2.986  1.00  0.00     0.167 HD
HETATM   10  C2  UNL     1       6.902  -1.161   0.394  1.00  0.00    -0.003 A 
HETATM   11  C1  UNL     1       8.045  -1.887  -0.269  1.00  0.00     0.058 C 
HETATM   12  S1  UNL     1       5.415  -0.668  -0.274  1.00  0.00    -0.058 SA
ENDBRANCH   4   6
ENDBRANCH   1   4
BRANCH   1  13
HETATM   13  C8  UNL     1       1.271   0.219   0.796  1.00  0.00     0.030 C 
BRANCH  13  14
HETATM   14  C9  UNL     1       0.174   0.353  -0.215  1.00  0.00     0.009 C 
BRANCH  14  15
HETATM   15  C10 UNL     1      -1.124  -0.240   0.290  1.00  0.00     0.060 C 
BRANCH  15  16
HETATM   16  C11 UNL     1      -2.196  -0.151  -0.798  1.00  0.00     0.159 C 
BRANCH  16  17
HETATM   17  N3  UNL     1      -3.436  -0.615  -0.417  1.00  0.00    -0.387 NA
HETATM   18  C12 UNL     1      -4.661  -1.074  -0.040  1.00  0.00     0.298 C 
HETATM   19  O1  UNL     1      -4.959  -2.204   0.382  1.00  0.00    -0.256 OA
BRANCH  18  20
HETATM   20  C13 UNL     1      -5.855  -0.130  -0.128  1.00  0.00     0.044 C 
HETATM   21  C14 UNL     1      -7.120  -0.790   0.326  1.00  0.00     0.026 C 
HETATM   22  C15 UNL     1      -5.545   1.036   0.769  1.00  0.00     0.026 C 
HETATM   23  C16 UNL     1      -5.950   0.270  -1.597  1.00  0.00     0.026 C 
ENDBRANCH  18  20
ENDBRANCH  16  17
ENDBRANCH  15  16
ENDBRANCH  14  15
ENDBRANCH  13  14
ENDBRANCH   1  13
TORSDOF 8
