REMARK  16 active torsions:
REMARK  status: ('A' for Active; 'I' for Inactive)
REMARK    1  A    between atoms: O1_2  and  C2_3 
REMARK    2  A    between atoms: C4_5  and  O2_6 
REMARK    3  A    between atoms: C6_9  and  O3_10 
REMARK    4  A    between atoms: C7_12  and  O4_13 
REMARK    5  A    between atoms: O4_13  and  C8_14 
REMARK    6  A    between atoms: C8_14  and  C9_15 
REMARK    7  A    between atoms: C9_15  and  N1_16 
REMARK    8  A    between atoms: C10_19  and  O7_20 
REMARK    9  A    between atoms: C12_23  and  N2_24 
REMARK   10  A    between atoms: C13_28  and  O8_29 
REMARK   11  A    between atoms: O8_29  and  C14_30 
REMARK   12  A    between atoms: C14_30  and  O9_31 
REMARK   13  A    between atoms: C14_30  and  C15_33 
REMARK   14  A    between atoms: C16_34  and  C17_35 
REMARK   15  A    between atoms: C17_35  and  N3_36 
REMARK   16  A    between atoms: C24_45  and  O10_46 
ROOT
HETATM    1  C9  UNL     1      -2.152   0.135  -0.108  1.00  0.00     0.171 C 
HETATM    2  C10 UNL     1      -2.335   1.334   0.800  1.00  0.00     0.159 C 
HETATM    3  C11 UNL     1      -1.138   2.239   0.780  1.00  0.00     0.070 C 
HETATM    4  C12 UNL     1      -0.312   2.163  -0.460  1.00  0.00     0.217 C 
HETATM    5  C13 UNL     1       0.216   0.797  -0.743  1.00  0.00     0.187 C 
HETATM    6  C24 UNL     1      -0.696  -0.257  -0.218  1.00  0.00     0.188 C 
ENDROOT
BRANCH   1   7
HETATM    7  C8  UNL     1      -2.986  -0.984   0.460  1.00  0.00     0.211 C 
BRANCH   7   8
HETATM    8  O4  UNL     1      -4.291  -0.595   0.574  1.00  0.00    -0.378 OA
BRANCH   8   9
HETATM    9  C7  UNL     1      -5.098  -1.576   1.150  1.00  0.00     0.182 C 
HETATM   10  C6  UNL     1      -5.785  -0.962   2.347  1.00  0.00     0.152 C 
HETATM   11  C5  UNL     1      -7.130  -0.567   1.807  1.00  0.00     0.075 C 
HETATM   12  C4  UNL     1      -7.487  -1.697   0.896  1.00  0.00     0.093 C 
HETATM   13  C3  UNL     1      -8.390  -1.190  -0.198  1.00  0.00     0.101 C 
HETATM   14  C25 UNL     1      -6.177  -1.961   0.171  1.00  0.00     0.190 C 
HETATM   15  C2  UNL     1      -7.408  -0.686  -1.220  1.00  0.00     0.262 C 
HETATM   16  O11 UNL     1      -6.186  -1.256  -0.992  1.00  0.00    -0.350 OA
BRANCH  10  17
HETATM   17  O3  UNL     1      -5.889  -1.871   3.401  1.00  0.00    -0.393 OA
ATOM     18  H3  UNL     1      -5.038  -2.121   3.742  1.00  0.00     0.210 HD
ENDBRANCH  10  17
BRANCH  12  19
HETATM   19  O2  UNL     1      -7.978  -2.793   1.561  1.00  0.00    -0.387 OA
ATOM     20  H2  UNL     1      -7.409  -3.113   2.251  1.00  0.00     0.210 HD
ENDBRANCH  12  19
BRANCH  15  21
HETATM   21  O1  UNL     1      -7.264   0.699  -1.149  1.00  0.00    -0.366 OA
HETATM   22  C1  UNL     1      -7.569   1.332  -2.346  1.00  0.00     0.204 C 
ENDBRANCH  15  21
ENDBRANCH   8   9
ENDBRANCH   7   8
ENDBRANCH   1   7
BRANCH   1  23
HETATM   23  N1  UNL     1      -2.705   0.470  -1.393  1.00  0.00    -0.137 N 
HETATM   24  O5  UNL     1      -2.068   0.175  -2.420  1.00  0.00    -0.536 OA
HETATM   25  O6  UNL     1      -3.912   1.089  -1.567  1.00  0.00    -0.536 OA
ENDBRANCH   1  23
BRANCH   2  26
HETATM   26  O7  UNL     1      -2.634   0.954   2.105  1.00  0.00    -0.393 OA
ATOM     27  H7  UNL     1      -2.749   1.706   2.674  1.00  0.00     0.210 HD
ENDBRANCH   2  26
BRANCH   6  28
HETATM   28  O10 UNL     1      -0.674  -1.408  -1.038  1.00  0.00    -0.390 OA
ATOM     29  H10 UNL     1       0.241  -1.654  -1.107  1.00  0.00     0.210 HD
ENDBRANCH   6  28
BRANCH   5  30
HETATM   30  O8  UNL     1       1.485   0.589  -0.206  1.00  0.00    -0.348 OA
BRANCH  30  31
HETATM   31  C14 UNL     1       2.449   0.307  -1.161  1.00  0.00     0.281 C 
BRANCH  31  32
HETATM   32  O9  UNL     1       2.846  -0.997  -1.003  1.00  0.00    -0.368 OA
ATOM     33  H9  UNL     1       3.507  -1.190  -1.658  1.00  0.00     0.213 HD
ENDBRANCH  31  32
BRANCH  31  34
HETATM   34  C15 UNL     1       3.512   1.298  -1.249  1.00  0.00     0.030 C 
HETATM   35  C16 UNL     1       4.548   1.402  -0.450  1.00  0.00    -0.010 C 
BRANCH  35  36
HETATM   36  C17 UNL     1       4.864   0.545   0.701  1.00  0.00     0.140 C 
BRANCH  36  37
HETATM   37  N3  UNL     1       6.151  -0.108   0.635  1.00  0.00    -0.232 NA
HETATM   38  C18 UNL     1       7.242   0.848   0.763  1.00  0.00     0.117 C 
HETATM   39  C19 UNL     1       8.477   0.058   1.128  1.00  0.00    -0.002 C 
HETATM   40  C20 UNL     1       9.726   0.900   1.004  1.00  0.00     0.011 C 
HETATM   41  C21 UNL     1       8.554  -1.238   0.395  1.00  0.00     0.031 C 
HETATM   42  C22 UNL     1       7.604  -1.342  -0.759  1.00  0.00     0.090 C 
HETATM   43  C23 UNL     1       8.173  -0.701  -2.021  1.00  0.00     0.033 C 
HETATM   44  N4  UNL     1       6.280  -0.889  -0.485  1.00  0.00    -0.350 N 
ATOM     45  H4  UNL     1       5.486  -1.128  -1.079  1.00  0.00     0.174 HD
ENDBRANCH  36  37
ENDBRANCH  35  36
ENDBRANCH  31  34
ENDBRANCH  30  31
ENDBRANCH   5  30
BRANCH   4  46
HETATM   46  N2  UNL     1       0.779   3.134  -0.280  1.00  0.00    -0.072 N 
ATOM     47  H23 UNL     1       0.454   4.076  -0.065  1.00  0.00     0.274 HD
ATOM     48  H22 UNL     1       1.315   2.990   0.576  1.00  0.00     0.274 HD
ATOM     49  H21 UNL     1       1.344   3.082  -1.128  1.00  0.00     0.274 HD
ENDBRANCH   4  46
TORSDOF 16
