REMARK  17 active torsions:
REMARK  status: ('A' for Active; 'I' for Inactive)
REMARK    1  A    between atoms: C2_2  and  C3_3 
REMARK    2  A    between atoms: C3_3  and  C5_5 
REMARK    3  A    between atoms: C5_5  and  O2_7 
REMARK    4  A    between atoms: O2_7  and  C6_8 
REMARK    5  A    between atoms: C7_9  and  O3_10 
REMARK    6  A    between atoms: O3_10  and  C8_11 
REMARK    7  A    between atoms: C10_14  and  O5_15 
REMARK    8  A    between atoms: C11_17  and  O6_18 
REMARK    9  A    between atoms: C12_20  and  O7_21 
REMARK   10  A    between atoms: C16_26  and  C18_28 
REMARK   11  A    between atoms: C20_32  and  O10_33 
REMARK   12  A    between atoms: C23_36  and  O11_37 
REMARK   13  A    between atoms: C23_36  and  C24_39 
REMARK   14  A    between atoms: C24_39  and  O12_40 
REMARK   15  A    between atoms: C24_39  and  C25_42 
REMARK   16  A    between atoms: C25_42  and  C26_44 
REMARK   17  A    between atoms: C26_44  and  O14_45 
ROOT
HETATM    1  C6  UNL     1       0.605  -0.175   0.886  1.00  0.00     0.199 C 
HETATM    2  C7  UNL     1      -0.286   1.073   0.949  1.00  0.00     0.204 C 
HETATM    3  C10 UNL     1      -1.439   1.008  -0.006  1.00  0.00     0.149 C 
HETATM    4  C11 UNL     1      -2.489   0.088   0.536  1.00  0.00     0.193 C 
HETATM    5  C12 UNL     1      -2.033  -1.245   1.040  1.00  0.00     0.094 C 
HETATM    6  C13 UNL     1      -3.330  -2.036   1.152  1.00  0.00     0.041 C 
HETATM    7  C14 UNL     1      -3.790  -2.570  -0.144  1.00  0.00     0.004 C 
HETATM    8  C15 UNL     1      -2.830  -3.559  -0.639  1.00  0.00     0.021 C 
HETATM    9  C16 UNL     1      -1.351  -3.322  -0.168  1.00  0.00     0.054 C 
HETATM   10  C17 UNL     1      -1.267  -4.137   1.088  1.00  0.00     0.027 C 
HETATM   11  C19 UNL     1      -1.133  -1.851  -0.024  1.00  0.00     0.079 C 
HETATM   12  C20 UNL     1       0.180  -1.215  -0.124  1.00  0.00     0.100 C 
HETATM   13  C22 UNL     1       0.160  -0.319  -1.403  1.00  0.00     0.085 C 
HETATM   14  C23 UNL     1      -0.932   0.739  -1.354  1.00  0.00     0.129 C 
ENDROOT
BRANCH  14  15
HETATM   15  O11 UNL     1      -1.919   0.451  -2.325  1.00  0.00    -0.383 OA
ATOM     16  H11 UNL     1      -1.590   0.277  -3.199  1.00  0.00     0.210 HD
ENDBRANCH  14  15
BRANCH  14  17
HETATM   17  C24 UNL     1      -0.229   1.979  -1.951  1.00  0.00     0.227 C 
BRANCH  17  18
HETATM   18  O12 UNL     1       0.320   1.497  -3.202  1.00  0.00    -0.385 OA
ATOM     19  H12 UNL     1       0.752   2.259  -3.569  1.00  0.00     0.210 HD
ENDBRANCH  17  18
BRANCH  17  20
HETATM   20  C25 UNL     1      -1.129   3.052  -2.385  1.00  0.00     0.181 C 
HETATM   21  O13 UNL     1      -1.932   2.775  -3.285  1.00  0.00    -0.293 OA
BRANCH  20  22
HETATM   22  C26 UNL     1      -1.195   4.440  -1.888  1.00  0.00     0.245 C 
BRANCH  22  23
HETATM   23  O14 UNL     1      -0.163   4.750  -0.977  1.00  0.00    -0.393 OA
ATOM     24  H14 UNL     1      -0.205   5.643  -0.657  1.00  0.00     0.209 HD
ENDBRANCH  22  23
ENDBRANCH  20  22
ENDBRANCH  17  20
ENDBRANCH  14  17
BRANCH   3  25
HETATM   25  O5  UNL     1      -2.042   2.270   0.013  1.00  0.00    -0.381 OA
ATOM     26  H5  UNL     1      -2.773   2.229  -0.592  1.00  0.00     0.211 HD
ENDBRANCH   3  25
BRANCH   2  27
HETATM   27  O3  UNL     1      -0.726   1.391   2.231  1.00  0.00    -0.310 OA
BRANCH  27  28
HETATM   28  C8  UNL     1      -0.513   2.541   2.914  1.00  0.00     0.255 C 
HETATM   29  C9  UNL     1      -1.047   2.734   4.276  1.00  0.00     0.126 C 
HETATM   30  O4  UNL     1       0.148   3.462   2.383  1.00  0.00    -0.266 OA
ENDBRANCH  27  28
ENDBRANCH   2  27
BRANCH   4  31
HETATM   31  O6  UNL     1      -3.138   0.775   1.589  1.00  0.00    -0.389 OA
ATOM     32  H6  UNL     1      -3.804   0.191   1.933  1.00  0.00     0.210 HD
ENDBRANCH   4  31
BRANCH  12  33
HETATM   33  O10 UNL     1       1.282  -1.978  -0.403  1.00  0.00    -0.382 OA
HETATM   34  C21 UNL     1       1.989  -2.675   0.463  1.00  0.00     0.202 C 
ENDBRANCH  12  33
BRANCH   1  35
HETATM   35  O2  UNL     1       1.814   0.381   0.323  1.00  0.00    -0.310 OA
BRANCH  35  36
HETATM   36  C5  UNL     1       2.949   0.689   0.998  1.00  0.00     0.263 C 
HETATM   37  O1  UNL     1       2.960   0.478   2.239  1.00  0.00    -0.265 OA
BRANCH  36  38
HETATM   38  C3  UNL     1       4.152   1.261   0.300  1.00  0.00     0.081 C 
HETATM   39  C4  UNL     1       3.756   2.558  -0.335  1.00  0.00     0.020 C 
BRANCH  38  40
HETATM   40  C2  UNL     1       4.611   0.270  -0.745  1.00  0.00     0.010 C 
HETATM   41  C1  UNL     1       5.806   0.813  -1.501  1.00  0.00     0.006 C 
ENDBRANCH  38  40
ENDBRANCH  36  38
ENDBRANCH  35  36
ENDBRANCH   1  35
BRANCH   5  42
HETATM   42  O7  UNL     1      -1.525  -1.274   2.310  1.00  0.00    -0.387 OA
ATOM     43  H7  UNL     1      -1.235  -2.120   2.630  1.00  0.00     0.210 HD
ENDBRANCH   5  42
BRANCH   9  44
HETATM   44  C18 UNL     1      -0.644  -4.007  -1.266  1.00  0.00     0.182 C 
HETATM   45  O8  UNL     1      -0.041  -5.079  -1.039  1.00  0.00    -0.647 OA
HETATM   46  O9  UNL     1      -0.621  -3.523  -2.543  1.00  0.00    -0.647 OA
ENDBRANCH   9  44
TORSDOF 17
