REMARK  13 active torsions:
REMARK  status: ('A' for Active; 'I' for Inactive)
REMARK    1  A    between atoms: N1_2  and  C3_4 
REMARK    2  A    between atoms: C6_7  and  C7_8 
REMARK       I    between atoms: C7_8  and  N2_10 
REMARK    3  A    between atoms: N2_10  and  C8_12 
REMARK    4  A    between atoms: C8_12  and  C9_13 
REMARK    5  A    between atoms: C8_12  and  C13_23 
REMARK    6  A    between atoms: C9_13  and  C10_14 
REMARK       I    between atoms: C13_23  and  N5_25 
REMARK    7  A    between atoms: N5_25  and  C14_27 
REMARK    8  A    between atoms: C14_27  and  N6_28 
REMARK    9  A    between atoms: C14_27  and  C19_47 
REMARK   10  A    between atoms: N6_28  and  C15_30 
REMARK   11  A    between atoms: C16_33  and  N8_34 
REMARK   12  A    between atoms: C17_37  and  N9_38 
REMARK   13  A    between atoms: C18_41  and  N10_42 
ROOT
HETATM    1  C13 UNL     1      -0.871   0.944  -1.044  1.00  0.00     0.242 C 
HETATM    2  O2  UNL     1      -1.455   1.082  -2.144  1.00  0.00    -0.271 OA
HETATM    3  N5  UNL     1      -1.352   0.089  -0.062  1.00  0.00    -0.329 N 
ATOM      4  H5  UNL     1      -0.661   0.102   0.688  1.00  0.00     0.165 HD
ENDROOT
BRANCH   1   5
HETATM    5  C8  UNL     1       0.406   1.706  -0.711  1.00  0.00     0.181 C 
BRANCH   5   6
HETATM    6  N2  UNL     1       1.479   0.742  -0.736  1.00  0.00    -0.343 N 
HETATM    7  C7  UNL     1       2.164   0.236   0.352  1.00  0.00     0.252 C 
HETATM    8  O1  UNL     1       1.927   0.433   1.551  1.00  0.00    -0.268 OA
ATOM      9  H2  UNL     1       1.762   0.398  -1.654  1.00  0.00     0.163 HD
BRANCH   7  10
HETATM   10  C6  UNL     1       3.326  -0.615   0.161  1.00  0.00     0.032 A 
HETATM   11  C5  UNL     1       4.545   0.097   0.249  1.00  0.00     0.019 A 
HETATM   12  C4  UNL     1       5.703  -0.567   0.100  1.00  0.00     0.030 A 
HETATM   13  C3  UNL     1       5.701  -1.926  -0.136  1.00  0.00     0.029 A 
HETATM   14  C21 UNL     1       4.532  -2.638  -0.223  1.00  0.00     0.030 A 
HETATM   15  C20 UNL     1       3.317  -1.927  -0.064  1.00  0.00     0.019 A 
BRANCH  13  16
HETATM   16  N1  UNL     1       6.974  -2.574  -0.337  1.00  0.00    -0.390 N 
HETATM   17  C1  UNL     1       8.135  -1.721  -0.496  1.00  0.00     0.149 C 
HETATM   18  C2  UNL     1       7.055  -4.007  -0.361  1.00  0.00     0.149 C 
ENDBRANCH  13  16
ENDBRANCH   7  10
ENDBRANCH   5   6
BRANCH   5  19
HETATM   19  C9  UNL     1       0.199   2.408   0.601  1.00  0.00     0.082 C 
BRANCH  19  20
HETATM   20  C10 UNL     1       0.199   3.911   0.395  1.00  0.00     0.004 A 
HETATM   21  C11 UNL     1       1.376   4.654   0.600  1.00  0.00     0.105 A 
HETATM   22  N3  UNL     1       1.314   5.924   0.369  1.00  0.00    -0.346 N 
HETATM   23  C12 UNL     1       0.170   6.458  -0.048  1.00  0.00     0.142 A 
ATOM     24  H3  UNL     1       2.136   6.512   0.505  1.00  0.00     0.167 HD
HETATM   25  N4  UNL     1      -0.065   7.718  -0.337  1.00  0.00    -0.380 N 
HETATM   26  S1  UNL     1      -0.878   5.077  -0.106  1.00  0.00    -0.058 SA
ATOM     27  H42 UNL     1       0.551   8.530  -0.303  1.00  0.00     0.158 HD
ATOM     28  H41 UNL     1      -0.943   8.128  -0.657  1.00  0.00     0.158 HD
ENDBRANCH  19  20
ENDBRANCH   5  19
ENDBRANCH   1   5
BRANCH   3  29
HETATM   29  C14 UNL     1      -2.353  -0.773   0.351  1.00  0.00     0.304 C 
BRANCH  29  30
HETATM   30  N6  UNL     1      -3.399  -1.021  -0.594  1.00  0.00    -0.195 N 
ATOM     31  H6  UNL     1      -3.160  -1.136  -1.579  1.00  0.00     0.180 HD
BRANCH  30  32
HETATM   32  C15 UNL     1      -4.647  -1.104  -0.233  1.00  0.00     0.683 A 
HETATM   33  N7  UNL     1      -5.581  -1.345  -1.167  1.00  0.00    -0.168 N 
HETATM   34  C16 UNL     1      -6.915  -1.396  -0.874  1.00  0.00     0.225 A 
ATOM     35  H7  UNL     1      -5.284  -1.496  -2.131  1.00  0.00     0.186 HD
HETATM   36  C17 UNL     1      -7.337  -1.191   0.418  1.00  0.00     0.197 A 
HETATM   37  C18 UNL     1      -6.371  -0.941   1.396  1.00  0.00     0.152 A 
HETATM   38  N11 UNL     1      -5.076  -0.913   1.014  1.00  0.00    -0.174 N 
ATOM     39  H11 UNL     1      -4.375  -0.732   1.733  1.00  0.00     0.186 HD
BRANCH  34  40
HETATM   40  N8  UNL     1      -7.856  -1.658  -1.893  1.00  0.00    -0.095 N 
HETATM   41  O3  UNL     1      -7.441  -1.864  -3.065  1.00  0.00    -0.530 OA
HETATM   42  O4  UNL     1      -9.205  -1.715  -1.725  1.00  0.00    -0.530 OA
ENDBRANCH  34  40
BRANCH  36  43
HETATM   43  N9  UNL     1      -8.695  -1.196   0.819  1.00  0.00    -0.108 N 
HETATM   44  O5  UNL     1      -9.277  -2.259   1.026  1.00  0.00    -0.531 OA
HETATM   45  O6  UNL     1      -9.327  -0.010   1.002  1.00  0.00    -0.531 OA
ENDBRANCH  36  43
BRANCH  37  46
HETATM   46  N10 UNL     1      -6.725  -0.740   2.604  1.00  0.00    -0.383 N 
ATOM     47 2H10 UNL     1      -7.703  -0.761   2.893  1.00  0.00     0.157 HD
ATOM     48 1H10 UNL     1      -6.020  -0.557   3.318  1.00  0.00     0.157 HD
ENDBRANCH  37  46
ENDBRANCH  30  32
ENDBRANCH  29  30
BRANCH  29  49
HETATM   49  C19 UNL     1      -1.796  -2.060   0.887  1.00  0.00     0.218 C 
HETATM   50  O7  UNL     1      -1.959  -3.109   0.209  1.00  0.00    -0.645 OA
HETATM   51  O8  UNL     1      -1.116  -2.155   2.082  1.00  0.00    -0.645 OA
ENDBRANCH  29  49
ENDBRANCH   3  29
TORSDOF 13
