REMARK  5 active torsions:
REMARK  status: ('A' for Active; 'I' for Inactive)
REMARK    1  A    between atoms: O1_1  and  C1_3 
REMARK    2  A    between atoms: C1_3  and  C2_4 
REMARK    3  A    between atoms: C2_4  and  N1_5 
REMARK    4  A    between atoms: C6_9  and  C7_10 
REMARK    5  A    between atoms: C7_10  and  N2_11 
ROOT
HETATM    1  C7  UNL     1      -0.547  -0.763  -0.872  1.00  0.00     0.096 C 
ENDROOT
BRANCH   1   2
HETATM    2  C6  UNL     1      -1.997  -0.439  -1.140  1.00  0.00     0.261 C 
HETATM    3  N1  UNL     1      -2.865  -0.481  -0.031  1.00  0.00     0.100 N 
HETATM    4  C3  UNL     1      -3.975  -1.362  -0.307  1.00  0.00     0.273 C 
HETATM    5  C4  UNL     1      -4.053  -1.276  -1.842  1.00  0.00     0.033 C 
HETATM    6  C5  UNL     1      -2.581  -1.389  -2.180  1.00  0.00     0.043 C 
BRANCH   3   7
HETATM    7  C2  UNL     1      -3.305   0.839   0.382  1.00  0.00     0.299 C 
BRANCH   7   8
HETATM    8  C1  UNL     1      -3.941   0.825   1.732  1.00  0.00     0.194 C 
BRANCH   8   9
HETATM    9  O1  UNL     1      -4.312   2.148   2.026  1.00  0.00    -0.399 OA
ATOM     10  H1  UNL     1      -4.717   2.139   2.885  1.00  0.00     0.209 HD
ENDBRANCH   8   9
ENDBRANCH   7   8
ENDBRANCH   3   7
ENDBRANCH   1   2
BRANCH   1  11
HETATM   11  N2  UNL     1      -0.052   0.147   0.084  1.00  0.00    -0.370 N 
HETATM   12  C8  UNL     1       1.263   0.336   0.379  1.00  0.00     0.026 C 
HETATM   13  C9  UNL     1       2.130  -0.783   0.899  1.00  0.00     0.083 C 
HETATM   14  C14 UNL     1       2.164   1.098  -0.586  1.00  0.00     0.111 C 
HETATM   15  C10 UNL     1       3.395   0.028   1.118  1.00  0.00     0.089 C 
HETATM   16  C11 UNL     1       4.680  -0.715   0.908  1.00  0.00     0.027 C 
HETATM   17  N3  UNL     1       3.385   0.818  -0.076  1.00  0.00    -0.383 N 
HETATM   18  C12 UNL     1       5.566   0.436   0.386  1.00  0.00     0.022 C 
HETATM   19  C13 UNL     1       4.591   1.396  -0.323  1.00  0.00     0.123 C 
ATOM     20  H2  UNL     1      -0.733   0.708   0.595  1.00  0.00     0.165 HD
ENDBRANCH   1  11
TORSDOF 5
