REMARK  7 active torsions:
REMARK  status: ('A' for Active; 'I' for Inactive)
REMARK    1  A    between atoms: C2_2  and  C3_3 
REMARK    2  A    between atoms: C3_3  and  C4_4 
REMARK    3  A    between atoms: C4_4  and  C5_5 
REMARK    4  A    between atoms: C5_5  and  N1_6 
REMARK    5  A    between atoms: N1_6  and  C6_8 
REMARK    6  A    between atoms: C7_11  and  N3_12 
REMARK    7  A    between atoms: C12_19  and  N5_20 
ROOT
HETATM    1  C6  UNL     1      -0.070   0.776  -0.607  1.00  0.00     0.707 A 
HETATM    2  N2  UNL     1       1.168   1.060  -0.145  1.00  0.00    -0.021 N 
ATOM      3  H2  UNL     1       1.348   1.992   0.228  1.00  0.00     0.203 HD
HETATM    4  C7  UNL     1       2.173   0.165  -0.156  1.00  0.00     0.709 A 
HETATM    5  N4  UNL     1       1.862  -1.055  -0.667  1.00  0.00    -0.021 N 
ATOM      6  H4  UNL     1       2.590  -1.769  -0.698  1.00  0.00     0.203 HD
HETATM    7  C12 UNL     1       0.643  -1.365  -1.133  1.00  0.00     0.706 A 
HETATM    8  N6  UNL     1      -0.336  -0.444  -1.105  1.00  0.00    -0.022 N 
ATOM      9  H6  UNL     1      -1.267  -0.668  -1.456  1.00  0.00     0.203 HD
ENDROOT
BRANCH   1  10
HETATM   10  N1  UNL     1      -0.991   1.686  -0.566  1.00  0.00    -0.225 N 
ATOM     11  H1  UNL     1      -0.743   2.597  -0.180  1.00  0.00     0.177 HD
BRANCH  10  12
HETATM   12  C5  UNL     1      -2.342   1.496  -1.029  1.00  0.00     0.138 C 
BRANCH  12  13
HETATM   13  C4  UNL     1      -3.159   0.922   0.090  1.00  0.00     0.020 C 
BRANCH  13  14
HETATM   14  C3  UNL     1      -4.599   0.687  -0.309  1.00  0.00     0.001 C 
BRANCH  14  15
HETATM   15  C2  UNL     1      -5.396   0.107   0.844  1.00  0.00    -0.004 C 
HETATM   16  C1  UNL     1      -6.836  -0.131   0.455  1.00  0.00     0.005 C 
ENDBRANCH  14  15
ENDBRANCH  13  14
ENDBRANCH  12  13
ENDBRANCH  10  12
ENDBRANCH   1  10
BRANCH   4  17
HETATM   17  N3  UNL     1       3.469   0.467   0.330  1.00  0.00    -0.217 N 
HETATM   18  C8  UNL     1       3.843   1.753   0.882  1.00  0.00     0.141 A 
HETATM   19  C9  UNL     1       5.282   1.615   1.324  1.00  0.00     0.022 A 
HETATM   20  C10 UNL     1       5.759   0.269   0.891  1.00  0.00     0.022 A 
HETATM   21  C11 UNL     1       4.581  -0.456   0.340  1.00  0.00     0.141 A 
ENDBRANCH   4  17
BRANCH   7  22
HETATM   22  N5  UNL     1       0.377  -2.512  -1.606  1.00  0.00    -0.229 N 
HETATM   23  C13 UNL     1       1.289  -3.616  -1.717  1.00  0.00     0.165 C 
ATOM     24  H5  UNL     1      -0.575  -2.664  -1.939  1.00  0.00     0.177 HD
ENDBRANCH   7  22
TORSDOF 7
