REMARK  6 active torsions:
REMARK  status: ('A' for Active; 'I' for Inactive)
REMARK    1  A    between atoms: O1_1  and  C1_3 
REMARK    2  A    between atoms: C1_3  and  C2_4 
REMARK    3  A    between atoms: C1_3  and  C10_14 
REMARK    4  A    between atoms: C2_4  and  N1_5 
REMARK    5  A    between atoms: N1_5  and  C3_7 
REMARK    6  A    between atoms: C10_14  and  N2_15 
ROOT
HETATM    1  C1  UNL     1      -0.964  -0.663   0.828  1.00  0.00     0.163 C 
ENDROOT
BRANCH   1   2
HETATM    2  O1  UNL     1      -0.791  -1.551  -0.258  1.00  0.00    -0.392 OA
ATOM      3  H1  UNL     1      -1.656  -1.744  -0.600  1.00  0.00     0.210 HD
ENDBRANCH   1   2
BRANCH   1   4
HETATM    4  C2  UNL     1       0.411  -0.357   1.372  1.00  0.00     0.147 C 
BRANCH   4   5
HETATM    5  N1  UNL     1       1.188   0.235   0.346  1.00  0.00    -0.415 N 
ATOM      6  H1  UNL     1       0.816   0.417  -0.586  1.00  0.00     0.153 HD
BRANCH   5   7
HETATM    7  C3  UNL     1       2.542   0.561   0.716  1.00  0.00     0.076 C 
HETATM    8  C4  UNL     1       3.156   1.270  -0.479  1.00  0.00     0.024 C 
HETATM    9  C5  UNL     1       2.643   0.717  -1.766  1.00  0.00     0.002 C 
HETATM   10  C6  UNL     1       3.554  -0.421  -2.179  1.00  0.00     0.000 C 
HETATM   11  C7  UNL     1       3.502  -1.547  -1.140  1.00  0.00     0.000 C 
HETATM   12  C8  UNL     1       4.220  -1.213   0.113  1.00  0.00     0.002 C 
HETATM   13  C9  UNL     1       3.387  -0.561   1.173  1.00  0.00     0.024 C 
ENDBRANCH   5   7
ENDBRANCH   4   5
ENDBRANCH   1   4
BRANCH   1  14
HETATM   14  C10 UNL     1      -1.716   0.577   0.426  1.00  0.00     0.305 C 
BRANCH  14  15
HETATM   15  N2  UNL     1      -3.017   0.141  -0.050  1.00  0.00     0.095 N 
HETATM   16  C11 UNL     1      -3.851   1.225  -0.490  1.00  0.00     0.298 C 
HETATM   17  C12 UNL     1      -4.923   1.655   0.438  1.00  0.00     0.198 C 
HETATM   18  O2  UNL     1      -5.423   0.714   1.294  1.00  0.00    -0.388 OA
HETATM   19  C13 UNL     1      -5.180  -0.551   0.768  1.00  0.00     0.198 C 
HETATM   20  C14 UNL     1      -3.679  -0.750   0.871  1.00  0.00     0.298 C 
ENDBRANCH  14  15
ENDBRANCH   1  14
TORSDOF 6
