REMARK  5 active torsions:
REMARK  status: ('A' for Active; 'I' for Inactive)
REMARK    1  A    between atoms: N1_2  and  C2_4 
REMARK    2  A    between atoms: C2_4  and  C3_5 
REMARK    3  A    between atoms: C3_5  and  C4_6 
REMARK    4  A    between atoms: C4_6  and  N2_7 
REMARK       I    between atoms: N3_10  and  C7_11 
REMARK       I    between atoms: C7_11  and  N5_17 
REMARK    5  A    between atoms: N4_12  and  C8_14 
ROOT
HETATM    1  N2  UNL     1       1.237  -0.411  -0.145  1.00  0.00     0.091 N 
HETATM    2  C5  UNL     1       1.217   0.762   0.682  1.00  0.00     0.292 C 
HETATM    3  C6  UNL     1      -0.222   1.043   1.102  1.00  0.00     0.171 C 
HETATM    4  N3  UNL     1      -1.109   0.918  -0.044  1.00  0.00    -0.214 N 
HETATM    5  C7  UNL     1      -2.493   0.990   0.150  1.00  0.00     0.685 C 
HETATM    6  N4  UNL     1      -3.205  -0.058  -0.014  1.00  0.00    -0.222 N 
ATOM      7  H4  UNL     1      -2.699  -0.902  -0.283  1.00  0.00     0.178 HD
HETATM    8  N5  UNL     1      -3.110   2.201   0.523  1.00  0.00    -0.126 N 
ATOM      9  H5  UNL     1      -2.948   2.564   1.462  1.00  0.00     0.197 HD
HETATM   10  C11 UNL     1      -3.944   2.932  -0.353  1.00  0.00     0.196 C 
HETATM   11  N6  UNL     1      -4.633   3.529  -1.085  1.00  0.00    -0.171 NA
HETATM   12  C12 UNL     1      -0.603   0.722  -1.368  1.00  0.00     0.171 C 
HETATM   13  C13 UNL     1       0.596  -0.174  -1.427  1.00  0.00     0.292 C 
ENDROOT
BRANCH   6  14
HETATM   14  C8  UNL     1      -4.614  -0.198   0.131  1.00  0.00     0.091 C 
HETATM   15  C9  UNL     1      -5.189  -0.427  -1.265  1.00  0.00     0.032 C 
HETATM   16  C10 UNL     1      -4.935  -1.474   0.915  1.00  0.00     0.032 C 
ENDBRANCH   6  14
BRANCH   1  17
HETATM   17  C4  UNL     1       2.566  -0.856  -0.481  1.00  0.00     0.274 C 
BRANCH  17  18
HETATM   18  C3  UNL     1       3.373  -1.393   0.652  1.00  0.00     0.049 C 
BRANCH  18  19
HETATM   19  C2  UNL     1       4.714  -1.798   0.071  1.00  0.00     0.115 C 
BRANCH  19  20
HETATM   20  N1  UNL     1       5.344  -0.667  -0.524  1.00  0.00    -0.425 N 
HETATM   21  C1  UNL     1       5.794   0.342   0.383  1.00  0.00     0.139 C 
ATOM     22  H1  UNL     1       5.466  -0.583  -1.533  1.00  0.00     0.152 HD
ENDBRANCH  19  20
ENDBRANCH  18  19
ENDBRANCH  17  18
ENDBRANCH   1  17
TORSDOF 5
