REMARK  9 active torsions:
REMARK  status: ('A' for Active; 'I' for Inactive)
REMARK    1  A    between atoms: C1_2  and  C2_3 
REMARK    2  A    between atoms: C1_2  and  O5_26 
REMARK    3  A    between atoms: C2_3  and  S1_4 
REMARK    4  A    between atoms: S1_4  and  C3_5 
REMARK    5  A    between atoms: C4_10  and  C5_11 
REMARK    6  A    between atoms: C5_11  and  N3_12 
REMARK    7  A    between atoms: C6_13  and  O2_14 
REMARK    8  A    between atoms: C9_18  and  O3_19 
REMARK    9  A    between atoms: O5_26  and  C14_27 
ROOT
HETATM    1  C3  UNL     1       0.904  -1.326  -0.096  1.00  0.00     0.203 A 
HETATM    2  N1  UNL     1       1.315  -0.127  -0.498  1.00  0.00    -0.272 N 
ATOM      3  H1  UNL     1       0.818   0.477  -1.153  1.00  0.00     0.189 HD
HETATM    4  N2  UNL     1       2.479   0.165   0.087  1.00  0.00    -0.279 N 
ATOM      5  H2  UNL     1       3.029   1.016  -0.032  1.00  0.00     0.189 HD
HETATM    6  C4  UNL     1       2.776  -0.877   0.855  1.00  0.00     0.159 A 
HETATM    7  O4  UNL     1       1.816  -1.776   0.739  1.00  0.00    -0.270 OA
ENDROOT
BRANCH   1   8
HETATM    8  S1  UNL     1      -0.573  -2.269  -0.525  1.00  0.00    -0.075 SA
BRANCH   8   9
HETATM    9  C2  UNL     1      -1.943  -1.798   0.589  1.00  0.00     0.194 C 
BRANCH   9  10
HETATM   10  C1  UNL     1      -2.363  -0.436   0.185  1.00  0.00     0.269 C 
HETATM   11  O1  UNL     1      -1.565   0.484  -0.067  1.00  0.00    -0.264 OA
BRANCH  10  12
HETATM   12  O5  UNL     1      -3.721  -0.201   0.079  1.00  0.00    -0.315 OA
BRANCH  12  13
HETATM   13  C14 UNL     1      -4.332   1.008  -0.304  1.00  0.00     0.132 C 
HETATM   14  C15 UNL     1      -5.388   1.445   0.728  1.00  0.00     0.037 C 
HETATM   15  C16 UNL     1      -6.413   0.341   0.623  1.00  0.00    -0.005 C 
HETATM   16  C17 UNL     1      -7.816   0.825   0.830  1.00  0.00     0.005 C 
HETATM   17  C21 UNL     1      -6.194  -0.325  -0.714  1.00  0.00     0.026 C 
HETATM   18  C18 UNL     1      -8.371   1.437  -0.423  1.00  0.00     0.003 C 
HETATM   19  C19 UNL     1      -8.435   0.453  -1.561  1.00  0.00     0.037 C 
HETATM   20  C20 UNL     1      -7.450  -0.668  -1.447  1.00  0.00     0.174 C 
HETATM   21  F1  UNL     1      -8.023  -1.742  -0.750  1.00  0.00    -0.249 F 
HETATM   22  C22 UNL     1      -5.282   0.631  -1.455  1.00  0.00     0.040 C 
ENDBRANCH  12  13
ENDBRANCH  10  12
ENDBRANCH   9  10
ENDBRANCH   8   9
ENDBRANCH   1   8
BRANCH   6  23
HETATM   23  C5  UNL     1       3.978  -1.044   1.719  1.00  0.00     0.219 C 
BRANCH  23  24
HETATM   24  N3  UNL     1       5.159  -0.519   1.078  1.00  0.00    -0.300 N 
HETATM   25  C6  UNL     1       5.923  -1.084   0.161  1.00  0.00     0.151 A 
HETATM   26  C7  UNL     1       7.002  -0.293  -0.157  1.00  0.00     0.004 A 
HETATM   27  C8  UNL     1       6.872   0.845   0.641  1.00  0.00     0.004 A 
HETATM   28  C13 UNL     1       8.093  -0.496  -1.123  1.00  0.00     0.044 C 
HETATM   29  C9  UNL     1       5.738   0.664   1.372  1.00  0.00     0.151 A 
HETATM   30  C10 UNL     1       7.938   1.902   0.546  1.00  0.00     0.044 C 
HETATM   31  C11 UNL     1       9.236   1.082   0.382  1.00  0.00     0.005 C 
HETATM   32  C12 UNL     1       9.176   0.537  -1.028  1.00  0.00     0.005 C 
BRANCH  25  33
HETATM   33  O2  UNL     1       5.616  -2.348  -0.388  1.00  0.00    -0.345 OA
ATOM     34  H2  UNL     1       6.166  -2.754  -1.048  1.00  0.00     0.219 HD
ENDBRANCH  25  33
BRANCH  29  35
HETATM   35  O3  UNL     1       5.213   1.555   2.311  1.00  0.00    -0.345 OA
ATOM     36  H3  UNL     1       5.621   2.388   2.518  1.00  0.00     0.219 HD
ENDBRANCH  29  35
ENDBRANCH  23  24
ENDBRANCH   6  23
TORSDOF 9
