REMARK  6 active torsions:
REMARK  status: ('A' for Active; 'I' for Inactive)
REMARK    1  A    between atoms: C4_8  and  C5_9 
REMARK       I    between atoms: C5_9  and  N2_11 
REMARK    2  A    between atoms: N2_11  and  C6_13 
REMARK    3  A    between atoms: C7_14  and  C8_15 
REMARK    4  A    between atoms: C8_15  and  N3_16 
REMARK    5  A    between atoms: C15_24  and  C16_25 
REMARK    6  A    between atoms: C17_28  and  N4_29 
ROOT
HETATM    1  C6  UNL     1       1.301   1.150  -0.243  1.00  0.00     0.088 A 
HETATM    2  C7  UNL     1      -0.012   0.895   0.020  1.00  0.00     0.050 A 
HETATM    3  S2  UNL     1      -0.669   2.445   0.265  1.00  0.00    -0.077 SA
HETATM    4  C15 UNL     1       0.732   3.382   0.029  1.00  0.00     0.117 A 
HETATM    5  C17 UNL     1       1.692   2.445  -0.239  1.00  0.00     0.154 A 
ENDROOT
BRANCH   1   6
HETATM    6  N2  UNL     1       2.268   0.070  -0.522  1.00  0.00    -0.319 N 
HETATM    7  C5  UNL     1       2.962  -0.516   0.527  1.00  0.00     0.260 C 
HETATM    8  O1  UNL     1       2.712  -0.058   1.693  1.00  0.00    -0.267 OA
ATOM      9  H2  UNL     1       2.425  -0.243  -1.480  1.00  0.00     0.169 HD
BRANCH   7  10
HETATM   10  C4  UNL     1       3.963  -1.610   0.434  1.00  0.00     0.085 A 
HETATM   11  C2  UNL     1       4.094  -2.406  -0.667  1.00  0.00     0.014 A 
HETATM   12  C1  UNL     1       3.310  -2.459  -1.958  1.00  0.00     0.059 C 
HETATM   13  S1  UNL     1       5.418  -3.432  -0.240  1.00  0.00    -0.018 SA
HETATM   14  N1  UNL     1       5.731  -2.822   1.269  1.00  0.00    -0.316 N 
HETATM   15  C3  UNL     1       4.852  -1.859   1.449  1.00  0.00     0.126 A 
ATOM     16  H1  UNL     1       6.453  -3.128   1.921  1.00  0.00     0.175 HD
HETATM   17 CL1  UNL     1       4.887  -0.946   2.995  1.00  0.00    -0.063 Cl
ENDBRANCH   7  10
ENDBRANCH   1   6
BRANCH   2  18
HETATM   18  C8  UNL     1      -0.633  -0.471   0.049  1.00  0.00     0.111 C 
BRANCH  18  19
HETATM   19  N3  UNL     1      -1.999  -0.464   0.354  1.00  0.00    -0.369 N 
HETATM   20  C9  UNL     1      -2.442  -0.002   1.605  1.00  0.00     0.063 C 
HETATM   21  C10 UNL     1      -3.946  -0.133   1.716  1.00  0.00     0.044 C 
HETATM   22  C11 UNL     1      -4.345  -1.559   1.404  1.00  0.00     0.005 C 
HETATM   23  C12 UNL     1      -4.855  -1.566  -0.033  1.00  0.00     0.002 C 
HETATM   24  C13 UNL     1      -3.677  -1.499  -0.984  1.00  0.00     0.020 C 
HETATM   25  C14 UNL     1      -2.887  -0.228  -0.752  1.00  0.00     0.127 C 
ENDBRANCH  18  19
ENDBRANCH   2  18
BRANCH   5  26
HETATM   26  N4  UNL     1       3.059   2.886  -0.494  1.00  0.00    -0.112 N 
HETATM   27  O4  UNL     1       3.500   2.873  -1.651  1.00  0.00    -0.532 OA
HETATM   28  O5  UNL     1       3.797   3.297   0.560  1.00  0.00    -0.532 OA
ENDBRANCH   5  26
BRANCH   4  29
HETATM   29  C16 UNL     1       0.866   4.857   0.096  1.00  0.00     0.219 C 
HETATM   30  O2  UNL     1      -0.155   5.512   0.359  1.00  0.00    -0.643 OA
HETATM   31  O3  UNL     1       2.064   5.475  -0.122  1.00  0.00    -0.643 OA
ENDBRANCH   4  29
TORSDOF 6
