REMARK  9 active torsions:
REMARK  status: ('A' for Active; 'I' for Inactive)
REMARK    1  A    between atoms: O1_2  and  C2_3 
REMARK    2  A    between atoms: C6_8  and  O2_9 
REMARK    3  A    between atoms: C8_11  and  O3_12 
REMARK    4  A    between atoms: C13_18  and  O5_19 
REMARK    5  A    between atoms: C14_21  and  C15_22 
REMARK    6  A    between atoms: C16_24  and  C17_25 
REMARK    7  A    between atoms: C17_25  and  O7_26 
REMARK    8  A    between atoms: O7_26  and  C18_27 
REMARK    9  A    between atoms: C23_33  and  O9_34 
ROOT
HETATM    1  C2  UNL     1      -3.610   1.173   0.759  1.00  0.00     0.143 A 
HETATM    2  C3  UNL     1      -2.539   2.010   0.618  1.00  0.00     0.162 A 
HETATM    3  F1  UNL     1      -2.693   3.320   0.967  1.00  0.00    -0.202 F 
HETATM    4  C4  UNL     1      -1.330   1.523   0.129  1.00  0.00     0.022 A 
HETATM    5  C5  UNL     1      -1.126   0.212  -0.241  1.00  0.00    -0.001 A 
HETATM    6  C6  UNL     1      -2.253  -0.623  -0.077  1.00  0.00     0.112 A 
HETATM    7  C8  UNL     1      -3.444  -0.158   0.402  1.00  0.00     0.138 A 
HETATM    8  C10 UNL     1       0.180  -0.022  -0.687  1.00  0.00     0.066 A 
HETATM    9  C11 UNL     1       0.725  -0.319  -1.996  1.00  0.00    -0.001 A 
HETATM   10  C12 UNL     1       2.164  -0.195  -1.986  1.00  0.00     0.070 A 
HETATM   11  O4  UNL     1       2.553  -0.475  -3.161  1.00  0.00    -0.291 OA
HETATM   12  C13 UNL     1       1.588  -0.769  -3.964  1.00  0.00     0.197 A 
HETATM   13  C14 UNL     1       0.380  -0.677  -3.246  1.00  0.00     0.069 A 
HETATM   14  C16 UNL     1       2.935   0.194  -0.789  1.00  0.00     0.072 C 
HETATM   15  C20 UNL     1       2.204   1.088   0.180  1.00  0.00     0.002 C 
HETATM   16  C21 UNL     1       2.052   0.462   1.547  1.00  0.00     0.011 C 
HETATM   17  C22 UNL     1       0.873   1.346  -0.456  1.00  0.00     0.037 A 
HETATM   18  C23 UNL     1      -0.055   2.309   0.014  1.00  0.00     0.160 A 
ENDROOT
BRANCH  14  19
HETATM   19  C17 UNL     1       3.663  -0.954  -0.149  1.00  0.00     0.190 C 
BRANCH  19  20
HETATM   20  O7  UNL     1       4.371  -0.441   0.963  1.00  0.00    -0.321 OA
BRANCH  20  21
HETATM   21  C18 UNL     1       5.157  -1.194   1.801  1.00  0.00     0.254 C 
HETATM   22  C19 UNL     1       5.874  -0.604   2.949  1.00  0.00     0.126 C 
HETATM   23  O8  UNL     1       5.269  -2.421   1.584  1.00  0.00    -0.266 OA
ENDBRANCH  20  21
ENDBRANCH  19  20
ENDBRANCH  14  19
BRANCH  13  24
HETATM   24  C15 UNL     1      -0.893  -0.913  -3.895  1.00  0.00     0.275 C 
HETATM   25  O6  UNL     1      -2.037  -0.871  -3.458  1.00  0.00    -0.301 OA
ENDBRANCH  13  24
BRANCH  12  26
HETATM   26  O5  UNL     1       1.751  -1.112  -5.302  1.00  0.00    -0.340 OA
ATOM     27  H5  UNL     1       1.040  -1.329  -5.894  1.00  0.00     0.220 HD
ENDBRANCH  12  26
BRANCH  18  28
HETATM   28  O9  UNL     1       0.179   2.862   1.279  1.00  0.00    -0.390 OA
ATOM     29  H9  UNL     1       0.985   3.359   1.206  1.00  0.00     0.210 HD
ENDBRANCH  18  28
BRANCH   6  30
HETATM   30  O2  UNL     1      -2.206  -1.979  -0.395  1.00  0.00    -0.352 OA
HETATM   31  C7  UNL     1      -1.842  -2.980   0.515  1.00  0.00     0.210 C 
ENDBRANCH   6  30
BRANCH   7  32
HETATM   32  O3  UNL     1      -4.518  -0.989   0.548  1.00  0.00    -0.351 OA
HETATM   33  C9  UNL     1      -5.490  -1.230  -0.448  1.00  0.00     0.210 C 
ENDBRANCH   7  32
BRANCH   1  34
HETATM   34  O1  UNL     1      -4.833   1.611   1.240  1.00  0.00    -0.350 OA
HETATM   35  C1  UNL     1      -5.035   1.544   2.640  1.00  0.00     0.210 C 
ENDBRANCH   1  34
TORSDOF 9
