REMARK  6 active torsions:
REMARK  status: ('A' for Active; 'I' for Inactive)
REMARK    1  A    between atoms: O1_2  and  C2_3 
REMARK    2  A    between atoms: C5_6  and  O2_7 
REMARK    3  A    between atoms: C7_9  and  S1_10 
REMARK    4  A    between atoms: S1_10  and  C8_11 
REMARK    5  A    between atoms: N4_22  and  C14_24 
REMARK    6  A    between atoms: C18_30  and  O3_31 
ROOT
HETATM    1  C8  UNL     1      -0.270  -1.499   0.325  1.00  0.00     0.166 A 
HETATM    2  N1  UNL     1      -0.633  -1.291   1.599  1.00  0.00    -0.320 N 
ATOM      3  H1  UNL     1      -0.021  -1.575   2.364  1.00  0.00     0.169 HD
HETATM    4  C9  UNL     1      -1.831  -0.695   1.857  1.00  0.00     0.149 A 
HETATM    5  C10 UNL     1      -2.433  -0.370   3.071  1.00  0.00     0.077 A 
HETATM    6  C11 UNL     1      -3.640   0.219   2.798  1.00  0.00     0.026 A 
HETATM    7  C12 UNL     1      -4.657   0.742   3.758  1.00  0.00     0.070 C 
HETATM    8  N2  UNL     1      -3.734   0.236   1.466  1.00  0.00    -0.282 N 
ATOM      9  H2  UNL     1      -4.530   0.618   0.954  1.00  0.00     0.188 HD
HETATM   10  N3  UNL     1      -2.674  -0.300   0.891  1.00  0.00    -0.070 N 
HETATM   11  C13 UNL     1      -2.320  -0.504  -0.412  1.00  0.00     0.703 A 
HETATM   12  N4  UNL     1      -3.040  -0.169  -1.358  1.00  0.00    -0.216 N 
ATOM     13  H4  UNL     1      -2.570  -0.418  -2.228  1.00  0.00     0.178 HD
HETATM   14  N5  UNL     1      -1.103  -1.109  -0.632  1.00  0.00    -0.168 N 
ATOM     15  H5  UNL     1      -0.821  -1.269  -1.599  1.00  0.00     0.186 HD
ENDROOT
BRANCH   1  16
HETATM   16  S1  UNL     1       1.310  -2.288  -0.062  1.00  0.00    -0.048 SA
BRANCH  16  17
HETATM   17  C7  UNL     1       2.598  -1.070  -0.232  1.00  0.00     0.077 A 
HETATM   18  C5  UNL     1       3.309  -0.713   0.902  1.00  0.00     0.097 A 
HETATM   19  C3  UNL     1       4.299   0.229   0.751  1.00  0.00     0.008 A 
HETATM   20  C2  UNL     1       4.583   0.803  -0.476  1.00  0.00     0.101 A 
HETATM   21  C4  UNL     1       5.091   0.640   1.958  1.00  0.00     0.054 C 
HETATM   22  C20 UNL     1       3.846   0.419  -1.593  1.00  0.00     0.102 A 
HETATM   23  C18 UNL     1       2.846  -0.524  -1.474  1.00  0.00     0.112 A 
HETATM   24 CL1  UNL     1       4.193   1.140  -3.164  1.00  0.00    -0.078 Cl
BRANCH  18  25
HETATM   25  O2  UNL     1       3.019  -1.299   2.149  1.00  0.00    -0.354 OA
HETATM   26  C6  UNL     1       3.690  -2.480   2.533  1.00  0.00     0.210 C 
ENDBRANCH  18  25
BRANCH  20  27
HETATM   27  O1  UNL     1       5.588   1.760  -0.630  1.00  0.00    -0.353 OA
HETATM   28  C1  UNL     1       5.340   3.152  -0.490  1.00  0.00     0.210 C 
ENDBRANCH  20  27
BRANCH  23  29
HETATM   29  O3  UNL     1       2.121  -0.893  -2.610  1.00  0.00    -0.353 OA
HETATM   30  C19 UNL     1       2.667  -1.997  -3.347  1.00  0.00     0.210 C 
ENDBRANCH  23  29
ENDBRANCH  16  17
ENDBRANCH   1  16
BRANCH  12  31
HETATM   31  C14 UNL     1      -4.253   0.422  -1.666  1.00  0.00     0.036 C 
HETATM   32  C15 UNL     1      -4.355   1.890  -1.227  1.00  0.00     0.038 C 
HETATM   33  C16 UNL     1      -5.480  -0.283  -1.168  1.00  0.00     0.038 C 
HETATM   34  C17 UNL     1      -4.418   0.485  -3.216  1.00  0.00     0.038 C 
ENDBRANCH  12  31
TORSDOF 6
