REMARK  7 active torsions:
REMARK  status: ('A' for Active; 'I' for Inactive)
REMARK    1  A    between atoms: C2_2  and  C3_3 
REMARK    2  A    between atoms: C4_4  and  C5_5 
REMARK    3  A    between atoms: C6_6  and  O1_7 
REMARK    4  A    between atoms: N1_12  and  C9_13 
REMARK    5  A    between atoms: C9_13  and  C10_14 
REMARK    6  A    between atoms: C12_18  and  C13_19 
REMARK    7  A    between atoms: C13_19  and  O3_20 
ROOT
HETATM    1  C5  UNL     1       0.698  -1.393   0.599  1.00  0.00     0.102 C 
HETATM    2  C6  UNL     1       0.212  -2.388  -0.381  1.00  0.00     0.143 C 
HETATM    3  C7  UNL     1      -1.261  -2.404  -0.616  1.00  0.00     0.136 C 
HETATM    4  C8  UNL     1      -1.802  -1.149  -1.159  1.00  0.00     0.222 C 
HETATM    5  O2  UNL     1      -2.472  -1.181  -2.225  1.00  0.00    -0.273 OA
HETATM    6  N1  UNL     1      -1.687   0.185  -0.646  1.00  0.00    -0.346 N 
HETATM    7  C11 UNL     1      -0.730   0.654   0.333  1.00  0.00     0.134 C 
HETATM    8  C12 UNL     1      -0.326  -0.504   1.200  1.00  0.00     0.045 C 
ENDROOT
BRANCH   1   9
HETATM    9  C4  UNL     1       1.723  -0.518  -0.026  1.00  0.00    -0.099 C 
HETATM   10  C3  UNL     1       2.558   0.177  -0.549  1.00  0.00    -0.106 C 
BRANCH  10  11
HETATM   11  C2  UNL     1       3.564   1.023  -1.209  1.00  0.00     0.089 C 
HETATM   12  C1  UNL     1       4.048   2.028  -0.221  1.00  0.00     0.018 C 
ENDBRANCH  10  11
ENDBRANCH   1   9
BRANCH   2  13
HETATM   13  O1  UNL     1       0.825  -2.158  -1.635  1.00  0.00    -0.394 OA
ATOM     14  H1  UNL     1       0.513  -2.797  -2.265  1.00  0.00     0.210 HD
ENDBRANCH   2  13
BRANCH   8  15
HETATM   15  C13 UNL     1       0.073  -0.029   2.603  1.00  0.00     0.171 C 
BRANCH  15  16
HETATM   16  O3  UNL     1       1.268   0.682   2.575  1.00  0.00    -0.400 OA
ATOM     17  H3  UNL     1       1.515   0.976   3.444  1.00  0.00     0.209 HD
ENDBRANCH  15  16
ENDBRANCH   8  15
BRANCH   6  18
HETATM   18  C9  UNL     1      -2.630   1.174  -1.163  1.00  0.00     0.196 C 
BRANCH  18  19
HETATM   19  C10 UNL     1      -3.882   1.207  -0.303  1.00  0.00     0.370 C 
HETATM   20  F1  UNL     1      -4.519  -0.008  -0.278  1.00  0.00    -0.213 F 
HETATM   21  F2  UNL     1      -4.744   2.126  -0.853  1.00  0.00    -0.213 F 
ENDBRANCH  18  19
ENDBRANCH   6  18
TORSDOF 7
