REMARK  5 active torsions:
REMARK  status: ('A' for Active; 'I' for Inactive)
REMARK    1  A    between atoms: O1_2  and  C2_3 
REMARK    2  A    between atoms: C4_5  and  C5_6 
REMARK    3  A    between atoms: C5_6  and  N1_7 
REMARK    4  A    between atoms: C9_14  and  N3_15 
REMARK    5  A    between atoms: C11_20  and  C12_21 
ROOT
HETATM    1  N1  UNL     1       1.918  -0.508  -0.049  1.00  0.00    -0.357 N 
HETATM    2  C6  UNL     1       2.139   0.638  -0.828  1.00  0.00     0.144 C 
HETATM    3  C7  UNL     1       2.511   1.856   0.035  1.00  0.00     0.142 C 
HETATM    4  N2  UNL     1       3.800   1.519   0.607  1.00  0.00    -0.356 N 
ATOM      5  H2  UNL     1       4.473   2.246   0.849  1.00  0.00     0.162 HD
HETATM    6  C8  UNL     1       4.097   0.148   0.820  1.00  0.00     0.268 C 
HETATM    7  O2  UNL     1       5.267  -0.161   1.146  1.00  0.00    -0.269 OA
HETATM    8  C9  UNL     1       3.102  -0.946   0.678  1.00  0.00     0.376 C 
ENDROOT
BRANCH   1   9
HETATM    9  C5  UNL     1       0.714  -0.740   0.615  1.00  0.00     0.065 C 
BRANCH   9  10
HETATM   10  C4  UNL     1      -0.519  -1.070  -0.144  1.00  0.00     0.027 C 
HETATM   11  C3  UNL     1      -1.685  -1.302   0.847  1.00  0.00     0.042 C 
HETATM   12  C2  UNL     1      -2.801  -0.431   0.319  1.00  0.00     0.131 C 
HETATM   13  C11 UNL     1      -2.521  -0.472  -1.156  1.00  0.00     0.080 C 
HETATM   14  C10 UNL     1      -1.030  -0.068  -1.112  1.00  0.00     0.022 C 
BRANCH  12  15
HETATM   15  O1  UNL     1      -2.599   0.836   0.846  1.00  0.00    -0.390 OA
HETATM   16  C1  UNL     1      -3.700   1.296   1.560  1.00  0.00     0.202 C 
ENDBRANCH  12  15
BRANCH  13  17
HETATM   17  C12 UNL     1      -3.310   0.485  -1.980  1.00  0.00     0.359 C 
HETATM   18  F1  UNL     1      -3.132   1.791  -1.665  1.00  0.00    -0.214 F 
HETATM   19  F2  UNL     1      -3.000   0.249  -3.307  1.00  0.00    -0.214 F 
ENDBRANCH  13  17
ENDBRANCH   9  10
ENDBRANCH   1   9
BRANCH   8  20
HETATM   20  N3  UNL     1       3.746  -2.030  -0.035  1.00  0.00    -0.049 N 
ATOM     21  H33 UNL     1       3.104  -2.801  -0.221  1.00  0.00     0.277 HD
ATOM     22  H32 UNL     1       3.960  -1.779  -1.000  1.00  0.00     0.277 HD
ATOM     23  H31 UNL     1       4.575  -2.337   0.474  1.00  0.00     0.277 HD
ENDBRANCH   8  20
TORSDOF 5
