REMARK  7 active torsions:
REMARK  status: ('A' for Active; 'I' for Inactive)
REMARK    1  A    between atoms: N1_2  and  C3_4 
REMARK    2  A    between atoms: C3_4  and  O1_5 
REMARK    3  A    between atoms: N2_9  and  C6_10 
REMARK    4  A    between atoms: C6_10  and  C7_11 
REMARK    5  A    between atoms: C8_12  and  C9_13 
REMARK    6  A    between atoms: C9_13  and  C10_14 
REMARK    7  A    between atoms: C10_14  and  O2_15 
ROOT
HETATM    1  C3  UNL     1      -2.063  -0.131  -0.072  1.00  0.00     0.261 C 
HETATM    2  C4  UNL     1      -2.158   1.068   0.836  1.00  0.00     0.102 C 
HETATM    3  C5  UNL     1      -0.991   1.950   0.853  1.00  0.00     0.278 C 
HETATM    4  N2  UNL     1       0.266   1.469   0.436  1.00  0.00     0.099 N 
HETATM    5  C11 UNL     1       0.300   0.240  -0.272  1.00  0.00     0.278 C 
HETATM    6  C12 UNL     1      -0.720  -0.764   0.189  1.00  0.00     0.102 C 
ENDROOT
BRANCH   4   7
HETATM    7  C6  UNL     1       1.249   1.602   1.472  1.00  0.00     0.365 C 
BRANCH   7   8
HETATM    8  C7  UNL     1       2.537   1.141   0.979  1.00  0.00    -0.076 C 
HETATM    9  C8  UNL     1       3.617   0.777   0.558  1.00  0.00    -0.103 C 
BRANCH   9  10
HETATM   10  C9  UNL     1       4.919   0.362   0.036  1.00  0.00     0.119 C 
BRANCH  10  11
HETATM   11  C10 UNL     1       4.834  -1.106  -0.342  1.00  0.00     0.176 C 
BRANCH  11  12
HETATM   12  O2  UNL     1       6.052  -1.564  -0.852  1.00  0.00    -0.400 OA
ATOM     13  H2  UNL     1       5.999  -2.483  -1.089  1.00  0.00     0.209 HD
ENDBRANCH  11  12
ENDBRANCH  10  11
ENDBRANCH   9  10
ENDBRANCH   7   8
ENDBRANCH   4   7
BRANCH   1  14
HETATM   14  N1  UNL     1      -3.110  -1.061   0.302  1.00  0.00     0.115 N 
HETATM   15  C1  UNL     1      -4.428  -0.466   0.105  1.00  0.00     0.313 C 
HETATM   16  C2  UNL     1      -3.026  -2.220  -0.552  1.00  0.00     0.313 C 
ENDBRANCH   1  14
BRANCH   1  17
HETATM   17  O1  UNL     1      -2.195   0.330  -1.381  1.00  0.00    -0.363 OA
ATOM     18  H1  UNL     1      -1.509   0.940  -1.626  1.00  0.00     0.212 HD
ENDBRANCH   1  17
TORSDOF 7
