REMARK  3 active torsions:
REMARK  status: ('A' for Active; 'I' for Inactive)
REMARK    1  A    between atoms: C3_5  and  C4_6 
REMARK    2  A    between atoms: C4_6  and  S1_7 
REMARK    3  A    between atoms: S1_7  and  C5_9 
ROOT
HETATM    1  C4  UNL     1       1.531   0.594  -0.551  1.00  0.00     0.162 C 
ENDROOT
BRANCH   1   2
HETATM    2  C3  UNL     1       2.901   0.481   0.026  1.00  0.00     0.235 C 
HETATM    3  O2  UNL     1       3.883   1.004  -0.846  1.00  0.00    -0.357 OA
HETATM    4  C2  UNL     1       5.038   0.733  -0.085  1.00  0.00     0.273 C 
HETATM    5  C1  UNL     1       4.823  -0.697   0.259  1.00  0.00     0.243 C 
HETATM    6  O1  UNL     1       5.636  -1.592   0.575  1.00  0.00    -0.271 OA
HETATM    7  N1  UNL     1       3.393  -0.877   0.154  1.00  0.00    -0.332 N 
ATOM      8  H1  UNL     1       2.860  -1.747   0.167  1.00  0.00     0.165 HD
ENDBRANCH   1   2
BRANCH   1   9
HETATM    9  S1  UNL     1       0.365  -0.064   0.596  1.00  0.00     0.023 S 
HETATM   10  O3  UNL     1       0.592  -1.651   0.981  1.00  0.00    -0.258 OA
BRANCH   9  11
HETATM   11  C5  UNL     1      -1.302   0.329   0.175  1.00  0.00     0.079 C 
HETATM   12  C6  UNL     1      -1.726  -0.185  -1.157  1.00  0.00     0.017 C 
HETATM   13  C7  UNL     1      -3.168  -0.359  -1.373  1.00  0.00     0.001 C 
HETATM   14  C8  UNL     1      -4.073  -0.294  -0.216  1.00  0.00     0.000 C 
HETATM   15  C9  UNL     1      -3.555   0.383   1.003  1.00  0.00     0.001 C 
HETATM   16  C10 UNL     1      -2.183  -0.208   1.308  1.00  0.00     0.017 C 
ENDBRANCH   9  11
ENDBRANCH   1   9
TORSDOF 3
