REMARK  4 active torsions:
REMARK  status: ('A' for Active; 'I' for Inactive)
REMARK    1  A    between atoms: N2_3  and  C2_4 
REMARK    2  A    between atoms: N2_3  and  C9_16 
REMARK    3  A    between atoms: C2_4  and  C3_5 
REMARK    4  A    between atoms: C9_16  and  C10_17 
ROOT
HETATM    1  N1  UNL     1       0.186   2.081  -0.792  1.00  0.00    -0.172 NA
HETATM    2  C1  UNL     1       0.046   0.969  -0.441  1.00  0.00     0.184 C 
HETATM    3  N2  UNL     1      -0.103  -0.421  -0.036  1.00  0.00    -0.295 N 
ENDROOT
BRANCH   3   4
HETATM    4  C2  UNL     1      -1.342  -0.997  -0.480  1.00  0.00     0.185 C 
BRANCH   4   5
HETATM    5  C3  UNL     1      -2.587  -0.270  -0.187  1.00  0.00     0.044 A 
HETATM    6  C4  UNL     1      -3.202   0.307  -1.294  1.00  0.00     0.169 A 
HETATM    7  F1  UNL     1      -2.592   0.398  -2.491  1.00  0.00    -0.202 F 
HETATM    8  C5  UNL     1      -4.474   0.864  -1.172  1.00  0.00     0.197 A 
HETATM    9  F2  UNL     1      -5.075   1.492  -2.235  1.00  0.00    -0.199 F 
HETATM   10  C6  UNL     1      -5.143   0.871   0.005  1.00  0.00     0.199 A 
HETATM   11  F3  UNL     1      -6.403   1.368   0.109  1.00  0.00    -0.199 F 
HETATM   12  C7  UNL     1      -4.528   0.311   1.091  1.00  0.00     0.197 A 
HETATM   13  F4  UNL     1      -5.209   0.319   2.250  1.00  0.00    -0.199 F 
HETATM   14  C8  UNL     1      -3.267  -0.245   0.962  1.00  0.00     0.169 A 
HETATM   15  F5  UNL     1      -2.652  -0.708   2.103  1.00  0.00    -0.202 F 
ENDBRANCH   4   5
ENDBRANCH   3   4
BRANCH   3  16
HETATM   16  C9  UNL     1       0.844  -1.133   0.689  1.00  0.00     0.083 C 
BRANCH  16  17
HETATM   17  C10 UNL     1       2.276  -0.675   0.561  1.00  0.00     0.061 C 
HETATM   18  C11 UNL     1       2.698  -0.721  -0.893  1.00  0.00     0.136 C 
HETATM   19  N3  UNL     1       4.135  -0.486  -0.963  1.00  0.00    -0.342 N 
HETATM   20  C12 UNL     1       4.526   0.793  -0.402  1.00  0.00     0.316 C 
ATOM     21  H3  UNL     1       4.796  -1.151  -1.364  1.00  0.00     0.164 HD
HETATM   22  O1  UNL     1       5.611   1.351  -0.746  1.00  0.00    -0.247 OA
HETATM   23  N4  UNL     1       3.642   1.342   0.533  1.00  0.00    -0.342 N 
HETATM   24  C13 UNL     1       2.689   0.546   1.289  1.00  0.00     0.136 C 
ATOM     25  H4  UNL     1       3.667   2.349   0.692  1.00  0.00     0.164 HD
ENDBRANCH  16  17
ENDBRANCH   3  16
TORSDOF 4
