REMARK  7 active torsions:
REMARK  status: ('A' for Active; 'I' for Inactive)
REMARK    1  A    between atoms: N1_2  and  C2_3 
REMARK       I    between atoms: N1_2  and  C4_7 
REMARK    2  A    between atoms: C2_3  and  C3_4 
REMARK    3  A    between atoms: C3_4  and  O1_5 
REMARK    4  A    between atoms: C4_7  and  C5_9 
REMARK    5  A    between atoms: C9_13  and  O3_14 
REMARK    6  A    between atoms: C9_13  and  C10_16 
REMARK    7  A    between atoms: C10_16  and  N2_18 
ROOT
HETATM    1  C5  UNL     1       0.183  -0.660  -0.237  1.00  0.00     0.081 C 
HETATM    2  C6  UNL     1       0.032  -2.097  -0.722  1.00  0.00     0.014 C 
HETATM    3  C7  UNL     1      -0.538  -2.952   0.411  1.00  0.00     0.004 C 
HETATM    4  C8  UNL     1      -1.974  -2.488   0.569  1.00  0.00     0.043 C 
HETATM    5  C9  UNL     1      -2.025  -0.977   0.858  1.00  0.00     0.118 C 
HETATM    6  C13 UNL     1      -0.651  -0.405   0.984  1.00  0.00     0.057 C 
ENDROOT
BRANCH   5   7
HETATM    7  O3  UNL     1      -2.690  -0.902   2.114  1.00  0.00    -0.385 OA
ATOM      8  H3  UNL     1      -2.721   0.031   2.292  1.00  0.00     0.210 HD
ENDBRANCH   5   7
BRANCH   5   9
HETATM    9  C10 UNL     1      -2.928  -0.381  -0.161  1.00  0.00     0.450 C 
HETATM   10  F1  UNL     1      -4.083  -1.209  -0.168  1.00  0.00    -0.212 F 
BRANCH   9  11
HETATM   11  N2  UNL     1      -3.368   0.928  -0.031  1.00  0.00     0.244 N 
HETATM   12  C11 UNL     1      -2.648   2.138  -0.071  1.00  0.00     0.521 A 
HETATM   13  F2  UNL     1      -3.142   3.250   0.606  1.00  0.00    -0.207 F 
HETATM   14  C12 UNL     1      -3.552   1.727  -1.215  1.00  0.00     0.506 A 
HETATM   15  F3  UNL     1      -4.802   2.288  -1.325  1.00  0.00    -0.168 F 
HETATM   16  F4  UNL     1      -2.957   1.382  -2.388  1.00  0.00    -0.168 F 
ENDBRANCH   9  11
ENDBRANCH   5   9
BRANCH   1  17
HETATM   17  C4  UNL     1       1.627  -0.414   0.010  1.00  0.00     0.223 C 
HETATM   18  N1  UNL     1       2.246   0.815   0.254  1.00  0.00    -0.354 N 
HETATM   19  C1  UNL     1       1.486   2.035   0.268  1.00  0.00     0.152 C 
HETATM   20  O2  UNL     1       2.382  -1.450   0.000  1.00  0.00    -0.273 OA
BRANCH  18  21
HETATM   21  C2  UNL     1       3.665   0.891   0.497  1.00  0.00     0.151 C 
BRANCH  21  22
HETATM   22  C3  UNL     1       4.420   1.075  -0.823  1.00  0.00     0.183 C 
BRANCH  22  23
HETATM   23  O1  UNL     1       5.791   1.150  -0.598  1.00  0.00    -0.399 OA
ATOM     24  H1  UNL     1       6.259   1.264  -1.417  1.00  0.00     0.209 HD
ENDBRANCH  22  23
ENDBRANCH  21  22
ENDBRANCH  18  21
ENDBRANCH   1  17
TORSDOF 7
