REMARK  6 active torsions:
REMARK  status: ('A' for Active; 'I' for Inactive)
REMARK    1  A    between atoms: O1_1  and  C1_3 
REMARK    2  A    between atoms: C1_3  and  C2_4 
REMARK    3  A    between atoms: C2_4  and  O2_5 
REMARK    4  A    between atoms: C2_4  and  C3_7 
REMARK    5  A    between atoms: N1_11  and  C7_12 
REMARK    6  A    between atoms: C7_12  and  C8_13 
ROOT
HETATM    1  C7  UNL     1       0.570  -0.606  -0.657  1.00  0.00     0.318 C 
ENDROOT
BRANCH   1   2
HETATM    2  N1  UNL     1      -0.391  -0.468   0.394  1.00  0.00     0.100 N 
HETATM    3  C3  UNL     1      -1.785  -0.373   0.253  1.00  0.00     0.254 C 
HETATM    4  C4  UNL     1      -2.075  -1.267  -0.897  1.00  0.00     0.040 C 
HETATM    5  C5  UNL     1      -1.228  -2.487  -0.394  1.00  0.00     0.032 C 
HETATM    6  C6  UNL     1      -0.520  -1.957   0.801  1.00  0.00     0.273 C 
BRANCH   3   7
HETATM    7  C2  UNL     1      -2.513   0.819   0.573  1.00  0.00     0.175 C 
BRANCH   7   8
HETATM    8  C1  UNL     1      -2.138   2.101  -0.046  1.00  0.00     0.198 C 
BRANCH   8   9
HETATM    9  O1  UNL     1      -2.278   2.090  -1.425  1.00  0.00    -0.398 OA
ATOM     10  H1  UNL     1      -2.036   2.917  -1.824  1.00  0.00     0.209 HD
ENDBRANCH   8   9
ENDBRANCH   7   8
BRANCH   7  11
HETATM   11  O2  UNL     1      -2.300   1.050   1.988  1.00  0.00    -0.391 OA
ATOM     12  H2  UNL     1      -2.542   0.223   2.387  1.00  0.00     0.210 HD
ENDBRANCH   7  11
ENDBRANCH   3   7
ENDBRANCH   1   2
BRANCH   1  13
HETATM   13  C8  UNL     1       1.884   0.046  -0.280  1.00  0.00     0.054 A 
HETATM   14  C9  UNL     1       2.900  -0.714   0.187  1.00  0.00     0.169 A 
HETATM   15  F1  UNL     1       2.879  -2.078   0.391  1.00  0.00    -0.202 F 
HETATM   16  C10 UNL     1       4.126  -0.127   0.465  1.00  0.00     0.197 A 
HETATM   17  F2  UNL     1       5.138  -0.887   0.950  1.00  0.00    -0.199 F 
HETATM   18  C11 UNL     1       4.323   1.218   0.280  1.00  0.00     0.199 A 
HETATM   19  F3  UNL     1       5.497   1.854   0.540  1.00  0.00    -0.199 F 
HETATM   20  C12 UNL     1       3.299   2.029  -0.208  1.00  0.00     0.197 A 
HETATM   21  F4  UNL     1       3.504   3.328  -0.401  1.00  0.00    -0.199 F 
HETATM   22  C13 UNL     1       2.072   1.403  -0.480  1.00  0.00     0.169 A 
HETATM   23  F5  UNL     1       1.167   2.188  -1.061  1.00  0.00    -0.202 F 
ENDBRANCH   1  13
TORSDOF 6
