REMARK  4 active torsions:
REMARK  status: ('A' for Active; 'I' for Inactive)
REMARK       I    between atoms: C2_4  and  N2_5 
REMARK       I    between atoms: C2_4  and  N3_8 
REMARK    1  A    between atoms: C6_11  and  N4_12 
REMARK    2  A    between atoms: N4_12  and  C8_14 
REMARK    3  A    between atoms: C8_14  and  C9_15 
REMARK    4  A    between atoms: C9_15  and  O1_16 
ROOT
HETATM    1  C1  UNL     1      -4.610   2.421   0.187  1.00  0.00     0.165 C 
HETATM    2  N1  UNL     1      -3.325   1.816   0.264  1.00  0.00    -0.231 N 
ATOM      3  H1  UNL     1      -2.603   2.380   0.712  1.00  0.00     0.177 HD
HETATM    4  C2  UNL     1      -2.950   0.680  -0.143  1.00  0.00     0.671 C 
HETATM    5  N2  UNL     1      -3.856  -0.199  -0.783  1.00  0.00    -0.231 N 
ATOM      6  H2  UNL     1      -3.651  -0.486  -1.740  1.00  0.00     0.177 HD
HETATM    7  C3  UNL     1      -5.044  -0.709  -0.165  1.00  0.00     0.165 C 
HETATM    8  N3  UNL     1      -1.596   0.217   0.000  1.00  0.00    -0.218 N 
HETATM    9  C4  UNL     1      -0.573   0.997  -0.618  1.00  0.00     0.143 C 
HETATM   10  C5  UNL     1       0.819   0.581  -0.346  1.00  0.00     0.045 C 
HETATM   11  C6  UNL     1       1.038  -0.796   0.173  1.00  0.00     0.086 C 
HETATM   12  C11 UNL     1      -0.162  -1.684   0.022  1.00  0.00     0.045 C 
HETATM   13  C12 UNL     1      -1.330  -0.981   0.735  1.00  0.00     0.143 C 
ENDROOT
BRANCH  11  14
HETATM   14  N4  UNL     1       2.220  -1.304  -0.404  1.00  0.00    -0.391 N 
HETATM   15  C7  UNL     1       2.291  -1.475  -1.797  1.00  0.00     0.149 C 
BRANCH  14  16
HETATM   16  C8  UNL     1       3.348  -1.545   0.390  1.00  0.00     0.084 C 
BRANCH  16  17
HETATM   17  C9  UNL     1       3.899  -0.209   0.883  1.00  0.00     0.211 C 
BRANCH  17  18
HETATM   18  O1  UNL     1       4.238   0.565  -0.218  1.00  0.00    -0.391 OA
HETATM   19  C10 UNL     1       4.738   1.798   0.231  1.00  0.00     0.201 C 
ENDBRANCH  17  18
ENDBRANCH  16  17
ENDBRANCH  14  16
ENDBRANCH  11  14
TORSDOF 4
