REMARK  6 active torsions:
REMARK  status: ('A' for Active; 'I' for Inactive)
REMARK    1  A    between atoms: C2_5  and  C3_6 
REMARK    2  A    between atoms: C2_5  and  N4_13 
REMARK    3  A    between atoms: C3_6  and  N3_7 
REMARK       I    between atoms: N3_7  and  C4_8 
REMARK    4  A    between atoms: C4_8  and  C5_10 
REMARK    5  A    between atoms: N4_13  and  C6_15 
REMARK    6  A    between atoms: C6_15  and  C7_16 
ROOT
HETATM    1  N1  UNL     1       2.138  -3.418   3.235  1.00  0.00    -0.172 NA
HETATM    2  C1  UNL     1       1.346  -2.915   2.577  1.00  0.00     0.183 C 
HETATM    3  N2  UNL     1       0.397  -2.281   1.781  1.00  0.00    -0.277 N 
ATOM      4  H2  UNL     1      -0.581  -2.266   2.069  1.00  0.00     0.179 HD
HETATM    5  C2  UNL     1       0.748  -1.721   0.695  1.00  0.00     0.143 C 
ENDROOT
BRANCH   5   6
HETATM    6  C3  UNL     1       2.158  -1.742   0.280  1.00  0.00     0.235 C 
BRANCH   6   7
HETATM    7  N3  UNL     1       2.924  -0.600   0.456  1.00  0.00    -0.377 NA
HETATM    8  C4  UNL     1       3.667   0.507   0.626  1.00  0.00     0.324 C 
HETATM    9  O1  UNL     1       3.948   1.156   1.700  1.00  0.00    -0.254 OA
BRANCH   8  10
HETATM   10  C5  UNL     1       4.336   1.187  -0.589  1.00  0.00     0.284 C 
HETATM   11 CL1  UNL     1       5.034   2.703  -0.024  1.00  0.00    -0.097 Cl
HETATM   12 CL2  UNL     1       5.629   0.045  -1.050  1.00  0.00    -0.097 Cl
ENDBRANCH   8  10
ENDBRANCH   6   7
ENDBRANCH   5   6
BRANCH   5  13
HETATM   13  N4  UNL     1      -0.310  -1.085  -0.062  1.00  0.00    -0.349 N 
ATOM     14  H4  UNL     1      -0.573  -1.464  -0.971  1.00  0.00     0.167 HD
BRANCH  13  15
HETATM   15  C6  UNL     1      -0.978   0.042   0.433  1.00  0.00     0.107 C 
BRANCH  15  16
HETATM   16  C7  UNL     1      -2.216   0.518  -0.175  1.00  0.00     0.063 A 
HETATM   17  C8  UNL     1      -2.818   1.682   0.368  1.00  0.00     0.172 A 
HETATM   18  F1  UNL     1      -2.161   2.271   1.407  1.00  0.00    -0.202 F 
HETATM   19  C9  UNL     1      -3.988   2.196  -0.108  1.00  0.00     0.197 A 
HETATM   20  F2  UNL     1      -4.500   3.312   0.465  1.00  0.00    -0.199 F 
HETATM   21  C10 UNL     1      -4.645   1.590  -1.159  1.00  0.00     0.199 A 
HETATM   22  F3  UNL     1      -5.797   2.126  -1.599  1.00  0.00    -0.199 F 
HETATM   23  C11 UNL     1      -4.075   0.463  -1.696  1.00  0.00     0.197 A 
HETATM   24  F4  UNL     1      -4.713  -0.146  -2.735  1.00  0.00    -0.199 F 
HETATM   25  C12 UNL     1      -2.861  -0.074  -1.204  1.00  0.00     0.172 A 
HETATM   26  F5  UNL     1      -2.437  -1.199  -1.842  1.00  0.00    -0.202 F 
ENDBRANCH  15  16
ENDBRANCH  13  15
ENDBRANCH   5  13
TORSDOF 6
