REMARK  6 active torsions:
REMARK  status: ('A' for Active; 'I' for Inactive)
REMARK    1  A    between atoms: C1_2  and  C2_7 
REMARK    2  A    between atoms: N2_3  and  O1_5 
REMARK    3  A    between atoms: N3_9  and  C4_10 
REMARK    4  A    between atoms: C4_10  and  C5_11 
REMARK    5  A    between atoms: N4_24  and  C13_25 
REMARK    6  A    between atoms: C13_25  and  C14_26 
ROOT
HETATM    1  C2  UNL     1      -1.501   0.549   0.704  1.00  0.00     0.178 C 
HETATM    2  C3  UNL     1      -0.044   0.638   0.210  1.00  0.00     0.305 C 
HETATM    3  N3  UNL     1       0.722  -0.508   0.593  1.00  0.00     0.096 N 
HETATM    4  C11 UNL     1      -0.082  -1.670   0.904  1.00  0.00     0.292 C 
HETATM    5  C12 UNL     1      -1.256  -1.728  -0.092  1.00  0.00     0.153 C 
HETATM    6  N4  UNL     1      -2.074  -0.627   0.168  1.00  0.00    -0.374 N 
ENDROOT
BRANCH   3   7
HETATM    7  C4  UNL     1       1.737  -0.868  -0.332  1.00  0.00     0.317 C 
BRANCH   7   8
HETATM    8  C5  UNL     1       3.000  -0.155  -0.313  1.00  0.00     0.054 A 
HETATM    9  C6  UNL     1       3.900  -0.473  -1.341  1.00  0.00     0.169 A 
HETATM   10  F1  UNL     1       3.543  -1.356  -2.305  1.00  0.00    -0.202 F 
HETATM   11  C7  UNL     1       5.143   0.078  -1.424  1.00  0.00     0.197 A 
HETATM   12  F2  UNL     1       6.038  -0.222  -2.420  1.00  0.00    -0.199 F 
HETATM   13  C8  UNL     1       5.569   0.988  -0.481  1.00  0.00     0.199 A 
HETATM   14  F3  UNL     1       6.818   1.557  -0.548  1.00  0.00    -0.199 F 
HETATM   15  C9  UNL     1       4.710   1.319   0.541  1.00  0.00     0.197 A 
HETATM   16  F4  UNL     1       5.098   2.213   1.494  1.00  0.00    -0.199 F 
HETATM   17  C10 UNL     1       3.435   0.747   0.619  1.00  0.00     0.169 A 
HETATM   18  F5  UNL     1       2.688   1.098   1.695  1.00  0.00    -0.202 F 
ENDBRANCH   7   8
ENDBRANCH   3   7
BRANCH   1  19
HETATM   19  C1  UNL     1      -2.173   1.761   0.191  1.00  0.00     0.137 C 
HETATM   20  N1  UNL     1      -2.173   2.039  -1.190  1.00  0.00    -0.083 NA
HETATM   21  N2  UNL     1      -2.748   2.571   0.996  1.00  0.00    -0.257 N 
ATOM     22  H2  UNL     1      -2.745   2.366   1.995  1.00  0.00     0.195 HD
BRANCH  21  23
HETATM   23  O1  UNL     1      -3.370   3.711   0.547  1.00  0.00    -0.289 OA
ATOM     24  H1  UNL     1      -3.797   4.313   1.145  1.00  0.00     0.244 HD
ENDBRANCH  21  23
ENDBRANCH   1  19
BRANCH   6  25
HETATM   25  C13 UNL     1      -3.456  -0.819   0.331  1.00  0.00     0.129 C 
BRANCH  25  26
HETATM   26  C14 UNL     1      -3.982  -2.153  -0.129  1.00  0.00     0.391 C 
HETATM   27  F6  UNL     1      -5.344  -2.154   0.103  1.00  0.00    -0.208 F 
HETATM   28  F7  UNL     1      -3.799  -2.334  -1.482  1.00  0.00    -0.208 F 
ENDBRANCH  25  26
ENDBRANCH   6  25
TORSDOF 6
