REMARK  7 active torsions:
REMARK  status: ('A' for Active; 'I' for Inactive)
REMARK    1  A    between atoms: C2_4  and  C3_5 
REMARK    2  A    between atoms: C2_4  and  N4_19 
REMARK    3  A    between atoms: C3_5  and  N2_6 
REMARK    4  A    between atoms: N2_6  and  C4_7 
REMARK    5  A    between atoms: N2_6  and  C7_10 
REMARK    6  A    between atoms: C8_11  and  N3_12 
REMARK    7  A    between atoms: N4_19  and  C10_21 
ROOT
HETATM    1  C1  UNL     1       0.283   3.073   0.831  1.00  0.00     0.120 C 
HETATM    2  N1  UNL     1      -0.059   1.750   0.919  1.00  0.00    -0.361 N 
ATOM      3  H1  UNL     1      -1.062   1.723   0.738  1.00  0.00     0.165 HD
HETATM    4  C2  UNL     1       0.257   0.600   1.108  1.00  0.00     0.120 C 
ENDROOT
BRANCH   4   5
HETATM    5  C3  UNL     1      -0.829  -0.454   1.027  1.00  0.00     0.135 C 
BRANCH   5   6
HETATM    6  N2  UNL     1      -1.208  -0.868  -0.233  1.00  0.00    -0.369 N 
BRANCH   6   7
HETATM    7  C4  UNL     1      -2.094  -1.988  -0.229  1.00  0.00     0.084 A 
HETATM    8  C5  UNL     1      -3.419  -2.037   0.380  1.00  0.00     0.027 A 
HETATM    9  C6  UNL     1      -2.278  -2.786   0.980  1.00  0.00     0.027 A 
ENDBRANCH   6   7
BRANCH   6  10
HETATM   10  C7  UNL     1      -1.223  -0.030  -1.354  1.00  0.00     0.195 A 
HETATM   11  C8  UNL     1      -2.181   1.164  -1.454  1.00  0.00     0.286 A 
HETATM   12  C9  UNL     1      -2.224   0.013  -2.423  1.00  0.00     0.295 A 
HETATM   13  F1  UNL     1      -1.825   0.353  -3.724  1.00  0.00    -0.202 F 
HETATM   14  F2  UNL     1      -3.391  -0.698  -2.429  1.00  0.00    -0.202 F 
BRANCH  11  15
HETATM   15  N3  UNL     1      -3.293   1.300  -0.551  1.00  0.00    -0.067 N 
ATOM     16  H33 UNL     1      -3.847   0.445  -0.600  1.00  0.00     0.275 HD
ATOM     17  H32 UNL     1      -2.933   1.262   0.403  1.00  0.00     0.275 HD
ATOM     18  H31 UNL     1      -3.930   2.094  -0.617  1.00  0.00     0.275 HD
ENDBRANCH  11  15
ENDBRANCH   6  10
ENDBRANCH   5   6
ENDBRANCH   4   5
BRANCH   4  19
HETATM   19  N4  UNL     1       1.548   0.132   1.413  1.00  0.00    -0.336 N 
ATOM     20  H4  UNL     1       1.655  -0.216   2.366  1.00  0.00     0.168 HD
BRANCH  19  21
HETATM   21  C10 UNL     1       2.706   0.060   0.642  1.00  0.00     0.118 A 
HETATM   22  C11 UNL     1       2.936  -1.026  -0.172  1.00  0.00     0.188 A 
HETATM   23  F3  UNL     1       2.056  -2.024  -0.228  1.00  0.00    -0.200 F 
HETATM   24  C12 UNL     1       4.075  -1.169  -0.951  1.00  0.00     0.199 A 
HETATM   25  F4  UNL     1       4.276  -2.249  -1.743  1.00  0.00    -0.199 F 
HETATM   26  C13 UNL     1       5.043  -0.195  -0.930  1.00  0.00     0.199 A 
HETATM   27  F5  UNL     1       6.161  -0.351  -1.705  1.00  0.00    -0.199 F 
HETATM   28  C14 UNL     1       4.854   0.902  -0.133  1.00  0.00     0.199 A 
HETATM   29  F6  UNL     1       5.800   1.866  -0.105  1.00  0.00    -0.199 F 
HETATM   30  C15 UNL     1       3.691   1.024   0.647  1.00  0.00     0.188 A 
HETATM   31  F7  UNL     1       3.614   2.131   1.434  1.00  0.00    -0.200 F 
ENDBRANCH  19  21
ENDBRANCH   4  19
TORSDOF 7
