REMARK  5 active torsions:
REMARK  status: ('A' for Active; 'I' for Inactive)
REMARK    1  A    between atoms: C3_3  and  C4_4 
REMARK    2  A    between atoms: C4_4  and  O1_5 
REMARK    3  A    between atoms: C4_4  and  C10_14 
REMARK    4  A    between atoms: O1_5  and  C5_6 
REMARK    5  A    between atoms: C5_6  and  C6_7 
REMARK       I    between atoms: C10_14  and  N2_16 
ROOT
HETATM    1  C4  UNL     1      -0.051   0.029   0.443  1.00  0.00     0.236 C 
ENDROOT
BRANCH   1   2
HETATM    2  C3  UNL     1      -0.392   1.321  -0.217  1.00  0.00     0.010 C 
HETATM    3  C2  UNL     1      -0.524   2.416   0.521  1.00  0.00    -0.032 C 
HETATM    4  C1  UNL     1      -0.862   3.740  -0.061  1.00  0.00     0.036 C 
ENDBRANCH   1   2
BRANCH   1   5
HETATM    5  O1  UNL     1       1.105   0.252   1.180  1.00  0.00    -0.372 OA
BRANCH   5   6
HETATM    6  C5  UNL     1       2.129  -0.611   0.912  1.00  0.00     0.175 C 
BRANCH   6   7
HETATM    7  C6  UNL     1       2.632  -0.606  -0.501  1.00  0.00     0.037 C 
HETATM    8  C7  UNL     1       3.751  -1.630  -0.575  1.00  0.00     0.036 C 
HETATM    9  C8  UNL     1       4.965  -0.726  -0.803  1.00  0.00     0.232 C 
HETATM   10  N1  UNL     1       4.413   0.412  -1.556  1.00  0.00    -0.075 N 
HETATM   11  C9  UNL     1       3.254   0.733  -0.783  1.00  0.00     0.239 C 
ATOM     12  H12 UNL     1       5.060   1.185  -1.711  1.00  0.00     0.277 HD
ATOM     13  H11 UNL     1       4.240   0.235  -2.546  1.00  0.00     0.277 HD
ENDBRANCH   6   7
ENDBRANCH   5   6
ENDBRANCH   1   5
BRANCH   1  14
HETATM   14  C10 UNL     1      -1.205  -0.300   1.327  1.00  0.00     0.252 C 
HETATM   15  O2  UNL     1      -0.997  -0.315   2.565  1.00  0.00    -0.270 OA
HETATM   16  N2  UNL     1      -2.499  -0.592   0.844  1.00  0.00    -0.350 N 
HETATM   17  C11 UNL     1      -3.661  -0.917   1.649  1.00  0.00     0.126 C 
HETATM   18  C14 UNL     1      -2.900  -0.622  -0.546  1.00  0.00     0.126 C 
HETATM   19  C12 UNL     1      -4.570  -1.701   0.728  1.00  0.00     0.021 C 
HETATM   20  C13 UNL     1      -4.351  -0.997  -0.591  1.00  0.00     0.021 C 
ENDBRANCH   1  14
TORSDOF 5
