REMARK  8 active torsions:
REMARK  status: ('A' for Active; 'I' for Inactive)
REMARK    1  A    between atoms: C1_2  and  C2_3 
REMARK       I    between atoms: C1_2  and  N2_18 
REMARK    2  A    between atoms: C2_3  and  C3_4 
REMARK    3  A    between atoms: C3_4  and  C4_5 
REMARK    4  A    between atoms: C4_5  and  N1_6 
REMARK    5  A    between atoms: C7_11  and  O2_12 
REMARK    6  A    between atoms: C7_11  and  C8_14 
REMARK    7  A    between atoms: N2_18  and  C10_20 
REMARK    8  A    between atoms: C10_20  and  C11_21 
ROOT
HETATM    1  O1  UNL     1       1.523   0.303  -1.243  1.00  0.00    -0.274 OA
HETATM    2  C1  UNL     1       1.346   0.034  -0.047  1.00  0.00     0.218 C 
HETATM    3  N2  UNL     1       2.160   0.300   1.032  1.00  0.00    -0.357 N 
ATOM      4  H2  UNL     1       1.735  -0.043   1.893  1.00  0.00     0.162 HD
ENDROOT
BRANCH   2   5
HETATM    5  C2  UNL     1       0.067  -0.688   0.315  1.00  0.00     0.108 C 
BRANCH   5   6
HETATM    6  C3  UNL     1      -0.725  -1.197  -0.803  1.00  0.00     0.053 C 
BRANCH   6   7
HETATM    7  C4  UNL     1      -2.029  -1.800  -0.335  1.00  0.00     0.059 C 
BRANCH   7   8
HETATM    8  N1  UNL     1      -2.996  -0.950   0.166  1.00  0.00    -0.384 N 
HETATM    9  C5  UNL     1      -2.965  -0.204   1.325  1.00  0.00     0.204 C 
HETATM   10  C6  UNL     1      -4.396   0.375   1.385  1.00  0.00     0.296 C 
HETATM   11  F1  UNL     1      -4.352   1.611   2.048  1.00  0.00    -0.201 F 
HETATM   12  F2  UNL     1      -5.091  -0.474   2.158  1.00  0.00    -0.201 F 
HETATM   13  C7  UNL     1      -4.727   0.510  -0.035  1.00  0.00     0.200 C 
HETATM   14  C9  UNL     1      -3.600  -0.075  -0.816  1.00  0.00     0.172 C 
BRANCH  13  15
HETATM   15  O2  UNL     1      -4.706   1.913  -0.329  1.00  0.00    -0.377 OA
ATOM     16  H2  UNL     1      -4.921   2.001  -1.250  1.00  0.00     0.211 HD
ENDBRANCH  13  15
BRANCH  13  17
HETATM   17  C8  UNL     1      -6.090   0.071  -0.461  1.00  0.00     0.395 C 
HETATM   18  F3  UNL     1      -6.222   0.239  -1.837  1.00  0.00    -0.211 F 
HETATM   19  F4  UNL     1      -6.505  -1.156  -0.120  1.00  0.00    -0.211 F 
ENDBRANCH  13  17
ENDBRANCH   7   8
ENDBRANCH   6   7
ENDBRANCH   5   6
ENDBRANCH   2   5
BRANCH   3  20
HETATM   20  C10 UNL     1       3.406   0.905   1.302  1.00  0.00     0.167 C 
BRANCH  20  21
HETATM   21  C11 UNL     1       4.536   0.568   0.405  1.00  0.00     0.043 A 
HETATM   22  C12 UNL     1       5.456  -0.405   0.798  1.00  0.00     0.169 A 
HETATM   23  F5  UNL     1       5.070  -1.197   1.860  1.00  0.00    -0.202 F 
HETATM   24  C13 UNL     1       6.641  -0.630   0.179  1.00  0.00     0.197 A 
HETATM   25  F6  UNL     1       7.487  -1.613   0.593  1.00  0.00    -0.199 F 
HETATM   26  C14 UNL     1       6.990   0.144  -0.925  1.00  0.00     0.199 A 
HETATM   27  F7  UNL     1       8.149  -0.034  -1.554  1.00  0.00    -0.199 F 
HETATM   28  C15 UNL     1       6.095   1.110  -1.329  1.00  0.00     0.197 A 
HETATM   29  F8  UNL     1       6.400   1.914  -2.389  1.00  0.00    -0.199 F 
HETATM   30  C16 UNL     1       4.873   1.331  -0.682  1.00  0.00     0.169 A 
HETATM   31  F9  UNL     1       4.075   2.345  -1.128  1.00  0.00    -0.202 F 
ENDBRANCH  20  21
ENDBRANCH   3  20
TORSDOF 8
