REMARK  6 active torsions:
REMARK  status: ('A' for Active; 'I' for Inactive)
REMARK    1  A    between atoms: O1_2  and  C2_3 
REMARK    2  A    between atoms: C2_3  and  C3_4 
REMARK       I    between atoms: C3_4  and  N1_6 
REMARK    3  A    between atoms: N1_6  and  C4_8 
REMARK    4  A    between atoms: C4_8  and  C5_9 
REMARK    5  A    between atoms: C5_9  and  N2_10 
REMARK       I    between atoms: N2_10  and  C6_12 
REMARK    6  A    between atoms: C6_12  and  C7_14 
ROOT
HETATM    1  N2  UNL     1      -0.949  -0.295   0.073  1.00  0.00    -0.359 N 
ATOM      2  H2  UNL     1      -1.357  -0.187   1.002  1.00  0.00     0.162 HD
HETATM    3  C6  UNL     1      -1.796  -0.298  -1.039  1.00  0.00     0.234 C 
HETATM    4  O3  UNL     1      -1.238  -0.434  -2.184  1.00  0.00    -0.273 OA
ENDROOT
BRANCH   3   5
HETATM    5  C7  UNL     1      -3.247  -0.161  -1.009  1.00  0.00     0.235 C 
HETATM    6  C8  UNL     1      -3.758   1.092  -0.340  1.00  0.00     0.332 C 
HETATM    7  F1  UNL     1      -3.585   2.220  -1.087  1.00  0.00    -0.198 F 
HETATM    8  F2  UNL     1      -3.370   1.218   0.960  1.00  0.00    -0.198 F 
HETATM    9  C9  UNL     1      -5.265   0.791  -0.314  1.00  0.00     0.379 C 
HETATM   10  F3  UNL     1      -5.924   1.655   0.527  1.00  0.00    -0.192 F 
HETATM   11  F4  UNL     1      -5.752   0.817  -1.604  1.00  0.00    -0.192 F 
HETATM   12  C10 UNL     1      -5.269  -0.641   0.227  1.00  0.00     0.379 C 
HETATM   13  F5  UNL     1      -5.279  -0.563   1.609  1.00  0.00    -0.192 F 
HETATM   14  F6  UNL     1      -6.349  -1.356  -0.250  1.00  0.00    -0.192 F 
HETATM   15  C11 UNL     1      -3.961  -1.254  -0.249  1.00  0.00     0.332 C 
HETATM   16  F7  UNL     1      -4.249  -2.303  -1.127  1.00  0.00    -0.198 F 
HETATM   17  F8  UNL     1      -3.211  -1.761   0.770  1.00  0.00    -0.198 F 
ENDBRANCH   3   5
BRANCH   1  18
HETATM   18  C5  UNL     1       0.511  -0.442  -0.049  1.00  0.00     0.142 C 
BRANCH  18  19
HETATM   19  C4  UNL     1       1.086  -0.395   1.314  1.00  0.00     0.142 C 
BRANCH  19  20
HETATM   20  N1  UNL     1       2.538  -0.531   1.378  1.00  0.00    -0.354 N 
HETATM   21  C3  UNL     1       3.404   0.389   0.755  1.00  0.00     0.277 C 
HETATM   22  O2  UNL     1       2.818   1.362   0.126  1.00  0.00    -0.265 OA
ATOM     23  H1  UNL     1       2.938  -1.317   1.890  1.00  0.00     0.162 HD
BRANCH  21  24
HETATM   24  C2  UNL     1       4.808   0.358   0.747  1.00  0.00     0.170 C 
HETATM   25  C12 UNL     1       5.630  -0.461   1.270  1.00  0.00     0.142 C 
HETATM   26 CL1  UNL     1       7.385  -0.199   1.062  1.00  0.00    -0.068 Cl
HETATM   27 CL2  UNL     1       5.211  -1.857   2.198  1.00  0.00    -0.068 Cl
BRANCH  24  28
HETATM   28  O1  UNL     1       5.423   1.439   0.023  1.00  0.00    -0.349 OA
HETATM   29  C1  UNL     1       5.790   1.241  -1.326  1.00  0.00     0.210 C 
ENDBRANCH  24  28
ENDBRANCH  21  24
ENDBRANCH  19  20
ENDBRANCH  18  19
ENDBRANCH   1  18
TORSDOF 6
