REMARK  7 active torsions:
REMARK  status: ('A' for Active; 'I' for Inactive)
REMARK    1  A    between atoms: N1_2  and  C2_3 
REMARK    2  A    between atoms: N1_2  and  C7_15 
REMARK    3  A    between atoms: C2_3  and  C3_4 
REMARK    4  A    between atoms: C3_4  and  C4_7 
REMARK    5  A    between atoms: C7_15  and  C8_16 
REMARK    6  A    between atoms: C8_16  and  O2_17 
REMARK    7  A    between atoms: O2_17  and  C9_18 
ROOT
HETATM    1  C7  UNL     1      -0.191  -0.899   1.010  1.00  0.00     0.128 C 
HETATM    2  N4  UNL     1      -0.723  -1.711   1.759  1.00  0.00    -0.210 N 
ATOM      3  H4  UNL     1      -1.585  -2.141   1.423  1.00  0.00     0.201 HD
HETATM    4  F8  UNL     1      -0.295  -2.097   2.976  1.00  0.00    -0.100 F 
ENDROOT
BRANCH   1   5
HETATM    5  N1  UNL     1      -0.764  -0.573  -0.297  1.00  0.00    -0.366 N 
HETATM    6  C1  UNL     1      -0.744  -1.580  -1.302  1.00  0.00     0.151 C 
BRANCH   5   7
HETATM    7  C2  UNL     1      -1.204   0.755  -0.528  1.00  0.00     0.209 C 
BRANCH   7   8
HETATM    8  C3  UNL     1      -2.606   1.023  -0.910  1.00  0.00     0.302 C 
HETATM    9  F1  UNL     1      -2.737   2.430  -1.031  1.00  0.00    -0.197 F 
HETATM   10  F2  UNL     1      -2.696   0.645  -2.297  1.00  0.00    -0.197 F 
BRANCH   8  11
HETATM   11  C4  UNL     1      -3.693   0.456  -0.164  1.00  0.00     0.102 A 
HETATM   12  C5  UNL     1      -3.993   0.504   1.183  1.00  0.00     0.124 A 
HETATM   13  N2  UNL     1      -5.158  -0.168   1.411  1.00  0.00    -0.317 N 
HETATM   14  C6  UNL     1      -5.573  -0.624   0.218  1.00  0.00     0.324 A 
ATOM     15  H2  UNL     1      -5.622  -0.298   2.310  1.00  0.00     0.170 HD
HETATM   16  O1  UNL     1      -6.621  -1.303   0.006  1.00  0.00    -0.247 OA
HETATM   17  N3  UNL     1      -4.704  -0.254  -0.728  1.00  0.00    -0.306 N 
ATOM     18  H3  UNL     1      -4.787  -0.472  -1.721  1.00  0.00     0.170 HD
ENDBRANCH   8  11
ENDBRANCH   7   8
ENDBRANCH   5   7
ENDBRANCH   1   5
BRANCH   1  19
HETATM   19  C8  UNL     1       1.074  -0.167   1.347  1.00  0.00     0.254 C 
BRANCH  19  20
HETATM   20  O2  UNL     1       2.129  -0.648   0.555  1.00  0.00    -0.338 OA
BRANCH  20  21
HETATM   21  C9  UNL     1       3.401  -0.156   0.478  1.00  0.00     0.153 A 
HETATM   22  C10 UNL     1       3.596   0.797  -0.544  1.00  0.00     0.194 A 
HETATM   23  F3  UNL     1       2.523   1.086  -1.325  1.00  0.00    -0.200 F 
HETATM   24  C11 UNL     1       4.796   1.393  -0.762  1.00  0.00     0.199 A 
HETATM   25  F4  UNL     1       4.920   2.302  -1.765  1.00  0.00    -0.199 F 
HETATM   26  C12 UNL     1       5.874   1.080   0.026  1.00  0.00     0.199 A 
HETATM   27  F5  UNL     1       7.065   1.697  -0.208  1.00  0.00    -0.199 F 
HETATM   28  C13 UNL     1       5.720   0.142   1.047  1.00  0.00     0.199 A 
HETATM   29  F6  UNL     1       6.803  -0.128   1.801  1.00  0.00    -0.199 F 
HETATM   30  C14 UNL     1       4.469  -0.466   1.253  1.00  0.00     0.194 A 
HETATM   31  F7  UNL     1       4.398  -1.375   2.262  1.00  0.00    -0.200 F 
ENDBRANCH  20  21
ENDBRANCH  19  20
ENDBRANCH   1  19
TORSDOF 7
