REMARK  12 active torsions:
REMARK  status: ('A' for Active; 'I' for Inactive)
REMARK    1  A    between atoms: C2_2  and  C3_3 
REMARK    2  A    between atoms: C3_3  and  C4_4 
REMARK       I    between atoms: C4_4  and  N1_6 
REMARK    3  A    between atoms: N1_6  and  C5_8 
REMARK    4  A    between atoms: C5_8  and  C6_9 
REMARK    5  A    between atoms: N2_12  and  C9_13 
REMARK    6  A    between atoms: C10_16  and  N4_17 
REMARK    7  A    between atoms: N4_17  and  C11_19 
REMARK    8  A    between atoms: C11_19  and  C12_20 
REMARK    9  A    between atoms: C13_25  and  N6_26 
REMARK   10  A    between atoms: N6_26  and  C14_28 
REMARK   11  A    between atoms: C14_28  and  C15_29 
REMARK   12  A    between atoms: C15_29  and  C16_30 
ROOT
HETATM    1  C9  UNL     1      -0.205   0.318  -0.392  1.00  0.00     0.709 A 
HETATM    2  N3  UNL     1      -0.599   1.397  -1.072  1.00  0.00    -0.021 N 
ATOM      3  H3  UNL     1       0.071   2.127  -1.314  1.00  0.00     0.203 HD
HETATM    4  C10 UNL     1      -1.918   1.514  -1.442  1.00  0.00     0.707 A 
HETATM    5  N5  UNL     1      -2.733   0.521  -1.091  1.00  0.00    -0.022 N 
ATOM      6  H5  UNL     1      -3.713   0.598  -1.362  1.00  0.00     0.203 HD
HETATM    7  C13 UNL     1      -2.361  -0.580  -0.404  1.00  0.00     0.707 A 
HETATM    8  N7  UNL     1      -1.071  -0.682  -0.048  1.00  0.00    -0.021 N 
ATOM      9  H7  UNL     1      -0.741  -1.495   0.472  1.00  0.00     0.203 HD
ENDROOT
BRANCH   1  10
HETATM   10  N2  UNL     1       1.174   0.230  -0.023  1.00  0.00    -0.217 N 
HETATM   11  C8  UNL     1       2.119   1.270  -0.372  1.00  0.00     0.141 C 
HETATM   12  C7  UNL     1       2.969   1.552   0.850  1.00  0.00     0.027 C 
HETATM   13  C6  UNL     1       3.819   0.351   1.192  1.00  0.00     0.006 C 
HETATM   14  C21 UNL     1       3.218  -0.907   0.600  1.00  0.00     0.027 C 
HETATM   15  C20 UNL     1       1.709  -0.902   0.722  1.00  0.00     0.141 C 
BRANCH  13  16
HETATM   16  C5  UNL     1       5.214   0.599   0.687  1.00  0.00     0.127 C 
BRANCH  16  17
HETATM   17  N1  UNL     1       6.101  -0.516   0.979  1.00  0.00    -0.361 N 
HETATM   18  C4  UNL     1       7.465  -0.463   0.577  1.00  0.00     0.217 C 
HETATM   19  O1  UNL     1       7.923   0.550  -0.036  1.00  0.00    -0.274 OA
ATOM     20  H1  UNL     1       5.746  -1.335   1.472  1.00  0.00     0.162 HD
BRANCH  18  21
HETATM   21  C3  UNL     1       8.346  -1.603   0.882  1.00  0.00     0.102 C 
BRANCH  21  22
HETATM   22  C2  UNL     1       9.729  -1.303   0.357  1.00  0.00     0.005 C 
HETATM   23  C1  UNL     1       9.750  -1.079  -1.126  1.00  0.00     0.005 C 
ENDBRANCH  21  22
ENDBRANCH  18  21
ENDBRANCH  16  17
ENDBRANCH  13  16
ENDBRANCH   1  10
BRANCH   4  24
HETATM   24  N4  UNL     1      -2.268   2.563  -2.096  1.00  0.00    -0.220 N 
ATOM     25  H4  UNL     1      -1.569   3.271  -2.320  1.00  0.00     0.177 HD
BRANCH  24  26
HETATM   26  C11 UNL     1      -3.624   2.754  -2.515  1.00  0.00     0.209 C 
BRANCH  26  27
HETATM   27  C12 UNL     1      -4.400   3.646  -1.568  1.00  0.00     0.371 C 
HETATM   28  F1  UNL     1      -4.471   3.158  -0.286  1.00  0.00    -0.213 F 
HETATM   29  F2  UNL     1      -5.712   3.670  -2.051  1.00  0.00    -0.213 F 
ENDBRANCH  26  27
ENDBRANCH  24  26
ENDBRANCH   4  24
BRANCH   7  30
HETATM   30  N6  UNL     1      -3.198  -1.499  -0.098  1.00  0.00    -0.225 N 
ATOM     31  H6  UNL     1      -2.842  -2.301   0.422  1.00  0.00     0.177 HD
BRANCH  30  32
HETATM   32  C14 UNL     1      -4.586  -1.496  -0.422  1.00  0.00     0.139 C 
BRANCH  32  33
HETATM   33  C15 UNL     1      -5.421  -0.693   0.546  1.00  0.00     0.028 C 
BRANCH  33  34
HETATM   34  C16 UNL     1      -6.887  -0.714   0.170  1.00  0.00    -0.050 C 
HETATM   35  C17 UNL     1      -7.727   0.082   1.126  1.00  0.00     0.014 C 
HETATM   36  C18 UNL     1      -7.368  -2.166   0.267  1.00  0.00     0.014 C 
HETATM   37  C19 UNL     1      -7.148  -0.252  -1.227  1.00  0.00     0.014 C 
ENDBRANCH  33  34
ENDBRANCH  32  33
ENDBRANCH  30  32
ENDBRANCH   7  30
TORSDOF 12
