REMARK  6 active torsions:
REMARK  status: ('A' for Active; 'I' for Inactive)
REMARK    1  A    between atoms: C1_2  and  C2_3 
REMARK       I    between atoms: C1_2  and  N2_10 
REMARK    2  A    between atoms: C2_3  and  N1_4 
REMARK    3  A    between atoms: N1_4  and  C3_7 
REMARK    4  A    between atoms: N2_10  and  C6_12 
REMARK    5  A    between atoms: C6_12  and  C7_13 
REMARK    6  A    between atoms: N3_15  and  C9_16 
ROOT
HETATM    1  O1  UNL     1       3.070   0.952  -0.562  1.00  0.00    -0.272 OA
HETATM    2  C1  UNL     1       2.828   0.023   0.236  1.00  0.00     0.243 C 
HETATM    3  N2  UNL     1       1.755  -0.886   0.065  1.00  0.00    -0.359 N 
ATOM      4  H2  UNL     1       1.598  -1.628   0.747  1.00  0.00     0.162 HD
ENDROOT
BRANCH   3   5
HETATM    5  C6  UNL     1       0.895  -0.757  -1.066  1.00  0.00     0.130 C 
BRANCH   5   6
HETATM    6  C7  UNL     1      -0.220  -1.770  -1.098  1.00  0.00     0.060 C 
HETATM    7  C8  UNL     1      -1.088  -1.603   0.152  1.00  0.00     0.280 C 
HETATM    8  N3  UNL     1      -2.211  -1.469  -0.672  1.00  0.00     0.094 N 
HETATM    9  C15 UNL     1      -1.423  -1.210  -1.812  1.00  0.00     0.280 C 
BRANCH   8  10
HETATM   10  C9  UNL     1      -3.348  -0.730  -0.350  1.00  0.00     0.223 C 
HETATM   11  C10 UNL     1      -2.969   0.733  -0.138  1.00  0.00     0.036 C 
HETATM   12  C11 UNL     1      -4.234   1.524  -0.295  1.00  0.00     0.002 C 
HETATM   13  C12 UNL     1      -5.438   0.994   0.359  1.00  0.00     0.000 C 
HETATM   14  C13 UNL     1      -5.466  -0.410   0.804  1.00  0.00     0.002 C 
HETATM   15  C14 UNL     1      -4.117  -1.103   0.875  1.00  0.00     0.036 C 
ENDBRANCH   8  10
ENDBRANCH   5   6
ENDBRANCH   3   5
BRANCH   2  16
HETATM   16  C2  UNL     1       3.730  -0.123   1.441  1.00  0.00     0.335 C 
BRANCH  16  17
HETATM   17  N1  UNL     1       4.688   0.932   1.386  1.00  0.00    -0.063 N 
ATOM     18  H12 UNL     1       4.225   1.841   1.373  1.00  0.00     0.278 HD
ATOM     19  H11 UNL     1       5.190   1.011   2.270  1.00  0.00     0.278 HD
BRANCH  17  20
HETATM   20  C3  UNL     1       5.616   0.812   0.276  1.00  0.00     0.186 A 
HETATM   21  C4  UNL     1       7.054   1.214   0.534  1.00  0.00     0.035 A 
HETATM   22  C5  UNL     1       6.183   2.098  -0.282  1.00  0.00     0.035 A 
ENDBRANCH  17  20
ENDBRANCH  16  17
ENDBRANCH   2  16
TORSDOF 6
