REMARK  9 active torsions:
REMARK  status: ('A' for Active; 'I' for Inactive)
REMARK    1  A    between atoms: C2_5  and  C3_6 
REMARK    2  A    between atoms: C3_6  and  C4_8 
REMARK    3  A    between atoms: C4_8  and  C5_11 
REMARK    4  A    between atoms: C5_11  and  O2_12 
REMARK    5  A    between atoms: C5_11  and  C6_14 
REMARK    6  A    between atoms: C6_14  and  C7_17 
REMARK    7  A    between atoms: C7_17  and  C8_20 
REMARK    8  A    between atoms: C8_20  and  C9_23 
REMARK    9  A    between atoms: C10_26  and  C11_27 
ROOT
HETATM    1  C11 UNL     1       2.544   2.756   0.992  1.00  0.00    -0.042 C 
HETATM    2  C12 UNL     1       2.034   3.705   1.590  1.00  0.00     0.010 C 
HETATM    3 CL2  UNL     1       1.292   5.012   2.453  1.00  0.00    -0.023 Cl
ENDROOT
BRANCH   1   4
HETATM    4  C10 UNL     1       3.177   1.640   0.335  1.00  0.00     0.116 A 
HETATM    5  C2  UNL     1       2.398   0.726  -0.375  1.00  0.00     0.101 A 
HETATM    6  N1  UNL     1       3.121  -0.314  -0.870  1.00  0.00    -0.304 N 
HETATM    7  C1  UNL     1       4.469  -0.447  -0.693  1.00  0.00     0.327 A 
ATOM      8  H1  UNL     1       2.631  -1.033  -1.402  1.00  0.00     0.171 HD
HETATM    9  O1  UNL     1       5.038  -1.455  -1.199  1.00  0.00    -0.247 OA
HETATM   10  N2  UNL     1       5.193   0.443  -0.012  1.00  0.00    -0.274 N 
HETATM   11  C13 UNL     1       4.546   1.480   0.499  1.00  0.00     0.270 A 
ATOM     12  H2  UNL     1       6.199   0.330   0.110  1.00  0.00     0.173 HD
HETATM   13  O3  UNL     1       5.174   2.380   1.170  1.00  0.00    -0.266 OA
BRANCH   5  14
HETATM   14  C3  UNL     1       0.981   0.948  -0.668  1.00  0.00     0.196 C 
HETATM   15  F1  UNL     1       0.412   2.057  -0.151  1.00  0.00    -0.202 F 
BRANCH  14  16
HETATM   16  C4  UNL     1       0.073  -0.249  -0.715  1.00  0.00     0.330 C 
HETATM   17  F2  UNL     1       0.157  -0.854   0.485  1.00  0.00    -0.195 F 
HETATM   18  F3  UNL     1       0.573  -1.173  -1.631  1.00  0.00    -0.195 F 
BRANCH  16  19
HETATM   19  C5  UNL     1      -1.299   0.135  -1.199  1.00  0.00     0.276 C 
BRANCH  19  20
HETATM   20  O2  UNL     1      -1.192   0.639  -2.493  1.00  0.00    -0.383 OA
ATOM     21  H2  UNL     1      -2.058   0.881  -2.799  1.00  0.00     0.210 HD
ENDBRANCH  19  20
BRANCH  19  22
HETATM   22  C6  UNL     1      -2.464  -0.680  -0.904  1.00  0.00     0.345 C 
HETATM   23  F4  UNL     1      -3.493   0.053  -1.719  1.00  0.00    -0.196 F 
HETATM   24  F5  UNL     1      -2.573  -1.910  -1.464  1.00  0.00    -0.196 F 
BRANCH  22  25
HETATM   25  C7  UNL     1      -3.171  -0.484   0.429  1.00  0.00     0.378 C 
HETATM   26  F6  UNL     1      -3.677   0.836   0.525  1.00  0.00    -0.192 F 
HETATM   27  F7  UNL     1      -2.338  -0.559   1.527  1.00  0.00    -0.192 F 
BRANCH  25  28
HETATM   28  C8  UNL     1      -4.294  -1.415   0.691  1.00  0.00     0.357 C 
HETATM   29  F8  UNL     1      -4.817  -0.993   1.951  1.00  0.00    -0.195 F 
HETATM   30  F9  UNL     1      -5.332  -1.414  -0.168  1.00  0.00    -0.195 F 
BRANCH  28  31
HETATM   31  C9  UNL     1      -3.829  -2.835   1.082  1.00  0.00     0.344 C 
HETATM   32  F10 UNL     1      -4.975  -3.609   1.269  1.00  0.00    -0.226 F 
HETATM   33 CL1  UNL     1      -2.970  -2.796   2.664  1.00  0.00    -0.083 Cl
ENDBRANCH  28  31
ENDBRANCH  25  28
ENDBRANCH  22  25
ENDBRANCH  19  22
ENDBRANCH  16  19
ENDBRANCH  14  16
ENDBRANCH   5  14
ENDBRANCH   1   4
TORSDOF 9
