REMARK  12 active torsions:
REMARK  status: ('A' for Active; 'I' for Inactive)
REMARK    1  A    between atoms: C2_2  and  O1_3 
REMARK    2  A    between atoms: C2_2  and  C3_5 
REMARK    3  A    between atoms: C2_2  and  C13_29 
REMARK    4  A    between atoms: C3_5  and  O2_6 
REMARK    5  A    between atoms: C3_5  and  C4_8 
REMARK    6  A    between atoms: C4_8  and  N1_9 
REMARK    7  A    between atoms: C4_8  and  C9_15 
REMARK    8  A    between atoms: C9_15  and  C10_18 
REMARK    9  A    between atoms: C10_18  and  O4_19 
REMARK   10  A    between atoms: C10_18  and  C11_21 
REMARK   11  A    between atoms: C10_18  and  C12_25 
REMARK   12  A    between atoms: C13_29  and  C14_32 
ROOT
HETATM    1  C4  UNL     1      -0.264  -0.126  -0.606  1.00  0.00     0.122 C 
ENDROOT
BRANCH   1   2
HETATM    2  C3  UNL     1       1.066  -0.714  -0.795  1.00  0.00     0.112 C 
BRANCH   2   3
HETATM    3  C2  UNL     1       2.182  -0.812   0.098  1.00  0.00     0.175 C 
HETATM    4  C1  UNL     1       2.142  -1.901   1.163  1.00  0.00     0.060 C 
BRANCH   3   5
HETATM    5  O1  UNL     1       2.584   0.318   0.795  1.00  0.00    -0.377 OA
ATOM      6  H1  UNL     1       2.609   0.997   0.131  1.00  0.00     0.211 HD
ENDBRANCH   3   5
BRANCH   3   7
HETATM    7  C13 UNL     1       3.425  -1.154  -0.738  1.00  0.00     0.337 C 
HETATM    8  F9  UNL     1       3.228  -2.428  -1.228  1.00  0.00    -0.196 F 
HETATM    9  F10 UNL     1       3.447  -0.344  -1.879  1.00  0.00    -0.196 F 
BRANCH   7  10
HETATM   10  C14 UNL     1       4.706  -1.093  -0.003  1.00  0.00     0.428 C 
HETATM   11  F11 UNL     1       4.887   0.210   0.484  1.00  0.00    -0.208 F 
HETATM   12  F12 UNL     1       5.796  -1.245  -0.894  1.00  0.00    -0.208 F 
ENDBRANCH   7  10
ENDBRANCH   3   7
ENDBRANCH   2   3
BRANCH   2  13
HETATM   13  O2  UNL     1       0.935  -1.958  -1.478  1.00  0.00    -0.360 OA
ATOM     14  H2  UNL     1       0.195  -1.893  -2.070  1.00  0.00     0.217 HD
ENDBRANCH   2  13
ENDBRANCH   1   2
BRANCH   1  15
HETATM   15  N1  UNL     1      -0.265   1.310  -0.327  1.00  0.00    -0.314 N 
HETATM   16  C5  UNL     1       0.143   2.093   0.802  1.00  0.00     0.133 C 
HETATM   17  C6  UNL     1      -0.843   3.270   0.920  1.00  0.00     0.029 C 
HETATM   18  C7  UNL     1      -1.125   3.558  -0.513  1.00  0.00     0.105 C 
HETATM   19  C8  UNL     1      -0.723   2.334  -1.248  1.00  0.00     0.224 C 
HETATM   20  O3  UNL     1      -0.788   2.240  -2.521  1.00  0.00    -0.273 OA
ENDBRANCH   1  15
BRANCH   1  21
HETATM   21  C9  UNL     1      -1.235  -0.893   0.210  1.00  0.00     0.336 C 
HETATM   22  F1  UNL     1      -0.835  -1.078   1.503  1.00  0.00    -0.195 F 
HETATM   23  F2  UNL     1      -1.123  -2.233  -0.332  1.00  0.00    -0.195 F 
BRANCH  21  24
HETATM   24  C10 UNL     1      -2.683  -0.642   0.077  1.00  0.00     0.326 C 
BRANCH  24  25
HETATM   25  O4  UNL     1      -3.124   0.642   0.344  1.00  0.00    -0.369 OA
ATOM     26  H4  UNL     1      -4.056   0.804   0.258  1.00  0.00     0.211 HD
ENDBRANCH  24  25
BRANCH  24  27
HETATM   27  C11 UNL     1      -3.339  -1.084  -1.200  1.00  0.00     0.433 C 
HETATM   28  F3  UNL     1      -3.246  -2.425  -1.462  1.00  0.00    -0.167 F 
HETATM   29  F4  UNL     1      -4.731  -0.861  -1.134  1.00  0.00    -0.167 F 
HETATM   30  F5  UNL     1      -2.969  -0.371  -2.318  1.00  0.00    -0.167 F 
ENDBRANCH  24  27
BRANCH  24  31
HETATM   31  C12 UNL     1      -3.401  -1.477   1.171  1.00  0.00     0.433 C 
HETATM   32  F6  UNL     1      -2.991  -1.124   2.439  1.00  0.00    -0.167 F 
HETATM   33  F7  UNL     1      -4.753  -1.201   1.173  1.00  0.00    -0.167 F 
HETATM   34  F8  UNL     1      -3.118  -2.779   0.925  1.00  0.00    -0.167 F 
ENDBRANCH  24  31
ENDBRANCH  21  24
ENDBRANCH   1  21
TORSDOF 12
