REMARK  8 active torsions:
REMARK  status: ('A' for Active; 'I' for Inactive)
REMARK    1  A    between atoms: C2_2  and  C3_4 
REMARK    2  A    between atoms: C2_2  and  C9_15 
REMARK       I    between atoms: C3_4  and  N1_6 
REMARK    3  A    between atoms: N1_6  and  C4_8 
REMARK    4  A    between atoms: C4_8  and  C5_9 
REMARK    5  A    between atoms: C5_9  and  C6_10 
REMARK    6  A    between atoms: C6_10  and  C7_11 
REMARK    7  A    between atoms: C7_11  and  C8_12 
REMARK    8  A    between atoms: C12_22  and  C13_23 
ROOT
HETATM    1  C9  UNL     1      -1.638   0.525  -0.192  1.00  0.00     0.192 C 
HETATM    2  C10 UNL     1      -2.526   0.550  -1.441  1.00  0.00     0.321 C 
HETATM    3  F2  UNL     1      -1.953  -0.072  -2.527  1.00  0.00    -0.199 F 
HETATM    4  F3  UNL     1      -2.611   1.892  -1.868  1.00  0.00    -0.199 F 
HETATM    5  C11 UNL     1      -3.941   0.160  -1.213  1.00  0.00     0.326 C 
HETATM    6  F4  UNL     1      -4.187  -1.083  -0.756  1.00  0.00    -0.199 F 
HETATM    7  F5  UNL     1      -4.551   0.232  -2.478  1.00  0.00    -0.199 F 
HETATM    8  C12 UNL     1      -4.524   1.253  -0.355  1.00  0.00     0.250 C 
HETATM    9  C14 UNL     1      -3.809   1.341   0.938  1.00  0.00     0.326 C 
HETATM   10  F9  UNL     1      -3.900   2.712   1.289  1.00  0.00    -0.199 F 
HETATM   11  F10 UNL     1      -4.608   0.804   1.981  1.00  0.00    -0.199 F 
HETATM   12  C15 UNL     1      -2.406   0.867   1.007  1.00  0.00     0.321 C 
HETATM   13  F11 UNL     1      -2.443  -0.179   1.954  1.00  0.00    -0.199 F 
HETATM   14  F12 UNL     1      -1.750   1.883   1.753  1.00  0.00    -0.199 F 
ENDROOT
BRANCH   1  15
HETATM   15  C2  UNL     1      -0.656  -0.566  -0.211  1.00  0.00     0.195 C 
HETATM   16  C1  UNL     1      -1.116  -1.993  -0.257  1.00  0.00     0.063 C 
HETATM   17  F1  UNL     1       0.111  -0.466  -1.433  1.00  0.00    -0.232 F 
BRANCH  15  18
HETATM   18  C3  UNL     1       0.426  -0.562   0.793  1.00  0.00     0.258 C 
HETATM   19  O1  UNL     1       0.376   0.128   1.832  1.00  0.00    -0.270 OA
HETATM   20  N1  UNL     1       1.605  -1.359   0.630  1.00  0.00    -0.358 N 
ATOM     21  H1  UNL     1       1.683  -1.938  -0.206  1.00  0.00     0.162 HD
BRANCH  20  22
HETATM   22  C4  UNL     1       2.675  -1.388   1.570  1.00  0.00     0.122 C 
BRANCH  22  23
HETATM   23  C5  UNL     1       3.358  -0.079   1.816  1.00  0.00     0.020 C 
BRANCH  23  24
HETATM   24  C6  UNL     1       3.975   0.519   0.564  1.00  0.00     0.010 C 
BRANCH  24  25
HETATM   25  C7  UNL     1       5.014  -0.397  -0.033  1.00  0.00     0.099 C 
BRANCH  25  26
HETATM   26  C8  UNL     1       5.591   0.221  -1.243  1.00  0.00     0.231 C 
HETATM   27  N2  UNL     1       6.588  -0.447  -1.980  1.00  0.00    -0.062 NA
HETATM   28  O2  UNL     1       5.193   1.343  -1.618  1.00  0.00    -0.277 OA
ENDBRANCH  25  26
ENDBRANCH  24  25
ENDBRANCH  23  24
ENDBRANCH  22  23
ENDBRANCH  20  22
ENDBRANCH  15  18
ENDBRANCH   1  15
BRANCH   8  29
HETATM   29  C13 UNL     1      -6.007   1.110  -0.159  1.00  0.00     0.403 C 
HETATM   30  F6  UNL     1      -6.656   1.152  -1.396  1.00  0.00    -0.170 F 
HETATM   31  F7  UNL     1      -6.387  -0.038   0.451  1.00  0.00    -0.170 F 
HETATM   32  F8  UNL     1      -6.478   2.198   0.549  1.00  0.00    -0.170 F 
ENDBRANCH   8  29
TORSDOF 8
