REMARK  7 active torsions:
REMARK  status: ('A' for Active; 'I' for Inactive)
REMARK    1  A    between atoms: O1_2  and  C2_3 
REMARK    2  A    between atoms: C2_3  and  C3_4 
REMARK    3  A    between atoms: C2_3  and  C13_16 
REMARK    4  A    between atoms: C4_5  and  C5_6 
REMARK    5  A    between atoms: C6_7  and  O2_8 
REMARK    6  A    between atoms: C13_16  and  C14_17 
REMARK    7  A    between atoms: C15_18  and  C16_19 
ROOT
HETATM    1  C3  UNL     1       0.528  -0.440  -0.698  1.00  0.00     0.001 C 
HETATM    2  C4  UNL     1      -0.552   0.139  -0.187  1.00  0.00    -0.021 C 
ENDROOT
BRANCH   2   3
HETATM    3  C5  UNL     1      -1.862  -0.190  -0.794  1.00  0.00     0.041 C 
HETATM    4  C6  UNL     1      -2.555   1.133  -1.150  1.00  0.00     0.130 C 
HETATM    5  C7  UNL     1      -3.917   1.073  -0.492  1.00  0.00     0.019 C 
HETATM    6  C8  UNL     1      -3.721   1.289   0.974  1.00  0.00     0.008 C 
HETATM    7  C11 UNL     1      -4.153  -0.446  -0.531  1.00  0.00    -0.007 C 
HETATM    8  C9  UNL     1      -2.955   0.036   1.417  1.00  0.00     0.006 C 
HETATM    9  C10 UNL     1      -2.831  -0.809   0.165  1.00  0.00    -0.000 C 
HETATM   10  C12 UNL     1      -5.344  -0.868   0.240  1.00  0.00     0.011 C 
BRANCH   4  11
HETATM   11  O2  UNL     1      -2.637   1.262  -2.521  1.00  0.00    -0.394 OA
ATOM     12  H2  UNL     1      -3.066   2.081  -2.741  1.00  0.00     0.210 HD
ENDBRANCH   4  11
ENDBRANCH   2   3
BRANCH   1  13
HETATM   13  C2  UNL     1       1.893  -0.174  -0.158  1.00  0.00     0.146 C 
BRANCH  13  14
HETATM   14  O1  UNL     1       1.975   1.010   0.528  1.00  0.00    -0.387 OA
HETATM   15  C1  UNL     1       2.309   0.851   1.869  1.00  0.00     0.202 C 
ENDBRANCH  13  14
BRANCH  13  16
HETATM   16  C13 UNL     1       2.898  -0.296  -1.271  1.00  0.00     0.063 C 
BRANCH  16  17
HETATM   17  C14 UNL     1       4.279  -0.209  -0.782  1.00  0.00    -0.019 C 
HETATM   18  C15 UNL     1       5.121  -1.209  -0.966  1.00  0.00     0.067 C 
BRANCH  18  19
HETATM   19  C16 UNL     1       6.493  -1.140  -0.488  1.00  0.00     0.254 C 
HETATM   20  N1  UNL     1       6.918   0.049   0.196  1.00  0.00    -0.058 NA
HETATM   21  O3  UNL     1       7.290  -2.093  -0.666  1.00  0.00    -0.272 OA
ENDBRANCH  18  19
ENDBRANCH  16  17
ENDBRANCH  13  16
ENDBRANCH   1  13
TORSDOF 7
