REMARK  2 active torsions:
REMARK  status: ('A' for Active; 'I' for Inactive)
REMARK    1  A    between atoms: C11_12  and  C12_13 
REMARK    2  A    between atoms: C12_13  and  C13_14 
ROOT
HETATM    1  C13 UNL     1       3.304  -0.870   1.039  1.00  0.00     0.126 C 
HETATM    2  C14 UNL     1       4.717  -1.330   1.010  1.00  0.00     0.059 C 
HETATM    3  N2  UNL     1       5.817  -1.685   0.968  1.00  0.00    -0.197 NA
ENDROOT
BRANCH   1   4
HETATM    4  C12 UNL     1       2.788  -0.636  -0.347  1.00  0.00     0.050 C 
BRANCH   4   5
HETATM    5  C11 UNL     1       1.367  -0.164  -0.426  1.00  0.00     0.223 C 
HETATM    6  N1  UNL     1       1.192   1.092   0.267  1.00  0.00     0.088 N 
HETATM    7  C1  UNL     1       2.222   2.013  -0.245  1.00  0.00     0.310 C 
HETATM    8  C2  UNL     1      -0.068   1.736   0.030  1.00  0.00     0.272 C 
HETATM    9  C3  UNL     1      -0.957   1.805   1.255  1.00  0.00     0.030 C 
HETATM   10  C4  UNL     1      -2.429   1.899   0.846  1.00  0.00     0.002 C 
HETATM   11  C5  UNL     1      -3.072   0.540   0.928  1.00  0.00     0.000 C 
HETATM   12  C6  UNL     1      -3.194  -0.147  -0.407  1.00  0.00     0.000 C 
HETATM   13  C7  UNL     1      -2.520  -1.505  -0.445  1.00  0.00     0.000 C 
HETATM   14  C8  UNL     1      -1.494  -1.607  -1.524  1.00  0.00     0.000 C 
HETATM   15  C9  UNL     1      -0.145  -2.072  -1.093  1.00  0.00     0.002 C 
HETATM   16  C10 UNL     1       0.470  -1.270   0.031  1.00  0.00     0.036 C 
ENDBRANCH   4   5
ENDBRANCH   1   4
TORSDOF 2
