REMARK  3 active torsions:
REMARK  status: ('A' for Active; 'I' for Inactive)
REMARK    1  A    between atoms: C4_4  and  C5_5 
REMARK    2  A    between atoms: C5_5  and  C6_6 
REMARK    3  A    between atoms: C14_14  and  N1_15 
ROOT
HETATM    1  C6  UNL     1      -0.652   0.188  -0.326  1.00  0.00    -0.009 C 
HETATM    2  C7  UNL     1       0.364   0.758   0.506  1.00  0.00     0.005 C 
HETATM    3  C8  UNL     1       0.529   1.985   1.248  1.00  0.00     0.004 C 
HETATM    4  C9  UNL     1       2.000   1.783   1.757  1.00  0.00     0.027 C 
HETATM    5  C10 UNL     1       2.995   1.765   0.670  1.00  0.00    -0.031 C 
HETATM    6  C11 UNL     1       3.686   0.605   0.159  1.00  0.00    -0.031 C 
HETATM    7  C12 UNL     1       3.470  -0.789   0.599  1.00  0.00     0.029 C 
HETATM    8  C13 UNL     1       2.388  -1.605  -0.010  1.00  0.00     0.036 C 
HETATM    9  C14 UNL     1       1.468  -1.114  -1.058  1.00  0.00     0.184 C 
HETATM   10  C15 UNL     1       0.003  -1.143  -0.774  1.00  0.00     0.037 C 
ENDROOT
BRANCH   1  11
HETATM   11  C5  UNL     1      -1.885  -0.179   0.484  1.00  0.00     0.032 C 
BRANCH  11  12
HETATM   12  C4  UNL     1      -2.924  -0.764  -0.378  1.00  0.00    -0.024 C 
HETATM   13  C2  UNL     1      -4.115  -0.188  -0.477  1.00  0.00    -0.091 C 
HETATM   14  C1  UNL     1      -4.393   1.055   0.289  1.00  0.00     0.042 C 
HETATM   15  C3  UNL     1      -5.185  -0.776  -1.354  1.00  0.00     0.042 C 
ENDBRANCH  11  12
ENDBRANCH   1  11
BRANCH   9  16
HETATM   16  N1  UNL     1       1.546  -2.136  -2.167  1.00  0.00    -0.075 N 
ATOM     17  H13 UNL     1       2.494  -2.310  -2.500  1.00  0.00     0.274 HD
ATOM     18  H12 UNL     1       1.351  -3.090  -1.862  1.00  0.00     0.274 HD
ATOM     19  H11 UNL     1       0.911  -1.797  -2.890  1.00  0.00     0.274 HD
ENDBRANCH   9  16
TORSDOF 3
