REMARK  3 active torsions:
REMARK  status: ('A' for Active; 'I' for Inactive)
REMARK    1  A    between atoms: C2_2  and  N1_4 
REMARK    2  A    between atoms: C2_2  and  C4_8 
REMARK    3  A    between atoms: C5_9  and  C6_10 
ROOT
HETATM    1  C6  UNL     1      -0.658   0.308  -0.624  1.00  0.00     0.023 C 
HETATM    2  C7  UNL     1      -1.365   1.127   0.441  1.00  0.00    -0.040 C 
HETATM    3  C8  UNL     1      -0.456   1.399   1.629  1.00  0.00     0.015 C 
HETATM    4  C9  UNL     1      -1.729   2.500  -0.088  1.00  0.00     0.015 C 
HETATM    5  C10 UNL     1      -2.614   0.511   0.982  1.00  0.00     0.009 C 
HETATM    6  C11 UNL     1      -2.564  -0.949   1.251  1.00  0.00     0.002 C 
HETATM    7  C12 UNL     1      -1.649  -1.753   0.393  1.00  0.00     0.009 C 
HETATM    8  C13 UNL     1      -1.306  -0.995  -0.898  1.00  0.00    -0.040 C 
HETATM    9  C14 UNL     1      -2.679  -0.733  -1.552  1.00  0.00     0.015 C 
HETATM   10  C15 UNL     1      -0.597  -1.942  -1.781  1.00  0.00     0.015 C 
ENDROOT
BRANCH   1  11
HETATM   11  C5  UNL     1       0.778   0.354  -0.364  1.00  0.00    -0.022 C 
HETATM   12  C4  UNL     1       1.692  -0.571  -0.297  1.00  0.00     0.007 C 
BRANCH  12  13
HETATM   13  C2  UNL     1       3.128  -0.178  -0.001  1.00  0.00     0.134 C 
HETATM   14  C1  UNL     1       3.385  -0.203   1.487  1.00  0.00     0.050 C 
HETATM   15  C3  UNL     1       3.388   1.248  -0.473  1.00  0.00     0.050 C 
BRANCH  13  16
HETATM   16  N1  UNL     1       4.060  -1.029  -0.680  1.00  0.00    -0.068 N 
ATOM     17  H13 UNL     1       5.026  -0.790  -0.456  1.00  0.00     0.275 HD
ATOM     18  H12 UNL     1       4.050  -1.979  -0.308  1.00  0.00     0.275 HD
ATOM     19  H11 UNL     1       3.886  -1.012  -1.685  1.00  0.00     0.275 HD
ENDBRANCH  13  16
ENDBRANCH  12  13
ENDBRANCH   1  11
TORSDOF 3
