REMARK  5 active torsions:
REMARK  status: ('A' for Active; 'I' for Inactive)
REMARK    1  A    between atoms: C3_3  and  C4_4 
REMARK    2  A    between atoms: C9_9  and  C10_10 
REMARK    3  A    between atoms: C10_10  and  C11_11 
REMARK    4  A    between atoms: C11_11  and  N1_12 
REMARK    5  A    between atoms: C12_15  and  C14_17 
ROOT
HETATM    1  C4  UNL     1       1.114  -0.022  -0.440  1.00  0.00     0.016 C 
HETATM    2  C5  UNL     1       1.041  -1.260  -1.339  1.00  0.00     0.009 C 
HETATM    3  C6  UNL     1       0.004  -2.194  -0.835  1.00  0.00     0.005 C 
HETATM    4  C7  UNL     1      -1.334  -1.484  -0.720  1.00  0.00    -0.013 C 
HETATM    5  C8  UNL     1      -2.385  -2.439  -0.199  1.00  0.00     0.010 C 
HETATM    6  C9  UNL     1      -1.156  -0.397   0.289  1.00  0.00     0.010 C 
HETATM    7  C12 UNL     1      -0.191   0.664  -0.314  1.00  0.00    -0.033 C 
HETATM    8  C13 UNL     1      -0.795   1.020  -1.670  1.00  0.00     0.016 C 
ENDROOT
BRANCH   6   9
HETATM    9  C10 UNL     1      -2.387   0.210   0.771  1.00  0.00     0.109 C 
BRANCH   9  10
HETATM   10  C11 UNL     1      -2.876  -0.079   1.940  1.00  0.00    -0.077 C 
BRANCH  10  11
HETATM   11  N1  UNL     1      -3.412  -0.544   3.017  1.00  0.00    -0.370 N 
ATOM     12  H12 UNL     1      -3.615  -1.395   2.493  1.00  0.00     0.165 HD
ATOM     13  H11 UNL     1      -3.796  -0.771   3.934  1.00  0.00     0.165 HD
ENDBRANCH  10  11
ENDBRANCH   9  10
ENDBRANCH   6   9
BRANCH   7  14
HETATM   14  C14 UNL     1      -0.175   1.819   0.608  1.00  0.00     0.005 C 
HETATM   15  C15 UNL     1       0.680   2.984   0.328  1.00  0.00     0.006 C 
ENDBRANCH   7  14
BRANCH   1  16
HETATM   16  C3  UNL     1       2.299   0.771  -0.780  1.00  0.00    -0.026 C 
HETATM   17  C2  UNL     1       3.363   0.824   0.001  1.00  0.00    -0.035 C 
HETATM   18  C1  UNL     1       3.400   0.071   1.274  1.00  0.00     0.036 C 
ENDBRANCH   1  16
TORSDOF 5
