REMARK  5 active torsions:
REMARK  status: ('A' for Active; 'I' for Inactive)
REMARK    1  A    between atoms: C2_2  and  C3_3 
REMARK    2  A    between atoms: C3_3  and  C4_4 
REMARK    3  A    between atoms: C4_4  and  N1_5 
REMARK    4  A    between atoms: N1_5  and  C5_8 
REMARK    5  A    between atoms: C5_8  and  C6_9 
ROOT
HETATM    1  N1  UNL     1       0.479   1.043   0.270  1.00  0.00    -0.071 N 
ATOM      2  H11 UNL     1      -0.035   1.793   0.733  1.00  0.00     0.277 HD
ATOM      3  H12 UNL     1       0.649   0.454   1.085  1.00  0.00     0.277 HD
ENDROOT
BRANCH   1   4
HETATM    4  C4  UNL     1       1.705   1.514  -0.322  1.00  0.00     0.236 C 
BRANCH   4   5
HETATM    5  C3  UNL     1       2.640   0.402  -0.729  1.00  0.00     0.054 C 
BRANCH   5   6
HETATM    6  C2  UNL     1       3.006  -0.405   0.470  1.00  0.00    -0.035 C 
HETATM    7  C1  UNL     1       4.262  -0.498   0.826  1.00  0.00     0.007 C 
ENDBRANCH   5   6
ENDBRANCH   4   5
ENDBRANCH   1   4
BRANCH   1   8
HETATM    8  C5  UNL     1      -0.319   0.374  -0.721  1.00  0.00     0.270 C 
BRANCH   8   9
HETATM    9  C6  UNL     1      -1.603  -0.117  -0.131  1.00  0.00    -0.033 A 
HETATM   10  C7  UNL     1      -2.688   0.750  -0.099  1.00  0.00     0.009 A 
HETATM   11  C8  UNL     1      -3.890   0.349   0.428  1.00  0.00     0.001 A 
HETATM   12  C9  UNL     1      -4.017  -0.930   0.931  1.00  0.00     0.000 A 
HETATM   13  C10 UNL     1      -2.969  -1.818   0.919  1.00  0.00     0.001 A 
HETATM   14  C11 UNL     1      -1.771  -1.377   0.379  1.00  0.00     0.009 A 
ENDBRANCH   8   9
ENDBRANCH   1   8
TORSDOF 5
