REMARK  5 active torsions:
REMARK  status: ('A' for Active; 'I' for Inactive)
REMARK    1  A    between atoms: C1_2  and  N1_3 
REMARK    2  A    between atoms: N1_3  and  C2_5 
REMARK    3  A    between atoms: C2_5  and  C3_6 
REMARK    4  A    between atoms: C3_6  and  C4_7 
REMARK    5  A    between atoms: C4_7  and  C5_8 
ROOT
HETATM    1  C4  UNL     1      -0.161   0.669   0.119  1.00  0.00     0.040 C 
ENDROOT
BRANCH   1   2
HETATM    2  C3  UNL     1      -0.916  -0.557   0.537  1.00  0.00     0.024 C 
BRANCH   2   3
HETATM    3  C2  UNL     1      -2.360  -0.291   0.835  1.00  0.00     0.122 C 
BRANCH   3   4
HETATM    4  N1  UNL     1      -3.084   0.237  -0.281  1.00  0.00    -0.368 N 
ATOM      5  H1  UNL     1      -2.597   0.392  -1.164  1.00  0.00     0.161 HD
BRANCH   4   6
HETATM    6  C1  UNL     1      -4.457   0.548  -0.185  1.00  0.00     0.348 C 
HETATM    7  O1  UNL     1      -5.113   0.383   0.871  1.00  0.00    -0.284 OA
ENDBRANCH   4   6
ENDBRANCH   3   4
ENDBRANCH   2   3
ENDBRANCH   1   2
BRANCH   1   8
HETATM    8  C5  UNL     1       1.252   0.277  -0.148  1.00  0.00    -0.058 A 
HETATM    9  C6  UNL     1       1.671  -0.131  -1.401  1.00  0.00     0.007 A 
HETATM   10  C7  UNL     1       2.983  -0.491  -1.633  1.00  0.00     0.001 A 
HETATM   11  C8  UNL     1       3.930  -0.459  -0.623  1.00  0.00     0.000 A 
HETATM   12  C9  UNL     1       3.523  -0.055   0.631  1.00  0.00     0.001 A 
HETATM   13  C10 UNL     1       2.210   0.306   0.860  1.00  0.00     0.007 A 
ENDBRANCH   1   8
TORSDOF 5
