REMARK  5 active torsions:
REMARK  status: ('A' for Active; 'I' for Inactive)
REMARK    1  A    between atoms: N1_1  and  N2_4 
REMARK    2  A    between atoms: N2_4  and  N3_5 
REMARK    3  A    between atoms: N3_5  and  C1_7 
REMARK    4  A    between atoms: C1_7  and  C2_8 
REMARK    5  A    between atoms: C2_8  and  C3_9 
ROOT
HETATM    1  C1  UNL     1       0.121   0.222  -0.041  1.00  0.00     0.069 C 
HETATM    2  C4  UNL     1      -0.944   0.377   0.998  1.00  0.00     0.034 C 
HETATM    3  C5  UNL     1      -2.077  -0.576   0.582  1.00  0.00     0.003 C 
HETATM    4  C6  UNL     1      -1.899  -0.542  -0.936  1.00  0.00     0.003 C 
HETATM    5  C7  UNL     1      -0.402  -0.852  -1.004  1.00  0.00     0.034 C 
ENDROOT
BRANCH   1   6
HETATM    6  N3  UNL     1       0.345   1.377  -0.857  1.00  0.00    -0.242 N 
ATOM      7  H3  UNL     1       0.838   1.247  -1.740  1.00  0.00     0.198 HD
BRANCH   6   8
HETATM    8  N2  UNL     1      -0.015   2.510  -0.566  1.00  0.00    -0.248 NA
BRANCH   8   9
HETATM    9  N1  UNL     1       0.009   3.640  -0.096  1.00  0.00    -0.261 N 
ATOM     10  H12 UNL     1       0.940   3.579   0.316  1.00  0.00     0.193 HD
ATOM     11  H11 UNL     1      -0.291   4.584   0.147  1.00  0.00     0.193 HD
ENDBRANCH   8   9
ENDBRANCH   6   8
ENDBRANCH   1   6
BRANCH   1  12
HETATM   12  C2  UNL     1       1.433  -0.279   0.581  1.00  0.00     0.146 C 
BRANCH  12  13
HETATM   13  C3  UNL     1       2.399  -0.627  -0.496  1.00  0.00     0.175 C 
HETATM   14  O1  UNL     1       2.760  -1.804  -0.715  1.00  0.00    -0.648 OA
HETATM   15  O2  UNL     1       2.930   0.378  -1.302  1.00  0.00    -0.648 OA
ENDBRANCH  12  13
ENDBRANCH   1  12
TORSDOF 5
