REMARK  3 active torsions:
REMARK  status: ('A' for Active; 'I' for Inactive)
REMARK    1  A    between atoms: C2_2  and  C4_4 
REMARK    2  A    between atoms: C4_4  and  C5_5 
REMARK    3  A    between atoms: C5_5  and  C6_6 
ROOT
HETATM    1  C5  UNL     1       0.621   0.071  -0.439  1.00  0.00     0.112 C 
HETATM    2  C9  UNL     1       0.541   0.167  -1.927  1.00  0.00     0.182 C 
HETATM    3  N1  UNL     1       0.826   1.583  -2.213  1.00  0.00    -0.314 N 
ATOM      4  H1  UNL     1       1.023   1.971  -3.136  1.00  0.00     0.182 HD
HETATM    5  N2  UNL     1       0.788   2.249  -1.125  1.00  0.00    -0.211 N 
ATOM      6  H2  UNL     1       0.952   3.253  -1.055  1.00  0.00     0.215 HD
HETATM    7  O1  UNL     1       0.496   1.427  -0.058  1.00  0.00    -0.252 OA
ENDROOT
BRANCH   1   8
HETATM    8  C4  UNL     1      -0.441  -0.737   0.207  1.00  0.00     0.047 C 
BRANCH   8   9
HETATM    9  C2  UNL     1      -1.838  -0.347  -0.086  1.00  0.00    -0.020 C 
HETATM   10  C1  UNL     1      -2.216   1.042   0.309  1.00  0.00     0.009 C 
HETATM   11  C3  UNL     1      -2.749  -1.275   0.735  1.00  0.00     0.009 C 
ENDBRANCH   8   9
ENDBRANCH   1   8
BRANCH   1  12
HETATM   12  C6  UNL     1       2.012  -0.403  -0.080  1.00  0.00     0.025 A 
HETATM   13  C7  UNL     1       2.480  -0.423   1.319  1.00  0.00     0.008 A 
HETATM   14  C8  UNL     1       3.007   0.646   0.375  1.00  0.00     0.008 A 
ENDBRANCH   1  12
TORSDOF 3
