REMARK  3 active torsions:
REMARK  status: ('A' for Active; 'I' for Inactive)
REMARK    1  A    between atoms: N1_1  and  N2_4 
REMARK    2  A    between atoms: N3_6  and  C1_8 
REMARK    3  A    between atoms: C4_11  and  C5_12 
ROOT
HETATM    1  C1  UNL     1      -1.284   0.232   0.487  1.00  0.00     0.101 C 
HETATM    2  C2  UNL     1      -0.890  -0.838  -0.473  1.00  0.00     0.028 C 
HETATM    3  C3  UNL     1       0.579  -0.609  -0.764  1.00  0.00     0.017 C 
HETATM    4  C4  UNL     1       0.974   0.636   0.010  1.00  0.00     0.089 C 
HETATM    5  C6  UNL     1      -0.012   0.644   1.160  1.00  0.00     0.042 C 
ENDROOT
BRANCH   1   6
HETATM    6  N3  UNL     1      -2.311  -0.172   1.418  1.00  0.00    -0.318 N 
HETATM    7  N2  UNL     1      -3.358  -0.609   0.937  1.00  0.00    -0.253 N 
ATOM      8  H2  UNL     1      -3.028  -1.401   0.385  1.00  0.00     0.207 HD
ATOM      9  H3  UNL     1      -2.176  -0.099   2.426  1.00  0.00     0.182 HD
BRANCH   7  10
HETATM   10  N1  UNL     1      -4.586  -0.642   0.736  1.00  0.00    -0.331 N 
ATOM     11  H12 UNL     1      -4.872   0.158   1.301  1.00  0.00     0.178 HD
ATOM     12  H11 UNL     1      -5.453  -1.004   0.338  1.00  0.00     0.178 HD
ENDBRANCH   7  10
ENDBRANCH   1   6
BRANCH   4  13
HETATM   13  C5  UNL     1       2.366   0.611   0.447  1.00  0.00     0.177 C 
HETATM   14  O1  UNL     1       2.648   0.671   1.663  1.00  0.00    -0.648 OA
HETATM   15  O2  UNL     1       3.385   0.520  -0.478  1.00  0.00    -0.648 OA
ENDBRANCH   4  13
TORSDOF 3
