REMARK  8 active torsions:
REMARK  status: ('A' for Active; 'I' for Inactive)
REMARK    1  A    between atoms: N1_2  and  C2_4 
REMARK    2  A    between atoms: C3_7  and  O1_8 
REMARK    3  A    between atoms: O1_8  and  C4_9 
REMARK    4  A    between atoms: C4_9  and  C5_10 
REMARK    5  A    between atoms: C11_18  and  C12_19 
REMARK    6  A    between atoms: C12_19  and  N3_20 
REMARK    7  A    between atoms: C14_26  and  N5_27 
REMARK    8  A    between atoms: N5_27  and  C15_29 
ROOT
HETATM    1  C2  UNL     1       1.949  -0.288   2.589  1.00  0.00     0.695 A 
HETATM    2  N2  UNL     1       0.648  -0.083   2.392  1.00  0.00    -0.154 N 
ATOM      3  H2  UNL     1       0.007  -0.215   3.175  1.00  0.00     0.188 HD
HETATM    4  C3  UNL     1       0.133   0.300   1.173  1.00  0.00     0.255 A 
HETATM    5  N4  UNL     1       1.057   0.445   0.212  1.00  0.00    -0.154 N 
ATOM      6  H4  UNL     1       0.727   0.728  -0.711  1.00  0.00     0.188 HD
HETATM    7  C14 UNL     1       2.380   0.251   0.357  1.00  0.00     0.696 A 
HETATM    8  N6  UNL     1       2.807  -0.120   1.570  1.00  0.00    -0.022 N 
ATOM      9  H6  UNL     1       3.803  -0.278   1.723  1.00  0.00     0.203 HD
ENDROOT
BRANCH   4  10
HETATM   10  O1  UNL     1      -1.196   0.475   1.105  1.00  0.00    -0.280 OA
BRANCH  10  11
HETATM   11  C4  UNL     1      -2.091   0.877   0.129  1.00  0.00     0.207 C 
HETATM   12  O2  UNL     1      -3.401   0.975   0.689  1.00  0.00    -0.316 OA
HETATM   13  C8  UNL     1      -4.263   0.306  -0.128  1.00  0.00     0.161 C 
HETATM   14  C9  UNL     1      -4.796  -0.939   0.596  1.00  0.00     0.078 C 
HETATM   15  C10 UNL     1      -5.508   1.117  -0.492  1.00  0.00     0.078 C 
HETATM   16  O3  UNL     1      -3.592  -0.078  -1.260  1.00  0.00    -0.343 OA
HETATM   17  C11 UNL     1      -2.226  -0.107  -0.962  1.00  0.00     0.214 C 
BRANCH  11  18
HETATM   18  C5  UNL     1      -1.774   2.281  -0.308  1.00  0.00     0.043 C 
HETATM   19  C6  UNL     1      -1.913   3.156   0.958  1.00  0.00     0.015 C 
HETATM   20  C7  UNL     1      -2.672   2.874  -1.328  1.00  0.00     0.015 C 
ENDBRANCH  11  18
BRANCH  17  21
HETATM   21  C12 UNL     1      -1.920  -1.541  -0.611  1.00  0.00     0.269 C 
BRANCH  21  22
HETATM   22  N3  UNL     1      -2.281  -2.346  -1.797  1.00  0.00    -0.076 N 
HETATM   23  C13 UNL     1      -1.993  -3.728  -1.477  1.00  0.00     0.267 C 
ATOM     24  H32 UNL     1      -3.243  -2.198  -2.103  1.00  0.00     0.276 HD
ATOM     25  H31 UNL     1      -1.822  -2.029  -2.651  1.00  0.00     0.276 HD
ENDBRANCH  21  22
ENDBRANCH  17  21
ENDBRANCH  10  11
ENDBRANCH   4  10
BRANCH   1  26
HETATM   26  N1  UNL     1       2.436  -0.650   3.739  1.00  0.00    -0.230 N 
HETATM   27  C1  UNL     1       3.849  -0.865   3.924  1.00  0.00     0.165 C 
ATOM     28  H1  UNL     1       1.804  -0.785   4.528  1.00  0.00     0.177 HD
ENDBRANCH   1  26
BRANCH   7  29
HETATM   29  N5  UNL     1       3.151   0.427  -0.654  1.00  0.00    -0.219 N 
ATOM     30  H5  UNL     1       2.743   0.710  -1.545  1.00  0.00     0.178 HD
BRANCH  29  31
HETATM   31  C15 UNL     1       4.566   0.238  -0.567  1.00  0.00     0.125 C 
HETATM   32  C16 UNL     1       4.905  -1.232  -0.714  1.00  0.00     0.054 C 
HETATM   33  C17 UNL     1       6.306  -1.131  -1.305  1.00  0.00     0.169 C 
HETATM   34  O4  UNL     1       6.360   0.013  -2.049  1.00  0.00    -0.389 OA
HETATM   35  C18 UNL     1       5.304   0.823  -1.751  1.00  0.00     0.193 C 
ENDBRANCH  29  31
ENDBRANCH   7  29
TORSDOF 8
