REMARK  7 active torsions:
REMARK  status: ('A' for Active; 'I' for Inactive)
REMARK    1  A    between atoms: C2_2  and  C3_3 
REMARK    2  A    between atoms: C3_3  and  C4_4 
REMARK    3  A    between atoms: C4_4  and  C5_5 
REMARK    4  A    between atoms: C5_5  and  C6_6 
REMARK    5  A    between atoms: N3_12  and  C9_13 
REMARK    6  A    between atoms: C10_15  and  C11_16 
REMARK    7  A    between atoms: C11_16  and  O2_18 
ROOT
HETATM    1  C9  UNL     1      -0.798  -0.285   0.896  1.00  0.00     0.258 C 
HETATM    2  O1  UNL     1      -0.824  -1.105  -0.226  1.00  0.00    -0.355 OA
HETATM    3  C10 UNL     1      -2.178  -1.440  -0.391  1.00  0.00     0.173 C 
HETATM    4  C13 UNL     1      -2.993  -0.470   0.427  1.00  0.00     0.177 C 
HETATM    5  C14 UNL     1      -1.927   0.639   0.607  1.00  0.00     0.257 C 
HETATM    6  N4  UNL     1      -1.872   1.212  -0.721  1.00  0.00    -0.043 N 
ATOM      7  H41 UNL     1      -1.568   0.543  -1.428  1.00  0.00     0.279 HD
ATOM      8  H42 UNL     1      -1.111   1.882  -0.832  1.00  0.00     0.279 HD
HETATM    9  C15 UNL     1      -3.162   1.781  -1.009  1.00  0.00     0.221 C 
HETATM   10  C16 UNL     1      -3.319   1.990  -2.492  1.00  0.00     0.063 C 
HETATM   11  C17 UNL     1      -3.480   3.009  -0.225  1.00  0.00     0.063 C 
HETATM   12  S1  UNL     1      -4.209   0.399  -0.516  1.00  0.00     0.187 S 
HETATM   13  O3  UNL     1      -4.641  -0.400  -1.689  1.00  0.00    -0.225 OA
HETATM   14  O4  UNL     1      -5.340   0.862   0.342  1.00  0.00    -0.225 OA
ENDROOT
BRANCH   1  15
HETATM   15  N3  UNL     1       0.432   0.223   1.283  1.00  0.00    -0.321 N 
HETATM   16  C6  UNL     1       1.622  -0.611   1.573  1.00  0.00     0.107 C 
HETATM   17  C7  UNL     1       2.175   0.143   2.762  1.00  0.00     0.147 C 
HETATM   18  N1  UNL     1       1.906   1.518   2.349  1.00  0.00    -0.362 N 
HETATM   19  C8  UNL     1       0.915   1.542   1.510  1.00  0.00     0.188 C 
ATOM     20  H1  UNL     1       2.420   2.338   2.672  1.00  0.00     0.162 HD
HETATM   21  N2  UNL     1       0.359   2.691   0.886  1.00  0.00    -0.064 NA
BRANCH  16  22
HETATM   22  C5  UNL     1       2.506  -0.456   0.346  1.00  0.00     0.027 C 
BRANCH  22  23
HETATM   23  C4  UNL     1       3.895  -0.972   0.581  1.00  0.00     0.002 C 
BRANCH  23  24
HETATM   24  C3  UNL     1       4.721  -0.814  -0.663  1.00  0.00    -0.000 C 
BRANCH  24  25
HETATM   25  C2  UNL     1       4.871   0.613  -1.132  1.00  0.00    -0.005 C 
HETATM   26  C1  UNL     1       5.735   0.656  -2.386  1.00  0.00     0.005 C 
ENDBRANCH  24  25
ENDBRANCH  23  24
ENDBRANCH  22  23
ENDBRANCH  16  22
ENDBRANCH   1  15
BRANCH   3  27
HETATM   27  C11 UNL     1      -2.468  -2.838   0.109  1.00  0.00     0.144 C 
HETATM   28  C12 UNL     1      -1.730  -3.837  -0.793  1.00  0.00     0.042 C 
BRANCH  27  29
HETATM   29  O2  UNL     1      -3.828  -3.067  -0.101  1.00  0.00    -0.393 OA
ATOM     30  H2  UNL     1      -4.010  -3.945   0.213  1.00  0.00     0.210 HD
ENDBRANCH  27  29
ENDBRANCH   3  27
TORSDOF 7
