REMARK  13 active torsions:
REMARK  status: ('A' for Active; 'I' for Inactive)
REMARK    1  A    between atoms: C2_2  and  N1_3 
REMARK    2  A    between atoms: N1_3  and  C3_4 
REMARK    3  A    between atoms: N1_3  and  C5_6 
REMARK    4  A    between atoms: C5_6  and  C6_7 
REMARK    5  A    between atoms: C6_7  and  N2_8 
REMARK    6  A    between atoms: N2_8  and  C7_10 
REMARK    7  A    between atoms: N4_14  and  C9_16 
REMARK    8  A    between atoms: C9_16  and  C10_17 
REMARK    9  A    between atoms: C10_17  and  C11_18 
REMARK   10  A    between atoms: C14_21  and  O1_22 
REMARK   11  A    between atoms: C16_24  and  O2_25 
REMARK   12  A    between atoms: C19_30  and  N6_31 
REMARK   13  A    between atoms: N6_31  and  C20_33 
ROOT
HETATM    1  C20 UNL     1      -3.236   3.851  -0.585  1.00  0.00     0.070 A 
HETATM    2  C21 UNL     1      -3.526   4.068   0.750  1.00  0.00     0.032 A 
HETATM    3  C22 UNL     1      -3.457   5.360   1.248  1.00  0.00     0.009 A 
HETATM    4  C23 UNL     1      -3.101   6.384   0.387  1.00  0.00    -0.060 A 
HETATM    5  C24 UNL     1      -3.022   7.763   0.912  1.00  0.00     0.048 C 
HETATM    6  C25 UNL     1      -2.815   6.147  -0.949  1.00  0.00     0.031 A 
HETATM    7  C26 UNL     1      -2.880   4.865  -1.453  1.00  0.00     0.072 A 
HETATM    8  C27 UNL     1      -2.587   4.594  -2.831  1.00  0.00     0.102 C 
HETATM    9  N7  UNL     1      -2.362   4.366  -3.947  1.00  0.00    -0.191 NA
ENDROOT
BRANCH   1  10
HETATM   10  N6  UNL     1      -3.294   2.523  -1.108  1.00  0.00    -0.189 N 
ATOM     11  H6  UNL     1      -4.170   2.157  -1.481  1.00  0.00     0.184 HD
BRANCH  10  12
HETATM   12  C19 UNL     1      -2.215   1.775  -1.106  1.00  0.00     0.711 A 
HETATM   13  N5  UNL     1      -1.087   2.266  -0.618  1.00  0.00    -0.021 N 
HETATM   14  C8  UNL     1       0.095   1.569  -0.565  1.00  0.00     0.707 A 
ATOM     15  H5  UNL     1      -1.096   3.221  -0.259  1.00  0.00     0.203 HD
HETATM   16  N3  UNL     1       0.086   0.327  -1.038  1.00  0.00    -0.022 N 
HETATM   17  N4  UNL     1       1.141   2.118  -0.084  1.00  0.00    -0.225 N 
HETATM   18  C7  UNL     1      -1.058  -0.226  -1.554  1.00  0.00     0.707 A 
ATOM     19  H3  UNL     1       0.944  -0.224  -1.017  1.00  0.00     0.203 HD
HETATM   20  N8  UNL     1      -2.197   0.520  -1.576  1.00  0.00    -0.021 N 
ATOM     21  H8  UNL     1      -3.052   0.116  -1.957  1.00  0.00     0.203 HD
ATOM     22  H4  UNL     1       1.083   3.075   0.264  1.00  0.00     0.177 HD
BRANCH  18  23
HETATM   23  N2  UNL     1      -0.962  -1.413  -1.979  1.00  0.00    -0.220 N 
ATOM     24  H2  UNL     1      -0.035  -1.828  -1.887  1.00  0.00     0.178 HD
BRANCH  23  25
HETATM   25  C6  UNL     1      -1.939  -2.261  -2.564  1.00  0.00     0.183 C 
BRANCH  25  26
HETATM   26  C5  UNL     1      -2.162  -3.529  -1.750  1.00  0.00     0.088 C 
BRANCH  26  27
HETATM   27  N1  UNL     1      -2.600  -3.192  -0.461  1.00  0.00    -0.353 N 
BRANCH  27  28
HETATM   28  C2  UNL     1      -3.875  -2.635  -0.310  1.00  0.00     0.064 C 
HETATM   29  C1  UNL     1      -5.017  -3.591  -0.116  1.00  0.00     0.055 C 
ENDBRANCH  27  28
BRANCH  27  30
HETATM   30  C3  UNL     1      -1.997  -3.836   0.635  1.00  0.00     0.064 C 
HETATM   31  C4  UNL     1      -2.600  -5.114   1.100  1.00  0.00     0.055 C 
ENDBRANCH  27  30
ENDBRANCH  26  27
ENDBRANCH  25  26
ENDBRANCH  23  25
ENDBRANCH  18  23
BRANCH  17  32
HETATM   32  C9  UNL     1       2.391   1.430  -0.019  1.00  0.00     0.142 C 
BRANCH  32  33
HETATM   33  C10 UNL     1       2.400   0.562   1.235  1.00  0.00     0.058 C 
BRANCH  33  34
HETATM   34  C11 UNL     1       3.716  -0.117   1.254  1.00  0.00    -0.054 A 
HETATM   35  C12 UNL     1       4.782   0.487   1.884  1.00  0.00     0.010 A 
HETATM   36  C13 UNL     1       6.024  -0.119   1.913  1.00  0.00     0.040 A 
HETATM   37  C14 UNL     1       6.150  -1.326   1.299  1.00  0.00     0.101 A 
HETATM   38  C16 UNL     1       5.078  -1.958   0.652  1.00  0.00     0.102 A 
HETATM   39  C18 UNL     1       3.873  -1.330   0.645  1.00  0.00     0.046 A 
BRANCH  37  40
HETATM   40  O1  UNL     1       7.377  -1.966   1.305  1.00  0.00    -0.353 OA
HETATM   41  C15 UNL     1       8.466  -1.357   1.943  1.00  0.00     0.210 C 
ENDBRANCH  37  40
BRANCH  38  42
HETATM   42  O2  UNL     1       5.309  -3.190   0.055  1.00  0.00    -0.353 OA
HETATM   43  C17 UNL     1       4.236  -3.837  -0.599  1.00  0.00     0.210 C 
ENDBRANCH  38  42
ENDBRANCH  33  34
ENDBRANCH  32  33
ENDBRANCH  17  32
ENDBRANCH  10  12
ENDBRANCH   1  10
TORSDOF 13
