REMARK  15 active torsions:
REMARK  status: ('A' for Active; 'I' for Inactive)
REMARK    1  A    between atoms: C2_2  and  C3_3 
REMARK    2  A    between atoms: C3_3  and  N1_6 
REMARK    3  A    between atoms: N1_6  and  C6_8 
REMARK    4  A    between atoms: C10_14  and  C11_15 
REMARK    5  A    between atoms: C11_15  and  O1_16 
REMARK    6  A    between atoms: C11_15  and  N3_18 
REMARK    7  A    between atoms: N3_18  and  C12_20 
REMARK    8  A    between atoms: C14_22  and  O2_23 
REMARK    9  A    between atoms: C16_25  and  O3_26 
REMARK   10  A    between atoms: N4_31  and  C21_32 
REMARK   11  A    between atoms: C21_32  and  C22_33 
REMARK   12  A    between atoms: C22_33  and  O4_34 
REMARK   13  A    between atoms: O4_34  and  C23_35 
REMARK   14  A    between atoms: C23_35  and  C24_36 
REMARK   15  A    between atoms: C24_36  and  O5_37 
ROOT
HETATM    1  N3  UNL     1      -1.483  -2.000   0.857  1.00  0.00    -0.346 N 
ATOM      2  H3  UNL     1      -1.144  -1.593   1.729  1.00  0.00     0.164 HD
ENDROOT
BRANCH   1   3
HETATM    3  C11 UNL     1      -0.584  -2.800   0.111  1.00  0.00     0.253 C 
BRANCH   3   4
HETATM    4  C10 UNL     1       0.459  -1.984  -0.568  1.00  0.00    -0.009 A 
HETATM    5  C9  UNL     1       0.507  -1.693  -1.899  1.00  0.00     0.014 A 
HETATM    6  C8  UNL     1       1.468  -0.936  -2.503  1.00  0.00     0.031 A 
HETATM    7  C7  UNL     1       2.519  -0.384  -1.735  1.00  0.00     0.051 A 
HETATM    8  N2  UNL     1       3.501   0.357  -2.174  1.00  0.00    -0.336 N 
HETATM    9  C26 UNL     1       2.481  -0.669  -0.396  1.00  0.00     0.035 A 
HETATM   10  C6  UNL     1       4.409   0.794  -1.305  1.00  0.00     0.146 A 
ATOM     11  H2  UNL     1       3.570   0.596  -3.163  1.00  0.00     0.168 HD
HETATM   12  S1  UNL     1       3.873   0.148   0.178  1.00  0.00    -0.052 SA
HETATM   13  C25 UNL     1       1.477  -1.454   0.199  1.00  0.00     0.033 A 
BRANCH  10  14
HETATM   14  N1  UNL     1       5.458   1.538  -1.529  1.00  0.00    -0.362 N 
ATOM     15  H1  UNL     1       5.644   1.848  -2.483  1.00  0.00     0.162 HD
BRANCH  14  16
HETATM   16  C3  UNL     1       6.354   1.935  -0.493  1.00  0.00     0.024 C 
HETATM   17  C4  UNL     1       6.673   0.846   0.498  1.00  0.00     0.038 C 
HETATM   18  C5  UNL     1       5.729   3.097   0.257  1.00  0.00     0.038 C 
BRANCH  16  19
HETATM   19  C2  UNL     1       7.650   2.352  -1.158  1.00  0.00     0.026 C 
HETATM   20  C1  UNL     1       7.445   3.448  -2.179  1.00  0.00     0.007 C 
ENDBRANCH  16  19
ENDBRANCH  14  16
ENDBRANCH  10  14
ENDBRANCH   3   4
BRANCH   3  21
HETATM   21  O1  UNL     1       0.113  -3.698   0.960  1.00  0.00    -0.372 OA
ATOM     22  H1  UNL     1      -0.553  -4.219   1.393  1.00  0.00     0.212 HD
ENDBRANCH   3  21
ENDBRANCH   1   3
BRANCH   1  23
HETATM   23  C12 UNL     1      -2.670  -1.756   0.520  1.00  0.00     0.108 C 
HETATM   24  C13 UNL     1      -3.201  -2.271  -0.644  1.00  0.00     0.088 C 
HETATM   25  C14 UNL     1      -4.526  -2.666  -0.880  1.00  0.00     0.105 C 
HETATM   26  C16 UNL     1      -5.626  -2.270  -0.118  1.00  0.00     0.103 C 
HETATM   27  C18 UNL     1      -5.678  -1.296   0.863  1.00  0.00     0.064 C 
HETATM   28  C19 UNL     1      -4.635  -0.844   1.673  1.00  0.00     0.012 C 
HETATM   29  C20 UNL     1      -5.048  -0.181   2.936  1.00  0.00     0.068 C 
HETATM   30  N4  UNL     1      -3.334  -0.958   1.410  1.00  0.00    -0.335 N 
BRANCH  25  31
HETATM   31  O2  UNL     1      -4.730  -3.510  -1.953  1.00  0.00    -0.353 OA
HETATM   32  C15 UNL     1      -3.620  -3.912  -2.725  1.00  0.00     0.210 C 
ENDBRANCH  25  31
BRANCH  26  33
HETATM   33  O3  UNL     1      -6.795  -2.951  -0.397  1.00  0.00    -0.353 OA
HETATM   34  C17 UNL     1      -7.997  -2.669   0.289  1.00  0.00     0.210 C 
ENDBRANCH  26  33
BRANCH  30  35
HETATM   35  C21 UNL     1      -2.466  -0.112   2.172  1.00  0.00     0.156 C 
BRANCH  35  36
HETATM   36  C22 UNL     1      -2.264   1.223   1.428  1.00  0.00     0.188 C 
BRANCH  36  37
HETATM   37  O4  UNL     1      -1.421   1.971   2.221  1.00  0.00    -0.387 OA
BRANCH  37  38
HETATM   38  C23 UNL     1      -1.129   3.228   1.725  1.00  0.00     0.193 C 
BRANCH  38  39
HETATM   39  C24 UNL     1      -0.446   3.123   0.386  1.00  0.00     0.190 C 
BRANCH  39  40
HETATM   40  O5  UNL     1      -0.187   4.437  -0.031  1.00  0.00    -0.399 OA
ATOM     41  H5  UNL     1       0.244   4.371  -0.875  1.00  0.00     0.209 HD
ENDBRANCH  39  40
ENDBRANCH  38  39
ENDBRANCH  37  38
ENDBRANCH  36  37
ENDBRANCH  35  36
ENDBRANCH  30  35
ENDBRANCH   1  23
TORSDOF 15
