REMARK  14 active torsions:
REMARK  status: ('A' for Active; 'I' for Inactive)
REMARK    1  A    between atoms: C2_4  and  C3_5 
REMARK    2  A    between atoms: C2_4  and  O2_17 
REMARK    3  A    between atoms: C3_5  and  C4_6 
REMARK    4  A    between atoms: C4_6  and  C5_7 
REMARK    5  A    between atoms: C5_7  and  C6_8 
REMARK    6  A    between atoms: C6_8  and  C7_9 
REMARK    7  A    between atoms: C7_9  and  C8_10 
REMARK       I    between atoms: C8_10  and  N2_12 
REMARK    8  A    between atoms: N2_12  and  C9_14 
REMARK    9  A    between atoms: O2_17  and  C12_18 
REMARK   10  A    between atoms: C12_18  and  C13_19 
REMARK   11  A    between atoms: C13_19  and  O3_20 
REMARK   12  A    between atoms: C13_19  and  N3_22 
REMARK   13  A    between atoms: N3_22  and  C14_24 
REMARK   14  A    between atoms: C20_33  and  C21_34 
ROOT
HETATM    1  C12 UNL     1      -1.103   1.148   2.350  1.00  0.00     0.129 C 
HETATM    2  C22 UNL     1      -1.385   0.846   3.570  1.00  0.00    -0.049 C 
HETATM    3  C23 UNL     1      -0.277   1.114   4.596  1.00  0.00     0.046 C 
HETATM    4  C24 UNL     1      -2.619   0.274   4.145  1.00  0.00     0.046 C 
ENDROOT
BRANCH   1   5
HETATM    5  O2  UNL     1       0.195   1.694   2.053  1.00  0.00    -0.294 OA
BRANCH   5   6
HETATM    6  C2  UNL     1       1.254   0.858   1.794  1.00  0.00     0.119 C 
HETATM    7  N1  UNL     1       1.263  -0.341   2.222  1.00  0.00    -0.378 N 
HETATM    8  C1  UNL     1       2.316  -1.306   2.012  1.00  0.00     0.148 C 
ATOM      9  H1  UNL     1       0.454  -0.647   2.762  1.00  0.00     0.160 HD
BRANCH   6  10
HETATM   10  C3  UNL     1       2.407   1.378   0.996  1.00  0.00     0.084 C 
BRANCH  10  11
HETATM   11  C4  UNL     1       2.162   1.282  -0.471  1.00  0.00     0.008 C 
BRANCH  11  12
HETATM   12  C5  UNL     1       3.262   1.826  -1.337  1.00  0.00     0.001 C 
BRANCH  12  13
HETATM   13  C6  UNL     1       4.599   1.211  -1.137  1.00  0.00     0.009 C 
BRANCH  13  14
HETATM   14  C7  UNL     1       4.675  -0.265  -1.360  1.00  0.00     0.103 C 
BRANCH  14  15
HETATM   15  C8  UNL     1       6.101  -0.675  -1.122  1.00  0.00     0.217 C 
HETATM   16  O1  UNL     1       6.988   0.204  -0.861  1.00  0.00    -0.274 OA
HETATM   17  N2  UNL     1       6.440  -2.037  -1.191  1.00  0.00    -0.357 N 
ATOM     18  H2  UNL     1       5.729  -2.738  -1.399  1.00  0.00     0.162 HD
BRANCH  17  19
HETATM   19  C9  UNL     1       7.818  -2.429  -0.961  1.00  0.00     0.076 C 
HETATM   20  C10 UNL     1       7.894  -3.244   0.320  1.00  0.00     0.032 C 
HETATM   21  C11 UNL     1       8.320  -3.269  -2.096  1.00  0.00     0.032 C 
ENDBRANCH  17  19
ENDBRANCH  14  15
ENDBRANCH  13  14
ENDBRANCH  12  13
ENDBRANCH  11  12
ENDBRANCH  10  11
ENDBRANCH   6  10
ENDBRANCH   5   6
ENDBRANCH   1   5
BRANCH   1  22
HETATM   22  C13 UNL     1      -1.958   1.009   1.197  1.00  0.00     0.171 C 
BRANCH  22  23
HETATM   23  O3  UNL     1      -1.466   1.384   0.043  1.00  0.00    -0.344 OA
ATOM     24  H3  UNL     1      -2.029   1.292  -0.717  1.00  0.00     0.219 HD
ENDBRANCH  22  23
BRANCH  22  25
HETATM   25  N3  UNL     1      -3.265   0.532   1.091  1.00  0.00    -0.353 N 
ATOM     26  H3  UNL     1      -3.758   0.200   1.920  1.00  0.00     0.162 HD
BRANCH  25  27
HETATM   27  C14 UNL     1      -3.921   0.510  -0.204  1.00  0.00     0.209 C 
HETATM   28  C15 UNL     1      -4.649  -0.737  -0.449  1.00  0.00     0.247 C 
HETATM   29  O4  UNL     1      -4.424  -1.983  -0.314  1.00  0.00    -0.271 OA
HETATM   30  N4  UNL     1      -5.802  -0.047  -0.933  1.00  0.00    -0.318 N 
HETATM   31  C16 UNL     1      -5.304   1.135  -0.195  1.00  0.00     0.183 C 
HETATM   32  C20 UNL     1      -7.029   0.310  -1.588  1.00  0.00     0.207 C 
HETATM   33  S1  UNL     1      -5.542   2.389  -1.484  1.00  0.00    -0.129 SA
HETATM   34  C17 UNL     1      -6.673   1.418  -2.565  1.00  0.00     0.033 C 
HETATM   35  C18 UNL     1      -7.863   2.252  -2.955  1.00  0.00     0.029 C 
HETATM   36  C19 UNL     1      -5.871   0.944  -3.734  1.00  0.00     0.029 C 
BRANCH  32  37
HETATM   37  C21 UNL     1      -7.634  -0.848  -2.246  1.00  0.00     0.198 C 
HETATM   38  O5  UNL     1      -8.724  -0.763  -2.862  1.00  0.00    -0.646 OA
HETATM   39  O6  UNL     1      -7.015  -2.081  -2.208  1.00  0.00    -0.646 OA
ENDBRANCH  32  37
ENDBRANCH  25  27
ENDBRANCH  22  25
ENDBRANCH   1  22
TORSDOF 14
