REMARK  15 active torsions:
REMARK  status: ('A' for Active; 'I' for Inactive)
REMARK    1  A    between atoms: C2_2  and  C3_3 
REMARK    2  A    between atoms: C2_2  and  C17_21 
REMARK    3  A    between atoms: C4_4  and  C5_5 
REMARK    4  A    between atoms: C5_5  and  C6_6 
REMARK    5  A    between atoms: C6_6  and  C12_14 
REMARK    6  A    between atoms: C7_7  and  C8_8 
REMARK    7  A    between atoms: C8_8  and  C10_10 
REMARK    8  A    between atoms: C10_10  and  O2_12 
REMARK    9  A    between atoms: C12_14  and  C14_16 
REMARK   10  A    between atoms: C14_16  and  O3_17 
REMARK   11  A    between atoms: O3_17  and  C15_18 
REMARK   12  A    between atoms: C20_24  and  O5_25 
REMARK   13  A    between atoms: C22_28  and  C23_29 
REMARK       I    between atoms: C23_29  and  N1_31 
REMARK   14  A    between atoms: N1_31  and  C24_33 
REMARK   15  A    between atoms: C28_37  and  O7_38 
ROOT
HETATM    1  C1  UNL     1       0.408   1.444  -3.278  1.00  0.00     0.019 C 
HETATM    2  C2  UNL     1       0.135   0.724  -2.161  1.00  0.00    -0.061 C 
ENDROOT
BRANCH   2   3
HETATM    3  C3  UNL     1      -1.041   1.135  -1.465  1.00  0.00     0.003 C 
HETATM    4  C4  UNL     1      -1.752   0.828  -0.455  1.00  0.00    -0.022 C 
BRANCH   4   5
HETATM    5  C5  UNL     1      -1.687  -0.214   0.565  1.00  0.00     0.061 C 
BRANCH   5   6
HETATM    6  C6  UNL     1      -2.915  -1.035   0.744  1.00  0.00    -0.074 C 
HETATM    7  C7  UNL     1      -3.594  -1.033   1.853  1.00  0.00    -0.009 C 
BRANCH   7   8
HETATM    8  C8  UNL     1      -3.541  -0.408   3.154  1.00  0.00     0.104 C 
HETATM    9  C9  UNL     1      -2.414   0.424   3.590  1.00  0.00     0.025 C 
BRANCH   8  10
HETATM   10  C10 UNL     1      -4.797   0.411   3.414  1.00  0.00     0.265 C 
HETATM   11  O1  UNL     1      -5.536   0.156   4.379  1.00  0.00    -0.265 OA
BRANCH  10  12
HETATM   12  O2  UNL     1      -5.094   1.432   2.563  1.00  0.00    -0.326 OA
HETATM   13  C11 UNL     1      -6.230   2.271   2.690  1.00  0.00     0.213 C 
ENDBRANCH  10  12
ENDBRANCH   8  10
ENDBRANCH   7   8
BRANCH   6  14
HETATM   14  C12 UNL     1      -3.316  -1.957  -0.353  1.00  0.00     0.035 C 
HETATM   15  C13 UNL     1      -4.356  -2.982   0.040  1.00  0.00     0.017 C 
BRANCH  14  16
HETATM   16  C14 UNL     1      -3.776  -1.324  -1.623  1.00  0.00     0.187 C 
BRANCH  16  17
HETATM   17  O3  UNL     1      -4.884  -0.476  -1.441  1.00  0.00    -0.321 OA
BRANCH  17  18
HETATM   18  C15 UNL     1      -5.411   0.175  -2.547  1.00  0.00     0.254 C 
HETATM   19  C16 UNL     1      -6.580   1.063  -2.324  1.00  0.00     0.126 C 
HETATM   20  O4  UNL     1      -4.893  -0.004  -3.672  1.00  0.00    -0.266 OA
ENDBRANCH  17  18
ENDBRANCH  16  17
ENDBRANCH  14  16
ENDBRANCH   6  14
ENDBRANCH   5   6
ENDBRANCH   4   5
ENDBRANCH   2   3
BRANCH   2  21
HETATM   21  C17 UNL     1       1.049  -0.323  -1.803  1.00  0.00     0.048 C 
HETATM   22  C18 UNL     1       2.123  -0.694  -2.799  1.00  0.00     0.020 C 
HETATM   23  C19 UNL     1       3.238  -1.087  -1.907  1.00  0.00     0.026 C 
HETATM   24  C20 UNL     1       4.612  -1.063  -2.336  1.00  0.00     0.124 C 
HETATM   25  C26 UNL     1       3.191   0.099  -0.917  1.00  0.00     0.001 C 
HETATM   26  C21 UNL     1       5.372  -0.597  -1.083  1.00  0.00     0.047 C 
HETATM   27  C22 UNL     1       4.277  -0.378  -0.020  1.00  0.00     0.091 C 
HETATM   28  C27 UNL     1       3.450   1.413  -1.517  1.00  0.00     0.019 C 
HETATM   29  C28 UNL     1       1.792  -0.106  -0.466  1.00  0.00     0.136 C 
BRANCH  24  30
HETATM   30  O5  UNL     1       4.944  -0.332  -3.446  1.00  0.00    -0.395 OA
ATOM     31  H5  UNL     1       5.851  -0.316  -3.729  1.00  0.00     0.210 HD
ENDBRANCH  24  30
BRANCH  27  32
HETATM   32  C23 UNL     1       4.737   0.543   1.003  1.00  0.00     0.222 C 
HETATM   33  O6  UNL     1       4.116   1.601   1.241  1.00  0.00    -0.273 OA
HETATM   34  N1  UNL     1       5.904   0.256   1.753  1.00  0.00    -0.361 N 
ATOM     35  H1  UNL     1       6.412  -0.607   1.560  1.00  0.00     0.162 HD
BRANCH  34  36
HETATM   36  C24 UNL     1       6.404   1.146   2.787  1.00  0.00     0.118 C 
HETATM   37  C25 UNL     1       7.657   0.592   3.418  1.00  0.00     0.026 C 
ENDBRANCH  34  36
ENDBRANCH  27  32
BRANCH  29  38
HETATM   38  O7  UNL     1       1.772  -1.282   0.298  1.00  0.00    -0.394 OA
ATOM     39  H7  UNL     1       2.229  -1.149   1.120  1.00  0.00     0.210 HD
ENDBRANCH  29  38
ENDBRANCH   2  21
TORSDOF 15
