REMARK  13 active torsions:
REMARK  status: ('A' for Active; 'I' for Inactive)
REMARK    1  A    between atoms: C2_2  and  N1_3 
REMARK    2  A    between atoms: N1_3  and  C3_4 
REMARK    3  A    between atoms: N1_3  and  C23_36 
REMARK    4  A    between atoms: C3_4  and  C4_5 
REMARK    5  A    between atoms: C4_5  and  N2_6 
REMARK       I    between atoms: N2_6  and  C5_8 
REMARK    6  A    between atoms: C5_8  and  C6_10 
REMARK    7  A    between atoms: C8_14  and  N4_15 
REMARK    8  A    between atoms: N4_15  and  C9_17 
REMARK    9  A    between atoms: C19_29  and  N6_30 
REMARK   10  A    between atoms: N6_30  and  C20_32 
REMARK   11  A    between atoms: C20_32  and  C21_33 
REMARK   12  A    between atoms: C21_33  and  O2_34 
REMARK   13  A    between atoms: C23_36  and  C24_37 
ROOT
HETATM    1  C6  UNL     1       0.053   0.302   0.612  1.00  0.00     0.092 A 
HETATM    2  C7  UNL     1      -0.769  -0.598   1.321  1.00  0.00     0.127 A 
HETATM    3  N3  UNL     1      -2.062  -0.700   1.074  1.00  0.00    -0.201 N 
ATOM      4  H3  UNL     1      -2.610  -1.368   1.616  1.00  0.00     0.183 HD
HETATM    5  C8  UNL     1      -2.690   0.038   0.139  1.00  0.00     0.680 A 
HETATM    6  N5  UNL     1      -1.920   0.909  -0.551  1.00  0.00    -0.176 N 
ATOM      7  H5  UNL     1      -2.367   1.483  -1.266  1.00  0.00     0.186 HD
HETATM    8  C19 UNL     1      -0.560   1.067  -0.343  1.00  0.00     0.138 A 
ENDROOT
BRANCH   1   9
HETATM    9  C5  UNL     1       1.461   0.247   0.916  1.00  0.00     0.256 C 
HETATM   10  N2  UNL     1       2.521   0.097   0.026  1.00  0.00    -0.355 N 
ATOM     11  H2  UNL     1       2.333   0.019  -0.973  1.00  0.00     0.162 HD
HETATM   12  O1  UNL     1       1.765   0.335   2.161  1.00  0.00    -0.267 OA
BRANCH  10  13
HETATM   13  C4  UNL     1       3.905   0.050   0.508  1.00  0.00     0.142 C 
BRANCH  13  14
HETATM   14  C3  UNL     1       4.893  -0.123  -0.615  1.00  0.00     0.137 C 
BRANCH  14  15
HETATM   15  N1  UNL     1       6.253  -0.201  -0.193  1.00  0.00    -0.407 N 
BRANCH  15  16
HETATM   16  C2  UNL     1       7.194  -0.280  -1.278  1.00  0.00     0.113 C 
HETATM   17  C1  UNL     1       7.029  -1.614  -1.956  1.00  0.00     0.026 C 
ENDBRANCH  15  16
BRANCH  15  18
HETATM   18  C23 UNL     1       6.526  -1.072   0.882  1.00  0.00     0.164 C 
BRANCH  18  19
HETATM   19  C24 UNL     1       7.843  -0.861   1.545  1.00  0.00     0.017 A 
HETATM   20  C25 UNL     1       8.816  -1.789   1.833  1.00  0.00     0.104 A 
HETATM   21  N7  UNL     1       9.882  -1.371   2.433  1.00  0.00    -0.368 N 
HETATM   22  C26 UNL     1      10.019  -0.101   2.751  1.00  0.00     0.138 A 
ATOM     23  H7  UNL     1      10.624  -2.032   2.662  1.00  0.00     0.165 HD
HETATM   24  S1  UNL     1       8.563   0.572   2.176  1.00  0.00    -0.086 SA
ENDBRANCH  18  19
ENDBRANCH  15  18
ENDBRANCH  14  15
ENDBRANCH  13  14
ENDBRANCH  10  13
ENDBRANCH   1   9
BRANCH   8  25
HETATM   25  N6  UNL     1       0.021   1.940  -1.005  1.00  0.00    -0.353 N 
ATOM     26  H6  UNL     1      -0.708   2.311  -1.614  1.00  0.00     0.166 HD
BRANCH  25  27
HETATM   27  C20 UNL     1       1.114   2.654  -1.339  1.00  0.00     0.088 C 
BRANCH  27  28
HETATM   28  C21 UNL     1       0.876   3.959  -2.128  1.00  0.00     0.211 C 
BRANCH  28  29
HETATM   29  O2  UNL     1       0.104   4.860  -1.438  1.00  0.00    -0.391 OA
HETATM   30  C22 UNL     1       0.006   5.999  -2.277  1.00  0.00     0.201 C 
ENDBRANCH  28  29
ENDBRANCH  27  28
ENDBRANCH  25  27
ENDBRANCH   8  25
BRANCH   5  31
HETATM   31  N4  UNL     1      -3.899  -0.077  -0.080  1.00  0.00    -0.217 N 
ATOM     32  H4  UNL     1      -4.119   0.587  -0.823  1.00  0.00     0.178 HD
BRANCH  31  33
HETATM   33  C9  UNL     1      -5.085  -0.709   0.238  1.00  0.00     0.048 C 
HETATM   34  C10 UNL     1      -5.603  -1.471  -1.013  1.00  0.00     0.036 C 
HETATM   35  C11 UNL     1      -6.963  -2.015  -0.784  1.00  0.00    -0.012 C 
HETATM   36  C12 UNL     1      -7.981  -0.949  -0.497  1.00  0.00     0.009 C 
HETATM   37  C16 UNL     1      -6.979  -2.972   0.388  1.00  0.00     0.009 C 
HETATM   38  C13 UNL     1      -7.498  -0.159   0.691  1.00  0.00    -0.012 C 
HETATM   39  C14 UNL     1      -7.466  -1.099   1.876  1.00  0.00     0.009 C 
HETATM   40  C18 UNL     1      -6.127   0.393   0.478  1.00  0.00     0.036 C 
HETATM   41  C15 UNL     1      -6.510  -2.214   1.585  1.00  0.00    -0.012 C 
HETATM   42  C17 UNL     1      -5.103  -1.704   1.347  1.00  0.00     0.036 C 
ENDBRANCH  31  33
ENDBRANCH   5  31
TORSDOF 13
