REMARK  12 active torsions:
REMARK  status: ('A' for Active; 'I' for Inactive)
REMARK    1  A    between atoms: C3_3  and  N1_4 
REMARK    2  A    between atoms: N1_4  and  C5_6 
REMARK    3  A    between atoms: C5_6  and  C6_7 
REMARK    4  A    between atoms: C6_7  and  C7_8 
REMARK    5  A    between atoms: C7_8  and  N2_9 
REMARK    6  A    between atoms: N2_9  and  C8_11 
REMARK    7  A    between atoms: C9_14  and  C10_15 
REMARK    8  A    between atoms: C12_17  and  O1_18 
REMARK    9  A    between atoms: C14_20  and  O2_21 
REMARK   10  A    between atoms: N6_30  and  C19_32 
REMARK   11  A    between atoms: C19_32  and  C20_33 
REMARK   12  A    between atoms: C20_33  and  C21_34 
ROOT
HETATM    1  C1  UNL     1      -3.492   5.572   2.272  1.00  0.00     0.013 C 
HETATM    2  C2  UNL     1      -4.122   5.451   1.235  1.00  0.00    -0.087 C 
HETATM    3  C3  UNL     1      -4.895   5.313   0.016  1.00  0.00     0.364 C 
ENDROOT
BRANCH   3   4
HETATM    4  N1  UNL     1      -4.030   5.256  -1.139  1.00  0.00     0.095 N 
HETATM    5  C4  UNL     1      -3.395   6.571  -1.313  1.00  0.00     0.310 C 
BRANCH   4   6
HETATM    6  C5  UNL     1      -2.952   4.337  -0.872  1.00  0.00     0.274 C 
BRANCH   6   7
HETATM    7  C6  UNL     1      -3.419   2.892  -0.764  1.00  0.00     0.050 C 
BRANCH   7   8
HETATM    8  C7  UNL     1      -2.163   2.075  -0.483  1.00  0.00     0.140 C 
BRANCH   8   9
HETATM    9  N2  UNL     1      -2.451   0.687  -0.352  1.00  0.00    -0.225 N 
ATOM     10  H2  UNL     1      -3.431   0.406  -0.381  1.00  0.00     0.177 HD
BRANCH   9  11
HETATM   11  C8  UNL     1      -1.576  -0.239  -0.200  1.00  0.00     0.694 A 
HETATM   12  N3  UNL     1      -1.878  -1.537  -0.078  1.00  0.00    -0.173 N 
HETATM   13  C9  UNL     1      -0.941  -2.522   0.083  1.00  0.00     0.163 A 
ATOM     14  H3  UNL     1      -2.861  -1.807  -0.107  1.00  0.00     0.186 HD
HETATM   15  N5  UNL     1       0.332  -2.107   0.113  1.00  0.00    -0.173 N 
HETATM   16  C18 UNL     1       0.668  -0.786  -0.010  1.00  0.00     0.694 A 
ATOM     17  H5  UNL     1       1.074  -2.797   0.231  1.00  0.00     0.186 HD
HETATM   18  N6  UNL     1       1.901  -0.510   0.031  1.00  0.00    -0.225 N 
HETATM   19  N8  UNL     1      -0.288   0.143  -0.166  1.00  0.00    -0.022 N 
ATOM     20  H6  UNL     1       2.515  -1.316   0.153  1.00  0.00     0.177 HD
ATOM     21  H8  UNL     1      -0.040   1.128  -0.258  1.00  0.00     0.203 HD
BRANCH  13  22
HETATM   22  C10 UNL     1      -1.356  -3.914   0.209  1.00  0.00     0.081 A 
HETATM   23  C11 UNL     1      -0.439  -4.914   0.371  1.00  0.00     0.073 A 
HETATM   24  C12 UNL     1      -0.814  -6.251   0.494  1.00  0.00     0.105 A 
HETATM   25  C14 UNL     1      -2.162  -6.528   0.444  1.00  0.00     0.123 A 
HETATM   26  C16 UNL     1      -3.091  -5.516   0.279  1.00  0.00     0.042 A 
HETATM   27  C17 UNL     1      -4.538  -5.850   0.229  1.00  0.00     0.071 C 
HETATM   28  N4  UNL     1      -2.641  -4.247   0.169  1.00  0.00    -0.354 N 
ATOM     29  H4  UNL     1      -3.327  -3.502   0.048  1.00  0.00     0.166 HD
BRANCH  24  30
HETATM   30  O1  UNL     1       0.151  -7.261   0.660  1.00  0.00    -0.353 OA
HETATM   31  C13 UNL     1       1.513  -6.948   0.707  1.00  0.00     0.210 C 
ENDBRANCH  24  30
BRANCH  25  32
HETATM   32  O2  UNL     1      -2.618  -7.821   0.556  1.00  0.00    -0.351 OA
HETATM   33  C15 UNL     1      -2.953  -8.464   1.758  1.00  0.00     0.210 C 
ENDBRANCH  25  32
ENDBRANCH  13  22
BRANCH  18  34
HETATM   34  C19 UNL     1       2.569   0.734  -0.065  1.00  0.00     0.142 C 
BRANCH  34  35
HETATM   35  C20 UNL     1       3.657   0.677  -1.117  1.00  0.00     0.061 C 
BRANCH  35  36
HETATM   36  C21 UNL     1       4.398   1.940  -1.271  1.00  0.00    -0.029 A 
HETATM   37  C22 UNL     1       4.269   2.863  -2.283  1.00  0.00     0.096 A 
HETATM   38  N7  UNL     1       5.134   3.893  -2.064  1.00  0.00    -0.365 N 
HETATM   39  C23 UNL     1       5.821   3.661  -0.936  1.00  0.00     0.042 A 
ATOM     40  H7  UNL     1       5.242   4.711  -2.663  1.00  0.00     0.165 HD
HETATM   41  C24 UNL     1       6.808   4.332  -0.229  1.00  0.00     0.030 A 
HETATM   42  C28 UNL     1       5.365   2.437  -0.432  1.00  0.00    -0.002 A 
HETATM   43  C25 UNL     1       7.346   3.828   0.946  1.00  0.00     0.002 A 
HETATM   44  C26 UNL     1       6.858   2.618   1.396  1.00  0.00     0.001 A 
HETATM   45  C27 UNL     1       5.875   1.918   0.721  1.00  0.00     0.014 A 
ENDBRANCH  35  36
ENDBRANCH  34  35
ENDBRANCH  18  34
ENDBRANCH   9  11
ENDBRANCH   8   9
ENDBRANCH   7   8
ENDBRANCH   6   7
ENDBRANCH   4   6
ENDBRANCH   3   4
TORSDOF 12
