REMARK  15 active torsions:
REMARK  status: ('A' for Active; 'I' for Inactive)
REMARK    1  A    between atoms: C2_2  and  N1_3 
REMARK    2  A    between atoms: N1_3  and  C3_5 
REMARK    3  A    between atoms: C4_8  and  N3_9 
REMARK    4  A    between atoms: N3_9  and  C5_11 
REMARK    5  A    between atoms: C5_11  and  C6_12 
REMARK    6  A    between atoms: C6_12  and  C7_13 
REMARK    7  A    between atoms: C7_13  and  N4_14 
REMARK    8  A    between atoms: N5_17  and  C10_18 
REMARK    9  A    between atoms: C10_18  and  C11_19 
REMARK   10  A    between atoms: C10_18  and  C13_22 
REMARK   11  A    between atoms: C10_18  and  C16_26 
REMARK   12  A    between atoms: C13_22  and  C14_23 
REMARK   13  A    between atoms: C16_26  and  C17_27 
REMARK   14  A    between atoms: C17_27  and  C19_29 
REMARK   15  A    between atoms: C26_38  and  O1_39 
ROOT
HETATM    1  C11 UNL     1      -4.131  -2.048  -0.680  1.00  0.00     0.154 C 
HETATM    2  C12 UNL     1      -3.832  -1.857  -2.073  1.00  0.00     0.061 C 
HETATM    3  N6  UNL     1      -3.586  -1.694  -3.181  1.00  0.00    -0.197 NA
ENDROOT
BRANCH   1   4
HETATM    4  C10 UNL     1      -4.182  -0.703   0.095  1.00  0.00     0.041 C 
BRANCH   4   5
HETATM    5  N5  UNL     1      -2.868  -0.140  -0.069  1.00  0.00    -0.399 N 
HETATM    6  C9  UNL     1      -1.777  -0.807   0.450  1.00  0.00     0.148 C 
HETATM    7  C8  UNL     1      -0.581  -0.674  -0.500  1.00  0.00     0.291 C 
HETATM    8  N4  UNL     1      -0.280   0.700  -0.704  1.00  0.00     0.091 N 
HETATM    9  C22 UNL     1      -1.444   1.336  -1.287  1.00  0.00     0.291 C 
HETATM   10  C21 UNL     1      -2.684   1.190  -0.380  1.00  0.00     0.148 C 
BRANCH   8  11
HETATM   11  C7  UNL     1       0.141   1.462   0.408  1.00  0.00     0.274 C 
BRANCH  11  12
HETATM   12  C6  UNL     1       1.467   1.152   0.999  1.00  0.00     0.050 C 
BRANCH  12  13
HETATM   13  C5  UNL     1       2.622   1.322   0.015  1.00  0.00     0.140 C 
BRANCH  13  14
HETATM   14  N3  UNL     1       3.816   0.999   0.747  1.00  0.00    -0.226 N 
ATOM     15  H3  UNL     1       3.795   1.163   1.754  1.00  0.00     0.177 HD
BRANCH  14  16
HETATM   16  C4  UNL     1       4.901   0.527   0.264  1.00  0.00     0.680 A 
HETATM   17  N2  UNL     1       5.932   0.283   1.121  1.00  0.00    -0.176 N 
HETATM   18  C3  UNL     1       7.086  -0.213   0.671  1.00  0.00     0.129 A 
ATOM     19  H2  UNL     1       5.821   0.481   2.115  1.00  0.00     0.186 HD
HETATM   20  C28 UNL     1       7.211  -0.474  -0.684  1.00  0.00     0.038 A 
HETATM   21  C23 UNL     1       6.172  -0.225  -1.528  1.00  0.00     0.063 A 
HETATM   22  C27 UNL     1       8.406  -0.989  -1.145  1.00  0.00     0.054 A 
HETATM   23  N8  UNL     1       5.004   0.281  -1.046  1.00  0.00    -0.191 N 
HETATM   24  C24 UNL     1       6.285  -0.484  -2.882  1.00  0.00     0.034 A 
ATOM     25  H8  UNL     1       4.222   0.469  -1.673  1.00  0.00     0.184 HD
HETATM   26  C25 UNL     1       7.482  -0.997  -3.327  1.00  0.00     0.039 A 
HETATM   27  C26 UNL     1       8.521  -1.245  -2.480  1.00  0.00     0.066 A 
BRANCH  18  28
HETATM   28  N1  UNL     1       8.057  -0.441   1.469  1.00  0.00    -0.376 N 
ATOM     29  H1  UNL     1       8.926  -0.820   1.092  1.00  0.00     0.161 HD
BRANCH  28  30
HETATM   30  C2  UNL     1       7.968  -0.181   2.884  1.00  0.00     0.116 C 
HETATM   31  C1  UNL     1       8.093   1.292   3.214  1.00  0.00     0.026 C 
ENDBRANCH  28  30
ENDBRANCH  18  28
BRANCH  27  32
HETATM   32  O1  UNL     1       9.726  -1.768  -2.969  1.00  0.00    -0.361 OA
ATOM     33  H1  UNL     1      10.450  -1.941  -2.379  1.00  0.00     0.217 HD
ENDBRANCH  27  32
ENDBRANCH  14  16
ENDBRANCH  13  14
ENDBRANCH  12  13
ENDBRANCH  11  12
ENDBRANCH   8  11
ENDBRANCH   4   5
BRANCH   4  34
HETATM   34  C13 UNL     1      -4.374  -1.144   1.501  1.00  0.00     0.045 C 
BRANCH  34  35
HETATM   35  C14 UNL     1      -4.213  -0.205   2.611  1.00  0.00     0.126 C 
HETATM   36  C15 UNL     1      -4.998   0.977   2.702  1.00  0.00     0.059 C 
HETATM   37  N7  UNL     1      -5.638   1.933   2.754  1.00  0.00    -0.197 NA
ENDBRANCH  34  35
ENDBRANCH   4  34
BRANCH   4  38
HETATM   38  C16 UNL     1      -5.180   0.108  -0.593  1.00  0.00     0.036 C 
BRANCH  38  39
HETATM   39  C17 UNL     1      -6.588  -0.188  -0.743  1.00  0.00    -0.017 C 
HETATM   40  C18 UNL     1      -7.151   1.022  -1.588  1.00  0.00     0.010 C 
BRANCH  39  41
HETATM   41  C19 UNL     1      -7.554  -0.292   0.361  1.00  0.00    -0.000 C 
HETATM   42  C20 UNL     1      -8.972  -0.615  -0.170  1.00  0.00     0.005 C 
ENDBRANCH  39  41
ENDBRANCH  38  39
ENDBRANCH   4  38
ENDBRANCH   1   4
TORSDOF 15
