REMARK  13 active torsions:
REMARK  status: ('A' for Active; 'I' for Inactive)
REMARK       I    between atoms: N1_7  and  C7_8 
REMARK    1  A    between atoms: C7_8  and  C8_10 
REMARK    2  A    between atoms: C8_10  and  C9_11 
REMARK    3  A    between atoms: C9_11  and  C10_12 
REMARK    4  A    between atoms: C10_12  and  C11_13 
REMARK    5  A    between atoms: C11_13  and  C12_14 
REMARK    6  A    between atoms: C12_14  and  C13_15 
REMARK    7  A    between atoms: C13_15  and  C14_16 
REMARK    8  A    between atoms: C14_16  and  C15_18 
REMARK    9  A    between atoms: C15_18  and  C16_19 
REMARK   10  A    between atoms: C16_19  and  O3_21 
REMARK   11  A    between atoms: C16_19  and  C18_23 
REMARK   12  A    between atoms: C23_29  and  N2_30 
REMARK   13  A    between atoms: C28_36  and  O6_37 
ROOT
HETATM    1  C1  UNL     1      -6.289   0.555  -2.182  1.00  0.00     0.017 C 
HETATM    2  C2  UNL     1      -5.444   1.056  -1.253  1.00  0.00    -0.058 C 
HETATM    3  C3  UNL     1      -5.205   2.508  -1.540  1.00  0.00     0.041 C 
HETATM    4  C4  UNL     1      -3.748   2.825  -1.281  1.00  0.00    -0.003 C 
HETATM    5  C5  UNL     1      -2.963   2.292  -2.413  1.00  0.00     0.025 C 
HETATM    6  C6  UNL     1      -2.390   0.898  -2.230  1.00  0.00     0.127 C 
HETATM    7  N1  UNL     1      -1.864   0.782  -0.858  1.00  0.00    -0.344 N 
HETATM    8  C7  UNL     1      -0.526   0.403  -0.690  1.00  0.00     0.220 C 
HETATM    9  O1  UNL     1      -0.014   0.315   0.451  1.00  0.00    -0.273 OA
HETATM   10  C19 UNL     1      -2.718   1.085   0.222  1.00  0.00     0.122 C 
HETATM   11  C20 UNL     1      -3.317   2.490   0.089  1.00  0.00     0.015 C 
HETATM   12  C21 UNL     1      -4.361   2.476   1.144  1.00  0.00     0.010 C 
HETATM   13  C22 UNL     1      -4.365   1.106   1.787  1.00  0.00     0.036 C 
HETATM   14  C23 UNL     1      -3.858   0.248   0.591  1.00  0.00     0.079 C 
HETATM   15  C28 UNL     1      -5.028   0.096  -0.282  1.00  0.00     0.176 C 
ENDROOT
BRANCH   8  16
HETATM   16  C8  UNL     1       0.311   0.096  -1.857  1.00  0.00     0.103 C 
BRANCH  16  17
HETATM   17  C9  UNL     1       1.719  -0.321  -1.549  1.00  0.00     0.009 C 
BRANCH  17  18
HETATM   18  C10 UNL     1       2.560   0.708  -0.864  1.00  0.00     0.000 C 
BRANCH  18  19
HETATM   19  C11 UNL     1       3.957   0.141  -0.608  1.00  0.00     0.000 C 
BRANCH  19  20
HETATM   20  C12 UNL     1       3.983  -1.045   0.274  1.00  0.00     0.007 C 
BRANCH  20  21
HETATM   21  C13 UNL     1       5.339  -1.617   0.574  1.00  0.00     0.078 C 
BRANCH  21  22
HETATM   22  C14 UNL     1       6.227  -0.716   1.299  1.00  0.00     0.130 C 
HETATM   23  O2  UNL     1       5.892   0.391   1.631  1.00  0.00    -0.298 OA
BRANCH  22  24
HETATM   24  C15 UNL     1       7.604  -1.150   1.660  1.00  0.00     0.123 C 
BRANCH  24  25
HETATM   25  C16 UNL     1       8.558  -0.605   0.622  1.00  0.00     0.113 C 
HETATM   26  C17 UNL     1       8.479   0.894   0.607  1.00  0.00     0.054 C 
BRANCH  25  27
HETATM   27  O3  UNL     1       8.157  -1.104  -0.633  1.00  0.00    -0.383 OA
ATOM     28  H3  UNL     1       8.757  -0.761  -1.285  1.00  0.00     0.211 HD
ENDBRANCH  25  27
BRANCH  25  29
HETATM   29  C18 UNL     1       9.920  -1.094   0.959  1.00  0.00     0.269 C 
HETATM   30  O4  UNL     1      10.496  -1.810   0.175  1.00  0.00    -0.304 OA
ENDBRANCH  25  29
ENDBRANCH  24  25
ENDBRANCH  22  24
ENDBRANCH  21  22
ENDBRANCH  20  21
ENDBRANCH  19  20
ENDBRANCH  18  19
ENDBRANCH  17  18
ENDBRANCH  16  17
ENDBRANCH   8  16
BRANCH  14  31
HETATM   31  N2  UNL     1      -3.455  -0.969   1.190  1.00  0.00    -0.395 N 
HETATM   32  C24 UNL     1      -2.759  -1.955   0.502  1.00  0.00     0.144 C 
HETATM   33  C25 UNL     1      -3.301  -3.361   0.844  1.00  0.00     0.187 C 
HETATM   34  O5  UNL     1      -2.973  -3.570   2.181  1.00  0.00    -0.388 OA
HETATM   35  C26 UNL     1      -3.290  -2.514   2.989  1.00  0.00     0.187 C 
HETATM   36  C27 UNL     1      -4.170  -1.458   2.304  1.00  0.00     0.144 C 
ENDBRANCH  14  31
BRANCH  15  37
HETATM   37  O6  UNL     1      -6.138  -0.176   0.565  1.00  0.00    -0.389 OA
ATOM     38  H6  UNL     1      -5.861  -0.815   1.211  1.00  0.00     0.210 HD
ENDBRANCH  15  37
TORSDOF 13
