REMARK  11 active torsions:
REMARK  status: ('A' for Active; 'I' for Inactive)
REMARK    1  A    between atoms: C2_2  and  C3_4 
REMARK    2  A    between atoms: C3_4  and  C4_5 
REMARK       I    between atoms: N1_6  and  C5_8 
REMARK       I    between atoms: C5_8  and  N2_10 
REMARK    3  A    between atoms: C9_14  and  C10_15 
REMARK       I    between atoms: C10_15  and  N3_17 
REMARK    4  A    between atoms: N3_17  and  C11_19 
REMARK    5  A    between atoms: C11_19  and  C12_20 
REMARK    6  A    between atoms: C11_19  and  C24_37 
REMARK       I    between atoms: C12_20  and  N4_22 
REMARK    7  A    between atoms: N4_22  and  C13_24 
REMARK    8  A    between atoms: C13_24  and  C14_25 
REMARK    9  A    between atoms: C13_24  and  C21_32 
REMARK   10  A    between atoms: C14_25  and  C15_26 
REMARK   11  A    between atoms: C21_32  and  C22_34 
ROOT
HETATM    1  C11 UNL     1       0.276  -0.248  -0.259  1.00  0.00     0.180 C 
ENDROOT
BRANCH   1   2
HETATM    2  N3  UNL     1       1.611  -0.521  -0.327  1.00  0.00    -0.346 N 
HETATM    3  C10 UNL     1       2.363  -0.578   0.907  1.00  0.00     0.241 C 
HETATM    4  O3  UNL     1       1.707  -0.450   1.981  1.00  0.00    -0.271 OA
ATOM      5  H3  UNL     1       2.067  -0.681  -1.225  1.00  0.00     0.163 HD
BRANCH   3   6
HETATM    6  C9  UNL     1       3.797  -0.736   1.061  1.00  0.00     0.181 C 
HETATM    7  N2  UNL     1       4.606  -0.454  -0.091  1.00  0.00    -0.321 N 
HETATM    8  C5  UNL     1       5.240  -1.346  -0.965  1.00  0.00     0.322 C 
HETATM    9  C6  UNL     1       4.757   0.980  -0.135  1.00  0.00     0.129 C 
HETATM   10  N1  UNL     1       6.238  -0.763  -1.904  1.00  0.00    -0.322 N 
HETATM   11  O2  UNL     1       5.042  -2.541  -1.013  1.00  0.00    -0.247 OA
HETATM   12  C4  UNL     1       7.409  -0.505  -1.337  1.00  0.00     0.073 C 
ATOM     13  H1  UNL     1       6.040  -0.580  -2.888  1.00  0.00     0.169 HD
HETATM   14  C7  UNL     1       4.777   1.465   1.301  1.00  0.00     0.022 C 
HETATM   15  C8  UNL     1       4.305   0.303   2.103  1.00  0.00     0.037 C 
BRANCH  12  16
HETATM   16  C3  UNL     1       7.701  -0.778   0.071  1.00  0.00     0.122 C 
BRANCH  16  17
HETATM   17  C2  UNL     1       9.119  -1.275   0.165  1.00  0.00     0.127 C 
HETATM   18  C1  UNL     1      10.235  -0.296   0.258  1.00  0.00     0.091 C 
HETATM   19  O1  UNL     1       9.352  -2.463   0.148  1.00  0.00    -0.298 OA
ENDBRANCH  16  17
ENDBRANCH  12  16
ENDBRANCH   3   6
ENDBRANCH   1   2
BRANCH   1  20
HETATM   20  C12 UNL     1      -0.902  -1.094  -0.498  1.00  0.00     0.241 C 
HETATM   21  O4  UNL     1      -0.964  -2.203  -1.031  1.00  0.00    -0.271 OA
HETATM   22  N4  UNL     1      -2.078  -0.428   0.005  1.00  0.00    -0.347 N 
ATOM     23  H4  UNL     1      -1.849   0.471   0.430  1.00  0.00     0.163 HD
BRANCH  22  24
HETATM   24  C13 UNL     1      -3.458  -0.694   0.063  1.00  0.00     0.163 C 
BRANCH  24  25
HETATM   25  C14 UNL     1      -4.197   0.223  -0.833  1.00  0.00     0.038 C 
BRANCH  25  26
HETATM   26  C15 UNL     1      -5.653   0.098  -0.966  1.00  0.00    -0.012 C 
HETATM   27  C16 UNL     1      -6.078  -1.287  -1.408  1.00  0.00     0.005 C 
HETATM   28  C17 UNL     1      -7.352  -1.146  -2.200  1.00  0.00     0.000 C 
HETATM   29  C18 UNL     1      -8.382  -0.441  -1.380  1.00  0.00     0.000 C 
HETATM   30  C19 UNL     1      -7.936  -0.080  -0.009  1.00  0.00     0.000 C 
HETATM   31  C20 UNL     1      -6.579   0.639   0.014  1.00  0.00     0.005 C 
ENDBRANCH  25  26
ENDBRANCH  24  25
BRANCH  24  32
HETATM   32  C21 UNL     1      -3.810  -0.702   1.500  1.00  0.00     0.216 C 
HETATM   33  O5  UNL     1      -3.990  -1.802   2.073  1.00  0.00    -0.287 OA
BRANCH  32  34
HETATM   34  C22 UNL     1      -3.945   0.502   2.296  1.00  0.00     0.193 C 
HETATM   35  C23 UNL     1      -4.501   0.585   3.663  1.00  0.00     0.100 C 
HETATM   36  O6  UNL     1      -3.560   1.638   1.805  1.00  0.00    -0.290 OA
ENDBRANCH  32  34
ENDBRANCH  24  32
ENDBRANCH  22  24
ENDBRANCH   1  20
BRANCH   1  37
HETATM   37  C24 UNL     1      -0.040   1.042  -1.122  1.00  0.00     0.009 C 
HETATM   38  C25 UNL     1       0.427   0.795  -2.517  1.00  0.00     0.012 C 
HETATM   39  C26 UNL     1       0.554   2.201  -0.409  1.00  0.00     0.012 C 
ENDBRANCH   1  37
TORSDOF 11
