REMARK  15 active torsions:
REMARK  status: ('A' for Active; 'I' for Inactive)
REMARK    1  A    between atoms: C3_3  and  C4_4 
REMARK    2  A    between atoms: C5_5  and  C6_6 
REMARK       I    between atoms: C6_6  and  N1_8 
REMARK    3  A    between atoms: C7_10  and  C8_11 
REMARK    4  A    between atoms: C12_15  and  O2_16 
REMARK    5  A    between atoms: C17_23  and  C18_24 
REMARK    6  A    between atoms: C22_29  and  C23_30 
REMARK    7  A    between atoms: C23_30  and  O5_31 
REMARK    8  A    between atoms: O5_31  and  C24_32 
REMARK    9  A    between atoms: C24_32  and  C25_34 
REMARK   10  A    between atoms: C25_34  and  N2_35 
REMARK   11  A    between atoms: C25_34  and  C26_39 
REMARK   12  A    between atoms: C26_39  and  C27_40 
REMARK   13  A    between atoms: C27_40  and  C28_41 
REMARK   14  A    between atoms: C28_41  and  C29_42 
REMARK   15  A    between atoms: C29_42  and  N3_43 
ROOT
HETATM    1  C4  UNL     1      -1.283   0.635  -1.404  1.00  0.00     0.030 C 
HETATM    2  C5  UNL     1      -1.950   0.184  -0.130  1.00  0.00     0.091 C 
HETATM    3  C15 UNL     1      -0.962   0.277   1.046  1.00  0.00     0.007 C 
HETATM    4  C16 UNL     1      -1.275  -0.659   2.153  1.00  0.00     0.011 C 
HETATM    5  C17 UNL     1       0.502   0.111   0.525  1.00  0.00     0.072 C 
HETATM    6  C20 UNL     1       0.777   1.365  -0.170  1.00  0.00    -0.001 A 
HETATM    7  C21 UNL     1       0.771   2.505   0.905  1.00  0.00     0.021 C 
HETATM    8  C22 UNL     1       1.754   1.598  -1.202  1.00  0.00    -0.049 A 
HETATM    9  C30 UNL     1       0.776   1.876  -2.102  1.00  0.00    -0.014 A 
HETATM   10  C31 UNL     1      -0.312   1.712  -1.177  1.00  0.00     0.030 A 
ENDROOT
BRANCH   8  11
HETATM   11  C23 UNL     1       3.207   1.695  -1.384  1.00  0.00     0.213 C 
BRANCH  11  12
HETATM   12  O5  UNL     1       3.877   0.520  -1.209  1.00  0.00    -0.316 OA
BRANCH  12  13
HETATM   13  C24 UNL     1       5.261   0.523  -1.382  1.00  0.00     0.289 C 
HETATM   14  O6  UNL     1       5.850   1.587  -1.693  1.00  0.00    -0.263 OA
BRANCH  13  15
HETATM   15  C25 UNL     1       6.084  -0.706  -1.211  1.00  0.00     0.282 C 
BRANCH  15  16
HETATM   16  N2  UNL     1       7.441  -0.414  -1.556  1.00  0.00    -0.066 N 
ATOM     17  H23 UNL     1       7.526  -0.018  -2.492  1.00  0.00     0.275 HD
ATOM     18  H22 UNL     1       7.813   0.377  -1.031  1.00  0.00     0.275 HD
ATOM     19  H21 UNL     1       8.005  -1.256  -1.439  1.00  0.00     0.275 HD
ENDBRANCH  15  16
BRANCH  15  20
HETATM   20  C26 UNL     1       5.984  -1.100   0.237  1.00  0.00     0.043 C 
BRANCH  20  21
HETATM   21  C27 UNL     1       6.717  -2.309   0.660  1.00  0.00     0.004 C 
BRANCH  21  22
HETATM   22  C28 UNL     1       8.214  -2.286   0.558  1.00  0.00     0.027 C 
BRANCH  22  23
HETATM   23  C29 UNL     1       8.852  -1.230   1.434  1.00  0.00     0.229 C 
BRANCH  23  24
HETATM   24  N3  UNL     1      10.278  -1.211   1.313  1.00  0.00    -0.079 N 
ATOM     25  H33 UNL     1      10.675  -2.132   1.498  1.00  0.00     0.274 HD
ATOM     26  H32 UNL     1      10.563  -1.103   0.340  1.00  0.00     0.274 HD
ATOM     27  H31 UNL     1      10.708  -0.499   1.904  1.00  0.00     0.274 HD
ENDBRANCH  23  24
ENDBRANCH  22  23
ENDBRANCH  21  22
ENDBRANCH  20  21
ENDBRANCH  15  20
ENDBRANCH  13  15
ENDBRANCH  12  13
ENDBRANCH  11  12
ENDBRANCH   8  11
BRANCH   5  28
HETATM   28  C18 UNL     1       0.629  -1.217   0.014  1.00  0.00     0.128 C 
HETATM   29  C19 UNL     1       1.692  -1.900  -0.730  1.00  0.00     0.091 C 
HETATM   30  O4  UNL     1      -0.346  -2.008   0.226  1.00  0.00    -0.298 OA
ENDBRANCH   5  28
BRANCH   1  31
HETATM   31  C3  UNL     1      -2.304   1.043  -2.391  1.00  0.00    -0.025 C 
HETATM   32  C2  UNL     1      -2.294   2.213  -2.997  1.00  0.00    -0.035 C 
HETATM   33  C1  UNL     1      -3.388   2.508  -3.981  1.00  0.00     0.036 C 
ENDBRANCH   1  31
BRANCH   2  34
HETATM   34  C6  UNL     1      -3.173   0.947   0.209  1.00  0.00     0.226 C 
HETATM   35  O1  UNL     1      -3.573   1.957  -0.381  1.00  0.00    -0.273 OA
HETATM   36  N1  UNL     1      -4.012   0.525   1.317  1.00  0.00    -0.340 N 
HETATM   37  C7  UNL     1      -5.083  -0.173   1.075  1.00  0.00     0.069 C 
ATOM     38  H1  UNL     1      -3.764   0.773   2.275  1.00  0.00     0.167 HD
BRANCH  37  39
HETATM   39  C8  UNL     1      -5.972  -0.631   2.149  1.00  0.00     0.038 C 
HETATM   40  C9  UNL     1      -6.623  -1.960   1.753  1.00  0.00     0.023 C 
HETATM   41  C10 UNL     1      -8.115  -1.691   1.738  1.00  0.00     0.059 C 
HETATM   42  C11 UNL     1      -8.365  -0.807   0.537  1.00  0.00     0.044 C 
HETATM   43  C14 UNL     1      -8.182  -0.691   2.839  1.00  0.00     0.138 C 
HETATM   44  C12 UNL     1      -7.729   0.520   0.952  1.00  0.00     0.131 C 
HETATM   45  C13 UNL     1      -7.167   0.277   2.340  1.00  0.00     0.093 C 
HETATM   46  O3  UNL     1      -8.840  -0.643   3.840  1.00  0.00    -0.297 OA
BRANCH  44  47
HETATM   47  O2  UNL     1      -8.702   1.511   1.051  1.00  0.00    -0.395 OA
ATOM     48  H2  UNL     1      -8.307   2.336   1.309  1.00  0.00     0.210 HD
ENDBRANCH  44  47
ENDBRANCH  37  39
ENDBRANCH   2  34
TORSDOF 15
