REMARK  11 active torsions:
REMARK  status: ('A' for Active; 'I' for Inactive)
REMARK    1  A    between atoms: C2_2  and  C3_3 
REMARK    2  A    between atoms: C3_3  and  C4_4 
REMARK    3  A    between atoms: C3_3  and  C6_6 
REMARK    4  A    between atoms: C8_11  and  C9_12 
REMARK    5  A    between atoms: C9_12  and  C10_13 
REMARK    6  A    between atoms: C10_13  and  C11_14 
REMARK    7  A    between atoms: C11_14  and  N2_15 
REMARK       I    between atoms: N2_15  and  C12_17 
REMARK    8  A    between atoms: C20_34  and  C21_35 
REMARK    9  A    between atoms: C21_35  and  C22_36 
REMARK   10  A    between atoms: C22_36  and  S1_37 
REMARK   11  A    between atoms: N9_39  and  C24_40 
ROOT
HETATM    1  C6  UNL     1      -0.651   0.587  -0.050  1.00  0.00     0.069 C 
HETATM    2  N1  UNL     1       0.310   0.929  -1.077  1.00  0.00    -0.320 N 
ATOM      3  H1  UNL     1       0.202   1.801  -1.596  1.00  0.00     0.169 HD
HETATM    4  C7  UNL     1       1.423   0.051  -1.379  1.00  0.00     0.268 C 
HETATM    5  O1  UNL     1       1.702  -0.188  -2.576  1.00  0.00    -0.266 OA
HETATM    6  C8  UNL     1       2.221  -0.556  -0.303  1.00  0.00     0.078 C 
HETATM    7  N5  UNL     1       2.038  -1.860   0.053  1.00  0.00    -0.351 N 
ATOM      8  H5  UNL     1       2.996  -2.116   0.292  1.00  0.00     0.166 HD
HETATM    9  C13 UNL     1       1.471  -2.923   0.272  1.00  0.00     0.097 A 
HETATM   10  C14 UNL     1       2.261  -3.987   0.729  1.00  0.00    -0.029 A 
HETATM   11  C15 UNL     1       3.751  -3.884   0.920  1.00  0.00     0.050 C 
HETATM   12  C16 UNL     1       1.757  -5.223   1.045  1.00  0.00     0.026 A 
HETATM   13  C17 UNL     1       0.396  -5.391   0.892  1.00  0.00     0.091 A 
HETATM   14  N6  UNL     1      -0.297  -4.395   0.470  1.00  0.00    -0.339 N 
ATOM     15  H6  UNL     1      -1.295  -4.587   0.381  1.00  0.00     0.168 HD
HETATM   16  C18 UNL     1       0.061  -3.131   0.121  1.00  0.00     0.208 A 
HETATM   17  N7  UNL     1      -0.679  -2.255  -0.295  1.00  0.00    -0.364 NA
HETATM   18  C19 UNL     1      -1.749  -1.560  -0.702  1.00  0.00     0.212 A 
HETATM   19  N8  UNL     1      -2.930  -1.889  -1.278  1.00  0.00    -0.319 N 
ATOM     20  H8  UNL     1      -3.225  -2.842  -1.491  1.00  0.00     0.169 HD
HETATM   21  C20 UNL     1      -3.651  -0.803  -1.527  1.00  0.00     0.087 A 
HETATM   22  N9  UNL     1      -2.973   0.282  -1.130  1.00  0.00    -0.327 N 
HETATM   23  C27 UNL     1      -1.809  -0.127  -0.615  1.00  0.00     0.122 A 
ENDROOT
BRANCH   6  24
HETATM   24  C9  UNL     1       3.700  -0.128  -0.428  1.00  0.00     0.064 C 
BRANCH  24  25
HETATM   25  C10 UNL     1       4.389  -0.504  -1.664  1.00  0.00     0.026 C 
BRANCH  25  26
HETATM   26  C11 UNL     1       5.852  -0.010  -1.537  1.00  0.00     0.122 C 
BRANCH  26  27
HETATM   27  N2  UNL     1       5.746   1.424  -1.369  1.00  0.00    -0.367 N 
HETATM   28  C12 UNL     1       6.222   2.040  -0.359  1.00  0.00     0.196 C 
HETATM   29  N3  UNL     1       6.886   1.289   0.647  1.00  0.00    -0.067 NA
HETATM   30  N4  UNL     1       6.112   3.446  -0.205  1.00  0.00    -0.067 NA
ATOM     31  H2  UNL     1       5.270   1.965  -2.090  1.00  0.00     0.161 HD
ENDBRANCH  26  27
ENDBRANCH  25  26
ENDBRANCH  24  25
ENDBRANCH   6  24
BRANCH   1  32
HETATM   32  C3  UNL     1      -0.757   1.504   1.099  1.00  0.00    -0.051 C 
BRANCH  32  33
HETATM   33  C2  UNL     1      -1.786   1.071   2.086  1.00  0.00     0.032 C 
HETATM   34  C1  UNL     1      -1.494   1.492   3.501  1.00  0.00     0.010 C 
ENDBRANCH  32  33
BRANCH  32  35
HETATM   35  C4  UNL     1      -0.509   2.948   0.901  1.00  0.00     0.032 C 
HETATM   36  C5  UNL     1      -0.016   3.738   2.079  1.00  0.00     0.010 C 
ENDBRANCH  32  35
ENDBRANCH   1  32
BRANCH  22  37
HETATM   37  C24 UNL     1      -3.367   1.681  -1.357  1.00  0.00     0.083 C 
HETATM   38  C25 UNL     1      -3.638   1.932  -2.857  1.00  0.00     0.032 C 
HETATM   39  C26 UNL     1      -4.552   2.138  -0.597  1.00  0.00     0.032 C 
ENDBRANCH  22  37
BRANCH  21  40
HETATM   40  C21 UNL     1      -4.979  -0.887  -2.230  1.00  0.00     0.087 C 
BRANCH  40  41
HETATM   41  C22 UNL     1      -5.986  -1.666  -1.439  1.00  0.00     0.081 C 
BRANCH  41  42
HETATM   42  S1  UNL     1      -6.413  -1.116   0.184  1.00  0.00    -0.173 SA
HETATM   43  C23 UNL     1      -5.109  -1.325   1.398  1.00  0.00     0.089 C 
ENDBRANCH  41  42
ENDBRANCH  40  41
ENDBRANCH  21  40
TORSDOF 11
