REMARK  2 active torsions:
REMARK  status: ('A' for Active; 'I' for Inactive)
REMARK       I    between atoms: C1_2  and  N3_4 
REMARK    1  A    between atoms: N3_4  and  N4_6 
REMARK    2  A    between atoms: N4_6  and  C2_8 
ROOT
HETATM    1  C2  UNL     1      -0.943   0.561  -0.359  1.00  0.00     0.715 A 
HETATM    2  N5  UNL     1      -1.171  -0.754  -0.152  1.00  0.00    -0.127 N 
ATOM      3  H5  UNL     1      -0.512  -1.502  -0.366  1.00  0.00     0.206 HD
HETATM    4  N6  UNL     1      -2.370  -0.929   0.367  1.00  0.00    -0.237 N 
ATOM      5  H6  UNL     1      -2.785  -1.827   0.618  1.00  0.00     0.192 HD
HETATM    6  C3  UNL     1      -2.953   0.268   0.510  1.00  0.00     0.353 A 
HETATM    7  O1  UNL     1      -4.119   0.499   0.980  1.00  0.00    -0.245 OA
HETATM    8  N7  UNL     1      -2.065   1.174   0.060  1.00  0.00    -0.137 N 
ATOM      9  H7  UNL     1      -2.221   2.182   0.040  1.00  0.00     0.189 HD
ENDROOT
BRANCH   1  10
HETATM   10  N4  UNL     1       0.074   1.162  -0.837  1.00  0.00    -0.128 N 
ATOM     11  H4  UNL     1       0.018   2.179  -0.899  1.00  0.00     0.205 HD
BRANCH  10  12
HETATM   12  N3  UNL     1       1.235   0.581  -1.276  1.00  0.00    -0.262 N 
HETATM   13  C1  UNL     1       2.055   0.082  -0.441  1.00  0.00     0.216 C 
HETATM   14  N1  UNL     1       1.774   0.122   0.937  1.00  0.00    -0.065 NA
HETATM   15  N2  UNL     1       3.243  -0.511  -0.898  1.00  0.00    -0.065 NA
ATOM     16  H3  UNL     1       1.442   0.549  -2.274  1.00  0.00     0.190 HD
ENDBRANCH  10  12
ENDBRANCH   1  10
TORSDOF 2
