REMARK  1 active torsions:
REMARK  status: ('A' for Active; 'I' for Inactive)
REMARK       I    between atoms: C1_4  and  N3_6 
REMARK    1  A    between atoms: N3_6  and  N4_8 
ROOT
HETATM    1  N4  UNL     1       0.259  -0.433   0.041  1.00  0.00    -0.150 N 
HETATM    2  C2  UNL     1       0.583   0.687   0.708  1.00  0.00     0.353 A 
HETATM    3  O1  UNL     1      -0.334   1.391   1.192  1.00  0.00    -0.244 OA
HETATM    4  N5  UNL     1       1.893   1.034   0.844  1.00  0.00    -0.259 N 
ATOM      5  H5  UNL     1       2.122   1.887   1.354  1.00  0.00     0.175 HD
HETATM    6  C3  UNL     1       2.896   0.301   0.336  1.00  0.00     0.332 A 
HETATM    7  O2  UNL     1       4.088   0.679   0.498  1.00  0.00    -0.246 OA
HETATM    8  N6  UNL     1       2.570  -0.820  -0.330  1.00  0.00    -0.259 N 
ATOM      9  H6  UNL     1       3.300  -1.408  -0.732  1.00  0.00     0.175 HD
HETATM   10  C4  UNL     1       1.276  -1.161  -0.463  1.00  0.00     0.353 A 
HETATM   11  O3  UNL     1       0.960  -2.224  -1.096  1.00  0.00    -0.244 OA
ENDROOT
BRANCH   1  12
HETATM   12  N3  UNL     1      -1.080  -0.848  -0.135  1.00  0.00    -0.259 N 
HETATM   13  C1  UNL     1      -2.197  -0.169   0.346  1.00  0.00     0.201 C 
HETATM   14  N1  UNL     1      -2.676  -0.475   1.499  1.00  0.00    -0.372 N 
HETATM   15  N2  UNL     1      -2.836   0.857  -0.394  1.00  0.00    -0.062 NA
ATOM     16  H12 UNL     1      -3.494   0.022   1.851  1.00  0.00     0.158 HD
ATOM     17  H11 UNL     1      -2.216  -1.213   2.032  1.00  0.00     0.158 HD
ATOM     18  H3  UNL     1      -1.241  -1.711  -0.654  1.00  0.00     0.190 HD
ENDBRANCH   1  12
TORSDOF 1
