REMARK  0 active torsions:
REMARK  status: ('A' for Active; 'I' for Inactive)
REMARK       I    between atoms: C1_2  and  N2_4 
ROOT
HETATM    1  N1  UNL     1      -3.179  -0.012  -0.139  1.00  0.00    -0.040 NA
HETATM    2  C1  UNL     1      -2.194  -0.109   0.860  1.00  0.00     0.334 C 
HETATM    3  O1  UNL     1      -2.293   0.532   1.963  1.00  0.00    -0.251 OA
HETATM    4  N2  UNL     1      -1.058  -0.910   0.695  1.00  0.00    -0.291 N 
ATOM      5  H2  UNL     1      -1.103  -1.889   0.979  1.00  0.00     0.172 HD
HETATM    6  C2  UNL     1       0.037  -0.461   0.200  1.00  0.00     0.193 A 
HETATM    7  N3  UNL     1       1.095  -1.320   0.077  1.00  0.00    -0.277 N 
ATOM      8  H3  UNL     1       0.998  -2.290   0.377  1.00  0.00     0.189 HD
HETATM    9  N4  UNL     1       2.234  -0.904  -0.424  1.00  0.00    -0.250 N 
ATOM     10  H4  UNL     1       3.000  -1.573  -0.501  1.00  0.00     0.192 HD
HETATM   11  C3  UNL     1       2.447   0.357  -0.842  1.00  0.00     0.341 A 
HETATM   12  O2  UNL     1       3.557   0.735  -1.323  1.00  0.00    -0.245 OA
HETATM   13  N5  UNL     1       1.440   1.243  -0.744  1.00  0.00    -0.271 N 
ATOM     14  H5  UNL     1       1.566   2.207  -1.052  1.00  0.00     0.174 HD
HETATM   15  C4  UNL     1       0.246   0.830  -0.225  1.00  0.00     0.295 A 
HETATM   16  O3  UNL     1      -0.683   1.655  -0.136  1.00  0.00    -0.264 OA
ENDROOT
TORSDOF 0
