REMARK  4 active torsions:
REMARK  status: ('A' for Active; 'I' for Inactive)
REMARK    1  A    between atoms: C2_2  and  C3_3 
REMARK    2  A    between atoms: C3_3  and  N1_4 
REMARK    3  A    between atoms: C6_12  and  N4_13 
REMARK    4  A    between atoms: C12_26  and  C13_27 
ROOT
HETATM    1  N4  UNL     1       0.951  -1.072   0.065  1.00  0.00    -0.066 N 
HETATM    2  N5  UNL     1       1.299  -2.421   0.326  1.00  0.00    -0.273 N 
ATOM      3  H5  UNL     1       0.577  -3.137   0.249  1.00  0.00     0.189 HD
HETATM    4  C7  UNL     1       2.614  -2.815   0.690  1.00  0.00     0.199 A 
HETATM    5  N6  UNL     1       3.547  -1.895   0.789  1.00  0.00    -0.347 N 
ATOM      6  H6  UNL     1       4.494  -2.170   1.049  1.00  0.00     0.167 HD
HETATM    7  C8  UNL     1       3.266  -0.536   0.543  1.00  0.00     0.098 A 
HETATM    8  C9  UNL     1       2.000  -0.129   0.189  1.00  0.00     0.174 A 
HETATM    9  N7  UNL     1       1.997   1.200   0.008  1.00  0.00    -0.329 N 
ATOM     10  H7  UNL     1       1.190   1.764  -0.259  1.00  0.00     0.168 HD
HETATM   11  C10 UNL     1       3.258   1.671   0.241  1.00  0.00     0.133 A 
HETATM   12  C11 UNL     1       3.613   3.036   0.138  1.00  0.00     0.119 C 
HETATM   13  N8  UNL     1       3.919   4.153   0.041  1.00  0.00    -0.190 NA
HETATM   14  C12 UNL     1       4.052   0.584   0.575  1.00  0.00     0.097 A 
ENDROOT
BRANCH  14  15
HETATM   15  C13 UNL     1       5.468   0.686   0.895  1.00  0.00     0.270 C 
HETATM   16  N9  UNL     1       6.171  -0.494   1.249  1.00  0.00    -0.057 NA
HETATM   17  O2  UNL     1       6.086   1.768   0.871  1.00  0.00    -0.271 OA
ENDBRANCH  14  15
BRANCH   1  18
HETATM   18  C6  UNL     1      -0.389  -0.742  -0.309  1.00  0.00     0.708 A 
HETATM   19  N3  UNL     1      -0.727  -0.216  -1.501  1.00  0.00    -0.171 N 
HETATM   20  C5  UNL     1      -2.079  -0.034  -1.539  1.00  0.00     0.170 A 
ATOM     21  H3  UNL     1      -0.077   0.010  -2.254  1.00  0.00     0.186 HD
HETATM   22  N2  UNL     1      -3.125   0.385  -2.252  1.00  0.00    -0.291 N 
HETATM   23  C14 UNL     1      -2.574  -0.466  -0.328  1.00  0.00     0.172 A 
HETATM   24  C4  UNL     1      -4.228   0.219  -1.510  1.00  0.00     0.330 A 
ATOM     25  H2  UNL     1      -3.091   0.766  -3.198  1.00  0.00     0.172 HD
HETATM   26  N1  UNL     1      -3.907  -0.310  -0.308  1.00  0.00    -0.278 N 
HETATM   27  O1  UNL     1      -5.397   0.512  -1.876  1.00  0.00    -0.246 OA
HETATM   28  N10 UNL     1      -1.523  -0.895   0.411  1.00  0.00    -0.170 N 
ATOM     29  H10 UNL     1      -1.578  -1.272   1.357  1.00  0.00     0.186 HD
BRANCH  26  30
HETATM   30  C3  UNL     1      -4.861  -0.621   0.727  1.00  0.00     0.162 C 
BRANCH  30  31
HETATM   31  C2  UNL     1      -5.033   0.534   1.608  1.00  0.00    -0.017 C 
HETATM   32  C1  UNL     1      -4.362   1.647   1.390  1.00  0.00     0.008 C 
ENDBRANCH  30  31
ENDBRANCH  26  30
ENDBRANCH   1  18
TORSDOF 4
