REMARK  8 active torsions:
REMARK  status: ('A' for Active; 'I' for Inactive)
REMARK    1  A    between atoms: C4_7  and  N3_8 
REMARK    2  A    between atoms: N3_8  and  C5_10 
REMARK    3  A    between atoms: N7_21  and  O1_22 
REMARK    4  A    between atoms: C12_28  and  N9_29 
REMARK    5  A    between atoms: N9_29  and  C13_31 
REMARK    6  A    between atoms: C13_31  and  C14_32 
REMARK    7  A    between atoms: C14_32  and  C15_33 
REMARK    8  A    between atoms: C15_33  and  N10_34 
ROOT
HETATM    1  N1  UNL     1      -3.107  -0.041  -4.326  1.00  0.00    -0.188 NA
HETATM    2  C1  UNL     1      -2.526   0.183  -3.345  1.00  0.00     0.137 C 
HETATM    3  C2  UNL     1      -1.830   0.469  -2.130  1.00  0.00     0.190 A 
HETATM    4  N2  UNL     1      -0.491   0.541  -2.168  1.00  0.00    -0.330 N 
ATOM      5  H2  UNL     1       0.012   0.394  -3.043  1.00  0.00     0.168 HD
HETATM    6  C3  UNL     1       0.175   0.810  -1.032  1.00  0.00     0.094 A 
HETATM    7  C4  UNL     1       1.530   0.945  -0.764  1.00  0.00     0.093 A 
HETATM    8  C10 UNL     1       1.589   1.219   0.585  1.00  0.00     0.121 A 
HETATM    9  N8  UNL     1       0.343   1.251   1.111  1.00  0.00    -0.359 N 
ATOM     10  H8  UNL     1       0.112   1.434   2.088  1.00  0.00     0.165 HD
HETATM   11  C11 UNL     1      -0.534   1.002   0.134  1.00  0.00     0.105 A 
HETATM   12  C12 UNL     1      -1.933   0.926   0.174  1.00  0.00     0.132 A 
HETATM   13  N11 UNL     1      -2.548   0.655  -0.990  1.00  0.00    -0.318 N 
ATOM     14  H11 UNL     1      -3.565   0.588  -1.019  1.00  0.00     0.169 HD
ENDROOT
BRANCH  12  15
HETATM   15  N9  UNL     1      -2.533   1.115   1.294  1.00  0.00    -0.374 N 
ATOM     16  H9  UNL     1      -1.984   1.316   2.130  1.00  0.00     0.161 HD
BRANCH  15  17
HETATM   17  C13 UNL     1      -3.969   1.048   1.387  1.00  0.00     0.123 C 
BRANCH  17  18
HETATM   18  C14 UNL     1      -4.433  -0.395   1.580  1.00  0.00     0.047 C 
BRANCH  18  19
HETATM   19  C15 UNL     1      -5.954  -0.409   1.671  1.00  0.00     0.231 C 
BRANCH  19  20
HETATM   20  N10 UNL     1      -6.453  -1.752   1.854  1.00  0.00    -0.079 N 
ATOM     21 3H10 UNL     1      -6.115  -2.380   1.125  1.00  0.00     0.274 HD
ATOM     22 2H10 UNL     1      -6.025  -2.205   2.661  1.00  0.00     0.274 HD
ATOM     23 1H10 UNL     1      -7.471  -1.761   1.915  1.00  0.00     0.274 HD
ENDBRANCH  19  20
ENDBRANCH  18  19
ENDBRANCH  17  18
ENDBRANCH  15  17
ENDBRANCH  12  15
BRANCH   7  24
HETATM   24  N3  UNL     1       2.581   0.816  -1.715  1.00  0.00    -0.188 N 
ATOM     25  H3  UNL     1       2.426   1.149  -2.667  1.00  0.00     0.184 HD
BRANCH  24  26
HETATM   26  C5  UNL     1       3.723   0.294  -1.418  1.00  0.00     0.684 A 
HETATM   27  N4  UNL     1       4.043  -0.176  -0.207  1.00  0.00    -0.172 N 
HETATM   28  C6  UNL     1       5.248  -0.718   0.075  1.00  0.00     0.177 A 
ATOM     29  H4  UNL     1       3.346  -0.123   0.536  1.00  0.00     0.186 HD
HETATM   30  C7  UNL     1       6.208  -0.798  -0.922  1.00  0.00     0.096 A 
HETATM   31  N7  UNL     1       5.823  -1.251   1.167  1.00  0.00    -0.201 N 
HETATM   32  C8  UNL     1       5.867  -0.310  -2.167  1.00  0.00     0.139 A 
HETATM   33  N6  UNL     1       7.297  -1.371  -0.378  1.00  0.00    -0.346 N 
HETATM   34  N5  UNL     1       4.648   0.220  -2.391  1.00  0.00    -0.199 N 
ATOM     35  H5  UNL     1       4.422   0.573  -3.321  1.00  0.00     0.183 HD
HETATM   36  C9  UNL     1       7.068  -1.657   0.924  1.00  0.00     0.216 A 
ATOM     37  H6  UNL     1       8.167  -1.562  -0.874  1.00  0.00     0.167 HD
BRANCH  31  38
HETATM   38  O1  UNL     1       5.189  -1.358   2.381  1.00  0.00    -0.280 OA
ATOM     39  H1  UNL     1       5.595  -1.735   3.153  1.00  0.00     0.245 HD
ENDBRANCH  31  38
ENDBRANCH  24  26
ENDBRANCH   7  24
TORSDOF 8
