REMARK  4 active torsions:
REMARK  status: ('A' for Active; 'I' for Inactive)
REMARK    1  A    between atoms: C2_2  and  O1_4 
REMARK    2  A    between atoms: C2_2  and  C4_6 
REMARK    3  A    between atoms: C5_7  and  C6_8 
REMARK    4  A    between atoms: C6_8  and  N1_9 
ROOT
HETATM    1  C4  UNL     1       1.586   0.378   0.249  1.00  0.00    -0.067 C 
HETATM    2  C5  UNL     1       0.418   0.663   0.084  1.00  0.00    -0.073 C 
ENDROOT
BRANCH   2   3
HETATM    3  C6  UNL     1      -1.001   1.023  -0.150  1.00  0.00     0.365 C 
BRANCH   3   4
HETATM    4  N1  UNL     1      -1.632  -0.105  -0.765  1.00  0.00     0.100 N 
HETATM    5  C7  UNL     1      -2.972   0.156  -1.229  1.00  0.00     0.283 C 
HETATM    6  C8  UNL     1      -3.692   1.012  -0.207  1.00  0.00     0.104 C 
HETATM    7  S1  UNL     1      -3.764  -0.021   1.293  1.00  0.00    -0.166 SA
HETATM    8  C9  UNL     1      -2.664  -1.438   1.072  1.00  0.00     0.104 C 
HETATM    9  C10 UNL     1      -1.551  -1.240   0.118  1.00  0.00     0.283 C 
ENDBRANCH   3   4
ENDBRANCH   2   3
BRANCH   1  10
HETATM   10  C2  UNL     1       3.010   0.059   0.414  1.00  0.00     0.114 C 
HETATM   11  C1  UNL     1       3.847   1.339   0.521  1.00  0.00     0.060 C 
HETATM   12  C3  UNL     1       3.444  -0.683  -0.841  1.00  0.00     0.060 C 
BRANCH  10  13
HETATM   13  O1  UNL     1       3.165  -0.709   1.552  1.00  0.00    -0.378 OA
ATOM     14  H1  UNL     1       2.646  -1.502   1.486  1.00  0.00     0.211 HD
ENDBRANCH  10  13
ENDBRANCH   1  10
TORSDOF 4
