REMARK  5 active torsions:
REMARK  status: ('A' for Active; 'I' for Inactive)
REMARK    1  A    between atoms: O1_1  and  C1_3 
REMARK    2  A    between atoms: C1_3  and  C2_4 
REMARK    3  A    between atoms: C2_4  and  C3_5 
REMARK    4  A    between atoms: C4_6  and  C5_7 
REMARK    5  A    between atoms: C5_7  and  O2_8 
ROOT
HETATM    1  C5  UNL     1      -0.445   0.698   0.061  1.00  0.00     0.151 C 
HETATM    2  C6  UNL     1      -1.375   0.836  -1.106  1.00  0.00     0.323 C 
HETATM    3  N1  UNL     1      -2.701   0.493  -0.682  1.00  0.00     0.092 N 
HETATM    4  C7  UNL     1      -3.004   0.928   0.663  1.00  0.00     0.273 C 
HETATM    5  C8  UNL     1      -2.179   0.149   1.667  1.00  0.00     0.039 C 
HETATM    6  C9  UNL     1      -0.973  -0.436   0.920  1.00  0.00     0.037 C 
HETATM    7  C10 UNL     1      -1.551  -1.513   0.006  1.00  0.00     0.039 C 
HETATM    8  C11 UNL     1      -2.798  -0.975  -0.660  1.00  0.00     0.273 C 
ENDROOT
BRANCH   1   9
HETATM    9  C4  UNL     1       0.933   0.437  -0.368  1.00  0.00    -0.066 C 
HETATM   10  C3  UNL     1       2.080   0.236  -0.708  1.00  0.00    -0.101 C 
BRANCH  10  11
HETATM   11  C2  UNL     1       3.472  -0.006  -1.096  1.00  0.00     0.120 C 
BRANCH  11  12
HETATM   12  C1  UNL     1       4.313  -0.432   0.090  1.00  0.00     0.176 C 
BRANCH  12  13
HETATM   13  O1  UNL     1       5.616  -0.633  -0.405  1.00  0.00    -0.400 OA
ATOM     14  H1  UNL     1       6.143  -0.900   0.339  1.00  0.00     0.209 HD
ENDBRANCH  12  13
ENDBRANCH  11  12
ENDBRANCH  10  11
ENDBRANCH   1   9
BRANCH   1  15
HETATM   15  O2  UNL     1      -0.498   1.853   0.874  1.00  0.00    -0.375 OA
ATOM     16  H2  UNL     1      -1.391   2.022   1.152  1.00  0.00     0.211 HD
ENDBRANCH   1  15
TORSDOF 5
