REMARK  3 active torsions:
REMARK  status: ('A' for Active; 'I' for Inactive)
REMARK    1  A    between atoms: C5_6  and  N2_7 
REMARK    2  A    between atoms: N2_7  and  C6_9 
REMARK    3  A    between atoms: C6_9  and  N3_11 
ROOT
HETATM    1  N3  UNL     1       3.970   0.362  -0.474  1.00  0.00    -0.270 N 
ATOM      2  H3  UNL     1       4.621   0.054  -1.196  1.00  0.00     0.180 HD
HETATM    3  C7  UNL     1       4.411   1.188   0.577  1.00  0.00     0.184 C 
HETATM    4  N4  UNL     1       4.756   1.875   1.448  1.00  0.00    -0.172 NA
ENDROOT
BRANCH   1   5
HETATM    5  C6  UNL     1       2.612  -0.036  -0.516  1.00  0.00     0.181 C 
HETATM    6  S1  UNL     1       2.143  -0.990  -1.748  1.00  0.00    -0.040 SA
BRANCH   5   7
HETATM    7  N2  UNL     1       1.716   0.381   0.469  1.00  0.00    -0.360 N 
ATOM      8  H2  UNL     1       2.081   0.979   1.210  1.00  0.00     0.162 HD
BRANCH   7   9
HETATM    9  C5  UNL     1       0.344   0.044   0.525  1.00  0.00     0.112 C 
HETATM   10  C4  UNL     1       0.036  -1.434   0.632  1.00  0.00     0.028 C 
HETATM   11  C3  UNL     1      -1.439  -1.498   1.077  1.00  0.00     0.032 C 
HETATM   12  C2  UNL     1      -2.310  -0.822   0.010  1.00  0.00     0.272 C 
HETATM   13  N1  UNL     1      -1.873   0.526  -0.150  1.00  0.00     0.086 N 
HETATM   14  C1  UNL     1      -2.758   1.372  -0.872  1.00  0.00     0.310 C 
HETATM   15  C8  UNL     1      -0.501   0.566  -0.623  1.00  0.00     0.296 C 
ENDBRANCH   7   9
ENDBRANCH   5   7
ENDBRANCH   1   5
TORSDOF 3
