REMARK  4 active torsions:
REMARK  status: ('A' for Active; 'I' for Inactive)
REMARK    1  A    between atoms: C2_2  and  C5_5 
REMARK    2  A    between atoms: N1_6  and  N2_8 
REMARK    3  A    between atoms: N2_8  and  C6_10 
REMARK    4  A    between atoms: C6_10  and  N3_12 
ROOT
HETATM    1  N3  UNL     1       3.386  -0.907   1.097  1.00  0.00    -0.269 N 
ATOM      2  H3  UNL     1       4.320  -1.023   1.491  1.00  0.00     0.180 HD
HETATM    3  C7  UNL     1       2.351  -0.470   1.908  1.00  0.00     0.184 C 
HETATM    4  N4  UNL     1       1.492  -0.098   2.619  1.00  0.00    -0.172 NA
ENDROOT
BRANCH   1   5
HETATM    5  C6  UNL     1       3.167  -1.194  -0.265  1.00  0.00     0.199 C 
HETATM    6  S1  UNL     1       4.453  -1.715  -1.184  1.00  0.00    -0.038 SA
BRANCH   5   7
HETATM    7  N2  UNL     1       1.934  -1.084  -0.953  1.00  0.00    -0.276 N 
ATOM      8  H2  UNL     1       1.894  -1.321  -1.944  1.00  0.00     0.189 HD
BRANCH   7   9
HETATM    9  N1  UNL     1       0.776  -0.661  -0.310  1.00  0.00    -0.313 N 
HETATM   10  C5  UNL     1      -0.137   0.033  -0.897  1.00  0.00     0.088 C 
ATOM     11  H1  UNL     1       0.643  -0.911   0.670  1.00  0.00     0.185 HD
BRANCH  10  12
HETATM   12  C2  UNL     1      -1.360   0.475  -0.204  1.00  0.00    -0.018 C 
HETATM   13  C1  UNL     1      -1.086   1.769   0.543  1.00  0.00     0.020 C 
HETATM   14  C3  UNL     1      -1.799  -0.588   0.777  1.00  0.00     0.020 C 
HETATM   15  C4  UNL     1      -2.476   0.667  -1.214  1.00  0.00     0.020 C 
ENDBRANCH  10  12
ENDBRANCH   7   9
ENDBRANCH   5   7
ENDBRANCH   1   5
TORSDOF 4
