REMARK  3 active torsions:
REMARK  status: ('A' for Active; 'I' for Inactive)
REMARK    1  A    between atoms: C2_2  and  N1_3 
REMARK    2  A    between atoms: C6_7  and  O1_8 
REMARK    3  A    between atoms: C9_12  and  O2_13 
ROOT
HETATM    1  N1  UNL     1      -1.249  -0.142   0.052  1.00  0.00    -0.406 N 
HETATM    2  C3  UNL     1      -1.959   1.099   0.078  1.00  0.00     0.117 C 
HETATM    3  C4  UNL     1      -1.187   2.309  -0.222  1.00  0.00     0.022 C 
HETATM    4  C5  UNL     1       0.246   2.290   0.251  1.00  0.00     0.041 C 
HETATM    5  C6  UNL     1       0.795   0.950  -0.283  1.00  0.00     0.078 C 
HETATM    6  C7  UNL     1       2.271   0.922  -0.260  1.00  0.00     0.042 C 
HETATM    7  C8  UNL     1       2.830  -0.076   0.738  1.00  0.00     0.035 C 
HETATM    8  C9  UNL     1       2.238  -1.422   0.411  1.00  0.00     0.120 C 
HETATM    9  C10 UNL     1       0.729  -1.431   0.401  1.00  0.00     0.059 C 
HETATM   10  C11 UNL     1       0.090  -0.084   0.565  1.00  0.00     0.115 C 
ENDROOT
BRANCH   1  11
HETATM   11  C2  UNL     1      -2.033  -1.253   0.436  1.00  0.00     0.113 C 
HETATM   12  C1  UNL     1      -3.126  -1.554  -0.573  1.00  0.00     0.026 C 
ENDBRANCH   1  11
BRANCH   5  13
HETATM   13  O1  UNL     1       0.309   0.866  -1.589  1.00  0.00    -0.388 OA
ATOM     14  H1  UNL     1       0.647   0.041  -1.918  1.00  0.00     0.210 HD
ENDBRANCH   5  13
BRANCH   8  15
HETATM   15  O2  UNL     1       2.650  -1.797  -0.884  1.00  0.00    -0.396 OA
ATOM     16  H2  UNL     1       2.277  -2.646  -1.090  1.00  0.00     0.210 HD
ENDBRANCH   8  15
TORSDOF 3
