REMARK  2 active torsions:
REMARK  status: ('A' for Active; 'I' for Inactive)
REMARK    1  A    between atoms: C4_4  and  O1_6 
REMARK    2  A    between atoms: C6_9  and  O3_10 
ROOT
HETATM    1  C1  UNL     1      -0.996  -2.643  -1.056  1.00  0.00     0.015 C 
HETATM    2  C2  UNL     1      -0.918  -1.354  -0.868  1.00  0.00    -0.075 C 
HETATM    3  C3  UNL     1      -2.117  -0.546  -0.454  1.00  0.00     0.102 C 
HETATM    4  C4  UNL     1      -1.759   0.451   0.610  1.00  0.00     0.165 C 
HETATM    5  C5  UNL     1      -2.664   1.677   0.313  1.00  0.00     0.079 C 
HETATM    6  O2  UNL     1      -0.504   0.932   0.644  1.00  0.00    -0.318 OA
HETATM    7  C6  UNL     1       0.527   0.114   0.350  1.00  0.00     0.177 C 
HETATM    8  C8  UNL     1       1.803   0.873  -0.004  1.00  0.00     0.045 C 
HETATM    9  C9  UNL     1       1.421   2.179  -0.642  1.00  0.00     0.015 C 
HETATM   10  C10 UNL     1       2.535  -0.051  -0.957  1.00  0.00     0.010 C 
HETATM   11  C11 UNL     1       1.569  -1.199  -1.246  1.00  0.00     0.015 C 
HETATM   12  C12 UNL     1       0.267  -0.517  -1.016  1.00  0.00     0.077 C 
ENDROOT
BRANCH   4  13
HETATM   13  O1  UNL     1      -2.249  -0.070   1.814  1.00  0.00    -0.365 OA
ATOM     14  H1  UNL     1      -2.022   0.561   2.487  1.00  0.00     0.213 HD
ENDBRANCH   4  13
BRANCH   7  15
HETATM   15  O3  UNL     1       0.760  -0.871   1.272  1.00  0.00    -0.359 OA
HETATM   16  C7  UNL     1       1.071  -0.479   2.540  1.00  0.00     0.205 C 
ENDBRANCH   7  15
TORSDOF 2
