REMARK  1 active torsions:
REMARK  status: ('A' for Active; 'I' for Inactive)
REMARK    1  A    between atoms: N1_4  and  C4_5 
ROOT
HETATM    1  C4  UNL     1      -2.323  -0.004  -0.541  1.00  0.00     0.184 C 
HETATM    2  C5  UNL     1      -2.757   1.415  -0.505  1.00  0.00     0.105 C 
HETATM    3  N2  UNL     1      -3.078   2.528  -0.482  1.00  0.00    -0.191 NA
ENDROOT
BRANCH   1   4
HETATM    4  N1  UNL     1      -1.057  -0.076   0.053  1.00  0.00    -0.358 N 
HETATM    5  C3  UNL     1       0.032   0.528  -0.620  1.00  0.00     0.160 C 
HETATM    6  C2  UNL     1       1.243   0.450   0.317  1.00  0.00     0.200 C 
HETATM    7  C1  UNL     1       2.341   1.256  -0.324  1.00  0.00     0.041 C 
HETATM    8  N3  UNL     1       1.611  -0.918   0.589  1.00  0.00    -0.065 N 
HETATM    9  C7  UNL     1       0.493  -1.827   0.304  1.00  0.00     0.277 C 
ATOM     10  H32 UNL     1       2.455  -1.189   0.085  1.00  0.00     0.278 HD
ATOM     11  H31 UNL     1       1.957  -1.033   1.542  1.00  0.00     0.278 HD
HETATM   12  C6  UNL     1      -0.747  -1.174   0.881  1.00  0.00     0.091 C 
ENDBRANCH   1   4
TORSDOF 1
