REMARK  1 active torsions:
REMARK  status: ('A' for Active; 'I' for Inactive)
REMARK    1  A    between atoms: N1_2  and  N2_4 
ROOT
HETATM    1  N2  UNL     1      -0.901  -0.389   0.288  1.00  0.00    -0.234 NA
HETATM    2  C2  UNL     1      -0.832   1.008   0.522  1.00  0.00     0.115 C 
HETATM    3  C3  UNL     1       0.522   1.586   0.663  1.00  0.00     0.046 C 
HETATM    4  C4  UNL     1       1.654   0.648   0.742  1.00  0.00     0.273 C 
HETATM    5  N3  UNL     1       1.557  -0.544  -0.026  1.00  0.00     0.085 N 
HETATM    6  C5  UNL     1       2.879  -1.099  -0.221  1.00  0.00     0.309 C 
HETATM    7  C6  UNL     1       0.895  -0.420  -1.282  1.00  0.00     0.288 C 
HETATM    8  C7  UNL     1      -0.592  -0.637  -1.109  1.00  0.00     0.143 C 
ENDROOT
BRANCH   1   9
HETATM    9  N1  UNL     1      -2.061  -1.004   0.705  1.00  0.00    -0.359 N 
HETATM   10  C1  UNL     1      -3.268  -0.360   0.316  1.00  0.00     0.161 C 
ATOM     11  H1  UNL     1      -2.055  -1.863   1.255  1.00  0.00     0.173 HD
ENDBRANCH   1   9
TORSDOF 1
