REMARK  1 active torsions:
REMARK  status: ('A' for Active; 'I' for Inactive)
REMARK    1  A    between atoms: C2_3  and  C3_4 
ROOT
HETATM    1  N1  UNL     1       3.699  -1.146   1.152  1.00  0.00    -0.197 NA
HETATM    2  C1  UNL     1       3.036  -0.671   0.317  1.00  0.00     0.061 C 
HETATM    3  C2  UNL     1       2.219  -0.053  -0.724  1.00  0.00     0.159 C 
ENDROOT
BRANCH   3   4
HETATM    4  C3  UNL     1       0.929   0.491  -0.166  1.00  0.00     0.232 C 
HETATM    5  N2  UNL     1       0.108   1.106  -1.182  1.00  0.00    -0.066 N 
HETATM    6  C4  UNL     1      -0.942   1.826  -0.442  1.00  0.00     0.263 C 
ATOM      7  H22 UNL     1       0.629   1.692  -1.834  1.00  0.00     0.277 HD
ATOM      8  H21 UNL     1      -0.252   0.450  -1.875  1.00  0.00     0.277 HD
HETATM    9  C5  UNL     1      -1.784   0.803   0.235  1.00  0.00     0.300 C 
HETATM   10  N3  UNL     1      -1.057  -0.051   1.110  1.00  0.00     0.097 N 
HETATM   11  C6  UNL     1      -1.574  -1.424   0.979  1.00  0.00     0.275 C 
HETATM   12  C8  UNL     1       0.188  -0.532   0.612  1.00  0.00     0.256 C 
HETATM   13  C7  UNL     1      -0.549  -1.587  -0.154  1.00  0.00     0.068 C 
ENDBRANCH   3   4
TORSDOF 1
