REMARK  2 active torsions:
REMARK  status: ('A' for Active; 'I' for Inactive)
REMARK       I    between atoms: N1_2  and  C3_4 
REMARK       I    between atoms: C3_4  and  N3_8 
REMARK    1  A    between atoms: C5_10  and  C6_11 
REMARK    2  A    between atoms: C6_11  and  O1_12 
ROOT
HETATM    1  C1  UNL     1      -2.044   1.076   0.347  1.00  0.00     0.168 C 
HETATM    2  N1  UNL     1      -1.617  -0.101  -0.376  1.00  0.00    -0.227 N 
HETATM    3  C2  UNL     1      -2.304  -0.413  -1.609  1.00  0.00     0.168 C 
HETATM    4  C3  UNL     1      -0.560  -0.864   0.172  1.00  0.00     0.671 C 
HETATM    5  N2  UNL     1      -0.576  -2.149   0.103  1.00  0.00    -0.235 N 
ATOM      6  H21 UNL     1       0.186  -2.699   0.498  1.00  0.00     0.174 HD
ATOM      7  H22 UNL     1      -1.381  -2.570  -0.361  1.00  0.00     0.174 HD
HETATM    8  N3  UNL     1       0.569  -0.274   0.822  1.00  0.00    -0.208 N 
HETATM    9  C4  UNL     1       1.180   0.561   1.833  1.00  0.00     0.170 A 
HETATM   10  C5  UNL     1       2.040  -0.114   0.890  1.00  0.00     0.144 A 
ENDROOT
BRANCH  10  11
HETATM   11  C6  UNL     1       2.698   0.581  -0.279  1.00  0.00     0.191 C 
BRANCH  11  12
HETATM   12  O1  UNL     1       2.431  -0.162  -1.452  1.00  0.00    -0.399 OA
ATOM     13  H1  UNL     1       2.845   0.275  -2.187  1.00  0.00     0.209 HD
ENDBRANCH  11  12
ENDBRANCH  10  11
TORSDOF 2
