REMARK  3 active torsions:
REMARK  status: ('A' for Active; 'I' for Inactive)
REMARK    1  A    between atoms: C2_2  and  N1_3 
REMARK    2  A    between atoms: N2_6  and  O1_7 
REMARK    3  A    between atoms: C5_9  and  O2_10 
ROOT
HETATM    1  N1  UNL     1       0.658  -0.119   0.216  1.00  0.00    -0.369 N 
HETATM    2  C3  UNL     1       0.168   1.061  -0.394  1.00  0.00     0.143 C 
HETATM    3  C4  UNL     1      -1.270   1.390  -0.099  1.00  0.00     0.144 C 
HETATM    4  N2  UNL     1      -2.014   0.243   0.341  1.00  0.00    -0.164 NA
HETATM    5  C5  UNL     1      -1.525  -0.979  -0.244  1.00  0.00     0.257 C 
HETATM    6  C6  UNL     1      -0.103  -1.265   0.241  1.00  0.00     0.112 C 
ENDROOT
BRANCH   1   7
HETATM    7  C2  UNL     1       1.891  -0.041   0.887  1.00  0.00     0.059 C 
HETATM    8  C1  UNL     1       2.983   0.137  -0.143  1.00  0.00     0.055 C 
ENDBRANCH   1   7
BRANCH   5   9
HETATM    9  O2  UNL     1      -2.389  -2.007   0.122  1.00  0.00    -0.374 OA
ATOM     10  H2  UNL     1      -2.066  -2.813  -0.264  1.00  0.00     0.212 HD
ENDBRANCH   5   9
BRANCH   4  11
HETATM   11  O1  UNL     1      -3.327   0.351   0.076  1.00  0.00    -0.310 OA
ATOM     12  H1  UNL     1      -3.819  -0.408   0.367  1.00  0.00     0.237 HD
ENDBRANCH   4  11
TORSDOF 3
