REMARK  1 active torsions:
REMARK  status: ('A' for Active; 'I' for Inactive)
REMARK    1  A    between atoms: C2_2  and  N1_3 
REMARK       I    between atoms: C3_5  and  N2_6 
REMARK       I    between atoms: C3_5  and  N4_10 
ROOT
HETATM    1  N1  UNL     1       0.490   0.586  -0.094  1.00  0.00    -0.225 N 
ATOM      2  H1  UNL     1       0.982   1.310   0.429  1.00  0.00     0.177 HD
HETATM    3  C3  UNL     1      -0.770   0.420   0.092  1.00  0.00     0.696 C 
HETATM    4  N2  UNL     1      -1.530   1.190   0.991  1.00  0.00    -0.126 N 
ATOM      5  H2  UNL     1      -2.201   0.748   1.620  1.00  0.00     0.197 HD
HETATM    6  C4  UNL     1      -1.343   2.577   1.002  1.00  0.00     0.196 C 
HETATM    7  N3  UNL     1      -1.205   3.737   1.002  1.00  0.00    -0.171 NA
HETATM    8  N4  UNL     1      -1.436  -0.594  -0.646  1.00  0.00    -0.126 N 
ATOM      9  H4  UNL     1      -1.411  -0.612  -1.666  1.00  0.00     0.197 HD
HETATM   10  C5  UNL     1      -2.127  -1.566   0.080  1.00  0.00     0.196 C 
HETATM   11  N5  UNL     1      -2.706  -2.369   0.704  1.00  0.00    -0.171 NA
ENDROOT
BRANCH   1  12
HETATM   12  C2  UNL     1       1.212  -0.223  -1.018  1.00  0.00     0.134 C 
HETATM   13  C1  UNL     1       2.500  -0.680  -0.380  1.00  0.00     0.027 C 
ENDBRANCH   1  12
TORSDOF 1
