REMARK  2 active torsions:
REMARK  status: ('A' for Active; 'I' for Inactive)
REMARK    1  A    between atoms: O1_2  and  C2_3 
REMARK    2  A    between atoms: C5_7  and  C6_8 
ROOT
HETATM    1  C2  UNL     1       1.622  -0.026  -0.054  1.00  0.00     0.270 C 
HETATM    2  O2  UNL     1       2.169   1.142  -0.610  1.00  0.00    -0.355 OA
HETATM    3  C3  UNL     1       0.865   1.542  -0.898  1.00  0.00     0.133 C 
HETATM    4  C4  UNL     1       0.729   3.026  -0.621  1.00  0.00     0.040 C 
HETATM    5  C5  UNL     1       0.318   0.702   0.205  1.00  0.00     0.126 C 
ENDROOT
BRANCH   5   6
HETATM    6  C6  UNL     1      -0.845  -0.170  -0.120  1.00  0.00     0.332 C 
HETATM    7  N1  UNL     1      -2.123   0.473   0.104  1.00  0.00    -0.046 N 
HETATM    8  C7  UNL     1      -3.000  -0.699   0.245  1.00  0.00     0.261 C 
ATOM      9  H12 UNL     1      -2.151   1.138   0.876  1.00  0.00     0.280 HD
ATOM     10  H11 UNL     1      -2.405   1.150  -0.605  1.00  0.00     0.280 HD
HETATM   11  C8  UNL     1      -2.052  -1.872   0.424  1.00  0.00     0.198 C 
HETATM   12  O3  UNL     1      -0.881  -1.213   0.833  1.00  0.00    -0.357 OA
ENDBRANCH   5   6
BRANCH   1  13
HETATM   13  O1  UNL     1       2.290  -0.438   1.079  1.00  0.00    -0.365 OA
HETATM   14  C1  UNL     1       2.654  -1.757   0.932  1.00  0.00     0.204 C 
ENDBRANCH   1  13
TORSDOF 2
