REMARK  1 active torsions:
REMARK  status: ('A' for Active; 'I' for Inactive)
REMARK    1  A    between atoms: O1_2  and  C2_3 
ROOT
HETATM    1  C2  UNL     1      -1.337  -0.189   0.143  1.00  0.00     0.157 C 
HETATM    2  C3  UNL     1      -1.359  -1.575  -0.465  1.00  0.00     0.038 C 
HETATM    3  C4  UNL     1      -0.030  -1.272  -1.086  1.00  0.00     0.045 C 
HETATM    4  C5  UNL     1       0.174  -0.228   0.026  1.00  0.00     0.110 C 
HETATM    5  C6  UNL     1       0.793  -0.804   1.224  1.00  0.00     0.273 C 
HETATM    6  N1  UNL     1       1.967  -0.193   1.732  1.00  0.00    -0.070 N 
ATOM      7  H11 UNL     1       2.570  -0.871   2.198  1.00  0.00     0.277 HD
ATOM      8  H12 UNL     1       1.761   0.408   2.530  1.00  0.00     0.277 HD
HETATM    9  C7  UNL     1       2.669   0.517   0.707  1.00  0.00     0.258 C 
HETATM   10  C8  UNL     1       1.666   1.554   0.182  1.00  0.00     0.196 C 
HETATM   11  O2  UNL     1       0.723   0.881  -0.522  1.00  0.00    -0.374 OA
ENDROOT
BRANCH   1  12
HETATM   12  O1  UNL     1      -1.975   0.704  -0.679  1.00  0.00    -0.388 OA
HETATM   13  C1  UNL     1      -2.896   1.409   0.091  1.00  0.00     0.202 C 
ENDBRANCH   1  12
TORSDOF 1
