REMARK  4 active torsions:
REMARK  status: ('A' for Active; 'I' for Inactive)
REMARK    1  A    between atoms: O1_2  and  N1_3 
REMARK    2  A    between atoms: N1_3  and  C2_5 
REMARK    3  A    between atoms: C3_8  and  N3_9 
REMARK    4  A    between atoms: N3_9  and  N4_11 
ROOT
HETATM    1  C2  UNL     1       2.246   0.759  -0.423  1.00  0.00     0.168 A 
HETATM    2  N2  UNL     1       0.989   1.235  -0.564  1.00  0.00    -0.172 N 
ATOM      3  H2  UNL     1       0.860   2.182  -0.920  1.00  0.00     0.186 HD
HETATM    4  C3  UNL     1      -0.098   0.507  -0.252  1.00  0.00     0.699 A 
HETATM    5  N5  UNL     1       0.046  -0.743   0.220  1.00  0.00    -0.175 N 
ATOM      6  H5  UNL     1      -0.772  -1.303   0.460  1.00  0.00     0.185 HD
HETATM    7  C8  UNL     1       1.295  -1.250   0.373  1.00  0.00     0.160 A 
HETATM    8  N6  UNL     1       1.481  -2.563   0.867  1.00  0.00    -0.080 NA
HETATM    9  C9  UNL     1       2.431  -0.520   0.058  1.00  0.00     0.134 A 
HETATM   10  N7  UNL     1       3.742  -1.085   0.232  1.00  0.00    -0.095 NA
ENDROOT
BRANCH   4  11
HETATM   11  N3  UNL     1      -1.248   1.016  -0.410  1.00  0.00    -0.134 N 
ATOM     12  H3  UNL     1      -1.269   1.969  -0.774  1.00  0.00     0.205 HD
BRANCH  11  13
HETATM   13  N4  UNL     1      -2.464   0.445  -0.153  1.00  0.00    -0.310 N 
HETATM   14  C4  UNL     1      -3.296   1.048   0.895  1.00  0.00     0.169 C 
HETATM   15  C5  UNL     1      -4.603   0.318   0.945  1.00  0.00     0.189 C 
HETATM   16  O2  UNL     1      -5.207   0.151  -0.275  1.00  0.00    -0.388 OA
HETATM   17  C6  UNL     1      -4.420  -0.391  -1.253  1.00  0.00     0.189 C 
HETATM   18  C7  UNL     1      -3.017  -0.708  -0.822  1.00  0.00     0.169 C 
ENDBRANCH  11  13
ENDBRANCH   4  11
BRANCH   1  19
HETATM   19  N1  UNL     1       3.282   1.482  -0.731  1.00  0.00    -0.249 N 
ATOM     20  H1  UNL     1       3.151   2.429  -1.087  1.00  0.00     0.196 HD
BRANCH  19  21
HETATM   21  O1  UNL     1       4.532   0.988  -0.583  1.00  0.00    -0.284 OA
HETATM   22  C1  UNL     1       5.652   1.710  -0.156  1.00  0.00     0.237 C 
ENDBRANCH  19  21
ENDBRANCH   1  19
TORSDOF 4
