REMARK  6 active torsions:
REMARK  status: ('A' for Active; 'I' for Inactive)
REMARK    1  A    between atoms: O1_2  and  C2_3 
REMARK    2  A    between atoms: C2_3  and  C3_5 
REMARK    3  A    between atoms: C5_7  and  O3_8 
REMARK    4  A    between atoms: C7_10  and  O4_11 
REMARK    5  A    between atoms: C9_13  and  O5_14 
REMARK    6  A    between atoms: O5_14  and  C10_15 
ROOT
HETATM    1  C3  UNL     1       2.056   0.569   0.007  1.00  0.00     0.065 A 
HETATM    2  C4  UNL     1       2.225  -0.783  -0.320  1.00  0.00     0.059 A 
HETATM    3  C5  UNL     1       1.213  -1.689  -0.159  1.00  0.00     0.105 A 
HETATM    4  C7  UNL     1      -0.001  -1.204   0.347  1.00  0.00     0.137 A 
HETATM    5  C9  UNL     1      -0.179   0.111   0.667  1.00  0.00     0.134 A 
HETATM    6  C16 UNL     1       0.873   1.037   0.500  1.00  0.00     0.097 A 
HETATM    7  C17 UNL     1       0.706   2.425   0.898  1.00  0.00     0.103 C 
HETATM    8  N1  UNL     1       0.547   3.533   1.225  1.00  0.00    -0.191 NA
ENDROOT
BRANCH   1   9
HETATM    9  C2  UNL     1       3.193   1.468  -0.200  1.00  0.00     0.294 C 
HETATM   10  O2  UNL     1       4.283   1.003  -0.654  1.00  0.00    -0.259 OA
BRANCH   9  11
HETATM   11  O1  UNL     1       3.154   2.814   0.073  1.00  0.00    -0.322 OA
HETATM   12  C1  UNL     1       4.250   3.654  -0.131  1.00  0.00     0.213 C 
ENDBRANCH   9  11
ENDBRANCH   1   9
BRANCH   5  13
HETATM   13  O5  UNL     1      -1.340   0.624   1.158  1.00  0.00    -0.300 OA
BRANCH  13  14
HETATM   14  C10 UNL     1      -2.577   0.744   0.596  1.00  0.00     0.156 A 
HETATM   15  C11 UNL     1      -3.610   0.061   1.260  1.00  0.00     0.156 A 
HETATM   16  F1  UNL     1      -3.380  -0.623   2.416  1.00  0.00    -0.203 F 
HETATM   17  C12 UNL     1      -4.913   0.077   0.814  1.00  0.00     0.090 A 
HETATM   18  C13 UNL     1      -5.262   0.778  -0.323  1.00  0.00     0.161 A 
HETATM   19  F2  UNL     1      -6.524   0.809  -0.779  1.00  0.00    -0.203 F 
HETATM   20  C14 UNL     1      -4.258   1.440  -0.966  1.00  0.00     0.196 A 
HETATM   21  F3  UNL     1      -4.551   2.152  -2.099  1.00  0.00    -0.199 F 
HETATM   22  C15 UNL     1      -2.931   1.433  -0.526  1.00  0.00     0.194 A 
HETATM   23  F4  UNL     1      -1.999   2.114  -1.253  1.00  0.00    -0.200 F 
ENDBRANCH  13  14
ENDBRANCH   5  13
BRANCH   4  24
HETATM   24  O4  UNL     1      -0.999  -2.184   0.490  1.00  0.00    -0.351 OA
HETATM   25  C8  UNL     1      -0.927  -3.015   1.643  1.00  0.00     0.210 C 
ENDBRANCH   4  24
BRANCH   3  26
HETATM   26  O3  UNL     1       1.367  -3.030  -0.478  1.00  0.00    -0.353 OA
HETATM   27  C6  UNL     1       2.534  -3.592  -0.983  1.00  0.00     0.210 C 
ENDBRANCH   3  26
TORSDOF 6
