REMARK  6 active torsions:
REMARK  status: ('A' for Active; 'I' for Inactive)
REMARK    1  A    between atoms: O1_2  and  C2_3 
REMARK    2  A    between atoms: C5_7  and  C6_8 
REMARK    3  A    between atoms: C8_10  and  O2_11 
REMARK    4  A    between atoms: O2_11  and  C9_12 
REMARK    5  A    between atoms: C11_16  and  N1_17 
REMARK    6  A    between atoms: C15_24  and  O5_25 
ROOT
HETATM    1  C6  UNL     1      -0.339   0.108  -0.067  1.00  0.00    -0.015 A 
HETATM    2  C7  UNL     1      -0.972   1.079   0.739  1.00  0.00     0.049 A 
HETATM    3  C8  UNL     1      -2.320   1.284   0.749  1.00  0.00     0.078 A 
HETATM    4  C10 UNL     1      -3.126   0.484  -0.091  1.00  0.00     0.068 A 
HETATM    5  C11 UNL     1      -2.532  -0.472  -0.888  1.00  0.00     0.067 A 
HETATM    6  C14 UNL     1      -1.148  -0.654  -0.872  1.00  0.00     0.044 A 
ENDROOT
BRANCH   1   7
HETATM    7  C5  UNL     1       1.094  -0.061   0.029  1.00  0.00     0.046 A 
HETATM    8  C4  UNL     1       1.584  -1.166   0.685  1.00  0.00     0.132 A 
HETATM    9  C3  UNL     1       2.944  -1.322   0.852  1.00  0.00     0.080 A 
HETATM   10  F1  UNL     1       0.748  -2.118   1.181  1.00  0.00    -0.205 F 
HETATM   11  C2  UNL     1       3.836  -0.361   0.356  1.00  0.00     0.073 A 
HETATM   12  C17 UNL     1       3.341   0.737  -0.300  1.00  0.00     0.074 A 
HETATM   13  C15 UNL     1       1.976   0.910  -0.477  1.00  0.00     0.085 A 
BRANCH  11  14
HETATM   14  O1  UNL     1       5.200  -0.502   0.523  1.00  0.00    -0.356 OA
HETATM   15  C1  UNL     1       5.813  -1.562   1.180  1.00  0.00     0.210 C 
ENDBRANCH  11  14
BRANCH  13  16
HETATM   16  O5  UNL     1       1.485   2.022  -1.142  1.00  0.00    -0.355 OA
HETATM   17  C16 UNL     1       2.374   2.993  -1.636  1.00  0.00     0.210 C 
ENDBRANCH  13  16
ENDBRANCH   1   7
BRANCH   3  18
HETATM   18  O2  UNL     1      -2.911   2.228   1.532  1.00  0.00    -0.290 OA
BRANCH  18  19
HETATM   19  C9  UNL     1      -2.309   3.113   2.418  1.00  0.00     0.505 C 
HETATM   20  F2  UNL     1      -2.928   3.138   3.676  1.00  0.00    -0.184 F 
HETATM   21  F3  UNL     1      -2.372   4.435   1.921  1.00  0.00    -0.184 F 
ENDBRANCH  18  19
ENDBRANCH   3  18
BRANCH   5  22
HETATM   22  N1  UNL     1      -3.345  -1.304  -1.698  1.00  0.00    -0.176 N 
HETATM   23  C12 UNL     1      -3.799  -1.424  -2.943  1.00  0.00     0.411 A 
HETATM   24  O3  UNL     1      -3.655  -0.760  -4.002  1.00  0.00    -0.234 OA
HETATM   25  O4  UNL     1      -4.470  -2.537  -2.617  1.00  0.00    -0.161 OA
HETATM   26  N2  UNL     1      -4.032  -2.427  -1.403  1.00  0.00    -0.181 N 
HETATM   27  C13 UNL     1      -4.194  -3.191  -0.157  1.00  0.00     0.209 C 
ENDBRANCH   5  22
TORSDOF 6
