REMARK  5 active torsions:
REMARK  status: ('A' for Active; 'I' for Inactive)
REMARK    1  A    between atoms: O1_2  and  C2_3 
REMARK    2  A    between atoms: C4_5  and  N1_6 
REMARK    3  A    between atoms: C6_10  and  C7_11 
REMARK    4  A    between atoms: C7_11  and  C8_13 
REMARK    5  A    between atoms: C8_13  and  N3_14 
ROOT
HETATM    1  N1  UNL     1      -0.580  -0.252  -0.355  1.00  0.00    -0.245 N 
HETATM    2  N2  UNL     1       0.051  -0.088  -1.501  1.00  0.00    -0.303 N 
ATOM      3  H2  UNL     1      -0.272  -0.466  -2.392  1.00  0.00     0.186 HD
HETATM    4  C5  UNL     1       1.167   0.634  -1.353  1.00  0.00     0.119 A 
HETATM    5  C6  UNL     1       1.265   0.959  -0.020  1.00  0.00     0.019 A 
HETATM    6  C11 UNL     1       0.136   0.378   0.578  1.00  0.00     0.135 A 
HETATM    7 CL2  UNL     1      -0.276   0.465   2.269  1.00  0.00    -0.062 Cl
ENDROOT
BRANCH   5   8
HETATM    8  C7  UNL     1       2.266   1.788   0.677  1.00  0.00     0.139 C 
HETATM    9 CL1  UNL     1       2.493   1.018   2.294  1.00  0.00    -0.118 Cl
BRANCH   8  10
HETATM   10  C8  UNL     1       3.579   1.968   0.041  1.00  0.00     0.175 C 
BRANCH  10  11
HETATM   11  N3  UNL     1       4.395   0.809  -0.155  1.00  0.00    -0.285 N 
HETATM   12  C9  UNL     1       4.537  -0.030  -1.164  1.00  0.00     0.201 A 
HETATM   13  N4  UNL     1       5.445  -1.008  -0.875  1.00  0.00    -0.346 N 
HETATM   14  C10 UNL     1       5.873  -0.748   0.370  1.00  0.00     0.198 A 
ATOM     15  H4  UNL     1       5.737  -1.776  -1.479  1.00  0.00     0.167 HD
HETATM   16  N5  UNL     1       5.238   0.336   0.784  1.00  0.00    -0.293 N 
ATOM     17  H5  UNL     1       5.370   0.762   1.701  1.00  0.00     0.188 HD
ENDBRANCH  10  11
ENDBRANCH   8  10
ENDBRANCH   5   8
BRANCH   1  18
HETATM   18  C4  UNL     1      -1.817  -0.973  -0.166  1.00  0.00     0.060 A 
HETATM   19  C3  UNL     1      -2.998  -0.283  -0.021  1.00  0.00     0.070 A 
HETATM   20  C2  UNL     1      -4.211  -0.953   0.160  1.00  0.00     0.092 A 
HETATM   21  C14 UNL     1      -4.200  -2.332   0.190  1.00  0.00     0.067 A 
HETATM   22  C13 UNL     1      -3.030  -3.044   0.046  1.00  0.00     0.029 A 
HETATM   23 CL3  UNL     1      -5.733  -3.184   0.417  1.00  0.00    -0.081 Cl
HETATM   24  C12 UNL     1      -1.839  -2.345  -0.132  1.00  0.00     0.033 A 
BRANCH  20  25
HETATM   25  O1  UNL     1      -5.419  -0.272   0.310  1.00  0.00    -0.354 OA
HETATM   26  C1  UNL     1      -5.346   1.152   0.268  1.00  0.00     0.210 C 
ENDBRANCH  20  25
ENDBRANCH   1  18
TORSDOF 5
