REMARK  5 active torsions:
REMARK  status: ('A' for Active; 'I' for Inactive)
REMARK    1  A    between atoms: C2_2  and  N1_3 
REMARK    2  A    between atoms: C3_8  and  C4_9 
REMARK    3  A    between atoms: C4_9  and  C5_10 
REMARK    4  A    between atoms: C5_10  and  O1_13 
REMARK    5  A    between atoms: O1_13  and  C7_14 
ROOT
HETATM    1  C5  UNL     1      -0.877  -1.219   0.856  1.00  0.00     0.241 C 
HETATM    2  C6  UNL     1      -1.746  -2.301   1.444  1.00  0.00     0.092 C 
HETATM    3  N4  UNL     1      -2.396  -3.152   1.925  1.00  0.00    -0.194 NA
ENDROOT
BRANCH   1   4
HETATM    4  C4  UNL     1       0.375  -1.954   0.480  1.00  0.00     0.108 C 
BRANCH   4   5
HETATM    5  C3  UNL     1       1.463  -1.190  -0.109  1.00  0.00     0.054 A 
HETATM    6  N3  UNL     1       1.778  -1.127  -1.429  1.00  0.00    -0.288 N 
HETATM    7  N2  UNL     1       2.825  -0.336  -1.571  1.00  0.00    -0.240 N 
ATOM      8  H3  UNL     1       1.288  -1.609  -2.183  1.00  0.00     0.188 HD
HETATM    9  N1  UNL     1       3.200   0.116  -0.389  1.00  0.00    -0.281 N 
ATOM     10  H2  UNL     1       3.275  -0.109  -2.458  1.00  0.00     0.208 HD
HETATM   11  C14 UNL     1       2.393  -0.380   0.546  1.00  0.00     0.050 A 
HETATM   12  C15 UNL     1       2.431  -0.150   2.009  1.00  0.00     0.072 C 
BRANCH   9  13
HETATM   13  C2  UNL     1       4.318   1.007  -0.199  1.00  0.00     0.146 C 
HETATM   14  C1  UNL     1       5.591   0.223   0.025  1.00  0.00     0.028 C 
ENDBRANCH   9  13
ENDBRANCH   4   5
ENDBRANCH   1   4
BRANCH   1  15
HETATM   15  O1  UNL     1      -1.451  -0.615  -0.243  1.00  0.00    -0.329 OA
BRANCH  15  16
HETATM   16  C7  UNL     1      -2.319   0.437  -0.352  1.00  0.00     0.100 A 
HETATM   17  C8  UNL     1      -1.981   1.770  -0.354  1.00  0.00     0.069 A 
HETATM   18 CL1  UNL     1      -0.299   2.217  -0.205  1.00  0.00    -0.081 Cl
HETATM   19  C9  UNL     1      -2.916   2.791  -0.472  1.00  0.00     0.052 A 
HETATM   20  C10 UNL     1      -4.254   2.521  -0.595  1.00  0.00     0.058 A 
HETATM   21 CL2  UNL     1      -5.439   3.811  -0.743  1.00  0.00    -0.082 Cl
HETATM   22  C11 UNL     1      -4.628   1.210  -0.599  1.00  0.00     0.064 A 
HETATM   23 CL3  UNL     1      -6.342   0.836  -0.756  1.00  0.00    -0.082 Cl
HETATM   24  C12 UNL     1      -3.688   0.179  -0.482  1.00  0.00    -0.003 A 
HETATM   25  C13 UNL     1      -4.221  -1.183  -0.553  1.00  0.00     0.053 C 
ENDBRANCH  15  16
ENDBRANCH   1  15
TORSDOF 5
