REMARK  7 active torsions:
REMARK  status: ('A' for Active; 'I' for Inactive)
REMARK    1  A    between atoms: C2_2  and  C3_3 
REMARK    2  A    between atoms: C3_3  and  C4_4 
REMARK    3  A    between atoms: C4_4  and  N1_5 
REMARK    4  A    between atoms: N1_5  and  C5_7 
REMARK    5  A    between atoms: C7_9  and  C8_10 
REMARK    6  A    between atoms: C8_10  and  N2_11 
REMARK    7  A    between atoms: C15_22  and  C16_23 
REMARK       I    between atoms: C16_23  and  N4_25 
ROOT
HETATM    1  C5  UNL     1       1.537  -0.431   0.601  1.00  0.00     0.103 A 
HETATM    2  C6  UNL     1       0.210  -0.337   0.253  1.00  0.00     0.058 A 
HETATM    3  C7  UNL     1      -0.399   0.907   0.051  1.00  0.00    -0.016 A 
HETATM    4  C15 UNL     1       0.396   2.021   0.218  1.00  0.00     0.096 A 
HETATM    5  C19 UNL     1       1.744   1.885   0.573  1.00  0.00     0.206 A 
HETATM    6  F1  UNL     1       2.536   2.969   0.740  1.00  0.00    -0.185 F 
HETATM    7  N5  UNL     1       2.290   0.665   0.758  1.00  0.00    -0.318 N 
ATOM      8  H5  UNL     1       3.273   0.578   1.017  1.00  0.00     0.169 HD
ENDROOT
BRANCH   3   9
HETATM    9  C8  UNL     1      -1.801   1.092  -0.316  1.00  0.00     0.166 C 
BRANCH   9  10
HETATM   10  N2  UNL     1      -2.522  -0.157  -0.460  1.00  0.00    -0.337 N 
HETATM   11  C9  UNL     1      -2.619  -0.880  -1.714  1.00  0.00     0.228 C 
HETATM   12  C10 UNL     1      -3.985  -1.431  -1.881  1.00  0.00     0.236 C 
HETATM   13  O1  UNL     1      -4.524  -1.407  -3.016  1.00  0.00    -0.272 OA
HETATM   14  N3  UNL     1      -4.677  -1.981  -0.767  1.00  0.00    -0.342 N 
HETATM   15  C11 UNL     1      -4.114  -1.865   0.581  1.00  0.00     0.106 C 
ATOM     16  H3  UNL     1      -5.568  -2.458  -0.907  1.00  0.00     0.163 HD
HETATM   17  C12 UNL     1      -3.405  -3.109   1.006  1.00  0.00     0.048 C 
HETATM   18  C13 UNL     1      -5.238  -1.590   1.584  1.00  0.00     0.048 C 
HETATM   19  C14 UNL     1      -3.179  -0.723   0.669  1.00  0.00     0.248 C 
HETATM   20  O2  UNL     1      -2.931  -0.203   1.793  1.00  0.00    -0.271 OA
ENDBRANCH   9  10
ENDBRANCH   3   9
BRANCH   4  21
HETATM   21  C16 UNL     1      -0.097   3.386   0.038  1.00  0.00     0.258 C 
HETATM   22  O3  UNL     1      -0.600   4.057   0.980  1.00  0.00    -0.267 OA
HETATM   23  N4  UNL     1      -0.018   4.003  -1.239  1.00  0.00    -0.356 N 
HETATM   24  C17 UNL     1       0.552   3.285  -2.361  1.00  0.00     0.152 C 
HETATM   25  C18 UNL     1      -0.490   5.351  -1.483  1.00  0.00     0.152 C 
ENDBRANCH   4  21
BRANCH   1  26
HETATM   26  N1  UNL     1       2.050  -1.574   0.775  1.00  0.00    -0.376 N 
ATOM     27  H1  UNL     1       1.427  -2.370   0.642  1.00  0.00     0.161 HD
BRANCH  26  28
HETATM   28  C4  UNL     1       3.391  -1.883   1.134  1.00  0.00     0.121 C 
BRANCH  28  29
HETATM   29  C3  UNL     1       4.342  -1.908  -0.034  1.00  0.00     0.019 C 
BRANCH  29  30
HETATM   30  C2  UNL     1       5.714  -2.248   0.509  1.00  0.00    -0.003 C 
HETATM   31  C1  UNL     1       6.204  -1.254   1.512  1.00  0.00     0.005 C 
ENDBRANCH  29  30
ENDBRANCH  28  29
ENDBRANCH  26  28
ENDBRANCH   1  26
TORSDOF 7
