REMARK  9 active torsions:
REMARK  status: ('A' for Active; 'I' for Inactive)
REMARK    1  A    between atoms: C2_2  and  C3_3 
REMARK    2  A    between atoms: C4_4  and  C5_5 
REMARK    3  A    between atoms: C9_14  and  N3_15 
REMARK    4  A    between atoms: N3_15  and  C10_17 
REMARK    5  A    between atoms: C10_17  and  C11_18 
REMARK    6  A    between atoms: C11_18  and  C12_19 
REMARK    7  A    between atoms: C12_19  and  C13_20 
REMARK    8  A    between atoms: C13_20  and  C14_21 
REMARK    9  A    between atoms: C14_21  and  N4_22 
ROOT
HETATM    1  C5  UNL     1      -5.754   0.877   0.602  1.00  0.00     0.128 A 
HETATM    2  C6  UNL     1      -6.277   2.148   0.701  1.00  0.00     0.154 A 
HETATM    3  F1  UNL     1      -7.557   2.305   1.080  1.00  0.00    -0.203 F 
HETATM    4  C7  UNL     1      -5.458   3.202   0.405  1.00  0.00     0.078 A 
HETATM    5  C8  UNL     1      -4.142   2.966   0.019  1.00  0.00     0.082 A 
HETATM    6  N1  UNL     1      -3.158   3.789  -0.316  1.00  0.00    -0.297 N 
ATOM      7  H1  UNL     1      -3.216   4.807  -0.346  1.00  0.00     0.187 HD
HETATM    8  N2  UNL     1      -2.093   3.071  -0.604  1.00  0.00    -0.283 N 
ATOM      9  H2  UNL     1      -1.197   3.464  -0.892  1.00  0.00     0.188 HD
HETATM   10  C9  UNL     1      -2.334   1.749  -0.470  1.00  0.00     0.149 A 
HETATM   11  C20 UNL     1      -3.683   1.682  -0.060  1.00  0.00     0.109 A 
HETATM   12  N6  UNL     1      -4.469   0.642   0.226  1.00  0.00    -0.337 N 
HETATM   13  C21 UNL     1      -3.962  -0.699   0.135  1.00  0.00     0.157 C 
ENDROOT
BRANCH  10  14
HETATM   14  N3  UNL     1      -1.658   0.725  -0.626  1.00  0.00    -0.353 N 
ATOM     15  H3  UNL     1      -2.211  -0.107  -0.420  1.00  0.00     0.166 HD
BRANCH  14  16
HETATM   16  C10 UNL     1      -0.378   0.378  -0.996  1.00  0.00     0.062 C 
BRANCH  16  17
HETATM   17  C11 UNL     1       0.522   1.526  -1.298  1.00  0.00     0.044 C 
BRANCH  17  18
HETATM   18  C12 UNL     1       1.915   1.063  -1.703  1.00  0.00     0.007 C 
BRANCH  18  19
HETATM   19  C13 UNL     1       2.593   0.261  -0.622  1.00  0.00     0.030 C 
BRANCH  19  20
HETATM   20  C14 UNL     1       3.959  -0.116  -1.166  1.00  0.00     0.272 C 
BRANCH  20  21
HETATM   21  N4  UNL     1       4.687  -0.895  -0.186  1.00  0.00     0.091 N 
HETATM   22  C15 UNL     1       5.981  -1.251  -0.704  1.00  0.00     0.302 C 
HETATM   23  C16 UNL     1       6.563  -2.248   0.303  1.00  0.00     0.302 C 
HETATM   24  N5  UNL     1       6.930  -1.505   1.479  1.00  0.00     0.087 N 
HETATM   25  C17 UNL     1       8.354  -1.164   1.336  1.00  0.00     0.310 C 
HETATM   26  C18 UNL     1       6.223  -0.267   1.633  1.00  0.00     0.302 C 
HETATM   27  C19 UNL     1       4.858  -0.233   1.066  1.00  0.00     0.302 C 
ENDBRANCH  20  21
ENDBRANCH  19  20
ENDBRANCH  18  19
ENDBRANCH  17  18
ENDBRANCH  16  17
ENDBRANCH  14  16
ENDBRANCH  10  14
BRANCH   1  28
HETATM   28  C4  UNL     1      -6.610  -0.235   0.912  1.00  0.00    -0.045 C 
HETATM   29  C3  UNL     1      -7.347  -1.166   1.176  1.00  0.00    -0.100 C 
BRANCH  29  30
HETATM   30  C2  UNL     1      -8.227  -2.286   1.486  1.00  0.00     0.090 C 
HETATM   31  C1  UNL     1      -7.960  -3.437   0.525  1.00  0.00     0.018 C 
ENDBRANCH  29  30
ENDBRANCH   1  28
TORSDOF 9
