REMARK  8 active torsions:
REMARK  status: ('A' for Active; 'I' for Inactive)
REMARK    1  A    between atoms: C4_4  and  C5_5 
REMARK    2  A    between atoms: C5_5  and  C6_6 
REMARK    3  A    between atoms: C6_6  and  O1_7 
REMARK    4  A    between atoms: N1_11  and  C8_12 
REMARK    5  A    between atoms: C8_12  and  C9_13 
REMARK    6  A    between atoms: C9_13  and  C10_14 
REMARK    7  A    between atoms: C10_14  and  C11_15 
REMARK       I    between atoms: C11_15  and  N2_17 
REMARK    8  A    between atoms: N2_17  and  C12_19 
ROOT
HETATM    1  C8  UNL     1       0.118  -0.670  -1.687  1.00  0.00     0.129 C 
ENDROOT
BRANCH   1   2
HETATM    2  N1  UNL     1      -0.977  -0.205  -0.866  1.00  0.00    -0.350 N 
HETATM    3  C7  UNL     1      -2.088  -0.991  -0.712  1.00  0.00     0.088 A 
HETATM    4  C4  UNL     1      -3.173  -0.594   0.047  1.00  0.00    -0.021 A 
HETATM    5 BR1  UNL     1      -2.101  -2.688  -1.585  1.00  0.00    -0.030 Br
HETATM    6  C3  UNL     1      -3.179   0.627   0.688  1.00  0.00     0.018 A 
HETATM    7  C2  UNL     1      -2.056   1.410   0.527  1.00  0.00    -0.046 A 
HETATM    8  C1  UNL     1      -2.030   2.728   1.203  1.00  0.00     0.049 C 
HETATM    9  C15 UNL     1      -0.996   0.975  -0.240  1.00  0.00     0.098 A 
BRANCH   4  10
HETATM   10  C5  UNL     1      -4.349  -1.502   0.154  1.00  0.00     0.067 C 
BRANCH  10  11
HETATM   11  C6  UNL     1      -5.581  -0.726   0.557  1.00  0.00     0.168 C 
BRANCH  11  12
HETATM   12  O1  UNL     1      -5.883   0.275  -0.366  1.00  0.00    -0.401 OA
ATOM     13  H1  UNL     1      -6.658   0.763  -0.113  1.00  0.00     0.209 HD
ENDBRANCH  11  12
ENDBRANCH  10  11
ENDBRANCH   4  10
ENDBRANCH   1   2
BRANCH   1  14
HETATM   14  C9  UNL     1       1.162  -1.460  -0.993  1.00  0.00     0.029 C 
BRANCH  14  15
HETATM   15  C10 UNL     1       1.915  -0.804   0.102  1.00  0.00     0.105 C 
BRANCH  15  16
HETATM   16  C11 UNL     1       2.691   0.386  -0.271  1.00  0.00     0.223 C 
HETATM   17  O2  UNL     1       2.657   0.950  -1.389  1.00  0.00    -0.273 OA
HETATM   18  N2  UNL     1       3.577   0.992   0.690  1.00  0.00    -0.307 N 
ATOM     19  H2  UNL     1       3.228   1.554   1.466  1.00  0.00     0.171 HD
BRANCH  18  20
HETATM   20  C12 UNL     1       4.863   0.779   0.509  1.00  0.00     0.150 A 
HETATM   21  N3  UNL     1       5.460   0.073  -0.450  1.00  0.00    -0.346 N 
HETATM   22  C13 UNL     1       6.773  -0.010  -0.437  1.00  0.00     0.097 A 
ATOM     23  H3  UNL     1       4.913  -0.391  -1.175  1.00  0.00     0.167 HD
HETATM   24  C14 UNL     1       7.443   0.634   0.562  1.00  0.00     0.070 A 
HETATM   25  S1  UNL     1       6.174   1.339   1.452  1.00  0.00    -0.064 SA
ENDBRANCH  18  20
ENDBRANCH  15  16
ENDBRANCH  14  15
ENDBRANCH   1  14
TORSDOF 8
