REMARK  12 active torsions:
REMARK  status: ('A' for Active; 'I' for Inactive)
REMARK    1  A    between atoms: N1_1  and  N2_4 
REMARK    2  A    between atoms: N2_4  and  C1_5 
REMARK    3  A    between atoms: C1_5  and  C2_6 
REMARK    4  A    between atoms: C2_6  and  C3_7 
REMARK    5  A    between atoms: C3_7  and  N3_8 
REMARK    6  A    between atoms: C6_11  and  C7_12 
REMARK    7  A    between atoms: C6_11  and  C12_21 
REMARK    8  A    between atoms: C8_13  and  C9_14 
REMARK    9  A    between atoms: C9_14  and  N4_15 
REMARK       I    between atoms: N4_15  and  C10_17 
REMARK   10  A    between atoms: C10_17  and  C11_19 
REMARK   11  A    between atoms: C13_22  and  C14_23 
REMARK   12  A    between atoms: C14_23  and  N5_24 
ROOT
HETATM    1  N3  UNL     1      -1.830  -2.348  -0.359  1.00  0.00     0.091 N 
HETATM    2  C4  UNL     1      -1.769  -2.216   1.044  1.00  0.00     0.275 C 
HETATM    3  C5  UNL     1      -0.955  -0.946   1.295  1.00  0.00     0.068 C 
HETATM    4  C6  UNL     1      -0.806  -0.332  -0.079  1.00  0.00     0.115 C 
HETATM    5  C20 UNL     1      -0.737  -1.575  -0.937  1.00  0.00     0.308 C 
ENDROOT
BRANCH   4   6
HETATM    6  C7  UNL     1      -2.042   0.388  -0.382  1.00  0.00    -0.080 C 
HETATM    7  C8  UNL     1      -3.066   0.982  -0.656  1.00  0.00    -0.085 C 
BRANCH   7   8
HETATM    8  C9  UNL     1      -4.300   1.704  -1.013  1.00  0.00     0.217 C 
BRANCH   8   9
HETATM    9  N4  UNL     1      -4.453   2.765  -0.068  1.00  0.00    -0.350 N 
HETATM   10  C10 UNL     1      -3.472   3.774   0.073  1.00  0.00     0.232 C 
HETATM   11  O1  UNL     1      -2.432   3.729  -0.664  1.00  0.00    -0.272 OA
ATOM     12  H4  UNL     1      -5.288   2.795   0.517  1.00  0.00     0.163 HD
BRANCH  10  13
HETATM   13  C11 UNL     1      -3.545   4.903   1.018  1.00  0.00     0.217 C 
HETATM   14 CL1  UNL     1      -5.033   4.846   1.980  1.00  0.00    -0.121 Cl
ENDBRANCH  10  13
ENDBRANCH   8   9
ENDBRANCH   7   8
ENDBRANCH   4   6
BRANCH   4  15
HETATM   15  C12 UNL     1       0.341   0.518  -0.223  1.00  0.00    -0.075 C 
HETATM   16  C13 UNL     1       1.296   1.255  -0.332  1.00  0.00    -0.059 C 
BRANCH  16  17
HETATM   17  C14 UNL     1       2.439   2.176  -0.464  1.00  0.00     0.159 C 
BRANCH  17  18
HETATM   18  N5  UNL     1       3.636   1.442  -0.337  1.00  0.00    -0.343 N 
HETATM   19  C15 UNL     1       3.984   0.878   0.890  1.00  0.00     0.069 C 
HETATM   20  C16 UNL     1       5.465   0.760   1.153  1.00  0.00     0.045 C 
HETATM   21  C17 UNL     1       6.232   0.229  -0.021  1.00  0.00     0.010 C 
HETATM   22  C18 UNL     1       5.882   1.029  -1.236  1.00  0.00     0.045 C 
HETATM   23  C19 UNL     1       4.413   1.191  -1.478  1.00  0.00     0.069 C 
ENDBRANCH  17  18
ENDBRANCH  16  17
ENDBRANCH   4  15
BRANCH   1  24
HETATM   24  C3  UNL     1      -1.995  -3.619  -0.939  1.00  0.00     0.279 C 
BRANCH  24  25
HETATM   25  C2  UNL     1      -3.360  -4.191  -0.697  1.00  0.00     0.092 C 
BRANCH  25  26
HETATM   26  C1  UNL     1      -3.706  -4.415   0.713  1.00  0.00     0.182 C 
BRANCH  26  27
HETATM   27  N2  UNL     1      -3.212  -5.379   1.367  1.00  0.00    -0.350 NA
BRANCH  27  28
HETATM   28  N1  UNL     1      -2.859  -6.492   1.785  1.00  0.00    -0.281 N 
ATOM     29  H12 UNL     1      -3.319  -6.979   1.016  1.00  0.00     0.191 HD
ATOM     30  H11 UNL     1      -2.461  -7.269   2.312  1.00  0.00     0.191 HD
ENDBRANCH  27  28
ENDBRANCH  26  27
ENDBRANCH  25  26
ENDBRANCH  24  25
ENDBRANCH   1  24
TORSDOF 12
