REMARK  11 active torsions:
REMARK  status: ('A' for Active; 'I' for Inactive)
REMARK    1  A    between atoms: C5_5  and  N1_6 
REMARK    2  A    between atoms: C6_9  and  C7_10 
REMARK    3  A    between atoms: C7_10  and  C8_12 
REMARK    4  A    between atoms: C8_12  and  O4_13 
REMARK    5  A    between atoms: O4_13  and  C9_14 
REMARK    6  A    between atoms: C9_14  and  O5_15 
REMARK    7  A    between atoms: C9_14  and  C10_17 
REMARK    8  A    between atoms: C10_17  and  N2_18 
REMARK    9  A    between atoms: N2_18  and  C11_19 
REMARK   10  A    between atoms: C11_19  and  O6_20 
REMARK   11  A    between atoms: C11_19  and  C12_22 
ROOT
HETATM    1  O4  UNL     1       0.192   0.156  -0.371  1.00  0.00    -0.321 OA
ENDROOT
BRANCH   1   2
HETATM    2  C8  UNL     1      -0.889  -0.167   0.366  1.00  0.00     0.263 C 
BRANCH   2   3
HETATM    3  C7  UNL     1      -2.195  -0.308  -0.315  1.00  0.00     0.202 C 
HETATM    4  O3  UNL     1      -2.227  -0.486  -1.537  1.00  0.00    -0.288 OA
BRANCH   3   5
HETATM    5  C6  UNL     1      -3.500  -0.209   0.396  1.00  0.00     0.116 A 
HETATM    6  C5  UNL     1      -3.618  -0.407   1.735  1.00  0.00     0.133 A 
HETATM    7  C4  UNL     1      -4.731   0.059   2.448  1.00  0.00     0.040 A 
HETATM    8  C3  UNL     1      -5.714   0.713   1.721  1.00  0.00     0.027 A 
HETATM    9  C2  UNL     1      -5.559   0.893   0.351  1.00  0.00     0.008 A 
HETATM   10  C1  UNL     1      -6.636   1.660  -0.370  1.00  0.00     0.068 C 
HETATM   11  N3  UNL     1      -4.487   0.446  -0.295  1.00  0.00    -0.350 N 
HETATM   12  C18 UNL     1      -4.439   0.660  -1.738  1.00  0.00     0.156 C 
BRANCH   6  13
HETATM   13  N1  UNL     1      -2.761  -1.150   2.589  1.00  0.00    -0.113 N 
HETATM   14  O1  UNL     1      -2.588  -0.794   3.782  1.00  0.00    -0.532 OA
HETATM   15  O2  UNL     1      -2.090  -2.247   2.179  1.00  0.00    -0.532 OA
ENDBRANCH   6  13
ENDBRANCH   3   5
ENDBRANCH   2   3
ENDBRANCH   1   2
BRANCH   1  16
HETATM   16  C9  UNL     1       1.197  -0.064  -1.073  1.00  0.00     0.208 C 
BRANCH  16  17
HETATM   17  O5  UNL     1       1.535  -1.357  -1.232  1.00  0.00    -0.339 OA
ATOM     18  H5  UNL     1       2.302  -1.525  -1.767  1.00  0.00     0.220 HD
ENDBRANCH  16  17
BRANCH  16  19
HETATM   19  C10 UNL     1       2.144   0.858  -1.794  1.00  0.00     0.248 C 
BRANCH  19  20
HETATM   20  N2  UNL     1       3.477   0.769  -1.702  1.00  0.00    -0.388 NA
BRANCH  20  21
HETATM   21  C11 UNL     1       4.844   0.687  -1.615  1.00  0.00     0.224 C 
BRANCH  21  22
HETATM   22  O6  UNL     1       5.623   1.481  -2.294  1.00  0.00    -0.335 OA
ATOM     23  H6  UNL     1       6.569   1.424  -2.234  1.00  0.00     0.220 HD
ENDBRANCH  21  22
BRANCH  21  24
HETATM   24  C12 UNL     1       5.650  -0.232  -0.796  1.00  0.00     0.029 A 
HETATM   25  C13 UNL     1       6.973  -0.211  -0.763  1.00  0.00     0.018 A 
HETATM   26  C14 UNL     1       7.846  -0.979   0.001  1.00  0.00     0.020 A 
HETATM   27  C15 UNL     1       7.200  -1.901   0.840  1.00  0.00     0.011 A 
HETATM   28 BR1  UNL     1       8.306  -2.997   1.966  1.00  0.00    -0.051 Br
HETATM   29  C16 UNL     1       5.834  -1.994   0.863  1.00  0.00     0.020 A 
HETATM   30  C17 UNL     1       5.018  -1.173   0.053  1.00  0.00     0.018 A 
ENDBRANCH  21  24
ENDBRANCH  20  21
ENDBRANCH  19  20
ENDBRANCH  16  19
ENDBRANCH   1  16
TORSDOF 11
