REMARK  7 active torsions:
REMARK  status: ('A' for Active; 'I' for Inactive)
REMARK    1  A    between atoms: C1_2  and  C2_3 
REMARK       I    between atoms: C1_2  and  N2_18 
REMARK    2  A    between atoms: C2_3  and  N1_4 
REMARK    3  A    between atoms: N1_4  and  C3_5 
REMARK    4  A    between atoms: N1_4  and  S1_10 
REMARK    5  A    between atoms: S1_10  and  C8_13 
REMARK    6  A    between atoms: N2_18  and  C10_20 
REMARK    7  A    between atoms: C10_20  and  C11_21 
ROOT
HETATM    1  N1  UNL     1      -1.938   0.222  -0.590  1.00  0.00    -0.293 N 
ENDROOT
BRANCH   1   2
HETATM    2  C2  UNL     1      -0.514   0.212  -0.792  1.00  0.00     0.238 C 
BRANCH   2   3
HETATM    3  C1  UNL     1       0.232  -0.497   0.263  1.00  0.00     0.236 C 
HETATM    4  O1  UNL     1      -0.393  -1.005   1.219  1.00  0.00    -0.272 OA
HETATM    5  N2  UNL     1       1.644  -0.600   0.190  1.00  0.00    -0.357 N 
ATOM      6  H2  UNL     1       2.135  -0.179  -0.599  1.00  0.00     0.162 HD
BRANCH   5   7
HETATM    7  C10 UNL     1       2.404  -1.290   1.210  1.00  0.00     0.154 C 
BRANCH   7   8
HETATM    8  C11 UNL     1       3.864  -1.245   0.882  1.00  0.00     0.139 C 
HETATM    9  C12 UNL     1       4.436   0.141   0.922  1.00  0.00     0.035 C 
HETATM   10  C13 UNL     1       5.889  -0.089   1.222  1.00  0.00     0.029 C 
HETATM   11  C14 UNL     1       5.892  -1.467   1.806  1.00  0.00     0.168 C 
HETATM   12  O4  UNL     1       4.594  -1.911   1.864  1.00  0.00    -0.384 OA
ENDBRANCH   7   8
ENDBRANCH   5   7
ENDBRANCH   2   3
ENDBRANCH   1   2
BRANCH   1  13
HETATM   13  C3  UNL     1      -2.429   1.519  -0.522  1.00  0.00     0.096 C 
HETATM   14  C4  UNL     1      -2.522   2.282  -1.817  1.00  0.00     0.026 C 
HETATM   15  C5  UNL     1      -3.644   3.292  -1.564  1.00  0.00     0.002 C 
HETATM   16  C6  UNL     1      -4.625   2.476  -0.788  1.00  0.00     0.002 C 
HETATM   17  C7  UNL     1      -3.750   1.710   0.178  1.00  0.00     0.026 C 
ENDBRANCH   1  13
BRANCH   1  18
HETATM   18  S1  UNL     1      -2.697  -0.994  -1.405  1.00  0.00     0.270 S 
HETATM   19  O2  UNL     1      -4.216  -0.930  -1.387  1.00  0.00    -0.200 OA
HETATM   20  O3  UNL     1      -2.363  -0.915  -2.872  1.00  0.00    -0.200 OA
BRANCH  18  21
HETATM   21  C8  UNL     1      -2.209  -2.636  -0.913  1.00  0.00     0.151 A 
HETATM   22  S2  UNL     1      -0.990  -3.615  -1.424  1.00  0.00    -0.036 SA
HETATM   23  S3  UNL     1      -1.803  -4.795  -0.078  1.00  0.00    -0.042 SA
HETATM   24  C9  UNL     1      -2.757  -3.446   0.002  1.00  0.00     0.089 A 
HETATM   25 BR1  UNL     1      -4.302  -3.256   1.225  1.00  0.00    -0.040 Br
ENDBRANCH  18  21
ENDBRANCH   1  18
TORSDOF 7
