REMARK  9 active torsions:
REMARK  status: ('A' for Active; 'I' for Inactive)
REMARK    1  A    between atoms: C2_2  and  O1_3 
REMARK    2  A    between atoms: O1_3  and  C3_4 
REMARK    3  A    between atoms: C3_4  and  C4_6 
REMARK    4  A    between atoms: C4_6  and  C5_7 
REMARK    5  A    between atoms: C5_7  and  C6_8 
REMARK    6  A    between atoms: C11_13  and  O3_14 
REMARK    7  A    between atoms: C12_16  and  C14_18 
REMARK    8  A    between atoms: C14_18  and  C15_19 
REMARK    9  A    between atoms: C15_19  and  C16_20 
ROOT
HETATM    1  C4  UNL     1      -0.440   0.316   0.423  1.00  0.00     0.114 C 
HETATM    2  C10 UNL     1       0.438   0.756   1.592  1.00  0.00     0.061 C 
HETATM    3  C11 UNL     1       1.791   0.120   1.313  1.00  0.00     0.135 C 
HETATM    4  C12 UNL     1       1.921   0.115  -0.193  1.00  0.00     0.044 C 
HETATM    5  C13 UNL     1       2.656   1.388  -0.620  1.00  0.00     0.026 C 
HETATM    6  C17 UNL     1       0.523   0.095  -0.691  1.00  0.00     0.156 C 
HETATM    7  O6  UNL     1       0.210  -0.080  -1.847  1.00  0.00    -0.296 OA
ENDROOT
BRANCH   1   8
HETATM    8  C3  UNL     1      -1.395   1.385   0.147  1.00  0.00     0.275 C 
HETATM    9  O2  UNL     1      -2.619   1.377   0.112  1.00  0.00    -0.264 OA
BRANCH   8  10
HETATM   10  O1  UNL     1      -0.872   2.688  -0.139  1.00  0.00    -0.321 OA
BRANCH  10  11
HETATM   11  C2  UNL     1      -1.636   3.793  -0.424  1.00  0.00     0.174 C 
HETATM   12  C1  UNL     1      -2.514   3.737  -1.640  1.00  0.00     0.034 C 
ENDBRANCH  10  11
ENDBRANCH   8  10
ENDBRANCH   1   8
BRANCH   1  13
HETATM   13  C5  UNL     1      -1.148  -0.964   0.758  1.00  0.00     0.055 C 
BRANCH  13  14
HETATM   14  C6  UNL     1      -2.044  -1.490  -0.276  1.00  0.00    -0.023 C 
HETATM   15  C7  UNL     1      -3.300  -1.838  -0.079  1.00  0.00    -0.091 C 
HETATM   16  C8  UNL     1      -3.953  -1.733   1.252  1.00  0.00     0.042 C 
HETATM   17  C9  UNL     1      -4.100  -2.359  -1.210  1.00  0.00     0.042 C 
ENDBRANCH  13  14
ENDBRANCH   1  13
BRANCH   3  18
HETATM   18  O3  UNL     1       1.766  -1.131   1.885  1.00  0.00    -0.394 OA
ATOM     19  H3  UNL     1       2.611  -1.528   1.711  1.00  0.00     0.210 HD
ENDBRANCH   3  18
BRANCH   4  20
HETATM   20  C14 UNL     1       2.750  -1.052  -0.673  1.00  0.00     0.030 C 
BRANCH  20  21
HETATM   21  C15 UNL     1       4.121  -0.966  -0.071  1.00  0.00     0.114 C 
BRANCH  21  22
HETATM   22  C16 UNL     1       5.003  -2.071  -0.489  1.00  0.00     0.172 C 
HETATM   23  O4  UNL     1       5.175  -2.325  -1.704  1.00  0.00    -0.648 OA
HETATM   24  O5  UNL     1       5.672  -2.873   0.438  1.00  0.00    -0.648 OA
ENDBRANCH  21  22
ENDBRANCH  20  21
ENDBRANCH   4  20
TORSDOF 9
