REMARK  13 active torsions:
REMARK  status: ('A' for Active; 'I' for Inactive)
REMARK    1  A    between atoms: C3_3  and  N1_4 
REMARK    2  A    between atoms: N1_4  and  C4_5 
REMARK    3  A    between atoms: N1_4  and  C21_29 
REMARK    4  A    between atoms: C6_7  and  C7_8 
REMARK    5  A    between atoms: C7_8  and  O1_9 
REMARK    6  A    between atoms: N2_12  and  C9_13 
REMARK    7  A    between atoms: C9_13  and  C10_14 
REMARK    8  A    between atoms: C11_15  and  C12_16 
REMARK    9  A    between atoms: C13_17  and  C14_18 
REMARK   10  A    between atoms: C14_18  and  C15_19 
REMARK   11  A    between atoms: C15_19  and  C16_20 
REMARK   12  A    between atoms: C17_21  and  C18_22 
REMARK   13  A    between atoms: C18_22  and  N3_24 
ROOT
HETATM    1  C1  UNL     1      -7.407   1.298  -0.581  1.00  0.00     0.014 C 
HETATM    2  C2  UNL     1      -6.419   0.978   0.055  1.00  0.00    -0.098 C 
HETATM    3  C3  UNL     1      -5.249   0.626   0.838  1.00  0.00     0.216 C 
ENDROOT
BRANCH   3   4
HETATM    4  N1  UNL     1      -4.154   0.126   0.024  1.00  0.00    -0.365 N 
BRANCH   4   5
HETATM    5  C4  UNL     1      -2.960   0.867  -0.193  1.00  0.00     0.047 A 
HETATM    6  C5  UNL     1      -2.729   2.065   0.454  1.00  0.00     0.041 A 
HETATM    7  C6  UNL     1      -1.554   2.756   0.196  1.00  0.00    -0.017 A 
HETATM    8  C8  UNL     1      -0.665   2.222  -0.693  1.00  0.00     0.100 A 
HETATM    9  N2  UNL     1      -0.861   1.068  -1.332  1.00  0.00    -0.353 N 
HETATM   10  C20 UNL     1      -2.017   0.393  -1.075  1.00  0.00     0.120 A 
BRANCH   7  11
HETATM   11  C7  UNL     1      -1.328   4.044   0.903  1.00  0.00     0.204 C 
BRANCH  11  12
HETATM   12  O1  UNL     1      -0.129   4.617   0.536  1.00  0.00    -0.396 OA
ATOM     13  H1  UNL     1       0.015   5.440   0.988  1.00  0.00     0.209 HD
ENDBRANCH  11  12
ENDBRANCH   7  11
BRANCH   9  14
HETATM   14  C9  UNL     1       0.064   0.501  -2.265  1.00  0.00     0.222 C 
BRANCH  14  15
HETATM   15  C10 UNL     1       0.994  -0.364  -1.537  1.00  0.00    -0.072 C 
HETATM   16  C11 UNL     1       1.758  -1.096  -0.949  1.00  0.00    -0.013 C 
BRANCH  16  17
HETATM   17  C12 UNL     1       2.654  -1.968  -0.279  1.00  0.00    -0.015 C 
HETATM   18  C13 UNL     1       3.418  -2.725   0.274  1.00  0.00    -0.092 C 
BRANCH  18  19
HETATM   19  C14 UNL     1       4.343  -3.669   0.937  1.00  0.00     0.107 C 
BRANCH  19  20
HETATM   20  C15 UNL     1       4.908  -2.948   2.132  1.00  0.00     0.106 C 
BRANCH  20  21
HETATM   21  C16 UNL     1       5.608  -1.751   1.622  1.00  0.00    -0.104 C 
HETATM   22  C17 UNL     1       6.169  -0.778   1.189  1.00  0.00    -0.074 C 
BRANCH  22  23
HETATM   23  C18 UNL     1       6.840   0.418   0.670  1.00  0.00     0.257 C 
HETATM   24  C19 UNL     1       6.362   0.603  -0.756  1.00  0.00     0.053 C 
BRANCH  23  25
HETATM   25  N3  UNL     1       8.288   0.209   0.613  1.00  0.00    -0.065 N 
ATOM     26  H33 UNL     1       8.666  -0.076   1.516  1.00  0.00     0.275 HD
ATOM     27  H32 UNL     1       8.530  -0.624   0.077  1.00  0.00     0.275 HD
ATOM     28  H31 UNL     1       8.755   1.041   0.252  1.00  0.00     0.275 HD
ENDBRANCH  23  25
ENDBRANCH  22  23
ENDBRANCH  20  21
ENDBRANCH  19  20
ENDBRANCH  18  19
ENDBRANCH  16  17
ENDBRANCH  14  15
ENDBRANCH   9  14
ENDBRANCH   4   5
BRANCH   4  29
HETATM   29  C21 UNL     1      -4.328  -1.182  -0.577  1.00  0.00     0.077 C 
HETATM   30  C22 UNL     1      -5.320  -1.183  -1.694  1.00  0.00     0.032 C 
HETATM   31  C23 UNL     1      -4.897  -2.092   0.558  1.00  0.00     0.032 C 
ENDBRANCH   4  29
ENDBRANCH   3   4
TORSDOF 13
