REMARK  7 active torsions:
REMARK  status: ('A' for Active; 'I' for Inactive)
REMARK    1  A    between atoms: C3_3  and  N1_4 
REMARK    2  A    between atoms: N2_12  and  C10_13 
REMARK    3  A    between atoms: C13_16  and  O1_17 
REMARK    4  A    between atoms: C13_16  and  C14_19 
REMARK    5  A    between atoms: C14_19  and  N3_20 
REMARK    6  A    between atoms: N3_20  and  S1_22 
REMARK    7  A    between atoms: S1_22  and  C15_25 
ROOT
HETATM    1  C1  UNL     1      -6.787  -1.678  -0.991  1.00  0.00     0.014 C 
HETATM    2  C2  UNL     1      -5.622  -1.672  -1.330  1.00  0.00    -0.098 C 
HETATM    3  C3  UNL     1      -4.210  -1.640  -1.749  1.00  0.00     0.214 C 
ENDROOT
BRANCH   3   4
HETATM    4  N1  UNL     1      -3.509  -0.849  -0.806  1.00  0.00    -0.363 N 
HETATM    5  C4  UNL     1      -2.268  -0.496  -0.940  1.00  0.00     0.181 C 
HETATM    6  C5  UNL     1      -1.670  -1.008  -2.176  1.00  0.00     0.084 C 
HETATM    7  N2  UNL     1      -1.783   0.296   0.134  1.00  0.00    -0.024 N 
HETATM    8  C6  UNL     1      -0.247  -0.683  -2.393  1.00  0.00     0.015 C 
HETATM    9  C7  UNL     1       0.482  -0.109  -1.231  1.00  0.00     0.025 C 
HETATM   10  C8  UNL     1       0.144   1.335  -0.959  1.00  0.00     0.036 C 
HETATM   11  C13 UNL     1       0.346  -0.919   0.022  1.00  0.00     0.102 C 
HETATM   12  C9  UNL     1      -1.246   1.513  -0.421  1.00  0.00     0.246 C 
HETATM   13  C12 UNL     1      -0.813  -0.469   0.880  1.00  0.00     0.285 C 
ATOM     14  H1  UNL     1      -4.009  -0.539   0.027  1.00  0.00     0.161 HD
BRANCH  11  15
HETATM   15  O1  UNL     1       0.186  -2.265  -0.375  1.00  0.00    -0.386 OA
ATOM     16  H1  UNL     1       0.100  -2.779   0.420  1.00  0.00     0.210 HD
ENDBRANCH  11  15
BRANCH  11  17
HETATM   17  C14 UNL     1       1.636  -0.869   0.810  1.00  0.00     0.171 C 
BRANCH  17  18
HETATM   18  N3  UNL     1       2.738  -1.293  -0.003  1.00  0.00    -0.316 N 
ATOM     19  H3  UNL     1       2.661  -1.587  -0.977  1.00  0.00     0.172 HD
BRANCH  18  20
HETATM   20  S1  UNL     1       4.218  -1.238   0.893  1.00  0.00     0.230 S 
HETATM   21  O2  UNL     1       4.145  -2.157   2.087  1.00  0.00    -0.206 OA
HETATM   22  O3  UNL     1       5.375  -1.646   0.028  1.00  0.00    -0.206 OA
BRANCH  20  23
HETATM   23  C15 UNL     1       4.540   0.449   1.408  1.00  0.00     0.129 A 
HETATM   24  C16 UNL     1       5.989   0.777   1.780  1.00  0.00     0.023 A 
HETATM   25  C17 UNL     1       5.349   1.305   0.497  1.00  0.00     0.023 A 
ENDBRANCH  20  23
ENDBRANCH  18  20
ENDBRANCH  17  18
ENDBRANCH  11  17
BRANCH   7  26
HETATM   26  C10 UNL     1      -2.845   0.657   1.040  1.00  0.00     0.241 C 
HETATM   27  C11 UNL     1      -2.329   1.105   2.384  1.00  0.00     0.035 C 
ENDBRANCH   7  26
ENDBRANCH   3   4
TORSDOF 7
