REMARK  8 active torsions:
REMARK  status: ('A' for Active; 'I' for Inactive)
REMARK    1  A    between atoms: C2_2  and  N1_3 
REMARK    2  A    between atoms: N1_3  and  C3_5 
REMARK    3  A    between atoms: C6_10  and  N3_11 
REMARK    4  A    between atoms: N3_11  and  S1_13 
REMARK    5  A    between atoms: S1_13  and  C7_16 
REMARK    6  A    between atoms: C7_16  and  C8_17 
REMARK    7  A    between atoms: C8_17  and  C9_18 
REMARK    8  A    between atoms: C9_18  and  N4_19 
ROOT
HETATM    1  S1  UNL     1       1.349   1.183   1.182  1.00  0.00     0.244 S 
HETATM    2  O1  UNL     1       2.301   1.645   2.240  1.00  0.00    -0.205 OA
HETATM    3  O2  UNL     1       1.377   2.207   0.083  1.00  0.00    -0.205 OA
ENDROOT
BRANCH   1   4
HETATM    4  N3  UNL     1       1.788  -0.333   0.506  1.00  0.00    -0.116 N 
ATOM      5  H3  UNL     1       1.096  -1.082   0.512  1.00  0.00     0.197 HD
BRANCH   4   6
HETATM    6  C6  UNL     1       2.930  -0.572  -0.002  1.00  0.00     0.693 A 
HETATM    7  N2  UNL     1       3.129  -1.828  -0.500  1.00  0.00    -0.201 N 
HETATM    8  C5  UNL     1       4.299  -2.183  -1.057  1.00  0.00     0.110 A 
ATOM      9  H2  UNL     1       2.373  -2.511  -0.448  1.00  0.00     0.183 HD
HETATM   10  C4  UNL     1       5.314  -1.248  -1.121  1.00  0.00     0.066 A 
HETATM   11  C3  UNL     1       5.128   0.019  -0.624  1.00  0.00     0.118 A 
HETATM   12  N5  UNL     1       3.932   0.310  -0.079  1.00  0.00    -0.176 N 
ATOM     13  H5  UNL     1       3.783   1.248   0.293  1.00  0.00     0.186 HD
BRANCH  11  14
HETATM   14  N1  UNL     1       6.081   0.883  -0.689  1.00  0.00    -0.376 N 
ATOM     15  H1  UNL     1       5.937   1.822  -0.318  1.00  0.00     0.161 HD
BRANCH  14  16
HETATM   16  C2  UNL     1       7.339   0.540  -1.276  1.00  0.00     0.116 C 
HETATM   17  C1  UNL     1       8.353   1.624  -0.974  1.00  0.00     0.026 C 
ENDBRANCH  14  16
ENDBRANCH  11  14
ENDBRANCH   4   6
ENDBRANCH   1   4
BRANCH   1  18
HETATM   18  C7  UNL     1      -0.270   1.081   1.904  1.00  0.00     0.165 C 
BRANCH  18  19
HETATM   19  C8  UNL     1      -1.311   0.698   0.848  1.00  0.00     0.037 C 
BRANCH  19  20
HETATM   20  C9  UNL     1      -2.637   0.641   1.568  1.00  0.00     0.130 C 
BRANCH  20  21
HETATM   21  N4  UNL     1      -3.741   0.293   0.731  1.00  0.00    -0.355 N 
HETATM   22  C10 UNL     1      -4.053  -1.022   0.598  1.00  0.00     0.008 A 
HETATM   23  C11 UNL     1      -3.333  -2.117   1.260  1.00  0.00     0.068 C 
HETATM   24  C12 UNL     1      -5.126  -1.379  -0.215  1.00  0.00     0.031 A 
HETATM   25  C13 UNL     1      -5.871  -0.431  -0.881  1.00  0.00    -0.058 A 
HETATM   26  C14 UNL     1      -7.020  -0.786  -1.754  1.00  0.00     0.048 C 
HETATM   27  C15 UNL     1      -5.528   0.875  -0.724  1.00  0.00     0.031 A 
HETATM   28  C16 UNL     1      -4.460   1.230   0.085  1.00  0.00     0.008 A 
HETATM   29  C17 UNL     1      -4.141   2.687   0.212  1.00  0.00     0.068 C 
ENDBRANCH  20  21
ENDBRANCH  19  20
ENDBRANCH  18  19
ENDBRANCH   1  18
TORSDOF 8
