REMARK  8 active torsions:
REMARK  status: ('A' for Active; 'I' for Inactive)
REMARK    1  A    between atoms: C2_2  and  N1_3 
REMARK    2  A    between atoms: N1_3  and  C3_4 
REMARK    3  A    between atoms: C7_8  and  C8_9 
REMARK    4  A    between atoms: C8_9  and  O1_10 
REMARK    5  A    between atoms: C15_19  and  C16_20 
REMARK    6  A    between atoms: C16_20  and  C17_21 
REMARK    7  A    between atoms: C18_24  and  N2_25 
REMARK    8  A    between atoms: N2_25  and  N3_26 
ROOT
HETATM    1  N1  UNL     1       1.877  -0.373   0.013  1.00  0.00    -0.063 N 
HETATM    2  C5  UNL     1       2.100   0.964  -0.503  1.00  0.00     0.239 C 
HETATM    3  C6  UNL     1       0.933   1.919  -0.236  1.00  0.00     0.047 C 
HETATM    4  C7  UNL     1      -0.338   1.490  -0.936  1.00  0.00     0.039 C 
HETATM    5  C9  UNL     1      -0.028   0.018  -1.285  1.00  0.00     0.053 C 
HETATM    6  C10 UNL     1       0.411  -0.538   0.029  1.00  0.00     0.198 C 
HETATM    7  C11 UNL     1      -0.076  -1.887   0.377  1.00  0.00     0.043 C 
HETATM    8  C12 UNL     1      -0.413  -2.028   1.879  1.00  0.00     0.175 C 
HETATM    9  O2  UNL     1      -1.226  -0.883   2.017  1.00  0.00    -0.385 OA
HETATM   10  C13 UNL     1      -2.122  -0.946   0.921  1.00  0.00     0.133 C 
HETATM   11  C14 UNL     1      -1.573  -1.944   0.013  1.00  0.00     0.041 C 
HETATM   12  C15 UNL     1      -2.525   0.388   0.436  1.00  0.00     0.087 C 
HETATM   13  C18 UNL     1      -1.472   1.326   0.054  1.00  0.00     0.103 C 
ENDROOT
BRANCH   1  14
HETATM   14  C2  UNL     1       2.359  -0.495   1.370  1.00  0.00     0.233 C 
HETATM   15  C1  UNL     1       3.619   0.213   1.682  1.00  0.00     0.035 C 
ENDBRANCH   1  14
BRANCH   1  16
HETATM   16  C3  UNL     1       2.437  -1.411  -0.794  1.00  0.00     0.233 C 
HETATM   17  C4  UNL     1       3.824  -1.177  -1.277  1.00  0.00     0.035 C 
ENDBRANCH   1  16
BRANCH   4  18
HETATM   18  C8  UNL     1      -0.707   2.295  -2.117  1.00  0.00     0.180 C 
BRANCH  18  19
HETATM   19  O1  UNL     1       0.328   2.204  -3.045  1.00  0.00    -0.400 OA
ATOM     20  H1  UNL     1       0.091   2.722  -3.805  1.00  0.00     0.209 HD
ENDBRANCH  18  19
ENDBRANCH   4  18
BRANCH  13  21
HETATM   21  N2  UNL     1      -1.440   2.393   0.753  1.00  0.00    -0.341 NA
BRANCH  21  22
HETATM   22  N3  UNL     1      -1.659   3.498   1.295  1.00  0.00    -0.280 N 
ATOM     23  H32 UNL     1      -2.517   3.630   0.760  1.00  0.00     0.191 HD
ATOM     24  H31 UNL     1      -1.633   4.351   1.854  1.00  0.00     0.191 HD
ENDBRANCH  21  22
ENDBRANCH  13  21
BRANCH  12  25
HETATM   25  C16 UNL     1      -3.616   0.255  -0.591  1.00  0.00     0.127 C 
BRANCH  25  26
HETATM   26  C17 UNL     1      -4.825  -0.408  -0.044  1.00  0.00     0.173 C 
HETATM   27  O3  UNL     1      -5.002  -1.655  -0.013  1.00  0.00    -0.648 OA
HETATM   28  O4  UNL     1      -5.864   0.380   0.484  1.00  0.00    -0.648 OA
ENDBRANCH  25  26
ENDBRANCH  12  25
TORSDOF 8
