REMARK  11 active torsions:
REMARK  status: ('A' for Active; 'I' for Inactive)
REMARK    1  A    between atoms: C2_2  and  N1_3 
REMARK    2  A    between atoms: N1_3  and  C4_5 
REMARK    3  A    between atoms: N1_3  and  C13_15 
REMARK    4  A    between atoms: C4_5  and  C5_6 
REMARK    5  A    between atoms: C6_7  and  C7_8 
REMARK    6  A    between atoms: C7_8  and  N2_9 
REMARK    7  A    between atoms: C13_15  and  C14_16 
REMARK    8  A    between atoms: C15_17  and  C16_18 
REMARK    9  A    between atoms: C16_18  and  N3_19 
REMARK   10  A    between atoms: N3_19  and  S1_21 
REMARK   11  A    between atoms: S1_21  and  N4_22 
ROOT
HETATM    1  N1  UNL     1      -0.565  -1.355   0.376  1.00  0.00    -0.051 N 
HETATM    2  C3  UNL     1       0.535  -1.360   1.353  1.00  0.00     0.274 C 
ENDROOT
BRANCH   1   3
HETATM    3  C2  UNL     1      -0.198  -2.222  -0.718  1.00  0.00     0.234 C 
HETATM    4  C1  UNL     1       0.519  -3.445  -0.186  1.00  0.00     0.035 C 
ENDBRANCH   1   3
BRANCH   1   5
HETATM    5  C4  UNL     1      -0.740   0.014  -0.032  1.00  0.00     0.331 C 
BRANCH   5   6
HETATM    6  C5  UNL     1       0.570   0.534  -0.464  1.00  0.00    -0.077 C 
HETATM    7  C6  UNL     1       1.638   0.972  -0.814  1.00  0.00    -0.077 C 
BRANCH   7   8
HETATM    8  C7  UNL     1       2.923   1.517  -1.246  1.00  0.00     0.330 C 
BRANCH   8   9
HETATM    9  N2  UNL     1       4.042   0.942  -0.548  1.00  0.00    -0.061 N 
HETATM   10  C8  UNL     1       4.070  -0.501  -0.701  1.00  0.00     0.273 C 
HETATM   11  C9  UNL     1       5.248   1.529  -1.097  1.00  0.00     0.238 C 
HETATM   12  C10 UNL     1       6.176   1.786   0.068  1.00  0.00     0.029 C 
HETATM   13  C11 UNL     1       5.432   1.330   1.295  1.00  0.00     0.029 C 
HETATM   14  C12 UNL     1       3.992   1.314   0.834  1.00  0.00     0.238 C 
ENDBRANCH   8   9
ENDBRANCH   7   8
ENDBRANCH   5   6
ENDBRANCH   1   5
BRANCH   1  15
HETATM   15  C13 UNL     1      -1.709  -1.902   1.037  1.00  0.00     0.331 C 
BRANCH  15  16
HETATM   16  C14 UNL     1      -2.926  -1.282   0.575  1.00  0.00    -0.076 C 
HETATM   17  C15 UNL     1      -3.959  -0.778   0.195  1.00  0.00    -0.072 C 
BRANCH  17  18
HETATM   18  C16 UNL     1      -5.232  -0.185  -0.264  1.00  0.00     0.105 A 
HETATM   19  C17 UNL     1      -6.122  -1.187  -1.029  1.00  0.00     0.048 A 
HETATM   20  C18 UNL     1      -5.409  -0.021  -1.713  1.00  0.00     0.048 A 
BRANCH  18  21
HETATM   21  N3  UNL     1      -5.933   0.552   0.721  1.00  0.00    -0.282 N 
ATOM     22  H3  UNL     1      -6.876   0.294   1.011  1.00  0.00     0.175 HD
BRANCH  21  23
HETATM   23  S1  UNL     1      -5.136   1.873   1.389  1.00  0.00     0.314 S 
HETATM   24  O1  UNL     1      -5.602   2.068   2.824  1.00  0.00    -0.183 OA
HETATM   25  O2  UNL     1      -3.659   1.624   1.461  1.00  0.00    -0.183 OA
BRANCH  23  26
HETATM   26  N4  UNL     1      -5.386   3.354   0.571  1.00  0.00    -0.312 N 
ATOM     27  H42 UNL     1      -5.977   3.415  -0.258  1.00  0.00     0.170 HD
ATOM     28  H41 UNL     1      -4.902   4.155   0.976  1.00  0.00     0.170 HD
ENDBRANCH  23  26
ENDBRANCH  21  23
ENDBRANCH  18  21
ENDBRANCH  17  18
ENDBRANCH  15  16
ENDBRANCH   1  15
TORSDOF 11
