REMARK  6 active torsions:
REMARK  status: ('A' for Active; 'I' for Inactive)
REMARK    1  A    between atoms: C2_2  and  C3_3 
REMARK    2  A    between atoms: N2_13  and  C11_15 
REMARK    3  A    between atoms: C11_15  and  C12_16 
REMARK    4  A    between atoms: C12_16  and  N3_17 
REMARK    5  A    between atoms: N3_17  and  S1_19 
REMARK    6  A    between atoms: S1_19  and  N4_22 
ROOT
HETATM    1  C11 UNL     1      -1.196  -0.540   0.306  1.00  0.00     0.258 C 
ENDROOT
BRANCH   1   2
HETATM    2  N2  UNL     1      -2.065   0.391  -0.333  1.00  0.00    -0.059 N 
HETATM    3  C2  UNL     1      -3.329   0.401   0.289  1.00  0.00     0.154 C 
HETATM    4  C1  UNL     1      -3.093   0.506   1.808  1.00  0.00     0.049 C 
HETATM    5  C7  UNL     1      -3.944   1.731  -0.089  1.00  0.00     0.043 C 
HETATM    6  C8  UNL     1      -2.738   2.645   0.058  1.00  0.00     0.030 C 
HETATM    7  C9  UNL     1      -1.556   1.739  -0.014  1.00  0.00     0.238 C 
HETATM    8  C10 UNL     1      -2.064   0.311  -1.764  1.00  0.00     0.273 C 
BRANCH   3   9
HETATM    9  C3  UNL     1      -4.228  -0.750   0.124  1.00  0.00     0.221 C 
HETATM   10  C4  UNL     1      -4.665  -1.139  -1.217  1.00  0.00     0.037 C 
HETATM   11  C5  UNL     1      -5.932  -1.950  -0.929  1.00  0.00     0.029 C 
HETATM   12  C6  UNL     1      -6.277  -1.597   0.516  1.00  0.00     0.233 C 
HETATM   13  N1  UNL     1      -5.496  -0.405   0.793  1.00  0.00    -0.069 N 
ATOM     14  H12 UNL     1      -5.419  -0.147   1.777  1.00  0.00     0.277 HD
ATOM     15  H11 UNL     1      -5.920   0.477   0.506  1.00  0.00     0.277 HD
ENDBRANCH   3   9
ENDBRANCH   1   2
BRANCH   1  16
HETATM   16  C12 UNL     1       0.097  -0.767  -0.435  1.00  0.00     0.161 C 
BRANCH  16  17
HETATM   17  N3  UNL     1       0.952  -1.720   0.249  1.00  0.00    -0.301 N 
ATOM     18  H3  UNL     1       0.743  -2.200   1.124  1.00  0.00     0.173 HD
BRANCH  17  19
HETATM   19  S1  UNL     1       2.384  -1.890  -0.690  1.00  0.00     0.317 S 
HETATM   20  O1  UNL     1       2.892  -3.304  -0.459  1.00  0.00    -0.183 OA
HETATM   21  O2  UNL     1       2.078  -1.787  -2.152  1.00  0.00    -0.183 OA
BRANCH  19  22
HETATM   22  N4  UNL     1       3.613  -0.809  -0.282  1.00  0.00    -0.291 N 
HETATM   23  C13 UNL     1       4.108  -0.911   1.050  1.00  0.00     0.164 C 
HETATM   24  C14 UNL     1       5.146   0.165   1.281  1.00  0.00     0.257 C 
HETATM   25  N5  UNL     1       5.783   0.565   0.035  1.00  0.00    -0.072 N 
HETATM   26  C15 UNL     1       6.441  -0.587  -0.553  1.00  0.00     0.272 C 
HETATM   27  C16 UNL     1       6.822   1.530   0.386  1.00  0.00     0.272 C 
HETATM   28  C17 UNL     1       4.842   1.133  -0.906  1.00  0.00     0.257 C 
HETATM   29  C18 UNL     1       3.457   0.522  -0.773  1.00  0.00     0.164 C 
ENDBRANCH  19  22
ENDBRANCH  17  19
ENDBRANCH  16  17
ENDBRANCH   1  16
TORSDOF 6
