REMARK  6 active torsions:
REMARK  status: ('A' for Active; 'I' for Inactive)
REMARK    1  A    between atoms: C4_4  and  N1_5 
REMARK       I    between atoms: N1_5  and  C6_7 
REMARK    2  A    between atoms: C6_7  and  C7_9 
REMARK    3  A    between atoms: C7_9  and  N2_10 
REMARK    4  A    between atoms: N3_15  and  C13_17 
REMARK    5  A    between atoms: C13_17  and  C14_18 
REMARK    6  A    between atoms: C14_18  and  C15_19 
ROOT
HETATM    1  C1  UNL     1       1.692  -0.677  -2.661  1.00  0.00     0.040 C 
HETATM    2  C2  UNL     1       1.102  -1.502  -1.571  1.00  0.00     0.188 C 
HETATM    3  C3  UNL     1      -0.414  -1.355  -1.650  1.00  0.00     0.060 C 
HETATM    4  C4  UNL     1      -0.842  -0.690  -0.363  1.00  0.00     0.114 C 
HETATM    5  C11 UNL     1       0.479  -0.034   0.061  1.00  0.00     0.262 C 
HETATM    6  N3  UNL     1       1.395  -1.089  -0.242  1.00  0.00    -0.065 N 
HETATM    7  C12 UNL     1       1.077  -2.206   0.630  1.00  0.00     0.273 C 
ENDROOT
BRANCH   6   8
HETATM    8  C13 UNL     1       2.788  -0.723  -0.020  1.00  0.00     0.241 C 
BRANCH   8   9
HETATM    9  C14 UNL     1       3.018   0.729  -0.052  1.00  0.00     0.057 C 
BRANCH   9  10
HETATM   10  C15 UNL     1       4.368   1.180   0.163  1.00  0.00     0.010 C 
HETATM   11  C16 UNL     1       5.490   0.570   0.411  1.00  0.00     0.101 A 
HETATM   12  N4  UNL     1       5.795  -0.789   0.563  1.00  0.00    -0.304 N 
HETATM   13  C18 UNL     1       6.808   1.268   0.599  1.00  0.00     0.276 A 
HETATM   14  C17 UNL     1       7.196  -1.008   0.832  1.00  0.00     0.327 A 
ATOM     15  H4  UNL     1       5.106  -1.538   0.492  1.00  0.00     0.171 HD
HETATM   16  O2  UNL     1       7.792  -2.086   1.016  1.00  0.00    -0.247 OA
HETATM   17  N5  UNL     1       7.776   0.269   0.845  1.00  0.00    -0.274 N 
ATOM     18  H5  UNL     1       8.766   0.452   1.010  1.00  0.00     0.173 HD
HETATM   19  O3  UNL     1       6.979   2.508   0.541  1.00  0.00    -0.266 OA
ENDBRANCH   9  10
ENDBRANCH   8   9
ENDBRANCH   6   8
BRANCH   4  20
HETATM   20  N1  UNL     1      -1.902   0.251  -0.523  1.00  0.00    -0.349 N 
HETATM   21  C5  UNL     1      -1.769   1.308  -1.511  1.00  0.00     0.153 C 
HETATM   22  C6  UNL     1      -3.058   0.134   0.282  1.00  0.00     0.246 C 
HETATM   23  O1  UNL     1      -3.158  -0.779   1.127  1.00  0.00    -0.272 OA
BRANCH  22  24
HETATM   24  C7  UNL     1      -4.153   1.102   0.120  1.00  0.00     0.338 C 
BRANCH  24  25
HETATM   25  N2  UNL     1      -5.234   0.804   1.035  1.00  0.00    -0.070 N 
HETATM   26  C8  UNL     1      -4.712   0.913   2.380  1.00  0.00     0.272 C 
HETATM   27  C9  UNL     1      -5.735  -0.527   0.824  1.00  0.00     0.272 C 
HETATM   28  C10 UNL     1      -6.279   1.782   0.785  1.00  0.00     0.272 C 
ENDBRANCH  24  25
ENDBRANCH  22  24
ENDBRANCH   4  20
TORSDOF 6
