REMARK  7 active torsions:
REMARK  status: ('A' for Active; 'I' for Inactive)
REMARK    1  A    between atoms: N1_1  and  C1_5 
REMARK    2  A    between atoms: S1_8  and  C4_9 
REMARK    3  A    between atoms: C4_9  and  C5_10 
REMARK    4  A    between atoms: C5_10  and  C6_11 
REMARK    5  A    between atoms: C6_11  and  N2_12 
REMARK    6  A    between atoms: N3_15  and  C9_16 
REMARK    7  A    between atoms: C9_16  and  C10_17 
ROOT
HETATM    1  C1  UNL     1      -4.417  -0.343   0.416  1.00  0.00     0.130 C 
HETATM    2  C2  UNL     1      -3.593  -1.188   1.299  1.00  0.00     0.048 C 
HETATM    3  C3  UNL     1      -2.944  -2.245   0.390  1.00  0.00     0.066 C 
HETATM    4  S1  UNL     1      -1.927  -1.481  -0.856  1.00  0.00    -0.219 SA
HETATM    5  C14 UNL     1      -2.916  -0.134  -1.537  1.00  0.00     0.071 C 
HETATM    6  C15 UNL     1      -3.450   0.573  -0.358  1.00  0.00     0.038 C 
HETATM    7  C16 UNL     1      -4.534   1.514  -0.402  1.00  0.00    -0.031 A 
HETATM    8  C17 UNL     1      -4.572   2.906  -0.758  1.00  0.00     0.011 A 
HETATM    9  C18 UNL     1      -5.450   1.842  -1.457  1.00  0.00     0.011 A 
HETATM   10  C19 UNL     1      -4.951   0.982   0.971  1.00  0.00     0.049 C 
ENDROOT
BRANCH   4  11
HETATM   11  C4  UNL     1      -0.483  -0.745  -0.106  1.00  0.00     0.065 C 
BRANCH  11  12
HETATM   12  C5  UNL     1       0.351  -1.763   0.607  1.00  0.00     0.037 C 
BRANCH  12  13
HETATM   13  C6  UNL     1       1.554  -1.243   1.272  1.00  0.00     0.240 C 
BRANCH  13  14
HETATM   14  N2  UNL     1       2.555  -0.604   0.521  1.00  0.00    -0.040 N 
HETATM   15  C7  UNL     1       2.393   0.814   0.415  1.00  0.00     0.267 C 
HETATM   16  C8  UNL     1       3.821   1.394   0.423  1.00  0.00     0.268 C 
HETATM   17  N3  UNL     1       4.584   0.202   0.254  1.00  0.00    -0.030 N 
HETATM   18  C11 UNL     1       4.259  -0.425  -0.988  1.00  0.00     0.268 C 
HETATM   19  C13 UNL     1       3.873  -0.681   1.203  1.00  0.00     0.473 C 
HETATM   20  C12 UNL     1       2.916  -1.141  -0.745  1.00  0.00     0.267 C 
BRANCH  17  21
HETATM   21  C9  UNL     1       5.971   0.272   0.555  1.00  0.00     0.352 C 
BRANCH  21  22
HETATM   22  C10 UNL     1       6.750   1.142  -0.336  1.00  0.00     0.199 C 
HETATM   23  O1  UNL     1       7.984   1.287  -0.145  1.00  0.00    -0.647 OA
HETATM   24  O2  UNL     1       6.111   1.790  -1.377  1.00  0.00    -0.647 OA
ENDBRANCH  21  22
ENDBRANCH  17  21
ENDBRANCH  13  14
ENDBRANCH  12  13
ENDBRANCH  11  12
ENDBRANCH   4  11
BRANCH   1  25
HETATM   25  N1  UNL     1      -5.433  -0.948  -0.374  1.00  0.00    -0.070 N 
ATOM     26  H13 UNL     1      -5.014  -1.692  -0.931  1.00  0.00     0.275 HD
ATOM     27  H12 UNL     1      -6.051  -1.480   0.239  1.00  0.00     0.275 HD
ATOM     28  H11 UNL     1      -6.003  -0.363  -0.985  1.00  0.00     0.275 HD
ENDBRANCH   1  25
TORSDOF 7
