REMARK  6 active torsions:
REMARK  status: ('A' for Active; 'I' for Inactive)
REMARK    1  A    between atoms: C4_4  and  N1_5 
REMARK    2  A    between atoms: N2_8  and  C7_9 
REMARK    3  A    between atoms: C7_9  and  C8_10 
REMARK       I    between atoms: C8_10  and  N3_12 
REMARK    4  A    between atoms: N3_12  and  C9_14 
REMARK    5  A    between atoms: C9_14  and  C10_15 
REMARK    6  A    between atoms: C10_15  and  N4_16 
ROOT
HETATM    1  N1  UNL     1       3.397  -0.443   0.530  1.00  0.00    -0.056 N 
HETATM    2  C5  UNL     1       2.573   0.188  -0.495  1.00  0.00     0.266 C 
HETATM    3  C6  UNL     1       1.114   0.075  -0.076  1.00  0.00     0.271 C 
HETATM    4  N2  UNL     1       0.917  -1.084   0.733  1.00  0.00    -0.037 N 
HETATM    5  C16 UNL     1       1.733  -2.149   0.116  1.00  0.00     0.271 C 
HETATM    6  C17 UNL     1       3.185  -1.879   0.335  1.00  0.00     0.266 C 
HETATM    7  C18 UNL     1       1.551  -0.862   2.054  1.00  0.00     0.271 C 
HETATM    8  C19 UNL     1       2.808  -0.054   1.824  1.00  0.00     0.266 C 
ENDROOT
BRANCH   4   9
HETATM    9  C7  UNL     1      -0.400  -1.508   0.967  1.00  0.00     0.276 C 
BRANCH   9  10
HETATM   10  C8  UNL     1      -1.519  -0.601   0.796  1.00  0.00     0.264 C 
HETATM   11  O1  UNL     1      -1.384   0.571   0.445  1.00  0.00    -0.267 OA
HETATM   12  N3  UNL     1      -2.828  -1.094   1.044  1.00  0.00    -0.355 N 
ATOM     13  H3  UNL     1      -2.937  -2.064   1.339  1.00  0.00     0.162 HD
BRANCH  12  14
HETATM   14  C9  UNL     1      -4.006  -0.283   0.897  1.00  0.00     0.151 C 
BRANCH  14  15
HETATM   15  C10 UNL     1      -4.192   0.191  -0.503  1.00  0.00     0.256 C 
BRANCH  15  16
HETATM   16  N4  UNL     1      -5.358   1.006  -0.692  1.00  0.00    -0.069 N 
HETATM   17  C11 UNL     1      -5.010   2.403  -0.878  1.00  0.00     0.272 C 
HETATM   18  C12 UNL     1      -6.025   0.576  -1.911  1.00  0.00     0.237 C 
HETATM   19  C13 UNL     1      -7.091  -0.397  -1.537  1.00  0.00     0.029 C 
HETATM   20  C14 UNL     1      -7.324  -0.143  -0.065  1.00  0.00     0.029 C 
HETATM   21  C15 UNL     1      -6.339   0.937   0.344  1.00  0.00     0.237 C 
ENDBRANCH  15  16
ENDBRANCH  14  15
ENDBRANCH  12  14
ENDBRANCH   9  10
ENDBRANCH   4   9
BRANCH   1  22
HETATM   22  C4  UNL     1       4.749  -0.051   0.544  1.00  0.00     0.218 C 
HETATM   23  C3  UNL     1       5.062   1.208  -0.252  1.00  0.00     0.067 C 
HETATM   24  C2  UNL     1       6.584   1.159  -0.230  1.00  0.00     0.184 C 
HETATM   25  C1  UNL     1       7.175   1.880  -1.407  1.00  0.00     0.040 C 
HETATM   26  N5  UNL     1       6.964  -0.225  -0.147  1.00  0.00    -0.069 N 
HETATM   27  C20 UNL     1       5.738  -1.011  -0.055  1.00  0.00     0.266 C 
ATOM     28  H52 UNL     1       7.568  -0.518  -0.915  1.00  0.00     0.277 HD
ATOM     29  H51 UNL     1       7.616  -0.414   0.615  1.00  0.00     0.277 HD
ENDBRANCH   1  22
TORSDOF 6
