REMARK  15 active torsions:
REMARK  status: ('A' for Active; 'I' for Inactive)
REMARK    1  A    between atoms: C2_2  and  C4_4 
REMARK    2  A    between atoms: C4_4  and  N1_5 
REMARK       I    between atoms: N1_5  and  C5_6 
REMARK    3  A    between atoms: C5_6  and  O2_8 
REMARK    4  A    between atoms: O2_8  and  C6_9 
REMARK    5  A    between atoms: C10_13  and  O3_14 
REMARK    6  A    between atoms: C10_13  and  N2_16 
REMARK    7  A    between atoms: C13_20  and  O4_21 
REMARK    8  A    between atoms: C13_20  and  N4_23 
REMARK    9  A    between atoms: N4_23  and  C14_25 
REMARK   10  A    between atoms: C14_25  and  C15_26 
REMARK   11  A    between atoms: C14_25  and  C20_32 
REMARK   12  A    between atoms: C15_26  and  N5_27 
REMARK   13  A    between atoms: N5_27  and  C17_29 
REMARK   14  A    between atoms: C20_32  and  O5_33 
REMARK   15  A    between atoms: C20_32  and  N6_35 
ROOT
HETATM    1  N4  UNL     1      -0.670   0.915   0.033  1.00  0.00    -0.343 N 
ATOM      2  H4  UNL     1      -0.393   1.821   0.411  1.00  0.00     0.164 HD
ENDROOT
BRANCH   1   3
HETATM    3  C13 UNL     1       0.307  -0.080  -0.095  1.00  0.00     0.215 C 
HETATM    4  N3  UNL     1       1.588  -0.335   0.037  1.00  0.00    -0.345 N 
HETATM    5  C12 UNL     1       2.268  -1.593   0.231  1.00  0.00     0.146 C 
HETATM    6  C32 UNL     1       2.588   0.773  -0.295  1.00  0.00     0.146 C 
HETATM    7  C11 UNL     1       3.802  -1.330   0.459  1.00  0.00     0.145 C 
HETATM    8  N2  UNL     1       4.385  -0.721  -0.674  1.00  0.00    -0.356 N 
HETATM    9  C33 UNL     1       3.374   0.077  -1.474  1.00  0.00     0.145 C 
BRANCH   8  10
HETATM   10  C10 UNL     1       5.701  -0.525  -1.054  1.00  0.00     0.176 C 
HETATM   11  C4  UNL     1       6.897  -0.360  -0.274  1.00  0.00     0.144 C 
BRANCH  11  12
HETATM   12  C2  UNL     1       6.687   0.221   1.129  1.00  0.00     0.046 C 
HETATM   13  C1  UNL     1       6.836  -0.864   2.185  1.00  0.00     0.017 C 
HETATM   14  C3  UNL     1       7.734   1.330   1.340  1.00  0.00     0.017 C 
ENDBRANCH  11  12
BRANCH  11  15
HETATM   15  N1  UNL     1       8.089  -0.921  -0.402  1.00  0.00    -0.345 NA
HETATM   16  C5  UNL     1       9.365  -1.527  -0.541  1.00  0.00     0.441 C 
HETATM   17  O1  UNL     1       9.707  -2.665  -0.705  1.00  0.00    -0.221 OA
BRANCH  16  18
HETATM   18  O2  UNL     1      10.435  -0.591  -0.475  1.00  0.00    -0.282 OA
BRANCH  18  19
HETATM   19  C6  UNL     1      11.767  -0.825  -0.499  1.00  0.00     0.062 C 
HETATM   20  C7  UNL     1      12.448   0.579  -0.547  1.00  0.00     0.046 C 
HETATM   21  C8  UNL     1      12.230  -1.352   0.898  1.00  0.00     0.046 C 
HETATM   22  C9  UNL     1      12.382  -1.688  -1.489  1.00  0.00     0.046 C 
ENDBRANCH  18  19
ENDBRANCH  16  18
ENDBRANCH  11  15
BRANCH  10  23
HETATM   23  O3  UNL     1       5.889  -0.443  -2.353  1.00  0.00    -0.344 OA
ATOM     24  H3  UNL     1       5.099  -0.552  -2.869  1.00  0.00     0.219 HD
ENDBRANCH  10  23
ENDBRANCH   8  10
BRANCH   3  25
HETATM   25  O4  UNL     1      -0.405  -1.240  -0.522  1.00  0.00    -0.333 OA
ATOM     26  H4  UNL     1      -1.332  -1.055  -0.618  1.00  0.00     0.220 HD
ENDBRANCH   3  25
ENDBRANCH   1   3
BRANCH   1  27
HETATM   27  C14 UNL     1      -2.128   0.712  -0.365  1.00  0.00     0.188 C 
BRANCH  27  28
HETATM   28  C15 UNL     1      -2.613   2.128  -0.383  1.00  0.00     0.305 C 
BRANCH  28  29
HETATM   29  N5  UNL     1      -3.918   2.438  -0.803  1.00  0.00     0.090 N 
HETATM   30  C16 UNL     1      -4.049   2.374  -2.235  1.00  0.00     0.310 C 
BRANCH  29  31
HETATM   31  C17 UNL     1      -4.527   3.591  -0.209  1.00  0.00     0.214 C 
HETATM   32  C18 UNL     1      -4.757   3.403   1.287  1.00  0.00     0.042 C 
HETATM   33  C19 UNL     1      -5.906   3.878  -0.804  1.00  0.00     0.042 C 
ENDBRANCH  29  31
ENDBRANCH  28  29
ENDBRANCH  27  28
BRANCH  27  34
HETATM   34  C20 UNL     1      -2.745  -0.024   0.778  1.00  0.00     0.138 C 
BRANCH  34  35
HETATM   35  O5  UNL     1      -2.393   0.584   1.891  1.00  0.00    -0.348 OA
ATOM     36  H5  UNL     1      -2.786   0.116   2.618  1.00  0.00     0.219 HD
ENDBRANCH  34  35
BRANCH  34  37
HETATM   37  N6  UNL     1      -3.554  -1.145   0.813  1.00  0.00    -0.362 N 
HETATM   38  C21 UNL     1      -3.951  -1.998  -0.241  1.00  0.00     0.127 C 
HETATM   39  C22 UNL     1      -4.354  -1.478  -1.549  1.00  0.00     0.046 C 
HETATM   40  C23 UNL     1      -5.819  -1.090  -1.591  1.00  0.00     0.169 C 
HETATM   41  O6  UNL     1      -6.264  -0.789  -2.840  1.00  0.00    -0.389 OA
HETATM   42  C24 UNL     1      -7.315   0.130  -2.828  1.00  0.00     0.193 C 
HETATM   43  C25 UNL     1      -7.957   0.252  -1.490  1.00  0.00     0.193 C 
HETATM   44  O7  UNL     1      -9.340   0.432  -1.517  1.00  0.00    -0.387 OA
HETATM   45  C26 UNL     1      -9.901  -0.238  -0.426  1.00  0.00     0.193 C 
HETATM   46  C27 UNL     1      -9.182   0.096   0.880  1.00  0.00     0.193 C 
HETATM   47  O8  UNL     1      -9.377  -0.836   1.869  1.00  0.00    -0.387 OA
HETATM   48  C28 UNL     1      -8.236  -1.588   2.172  1.00  0.00     0.193 C 
HETATM   49  C29 UNL     1      -7.418  -1.001   3.260  1.00  0.00     0.193 C 
HETATM   50  O9  UNL     1      -6.132  -1.500   3.395  1.00  0.00    -0.387 OA
HETATM   51  C30 UNL     1      -5.541  -1.704   2.173  1.00  0.00     0.187 C 
HETATM   52  C31 UNL     1      -4.075  -1.484   2.170  1.00  0.00     0.151 C 
ENDBRANCH  34  37
ENDBRANCH  27  34
ENDBRANCH   1  27
TORSDOF 15
