REMARK  14 active torsions:
REMARK  status: ('A' for Active; 'I' for Inactive)
REMARK    1  A    between atoms: O1_2  and  C2_3 
REMARK    2  A    between atoms: C5_6  and  C6_7 
REMARK       I    between atoms: N1_12  and  C11_14 
REMARK    3  A    between atoms: C11_14  and  C12_16 
REMARK    4  A    between atoms: C12_16  and  N2_17 
REMARK    5  A    between atoms: N2_17  and  N3_18 
REMARK    6  A    between atoms: N2_17  and  C26_49 
REMARK       I    between atoms: N3_18  and  C13_20 
REMARK    7  A    between atoms: C13_20  and  C14_22 
REMARK    8  A    between atoms: C17_25  and  C18_26 
REMARK       I    between atoms: C18_26  and  N4_28 
REMARK    9  A    between atoms: C21_34  and  C22_35 
REMARK   10  A    between atoms: C22_35  and  C23_36 
REMARK   11  A    between atoms: C23_36  and  S1_37 
REMARK   12  A    between atoms: S1_37  and  N6_38 
REMARK   13  A    between atoms: C26_49  and  O7_50 
REMARK   14  A    between atoms: C26_49  and  N9_52 
ROOT
HETATM    1  N3  UNL     1      -0.607  -1.860   0.735  1.00  0.00    -0.260 N 
ATOM      2  H3  UNL     1      -0.808  -1.201  -0.017  1.00  0.00     0.190 HD
HETATM    3  C13 UNL     1       0.710  -2.357   0.953  1.00  0.00     0.270 C 
HETATM    4  O3  UNL     1       0.970  -3.181   1.886  1.00  0.00    -0.266 OA
ENDROOT
BRANCH   3   5
HETATM    5  C14 UNL     1       1.819  -1.945   0.117  1.00  0.00     0.033 A 
HETATM    6  C15 UNL     1       3.113  -2.430   0.352  1.00  0.00     0.018 A 
HETATM    7  C16 UNL     1       4.193  -2.075  -0.405  1.00  0.00     0.018 A 
HETATM    8  C17 UNL     1       4.048  -1.189  -1.477  1.00  0.00     0.032 A 
HETATM    9  C24 UNL     1       2.787  -0.705  -1.721  1.00  0.00     0.018 A 
HETATM   10  C25 UNL     1       1.701  -1.080  -0.936  1.00  0.00     0.018 A 
BRANCH   8  11
HETATM   11  C18 UNL     1       5.198  -0.810  -2.285  1.00  0.00     0.257 C 
HETATM   12  O4  UNL     1       5.060  -0.024  -3.236  1.00  0.00    -0.267 OA
HETATM   13  N4  UNL     1       6.472  -1.337  -1.986  1.00  0.00    -0.307 N 
HETATM   14  C19 UNL     1       7.292  -0.645  -1.277  1.00  0.00     0.138 A 
ATOM     15  H4  UNL     1       6.741  -2.259  -2.329  1.00  0.00     0.170 HD
HETATM   16  C20 UNL     1       6.939   0.602  -0.809  1.00  0.00     0.139 A 
HETATM   17  N8  UNL     1       8.511  -1.118  -0.974  1.00  0.00    -0.283 N 
HETATM   18  N5  UNL     1       7.774   1.346  -0.067  1.00  0.00    -0.351 N 
HETATM   19  C21 UNL     1       8.992   0.849   0.224  1.00  0.00     0.096 A 
ATOM     20  H5  UNL     1       7.493   2.267   0.269  1.00  0.00     0.166 HD
HETATM   21  N7  UNL     1       9.331  -0.387  -0.245  1.00  0.00    -0.287 N 
ATOM     22  H7  UNL     1      10.254  -0.760  -0.023  1.00  0.00     0.188 HD
ATOM     23  H8  UNL     1       8.801  -2.038  -1.306  1.00  0.00     0.188 HD
BRANCH  19  24
HETATM   24  C22 UNL     1      10.002   1.544   1.021  1.00  0.00     0.094 C 
BRANCH  24  25
HETATM   25  C23 UNL     1      11.030   2.335   0.313  1.00  0.00     0.170 C 
BRANCH  25  26
HETATM   26  S1  UNL     1      10.451   3.652  -0.693  1.00  0.00     0.224 S 
HETATM   27  O5  UNL     1       9.734   4.664   0.184  1.00  0.00    -0.206 OA
HETATM   28  O6  UNL     1      11.662   4.354  -1.274  1.00  0.00    -0.206 OA
BRANCH  26  29
HETATM   29  N6  UNL     1       9.477   3.158  -1.989  1.00  0.00    -0.328 N 
ATOM     30  H62 UNL     1       9.256   2.176  -2.156  1.00  0.00     0.168 HD
ATOM     31  H61 UNL     1       9.141   3.923  -2.574  1.00  0.00     0.168 HD
ENDBRANCH  26  29
ENDBRANCH  25  26
ENDBRANCH  24  25
ENDBRANCH  19  24
ENDBRANCH   8  11
ENDBRANCH   3   5
BRANCH   1  32
HETATM   32  N2  UNL     1      -1.604  -2.309   1.587  1.00  0.00    -0.245 N 
BRANCH  32  33
HETATM   33  C12 UNL     1      -1.472  -1.875   2.996  1.00  0.00     0.256 C 
BRANCH  33  34
HETATM   34  C11 UNL     1      -2.191  -0.591   3.201  1.00  0.00     0.242 C 
HETATM   35  N1  UNL     1      -2.888   0.088   2.185  1.00  0.00    -0.320 N 
HETATM   36  C10 UNL     1      -4.176   0.223   2.137  1.00  0.00     0.077 A 
ATOM     37  H1  UNL     1      -2.340   0.504   1.432  1.00  0.00     0.169 HD
HETATM   38  C9  UNL     1      -4.964  -0.320   3.130  1.00  0.00     0.037 A 
HETATM   39  S2  UNL     1      -5.024   1.039   0.917  1.00  0.00    -0.072 SA
HETATM   40  C8  UNL     1      -6.322  -0.248   3.193  1.00  0.00     0.004 A 
HETATM   41  C7  UNL     1      -7.144   0.379   2.278  1.00  0.00     0.020 A 
HETATM   42  C6  UNL     1      -6.735   1.034   1.152  1.00  0.00     0.017 A 
HETATM   43  O2  UNL     1      -2.187  -0.065   4.350  1.00  0.00    -0.271 OA
BRANCH  42  44
HETATM   44  C5  UNL     1      -7.646   1.682   0.214  1.00  0.00    -0.019 A 
HETATM   45  C4  UNL     1      -7.123   2.319  -0.888  1.00  0.00     0.015 A 
HETATM   46  C3  UNL     1      -7.970   2.942  -1.800  1.00  0.00     0.037 A 
HETATM   47  C2  UNL     1      -9.340   2.939  -1.628  1.00  0.00     0.068 A 
HETATM   48  C30 UNL     1      -9.840   2.295  -0.517  1.00  0.00     0.037 A 
HETATM   49  C29 UNL     1      -8.975   1.667   0.401  1.00  0.00     0.015 A 
BRANCH  47  50
HETATM   50  O1  UNL     1     -10.195   3.561  -2.538  1.00  0.00    -0.356 OA
HETATM   51  C1  UNL     1      -9.602   4.208  -3.664  1.00  0.00     0.210 C 
ENDBRANCH  47  50
ENDBRANCH  42  44
ENDBRANCH  33  34
ENDBRANCH  32  33
BRANCH  32  52
HETATM   52  C26 UNL     1      -2.657  -3.115   1.190  1.00  0.00     0.236 C 
BRANCH  52  53
HETATM   53  O7  UNL     1      -3.500  -3.493   2.109  1.00  0.00    -0.331 OA
ATOM     54  H7  UNL     1      -4.223  -4.046   1.837  1.00  0.00     0.221 HD
ENDBRANCH  52  53
BRANCH  52  55
HETATM   55  N9  UNL     1      -2.944  -3.586  -0.083  1.00  0.00    -0.355 N 
HETATM   56  C27 UNL     1      -4.119  -4.461  -0.328  1.00  0.00     0.152 C 
HETATM   57  C28 UNL     1      -2.182  -3.284  -1.253  1.00  0.00     0.152 C 
ENDBRANCH  52  55
ENDBRANCH  32  52
ENDBRANCH   1  32
TORSDOF 14
