REMARK  11 active torsions:
REMARK  status: ('A' for Active; 'I' for Inactive)
REMARK    1  A    between atoms: C5_5  and  S1_6 
REMARK    2  A    between atoms: S1_6  and  N1_9 
REMARK    3  A    between atoms: N1_9  and  C6_11 
REMARK    4  A    between atoms: C7_14  and  C8_15 
REMARK    5  A    between atoms: N5_21  and  C10_22 
REMARK    6  A    between atoms: C10_22  and  N6_23 
REMARK       I    between atoms: N6_23  and  C11_25 
REMARK    7  A    between atoms: C11_25  and  C12_27 
REMARK       I    between atoms: C12_27  and  N7_29 
REMARK    8  A    between atoms: C15_32  and  C16_33 
REMARK    9  A    between atoms: C16_33  and  C17_34 
REMARK   10  A    between atoms: C20_37  and  C21_38 
REMARK   11  A    between atoms: C24_41  and  S2_42 
ROOT
HETATM    1  C6  UNL     1      -1.795  -0.447  -0.506  1.00  0.00     0.721 A 
HETATM    2  N2  UNL     1      -2.022  -1.576   0.174  1.00  0.00    -0.182 N 
ATOM      3  H2  UNL     1      -2.485  -2.402  -0.204  1.00  0.00     0.184 HD
HETATM    4  C7  UNL     1      -1.547  -1.464   1.440  1.00  0.00     0.141 A 
HETATM    5  C9  UNL     1      -1.007  -0.206   1.517  1.00  0.00     0.117 A 
HETATM    6  N4  UNL     1      -1.151   0.428   0.346  1.00  0.00    -0.030 N 
HETATM    7  O4  UNL     1      -0.627   1.696   0.431  1.00  0.00    -0.158 OA
HETATM    8  N5  UNL     1      -0.579   2.001   1.758  1.00  0.00    -0.138 NA
HETATM    9  C15 UNL     1      -0.283   0.809   2.377  1.00  0.00     0.169 C 
ENDROOT
BRANCH   9  10
HETATM   10  C16 UNL     1       1.025   0.413   2.853  1.00  0.00     0.013 C 
BRANCH  10  11
HETATM   11  C17 UNL     1       2.114   0.073   1.976  1.00  0.00    -0.038 A 
HETATM   12  C18 UNL     1       2.271  -1.195   1.460  1.00  0.00     0.012 A 
HETATM   13  C19 UNL     1       3.317  -1.579   0.659  1.00  0.00     0.013 A 
HETATM   14  C20 UNL     1       4.299  -0.673   0.322  1.00  0.00    -0.026 A 
HETATM   15  C28 UNL     1       4.176   0.612   0.820  1.00  0.00     0.013 A 
HETATM   16  C29 UNL     1       3.120   0.968   1.618  1.00  0.00     0.012 A 
BRANCH  14  17
HETATM   17  C21 UNL     1       5.446  -1.052  -0.513  1.00  0.00    -0.026 A 
HETATM   18  C22 UNL     1       5.321  -1.998  -1.496  1.00  0.00     0.014 A 
HETATM   19  C23 UNL     1       6.440  -2.371  -2.255  1.00  0.00     0.024 A 
HETATM   20  C24 UNL     1       7.662  -1.802  -2.030  1.00  0.00     0.058 A 
HETATM   21  C26 UNL     1       7.805  -0.848  -1.048  1.00  0.00     0.024 A 
HETATM   22  C27 UNL     1       6.697  -0.496  -0.315  1.00  0.00     0.014 A 
BRANCH  20  23
HETATM   23  S2  UNL     1       9.102  -2.253  -2.929  1.00  0.00     0.171 S 
HETATM   24  C25 UNL     1       9.401  -1.222  -4.308  1.00  0.00     0.167 C 
HETATM   25  O7  UNL     1       8.991  -3.711  -3.320  1.00  0.00    -0.223 OA
HETATM   26  O8  UNL     1      10.267  -2.171  -1.958  1.00  0.00    -0.223 OA
ENDBRANCH  20  23
ENDBRANCH  14  17
ENDBRANCH  10  11
ENDBRANCH   9  10
BRANCH   8  27
HETATM   27  C10 UNL     1       0.115   3.196   1.937  1.00  0.00     0.248 C 
BRANCH  27  28
HETATM   28  N6  UNL     1      -0.670   4.296   1.360  1.00  0.00    -0.339 N 
HETATM   29  C11 UNL     1      -1.965   4.598   1.953  1.00  0.00     0.310 C 
HETATM   30  O5  UNL     1      -2.327   3.892   2.927  1.00  0.00    -0.262 OA
ATOM     31  H6  UNL     1      -0.318   4.832   0.567  1.00  0.00     0.164 HD
BRANCH  29  32
HETATM   32  C12 UNL     1      -2.791   5.657   1.451  1.00  0.00     0.310 C 
HETATM   33  O6  UNL     1      -2.438   6.345   0.431  1.00  0.00    -0.262 OA
HETATM   34  N7  UNL     1      -4.023   5.984   2.057  1.00  0.00    -0.353 N 
HETATM   35  C13 UNL     1      -4.505   5.274   3.208  1.00  0.00     0.152 C 
HETATM   36  C14 UNL     1      -4.848   7.080   1.517  1.00  0.00     0.152 C 
ENDBRANCH  29  32
ENDBRANCH  27  28
ENDBRANCH   8  27
BRANCH   4  37
HETATM   37  C8  UNL     1      -1.608  -2.466   2.477  1.00  0.00     0.284 C 
HETATM   38  N3  UNL     1      -2.185  -3.729   2.187  1.00  0.00    -0.056 NA
HETATM   39  O3  UNL     1      -1.182  -2.311   3.648  1.00  0.00    -0.269 OA
ENDBRANCH   4  37
BRANCH   1  40
HETATM   40  N1  UNL     1      -2.071  -0.145  -1.708  1.00  0.00    -0.110 N 
ATOM     41  H1  UNL     1      -1.774   0.800  -1.952  1.00  0.00     0.197 HD
BRANCH  40  42
HETATM   42  S1  UNL     1      -2.802  -0.929  -2.972  1.00  0.00     0.276 S 
HETATM   43  O1  UNL     1      -3.299   0.093  -3.978  1.00  0.00    -0.200 OA
HETATM   44  O2  UNL     1      -1.758  -1.802  -3.690  1.00  0.00    -0.200 OA
BRANCH  42  45
HETATM   45  C5  UNL     1      -4.125  -1.994  -2.615  1.00  0.00     0.080 A 
HETATM   46  C4  UNL     1      -4.005  -3.368  -2.574  1.00  0.00     0.026 A 
HETATM   47  C3  UNL     1      -5.080  -4.167  -2.284  1.00  0.00     0.008 A 
HETATM   48  C2  UNL     1      -6.336  -3.640  -2.022  1.00  0.00    -0.062 A 
HETATM   49  C1  UNL     1      -7.516  -4.472  -1.702  1.00  0.00     0.048 C 
HETATM   50  C31 UNL     1      -6.469  -2.284  -2.059  1.00  0.00     0.008 A 
HETATM   51  C30 UNL     1      -5.393  -1.469  -2.348  1.00  0.00     0.026 A 
ENDBRANCH  42  45
ENDBRANCH  40  42
ENDBRANCH   1  40
TORSDOF 11
