REMARK  14 active torsions:
REMARK  status: ('A' for Active; 'I' for Inactive)
REMARK       I    between atoms: C1_4  and  N3_6 
REMARK    1  A    between atoms: C5_10  and  C6_11 
REMARK       I    between atoms: C6_11  and  N4_13 
REMARK    2  A    between atoms: N4_13  and  C7_15 
REMARK    3  A    between atoms: C7_15  and  C8_16 
REMARK    4  A    between atoms: C7_15  and  C24_41 
REMARK    5  A    between atoms: C8_16  and  C9_17 
REMARK    6  A    between atoms: C9_17  and  C10_18 
REMARK    7  A    between atoms: C13_21  and  O2_22 
REMARK    8  A    between atoms: O2_22  and  C14_23 
REMARK    9  A    between atoms: C14_23  and  C15_24 
REMARK   10  A    between atoms: C17_29  and  C18_30 
REMARK   11  A    between atoms: C18_30  and  C19_31 
REMARK   12  A    between atoms: C19_31  and  C20_32 
REMARK   13  A    between atoms: C20_32  and  N6_33 
REMARK   14  A    between atoms: C24_41  and  C25_42 
ROOT
HETATM    1  C8  UNL     1      -2.461  -0.662   0.332  1.00  0.00     0.030 C 
ENDROOT
BRANCH   1   2
HETATM    2  C7  UNL     1      -3.842  -1.152   0.399  1.00  0.00     0.089 C 
BRANCH   2   3
HETATM    3  N4  UNL     1      -4.641   0.141   0.547  1.00  0.00    -0.354 N 
HETATM    4  C6  UNL     1      -5.094   0.447   1.819  1.00  0.00     0.241 C 
HETATM    5  O1  UNL     1      -4.833  -0.341   2.790  1.00  0.00    -0.271 OA
ATOM      6  H4  UNL     1      -4.831   0.748  -0.250  1.00  0.00     0.162 HD
BRANCH   4   7
HETATM    7  C5  UNL     1      -5.870   1.649   2.134  1.00  0.00     0.179 C 
HETATM    8  N3  UNL     1      -6.202   2.472   1.005  1.00  0.00    -0.342 N 
HETATM    9  C1  UNL     1      -5.281   3.246   0.260  1.00  0.00     0.184 C 
HETATM   10  C2  UNL     1      -7.634   2.406   0.747  1.00  0.00     0.126 C 
HETATM   11  N1  UNL     1      -5.559   3.689  -0.920  1.00  0.00    -0.374 N 
HETATM   12  N2  UNL     1      -4.008   3.566   0.786  1.00  0.00    -0.064 NA
ATOM     13  H12 UNL     1      -4.895   4.247  -1.457  1.00  0.00     0.158 HD
ATOM     14  H11 UNL     1      -6.477   3.458  -1.299  1.00  0.00     0.158 HD
HETATM   15  C3  UNL     1      -8.187   2.156   2.139  1.00  0.00     0.022 C 
HETATM   16  C4  UNL     1      -7.178   1.216   2.715  1.00  0.00     0.037 C 
ENDBRANCH   4   7
ENDBRANCH   2   3
BRANCH   2  17
HETATM   17  C24 UNL     1      -4.443  -1.809  -0.763  1.00  0.00     0.063 C 
BRANCH  17  18
HETATM   18  C25 UNL     1      -3.972  -3.110  -1.239  1.00  0.00    -0.056 A 
HETATM   19  C26 UNL     1      -4.324  -4.290  -0.591  1.00  0.00     0.010 A 
HETATM   20  C27 UNL     1      -3.960  -5.509  -1.066  1.00  0.00     0.043 A 
HETATM   21  C28 UNL     1      -3.214  -5.624  -2.230  1.00  0.00     0.116 A 
HETATM   22  F1  UNL     1      -2.829  -6.805  -2.744  1.00  0.00    -0.206 F 
HETATM   23  C29 UNL     1      -2.852  -4.477  -2.894  1.00  0.00     0.043 A 
HETATM   24  C30 UNL     1      -3.223  -3.259  -2.406  1.00  0.00     0.010 A 
ENDBRANCH  17  18
ENDBRANCH   2  17
ENDBRANCH   1   2
BRANCH   1  25
HETATM   25  C9  UNL     1      -1.318  -1.592   0.267  1.00  0.00     0.040 C 
BRANCH  25  26
HETATM   26  C10 UNL     1      -0.071  -0.735   0.270  1.00  0.00    -0.058 A 
HETATM   27  C11 UNL     1       0.513  -0.388  -0.920  1.00  0.00     0.010 A 
HETATM   28  C12 UNL     1       1.635   0.412  -0.967  1.00  0.00     0.037 A 
HETATM   29  C13 UNL     1       2.179   0.876   0.238  1.00  0.00     0.068 A 
HETATM   30  C22 UNL     1       1.541   0.492   1.445  1.00  0.00     0.037 A 
HETATM   31  C23 UNL     1       0.435  -0.300   1.478  1.00  0.00     0.010 A 
BRANCH  29  32
HETATM   32  O2  UNL     1       3.231   1.629   0.238  1.00  0.00    -0.350 OA
BRANCH  32  33
HETATM   33  C14 UNL     1       4.280   2.377   0.194  1.00  0.00     0.189 C 
BRANCH  33  34
HETATM   34  C15 UNL     1       5.555   1.788  -0.400  1.00  0.00     0.107 C 
HETATM   35  C16 UNL     1       5.439   1.362  -1.820  1.00  0.00     0.247 C 
HETATM   36  N5  UNL     1       6.549   0.435  -1.965  1.00  0.00    -0.063 N 
HETATM   37  C17 UNL     1       6.616  -0.307  -0.720  1.00  0.00     0.255 C 
ATOM     38  H52 UNL     1       6.477  -0.160  -2.790  1.00  0.00     0.278 HD
ATOM     39  H51 UNL     1       7.428   0.888  -2.216  1.00  0.00     0.278 HD
HETATM   40  C21 UNL     1       5.936   0.539   0.284  1.00  0.00     0.165 C 
HETATM   41  O3  UNL     1       5.727   0.269   1.443  1.00  0.00    -0.295 OA
BRANCH  37  42
HETATM   42  C18 UNL     1       8.031  -0.636  -0.298  1.00  0.00     0.042 C 
BRANCH  42  43
HETATM   43  C19 UNL     1       8.867   0.599  -0.086  1.00  0.00     0.030 C 
BRANCH  43  44
HETATM   44  C20 UNL     1      10.267   0.194   0.342  1.00  0.00     0.230 C 
BRANCH  44  45
HETATM   45  N6  UNL     1      10.919  -0.626  -0.658  1.00  0.00    -0.079 N 
ATOM     46  H63 UNL     1      10.353  -1.441  -0.897  1.00  0.00     0.274 HD
ATOM     47  H62 UNL     1      10.928  -0.165  -1.568  1.00  0.00     0.274 HD
ATOM     48  H61 UNL     1      11.859  -0.898  -0.371  1.00  0.00     0.274 HD
ENDBRANCH  44  45
ENDBRANCH  43  44
ENDBRANCH  42  43
ENDBRANCH  37  42
ENDBRANCH  33  34
ENDBRANCH  32  33
ENDBRANCH  29  32
ENDBRANCH  25  26
ENDBRANCH   1  25
TORSDOF 14
