REMARK  4 active torsions:
REMARK  status: ('A' for Active; 'I' for Inactive)
REMARK    1  A    between atoms: C2_2  and  N1_4 
REMARK    2  A    between atoms: C4_7  and  C5_8 
REMARK    3  A    between atoms: C5_8  and  O1_9 
REMARK    4  A    between atoms: C5_8  and  C6_11 
ROOT
HETATM    1  N1  UNL     1      -1.678   0.662  -0.268  1.00  0.00    -0.291 N 
HETATM    2  N2  UNL     1      -0.368   0.522  -0.323  1.00  0.00    -0.299 N 
ATOM      3  H2  UNL     1       0.293   1.270  -0.533  1.00  0.00     0.187 HD
HETATM    4  C4  UNL     1      -0.035  -0.742  -0.063  1.00  0.00     0.067 A 
HETATM    5  C11 UNL     1      -1.202  -1.428   0.166  1.00  0.00     0.016 A 
HETATM    6  C12 UNL     1      -2.231  -0.523   0.032  1.00  0.00     0.041 A 
HETATM    7  C13 UNL     1      -3.659  -0.908   0.213  1.00  0.00     0.085 C 
HETATM    8  C14 UNL     1      -3.711  -2.375   0.663  1.00  0.00     0.174 C 
HETATM    9  O2  UNL     1      -2.765  -3.124  -0.060  1.00  0.00    -0.386 OA
HETATM   10  C15 UNL     1      -1.531  -2.826   0.500  1.00  0.00     0.210 C 
ENDROOT
BRANCH   4  11
HETATM   11  C5  UNL     1       1.323  -1.329  -0.023  1.00  0.00     0.200 C 
BRANCH  11  12
HETATM   12  O1  UNL     1       1.395  -2.243  -1.101  1.00  0.00    -0.387 OA
ATOM     13  H1  UNL     1       2.267  -2.620  -1.075  1.00  0.00     0.210 HD
ENDBRANCH  11  12
BRANCH  11  14
HETATM   14  C6  UNL     1       2.402  -0.309  -0.270  1.00  0.00     0.220 C 
HETATM   15  C7  UNL     1       2.549   0.698   0.820  1.00  0.00     0.036 C 
HETATM   16  C8  UNL     1       3.657   1.664   0.386  1.00  0.00     0.004 C 
HETATM   17  C9  UNL     1       4.936   0.933   0.093  1.00  0.00     0.027 C 
HETATM   18  C10 UNL     1       4.643  -0.183  -0.889  1.00  0.00     0.233 C 
HETATM   19  N3  UNL     1       3.669  -1.061  -0.301  1.00  0.00    -0.068 N 
ATOM     20  H32 UNL     1       3.948  -1.423   0.611  1.00  0.00     0.277 HD
ATOM     21  H31 UNL     1       3.595  -1.961  -0.776  1.00  0.00     0.277 HD
ENDBRANCH  11  14
ENDBRANCH   4  11
BRANCH   1  22
HETATM   22  C2  UNL     1      -2.424   1.909  -0.496  1.00  0.00     0.100 C 
HETATM   23  C1  UNL     1      -3.705   1.706  -1.224  1.00  0.00     0.034 C 
HETATM   24  C3  UNL     1      -2.599   2.680   0.773  1.00  0.00     0.034 C 
ENDBRANCH   1  22
TORSDOF 4
