REMARK  6 active torsions:
REMARK  status: ('A' for Active; 'I' for Inactive)
REMARK    1  A    between atoms: C2_2  and  N1_3 
REMARK    2  A    between atoms: C2_2  and  C3_7 
REMARK    3  A    between atoms: C3_7  and  S1_8 
REMARK    4  A    between atoms: S1_8  and  C4_9 
REMARK    5  A    between atoms: C4_9  and  C6_14 
REMARK    6  A    between atoms: C9_17  and  C10_18 
ROOT
HETATM    1  C4  UNL     1       1.513  -0.107   0.029  1.00  0.00     0.077 C 
HETATM    2  N2  UNL     1       1.835  -1.195   0.508  1.00  0.00    -0.290 N 
ATOM      3  H2  UNL     1       2.777  -1.223   0.898  1.00  0.00     0.178 HD
HETATM    4  C5  UNL     1       1.151  -2.362   0.606  1.00  0.00     0.182 C 
HETATM    5  N3  UNL     1       0.583  -3.392   0.700  1.00  0.00    -0.172 NA
ENDROOT
BRANCH   1   6
HETATM    6  S1  UNL     1       2.688   1.248   0.067  1.00  0.00    -0.112 SA
BRANCH   6   7
HETATM    7  C3  UNL     1       4.308   0.801   0.622  1.00  0.00     0.113 C 
BRANCH   7   8
HETATM    8  C2  UNL     1       5.065   0.025  -0.400  1.00  0.00     0.189 C 
HETATM    9  C1  UNL     1       6.441  -0.293   0.204  1.00  0.00     0.040 C 
BRANCH   8  10
HETATM   10  N1  UNL     1       4.497  -1.204  -0.821  1.00  0.00    -0.075 N 
ATOM     11  H13 UNL     1       5.101  -1.726  -1.456  1.00  0.00     0.274 HD
ATOM     12  H12 UNL     1       4.455  -1.900  -0.077  1.00  0.00     0.274 HD
ATOM     13  H11 UNL     1       3.583  -0.993  -1.222  1.00  0.00     0.274 HD
ENDBRANCH   8  10
ENDBRANCH   7   8
ENDBRANCH   6   7
ENDBRANCH   1   6
BRANCH   1  14
HETATM   14  C6  UNL     1       0.207   0.214  -0.569  1.00  0.00     0.164 C 
HETATM   15  C7  UNL     1      -0.357   1.463   0.093  1.00  0.00     0.033 C 
HETATM   16  C8  UNL     1      -1.846   1.490   0.099  1.00  0.00     0.037 C 
HETATM   17  C9  UNL     1      -2.525   0.507  -0.788  1.00  0.00     0.154 C 
HETATM   18  O1  UNL     1      -1.795  -0.589  -1.167  1.00  0.00    -0.280 OA
HETATM   19  N4  UNL     1      -0.724  -0.843  -0.382  1.00  0.00    -0.089 NA
BRANCH  17  20
HETATM   20  C10 UNL     1      -3.856   0.029  -0.249  1.00  0.00    -0.023 C 
HETATM   21  C11 UNL     1      -4.835   1.158  -0.061  1.00  0.00     0.017 C 
HETATM   22  C12 UNL     1      -4.440  -0.890  -1.318  1.00  0.00     0.017 C 
HETATM   23  C13 UNL     1      -3.727  -0.801   0.996  1.00  0.00     0.017 C 
ENDBRANCH  17  20
ENDBRANCH   1  14
TORSDOF 6
