REMARK  4 active torsions:
REMARK  status: ('A' for Active; 'I' for Inactive)
REMARK    1  A    between atoms: C2_2  and  C3_3 
REMARK    2  A    between atoms: C3_3  and  O1_4 
REMARK    3  A    between atoms: O1_4  and  C4_5 
REMARK       I    between atoms: C4_5  and  N1_7 
REMARK       I    between atoms: N1_7  and  C5_9 
REMARK       I    between atoms: C5_9  and  N2_11 
REMARK    4  A    between atoms: N2_11  and  C6_13 
ROOT
HETATM    1  C4  UNL     1       3.279  -0.265   1.690  1.00  0.00     0.368 C 
HETATM    2  O2  UNL     1       4.486  -0.434   2.119  1.00  0.00    -0.238 OA
HETATM    3  N1  UNL     1       2.190  -0.733   2.458  1.00  0.00    -0.255 N 
ATOM      4  H1  UNL     1       2.421  -1.194   3.338  1.00  0.00     0.175 HD
HETATM    5  C5  UNL     1       0.837  -0.635   2.148  1.00  0.00     0.326 C 
HETATM    6  O3  UNL     1       0.005  -1.134   2.999  1.00  0.00    -0.247 OA
HETATM    7  N2  UNL     1       0.300  -0.041   0.985  1.00  0.00    -0.310 N 
ATOM      8  H2  UNL     1       0.934   0.360   0.294  1.00  0.00     0.167 HD
ENDROOT
BRANCH   7   9
HETATM    9  C6  UNL     1      -1.116   0.013   0.751  1.00  0.00     0.139 C 
HETATM   10  C7  UNL     1      -1.917   0.743   1.778  1.00  0.00     0.062 C 
HETATM   11  C8  UNL     1      -3.171   1.211   1.019  1.00  0.00     0.017 C 
HETATM   12  C9  UNL     1      -2.979   0.591  -0.340  1.00  0.00    -0.009 C 
HETATM   13  C10 UNL     1      -3.792   1.114  -1.430  1.00  0.00     0.018 C 
HETATM   14  C11 UNL     1      -1.462   0.841  -0.501  1.00  0.00     0.073 C 
HETATM   15  C12 UNL     1      -2.909  -0.914  -0.205  1.00  0.00     0.064 C 
HETATM   16  C13 UNL     1      -2.747  -1.531  -1.595  1.00  0.00     0.046 C 
HETATM   17  C14 UNL     1      -4.109  -1.527   0.419  1.00  0.00     0.046 C 
HETATM   18  O4  UNL     1      -1.717  -1.186   0.470  1.00  0.00    -0.350 OA
ENDBRANCH   7   9
BRANCH   1  19
HETATM   19  O1  UNL     1       3.207   0.379   0.480  1.00  0.00    -0.304 OA
BRANCH  19  20
HETATM   20  C3  UNL     1       4.279   0.842  -0.294  1.00  0.00     0.180 C 
BRANCH  20  21
HETATM   21  C2  UNL     1       5.226  -0.221  -0.766  1.00  0.00     0.022 C 
HETATM   22  C1  UNL     1       6.354   0.354  -1.597  1.00  0.00     0.007 C 
ENDBRANCH  20  21
ENDBRANCH  19  20
ENDBRANCH   1  19
TORSDOF 4
