REMARK  12 active torsions:
REMARK  status: ('A' for Active; 'I' for Inactive)
REMARK    1  A    between atoms: C4_4  and  O1_5 
REMARK    2  A    between atoms: O1_5  and  C5_6 
REMARK    3  A    between atoms: C5_6  and  C6_7 
REMARK    4  A    between atoms: C6_7  and  C7_8 
REMARK    5  A    between atoms: C7_8  and  C8_9 
REMARK    6  A    between atoms: C8_9  and  C9_10 
REMARK    7  A    between atoms: C9_10  and  C10_11 
REMARK    8  A    between atoms: C10_11  and  N1_12 
REMARK    9  A    between atoms: C16_21  and  C17_22 
REMARK       I    between atoms: C17_22  and  N3_24 
REMARK   10  A    between atoms: N3_24  and  C18_26 
REMARK   11  A    between atoms: C22_33  and  N5_34 
REMARK   12  A    between atoms: N5_34  and  C23_36 
ROOT
HETATM    1  C6  UNL     1      -1.123   0.370  -1.226  1.00  0.00     0.116 C 
HETATM    2  C15 UNL     1      -1.312   1.524  -0.311  1.00  0.00     0.108 C 
HETATM    3  C16 UNL     1      -1.692   2.602  -1.291  1.00  0.00     0.102 C 
HETATM    4  N4  UNL     1      -2.073   2.021  -2.375  1.00  0.00    -0.264 N 
ATOM      5  H4  UNL     1      -2.386   2.522  -3.207  1.00  0.00     0.194 HD
HETATM    6  O3  UNL     1      -2.012   0.656  -2.287  1.00  0.00    -0.266 OA
ENDROOT
BRANCH   1   7
HETATM    7  C5  UNL     1       0.256   0.304  -1.813  1.00  0.00     0.216 C 
BRANCH   7   8
HETATM    8  O1  UNL     1       1.260   0.030  -0.887  1.00  0.00    -0.348 OA
BRANCH   8   9
HETATM    9  C4  UNL     1       2.580  -0.045  -1.381  1.00  0.00     0.074 A 
HETATM   10  C3  UNL     1       2.871   0.140  -2.712  1.00  0.00     0.061 A 
HETATM   11  C2  UNL     1       4.159   0.067  -3.192  1.00  0.00     0.009 A 
HETATM   12  C1  UNL     1       4.448   0.272  -4.651  1.00  0.00     0.068 C 
HETATM   13  N6  UNL     1       5.138  -0.192  -2.318  1.00  0.00    -0.346 N 
HETATM   14  C22 UNL     1       4.907  -0.385  -0.979  1.00  0.00     0.104 A 
ATOM     15  H6  UNL     1       6.097  -0.248  -2.661  1.00  0.00     0.167 HD
HETATM   16  C21 UNL     1       3.620  -0.313  -0.497  1.00  0.00     0.085 A 
BRANCH  14  17
HETATM   17  N5  UNL     1       5.921  -0.620  -0.219  1.00  0.00    -0.372 N 
ATOM     18  H5  UNL     1       6.860  -0.665  -0.614  1.00  0.00     0.161 HD
BRANCH  17  19
HETATM   19  C23 UNL     1       5.718  -0.818   1.192  1.00  0.00     0.083 C 
HETATM   20  C24 UNL     1       5.275  -2.224   1.532  1.00  0.00     0.025 C 
HETATM   21  C25 UNL     1       6.554  -3.050   1.641  1.00  0.00     0.002 C 
HETATM   22  C26 UNL     1       7.685  -2.062   1.386  1.00  0.00     0.002 C 
HETATM   23  C27 UNL     1       7.066  -0.777   1.933  1.00  0.00     0.025 C 
ENDBRANCH  17  19
ENDBRANCH  14  17
ENDBRANCH   8   9
ENDBRANCH   7   8
ENDBRANCH   1   7
BRANCH   1  24
HETATM   24  C7  UNL     1      -1.509  -0.957  -0.657  1.00  0.00     0.043 C 
BRANCH  24  25
HETATM   25  C8  UNL     1      -2.862  -1.015  -0.048  1.00  0.00     0.005 C 
BRANCH  25  26
HETATM   26  C9  UNL     1      -3.081  -2.442   0.472  1.00  0.00     0.030 C 
BRANCH  26  27
HETATM   27  C10 UNL     1      -4.439  -2.580   1.107  1.00  0.00     0.272 C 
BRANCH  27  28
HETATM   28  N1  UNL     1      -4.681  -1.735   2.209  1.00  0.00     0.091 N 
HETATM   29  C11 UNL     1      -3.951  -1.976   3.395  1.00  0.00     0.300 C 
HETATM   30  C12 UNL     1      -4.602  -2.871   4.388  1.00  0.00     0.262 C 
HETATM   31  N2  UNL     1      -5.671  -3.680   3.867  1.00  0.00    -0.072 N 
HETATM   32  C13 UNL     1      -6.608  -2.980   3.055  1.00  0.00     0.262 C 
ATOM     33  H22 UNL     1      -5.294  -4.481   3.361  1.00  0.00     0.277 HD
ATOM     34  H21 UNL     1      -6.152  -4.162   4.627  1.00  0.00     0.277 HD
HETATM   35  C14 UNL     1      -6.089  -1.686   2.500  1.00  0.00     0.300 C 
ENDBRANCH  27  28
ENDBRANCH  26  27
ENDBRANCH  25  26
ENDBRANCH  24  25
ENDBRANCH   1  24
BRANCH   3  36
HETATM   36  C17 UNL     1      -1.636   4.033  -1.042  1.00  0.00     0.266 C 
HETATM   37  O2  UNL     1      -1.242   4.459   0.073  1.00  0.00    -0.266 OA
HETATM   38  N3  UNL     1      -2.021   4.950  -2.041  1.00  0.00    -0.351 N 
ATOM     39  H3  UNL     1      -2.338   4.604  -2.947  1.00  0.00     0.163 HD
BRANCH  38  40
HETATM   40  C18 UNL     1      -1.973   6.363  -1.801  1.00  0.00     0.084 A 
HETATM   41  C19 UNL     1      -1.661   7.346  -2.857  1.00  0.00     0.027 A 
HETATM   42  C20 UNL     1      -3.106   7.130  -2.383  1.00  0.00     0.027 A 
ENDBRANCH  38  40
ENDBRANCH   3  36
TORSDOF 12
