REMARK  14 active torsions:
REMARK  status: ('A' for Active; 'I' for Inactive)
REMARK    1  A    between atoms: C2_2  and  C3_3 
REMARK    2  A    between atoms: C3_3  and  C5_5 
REMARK    3  A    between atoms: C5_5  and  C6_6 
REMARK    4  A    between atoms: C8_8  and  N1_9 
REMARK       I    between atoms: N2_14  and  C10_15 
REMARK    5  A    between atoms: C10_15  and  C11_17 
REMARK    6  A    between atoms: C11_17  and  C12_18 
REMARK    7  A    between atoms: C11_17  and  C14_26 
REMARK    8  A    between atoms: C11_17  and  O5_41 
REMARK    9  A    between atoms: C12_18  and  C13_19 
REMARK   10  A    between atoms: C13_19  and  O2_20 
REMARK   11  A    between atoms: N3_22  and  O3_24 
REMARK   12  A    between atoms: C14_26  and  N4_27 
REMARK   13  A    between atoms: C17_30  and  C18_31 
REMARK   14  A    between atoms: C18_31  and  N5_32 
ROOT
HETATM    1  C11 UNL     1      -0.756  -0.400  -0.372  1.00  0.00     0.174 C 
ENDROOT
BRANCH   1   2
HETATM    2  C10 UNL     1      -2.230  -0.035  -0.426  1.00  0.00     0.257 C 
HETATM    3  N2  UNL     1      -3.297  -0.897  -0.317  1.00  0.00    -0.343 N 
HETATM    4  C6  UNL     1      -4.716  -0.508  -0.272  1.00  0.00     0.089 C 
HETATM    5  C9  UNL     1      -3.398  -2.335  -0.307  1.00  0.00     0.159 C 
HETATM    6  C7  UNL     1      -5.142  -1.289   0.963  1.00  0.00     0.059 C 
HETATM    7  C8  UNL     1      -4.511  -2.646   0.676  1.00  0.00     0.203 C 
HETATM    8  O1  UNL     1      -2.400   1.228  -0.601  1.00  0.00    -0.270 OA
BRANCH   4   9
HETATM    9  C5  UNL     1      -4.958   0.939  -0.116  1.00  0.00     0.029 C 
BRANCH   9  10
HETATM   10  C3  UNL     1      -6.468   1.117   0.114  1.00  0.00    -0.017 C 
HETATM   11  C4  UNL     1      -7.232   0.693  -1.101  1.00  0.00     0.010 C 
BRANCH  10  12
HETATM   12  C2  UNL     1      -6.679   2.629   0.269  1.00  0.00    -0.000 C 
HETATM   13  C1  UNL     1      -8.156   2.928   0.437  1.00  0.00     0.005 C 
ENDBRANCH  10  12
ENDBRANCH   9  10
ENDBRANCH   4   9
BRANCH   7  14
HETATM   14  N1  UNL     1      -4.017  -3.265   1.885  1.00  0.00    -0.073 N 
ATOM     15  H13 UNL     1      -3.372  -2.651   2.383  1.00  0.00     0.274 HD
ATOM     16  H12 UNL     1      -4.747  -3.335   2.594  1.00  0.00     0.274 HD
ATOM     17  H11 UNL     1      -3.595  -4.173   1.693  1.00  0.00     0.274 HD
ENDBRANCH   7  14
ENDBRANCH   1   2
BRANCH   1  18
HETATM   18  C12 UNL     1      -0.515  -0.814  -1.832  1.00  0.00     0.135 C 
BRANCH  18  19
HETATM   19  C13 UNL     1       0.808  -1.236  -2.211  1.00  0.00     0.138 C 
HETATM   20  N3  UNL     1       1.294  -2.417  -2.024  1.00  0.00    -0.251 N 
ATOM     21  H3  UNL     1       2.244  -2.646  -2.317  1.00  0.00     0.196 HD
BRANCH  19  22
HETATM   22  O2  UNL     1       1.710  -0.349  -2.843  1.00  0.00    -0.348 OA
ATOM     23  H2  UNL     1       2.583  -0.628  -3.093  1.00  0.00     0.219 HD
ENDBRANCH  19  22
BRANCH  20  24
HETATM   24  O3  UNL     1       0.498  -3.352  -1.421  1.00  0.00    -0.288 OA
ATOM     25  H3  UNL     1       0.856  -4.221  -1.283  1.00  0.00     0.244 HD
ENDBRANCH  20  24
ENDBRANCH  18  19
ENDBRANCH   1  18
BRANCH   1  26
HETATM   26  C14 UNL     1       0.027   0.825  -0.083  1.00  0.00     0.320 C 
BRANCH  26  27
HETATM   27  N4  UNL     1       1.434   0.812  -0.189  1.00  0.00     0.091 N 
HETATM   28  C15 UNL     1       2.224   0.067   0.713  1.00  0.00     0.273 C 
HETATM   29  C16 UNL     1       3.675   0.092   0.255  1.00  0.00     0.036 C 
HETATM   30  C17 UNL     1       4.249   1.465   0.176  1.00  0.00     0.007 C 
HETATM   31  C24 UNL     1       3.307   2.391  -0.570  1.00  0.00     0.036 C 
HETATM   32  C25 UNL     1       1.892   2.218  -0.138  1.00  0.00     0.273 C 
BRANCH  30  33
HETATM   33  C18 UNL     1       5.559   1.425  -0.566  1.00  0.00     0.130 C 
BRANCH  33  34
HETATM   34  N5  UNL     1       6.555   0.593   0.048  1.00  0.00    -0.352 N 
HETATM   35  C19 UNL     1       7.490   1.081   1.048  1.00  0.00     0.125 C 
HETATM   36  C20 UNL     1       8.747   0.236   0.898  1.00  0.00     0.020 C 
HETATM   37  C21 UNL     1       8.481  -1.185   1.347  1.00  0.00     0.011 C 
HETATM   38  C22 UNL     1       7.223  -1.745   0.716  1.00  0.00     0.103 C 
HETATM   39  C23 UNL     1       6.675  -0.779  -0.301  1.00  0.00     0.219 C 
HETATM   40  O4  UNL     1       6.336  -1.193  -1.432  1.00  0.00    -0.273 OA
ENDBRANCH  33  34
ENDBRANCH  30  33
ENDBRANCH  26  27
ENDBRANCH   1  26
BRANCH   1  41
HETATM   41  O5  UNL     1      -0.505  -1.454   0.468  1.00  0.00    -0.373 OA
HETATM   42  C26 UNL     1      -0.892  -1.092   1.779  1.00  0.00     0.203 C 
ENDBRANCH   1  41
TORSDOF 14
