REMARK  12 active torsions:
REMARK  status: ('A' for Active; 'I' for Inactive)
REMARK    1  A    between atoms: C2_2  and  C3_3 
REMARK    2  A    between atoms: C3_3  and  C4_4 
REMARK    3  A    between atoms: C4_4  and  C5_5 
REMARK    4  A    between atoms: C5_5  and  N1_6 
REMARK    5  A    between atoms: N1_6  and  C6_8 
REMARK    6  A    between atoms: C12_14  and  N2_15 
REMARK    7  A    between atoms: C16_23  and  N4_24 
REMARK    8  A    between atoms: N4_24  and  C17_26 
REMARK    9  A    between atoms: C17_26  and  C18_27 
REMARK   10  A    between atoms: C18_27  and  N5_28 
REMARK   11  A    between atoms: N7_36  and  C23_37 
REMARK   12  A    between atoms: C23_37  and  C24_38 
ROOT
HETATM    1  C6  UNL     1      -2.029  -0.616  -0.372  1.00  0.00     0.119 A 
HETATM    2  C7  UNL     1      -2.737   0.586  -0.513  1.00  0.00     0.079 A 
HETATM    3  C8  UNL     1      -2.435   1.722   0.188  1.00  0.00     0.063 A 
HETATM    4  C9  UNL     1      -3.071   3.002   0.026  1.00  0.00    -0.003 A 
HETATM    5  C10 UNL     1      -2.322   4.155   0.344  1.00  0.00     0.017 A 
HETATM    6  C11 UNL     1      -2.826   5.428   0.283  1.00  0.00     0.037 A 
HETATM    7  C12 UNL     1      -4.130   5.610  -0.107  1.00  0.00     0.103 A 
HETATM    8  C13 UNL     1      -4.860   4.494  -0.415  1.00  0.00     0.043 A 
HETATM    9  C14 UNL     1      -4.366   3.182  -0.359  1.00  0.00    -0.047 A 
HETATM   10  C15 UNL     1      -5.329   2.064  -0.666  1.00  0.00     0.049 C 
HETATM   11  N3  UNL     1      -1.377   1.595   1.042  1.00  0.00    -0.191 N 
ATOM     12  H3  UNL     1      -1.106   2.412   1.589  1.00  0.00     0.184 HD
HETATM   13  C16 UNL     1      -0.668   0.463   1.210  1.00  0.00     0.680 A 
HETATM   14  N8  UNL     1      -1.010  -0.627   0.495  1.00  0.00    -0.177 N 
ATOM     15  H8  UNL     1      -0.476  -1.487   0.619  1.00  0.00     0.185 HD
ENDROOT
BRANCH  13  16
HETATM   16  N4  UNL     1       0.327   0.424   2.045  1.00  0.00    -0.224 N 
ATOM     17  H4  UNL     1       0.551   1.272   2.566  1.00  0.00     0.177 HD
BRANCH  16  18
HETATM   18  C17 UNL     1       1.120  -0.732   2.274  1.00  0.00     0.157 C 
BRANCH  18  19
HETATM   19  C18 UNL     1       2.261  -0.901   1.270  1.00  0.00     0.141 C 
BRANCH  19  20
HETATM   20  N5  UNL     1       3.137   0.213   1.321  1.00  0.00    -0.370 N 
HETATM   21  C19 UNL     1       4.228   0.356   0.697  1.00  0.00     0.171 A 
HETATM   22  N6  UNL     1       4.942   1.502   0.870  1.00  0.00    -0.346 N 
HETATM   23  C26 UNL     1       4.750  -0.567  -0.150  1.00  0.00     0.291 A 
HETATM   24  C20 UNL     1       6.096   1.706   0.238  1.00  0.00     0.114 A 
ATOM     25  H6  UNL     1       4.585   2.221   1.499  1.00  0.00     0.167 HD
HETATM   26  C21 UNL     1       6.591   0.750  -0.610  1.00  0.00     0.026 A 
HETATM   27  C22 UNL     1       7.897   1.013  -1.309  1.00  0.00     0.070 C 
HETATM   28  N7  UNL     1       5.928  -0.401  -0.818  1.00  0.00    -0.314 N 
HETATM   29  O3  UNL     1       4.160  -1.657  -0.376  1.00  0.00    -0.264 OA
ATOM     30  H5  UNL     1       2.857   0.984   1.927  1.00  0.00     0.161 HD
BRANCH  28  31
HETATM   31  C23 UNL     1       6.411  -1.413  -1.710  1.00  0.00     0.132 C 
BRANCH  31  32
HETATM   32  C24 UNL     1       7.354  -2.397  -1.117  1.00  0.00     0.016 C 
HETATM   33  C25 UNL     1       6.846  -3.205   0.025  1.00  0.00     0.006 C 
ENDBRANCH  31  32
ENDBRANCH  28  31
ENDBRANCH  19  20
ENDBRANCH  18  19
ENDBRANCH  16  18
ENDBRANCH  13  16
BRANCH   1  34
HETATM   34  N1  UNL     1      -2.310  -1.662  -1.015  1.00  0.00    -0.376 N 
ATOM     35  H1  UNL     1      -1.719  -2.471  -0.823  1.00  0.00     0.161 HD
BRANCH  34  36
HETATM   36  C5  UNL     1      -3.341  -1.866  -1.972  1.00  0.00     0.121 C 
BRANCH  36  37
HETATM   37  C4  UNL     1      -4.637  -2.126  -1.206  1.00  0.00     0.020 C 
BRANCH  37  38
HETATM   38  C3  UNL     1      -4.469  -3.369  -0.328  1.00  0.00     0.001 C 
BRANCH  38  39
HETATM   39  C2  UNL     1      -5.750  -3.607   0.415  1.00  0.00    -0.004 C 
HETATM   40  C1  UNL     1      -5.587  -4.836   1.284  1.00  0.00     0.005 C 
ENDBRANCH  38  39
ENDBRANCH  37  38
ENDBRANCH  36  37
ENDBRANCH  34  36
ENDBRANCH   1  34
BRANCH   7  41
HETATM   41  N2  UNL     1      -4.654   6.914  -0.173  1.00  0.00    -0.116 N 
HETATM   42  O1  UNL     1      -3.949   7.883   0.117  1.00  0.00    -0.532 OA
HETATM   43  O2  UNL     1      -5.947   7.113  -0.558  1.00  0.00    -0.532 OA
ENDBRANCH   7  41
TORSDOF 12
