REMARK  11 active torsions:
REMARK  status: ('A' for Active; 'I' for Inactive)
REMARK    1  A    between atoms: C2_2  and  C3_3 
REMARK    2  A    between atoms: C3_3  and  C4_4 
REMARK    3  A    between atoms: C4_4  and  C5_5 
REMARK    4  A    between atoms: C5_5  and  N1_6 
REMARK       I    between atoms: N1_6  and  C6_8 
REMARK    5  A    between atoms: C6_8  and  C7_10 
REMARK    6  A    between atoms: C7_10  and  N2_11 
REMARK    7  A    between atoms: C9_13  and  C10_14 
REMARK    8  A    between atoms: C13_19  and  C14_20 
REMARK    9  A    between atoms: N4_27  and  C19_28 
REMARK   10  A    between atoms: C19_28  and  C20_29 
REMARK   11  A    between atoms: C23_32  and  C24_33 
ROOT
HETATM    1  N2  UNL     1      -0.285   0.599  -1.049  1.00  0.00    -0.288 N 
HETATM    2  C8  UNL     1      -0.621  -0.602  -0.418  1.00  0.00     0.067 A 
HETATM    3  C9  UNL     1      -0.203  -1.685  -0.934  1.00  0.00     0.046 C 
HETATM    4  C15 UNL     1      -1.309  -0.278   0.759  1.00  0.00     0.068 A 
HETATM    5  C16 UNL     1      -1.949  -1.045   1.604  1.00  0.00    -0.058 C 
HETATM    6  C17 UNL     1      -2.186  -2.498   1.578  1.00  0.00     0.045 C 
HETATM    7  C18 UNL     1      -2.367  -0.432   2.949  1.00  0.00     0.045 C 
HETATM    8  N4  UNL     1      -1.368   1.086   0.809  1.00  0.00    -0.292 N 
HETATM    9  C26 UNL     1      -0.735   1.568  -0.301  1.00  0.00     0.330 A 
HETATM   10  O5  UNL     1      -0.587   2.793  -0.595  1.00  0.00    -0.246 OA
ENDROOT
BRANCH   1  11
HETATM   11  C7  UNL     1       0.417   0.745  -2.330  1.00  0.00     0.236 C 
BRANCH  11  12
HETATM   12  C6  UNL     1       1.873   0.819  -2.184  1.00  0.00     0.235 C 
HETATM   13  N1  UNL     1       2.505   0.815  -0.915  1.00  0.00    -0.360 N 
ATOM     14  H1  UNL     1       1.932   0.756  -0.074  1.00  0.00     0.162 HD
HETATM   15  O1  UNL     1       2.616   0.893  -3.201  1.00  0.00    -0.272 OA
BRANCH  13  16
HETATM   16  C5  UNL     1       3.962   0.894  -0.783  1.00  0.00     0.122 C 
BRANCH  16  17
HETATM   17  C4  UNL     1       4.303   0.878   0.658  1.00  0.00     0.020 C 
BRANCH  17  18
HETATM   18  C3  UNL     1       5.714   0.995   1.067  1.00  0.00     0.001 C 
BRANCH  18  19
HETATM   19  C2  UNL     1       6.674  -0.042   0.608  1.00  0.00    -0.004 C 
HETATM   20  C1  UNL     1       6.892  -0.168  -0.854  1.00  0.00     0.005 C 
ENDBRANCH  18  19
ENDBRANCH  17  18
ENDBRANCH  16  17
ENDBRANCH  13  16
ENDBRANCH  11  12
ENDBRANCH   1  11
BRANCH   3  21
HETATM   21  C10 UNL     1      -0.156  -3.100  -0.857  1.00  0.00    -0.000 A 
HETATM   22  C11 UNL     1      -0.966  -3.991  -1.568  1.00  0.00     0.100 A 
HETATM   23  N3  UNL     1      -0.557  -5.232  -1.283  1.00  0.00    -0.373 N 
HETATM   24  C12 UNL     1       0.468  -5.206  -0.432  1.00  0.00     0.106 A 
ATOM     25  H3  UNL     1      -0.973  -6.082  -1.665  1.00  0.00     0.164 HD
HETATM   26  C13 UNL     1       0.745  -3.891  -0.145  1.00  0.00     0.067 A 
BRANCH  26  27
HETATM   27  C14 UNL     1       1.773  -3.373   0.740  1.00  0.00     0.211 C 
HETATM   28  O2  UNL     1       1.890  -2.149   0.908  1.00  0.00    -0.644 OA
HETATM   29  O3  UNL     1       2.608  -4.255   1.385  1.00  0.00    -0.644 OA
ENDBRANCH  26  27
ENDBRANCH   3  21
BRANCH   8  30
HETATM   30  C19 UNL     1      -2.017   2.044   1.641  1.00  0.00     0.180 C 
BRANCH  30  31
HETATM   31  C20 UNL     1      -3.304   2.476   0.927  1.00  0.00     0.002 A 
HETATM   32  C21 UNL     1      -3.537   3.656   0.270  1.00  0.00     0.018 A 
HETATM   33  C22 UNL     1      -4.750   3.817  -0.309  1.00  0.00     0.024 A 
HETATM   34  C23 UNL     1      -5.643   2.791  -0.191  1.00  0.00     0.050 A 
HETATM   35  S1  UNL     1      -4.775   1.643   0.715  1.00  0.00    -0.089 SA
BRANCH  34  36
HETATM   36  C24 UNL     1      -7.016   2.713  -0.722  1.00  0.00     0.162 C 
HETATM   37  C25 UNL     1      -7.561   3.824  -1.475  1.00  0.00     0.097 C 
HETATM   38  O4  UNL     1      -7.663   1.676  -0.497  1.00  0.00    -0.292 OA
ENDBRANCH  34  36
ENDBRANCH  30  31
ENDBRANCH   8  30
TORSDOF 11
