REMARK  12 active torsions:
REMARK  status: ('A' for Active; 'I' for Inactive)
REMARK    1  A    between atoms: N1_2  and  C2_4 
REMARK    2  A    between atoms: C2_4  and  C3_5 
REMARK    3  A    between atoms: C2_4  and  C16_31 
REMARK       I    between atoms: N2_6  and  C4_8 
REMARK    4  A    between atoms: C4_8  and  C5_10 
REMARK    5  A    between atoms: C5_10  and  C6_11 
REMARK    6  A    between atoms: C5_10  and  N6_18 
REMARK    7  A    between atoms: C6_11  and  C7_12 
REMARK    8  A    between atoms: C7_12  and  N3_13 
REMARK       I    between atoms: N6_18  and  C9_20 
REMARK    9  A    between atoms: C9_20  and  C10_22 
REMARK   10  A    between atoms: C10_22  and  N7_23 
REMARK   11  A    between atoms: C10_22  and  C13_28 
REMARK       I    between atoms: N7_23  and  C11_25 
REMARK   12  A    between atoms: C16_31  and  C17_32 
ROOT
HETATM    1  C5  UNL     1       0.676  -0.391   0.396  1.00  0.00     0.178 C 
ENDROOT
BRANCH   1   2
HETATM    2  C4  UNL     1      -0.399  -1.353   0.186  1.00  0.00     0.244 C 
HETATM    3  N2  UNL     1      -1.569  -1.103  -0.506  1.00  0.00    -0.337 N 
HETATM    4  C3  UNL     1      -2.043  -0.017  -0.949  1.00  0.00     0.089 C 
ATOM      5  H2  UNL     1      -2.142  -1.926  -0.689  1.00  0.00     0.168 HD
HETATM    6  O1  UNL     1      -0.265  -2.533   0.670  1.00  0.00    -0.271 OA
BRANCH   4   7
HETATM    7  C2  UNL     1      -3.361  -0.115  -1.663  1.00  0.00     0.119 C 
BRANCH   7   8
HETATM    8  N1  UNL     1      -3.401   0.802  -2.753  1.00  0.00    -0.416 N 
HETATM    9  C1  UNL     1      -3.299   2.188  -2.409  1.00  0.00     0.140 C 
ATOM     10  H1  UNL     1      -3.496   0.490  -3.719  1.00  0.00     0.153 HD
ENDBRANCH   7   8
BRANCH   7  11
HETATM   11  C16 UNL     1      -4.428   0.034  -0.636  1.00  0.00     0.069 C 
BRANCH  11  12
HETATM   12  C17 UNL     1      -5.802  -0.134  -1.107  1.00  0.00    -0.050 A 
HETATM   13  C18 UNL     1      -6.106  -0.622  -2.352  1.00  0.00     0.009 A 
HETATM   14  C19 UNL     1      -7.444  -0.783  -2.737  1.00  0.00     0.019 A 
HETATM   15  C20 UNL     1      -8.468  -0.455  -1.876  1.00  0.00     0.011 A 
HETATM   16 BR1  UNL     1     -10.283  -0.687  -2.430  1.00  0.00    -0.051 Br
HETATM   17  C21 UNL     1      -8.138   0.037  -0.623  1.00  0.00     0.026 A 
HETATM   18  C22 UNL     1      -6.826   0.203  -0.223  1.00  0.00    -0.054 A 
HETATM   19  C23 UNL     1      -6.478   0.735   1.122  1.00  0.00     0.049 C 
ENDBRANCH  11  12
ENDBRANCH   7  11
ENDBRANCH   4   7
ENDBRANCH   1   2
BRANCH   1  20
HETATM   20  C6  UNL     1       0.251   0.582   1.488  1.00  0.00     0.054 C 
BRANCH  20  21
HETATM   21  C7  UNL     1       1.290   1.623   1.771  1.00  0.00     0.124 C 
BRANCH  21  22
HETATM   22  N3  UNL     1       1.596   2.432   0.612  1.00  0.00    -0.367 N 
HETATM   23  C8  UNL     1       2.145   3.584   0.780  1.00  0.00     0.196 C 
HETATM   24  N4  UNL     1       2.476   4.118   2.050  1.00  0.00    -0.067 NA
HETATM   25  N5  UNL     1       2.436   4.365  -0.370  1.00  0.00    -0.067 NA
ATOM     26  H3  UNL     1       1.380   2.094  -0.326  1.00  0.00     0.161 HD
ENDBRANCH  21  22
ENDBRANCH  20  21
ENDBRANCH   1  20
BRANCH   1  27
HETATM   27  N6  UNL     1       1.826  -1.160   0.929  1.00  0.00    -0.346 N 
HETATM   28  C9  UNL     1       3.020  -1.183   0.182  1.00  0.00     0.241 C 
HETATM   29  O2  UNL     1       3.098  -0.560  -0.901  1.00  0.00    -0.271 OA
ATOM     30  H6  UNL     1       1.754  -1.660   1.815  1.00  0.00     0.163 HD
BRANCH  28  31
HETATM   31  C10 UNL     1       4.203  -1.936   0.645  1.00  0.00     0.179 C 
BRANCH  31  32
HETATM   32  N7  UNL     1       5.289  -1.813  -0.319  1.00  0.00    -0.348 N 
HETATM   33  C11 UNL     1       5.783  -2.929  -1.038  1.00  0.00     0.214 C 
HETATM   34  C12 UNL     1       6.884  -2.753  -2.003  1.00  0.00     0.117 C 
HETATM   35  O3  UNL     1       5.318  -4.095  -0.891  1.00  0.00    -0.274 OA
ATOM     36  H7  UNL     1       5.706  -0.896  -0.481  1.00  0.00     0.163 HD
ENDBRANCH  31  32
BRANCH  31  37
HETATM   37  C13 UNL     1       4.645  -1.605   2.038  1.00  0.00     0.009 C 
HETATM   38  C14 UNL     1       5.042  -0.188   2.262  1.00  0.00     0.012 C 
HETATM   39  C15 UNL     1       5.764  -2.531   2.423  1.00  0.00     0.012 C 
ENDBRANCH  31  37
ENDBRANCH  28  31
ENDBRANCH   1  27
TORSDOF 12
