REMARK  11 active torsions:
REMARK  status: ('A' for Active; 'I' for Inactive)
REMARK    1  A    between atoms: C2_2  and  C4_4 
REMARK    2  A    between atoms: C4_4  and  C5_5 
REMARK    3  A    between atoms: C5_5  and  C6_6 
REMARK    4  A    between atoms: C6_6  and  N1_7 
REMARK    5  A    between atoms: C6_6  and  C15_26 
REMARK       I    between atoms: N1_7  and  C7_9 
REMARK    6  A    between atoms: C7_9  and  C8_11 
REMARK    7  A    between atoms: C8_11  and  C9_12 
REMARK    8  A    between atoms: C8_11  and  N5_24 
REMARK    9  A    between atoms: C9_12  and  C10_13 
REMARK   10  A    between atoms: C12_15  and  C13_16 
REMARK       I    between atoms: C15_26  and  N6_28 
REMARK   11  A    between atoms: C21_34  and  C22_35 
ROOT
HETATM    1  N1  UNL     1       0.431   0.247   0.175  1.00  0.00    -0.346 N 
ATOM      2  H1  UNL     1       0.803  -0.638   0.520  1.00  0.00     0.163 HD
HETATM    3  C7  UNL     1       1.392   1.161  -0.251  1.00  0.00     0.238 C 
HETATM    4  O1  UNL     1       1.088   2.275  -0.713  1.00  0.00    -0.272 OA
ENDROOT
BRANCH   1   5
HETATM    5  C6  UNL     1      -1.006   0.353   0.206  1.00  0.00     0.176 C 
BRANCH   5   6
HETATM    6  C5  UNL     1      -1.514   1.786   0.223  1.00  0.00     0.035 C 
BRANCH   6   7
HETATM    7  C4  UNL     1      -1.099   2.540   1.447  1.00  0.00     0.006 C 
BRANCH   7   8
HETATM    8  C2  UNL     1      -1.627   3.955   1.334  1.00  0.00    -0.023 C 
HETATM    9  C1  UNL     1      -1.245   4.768   2.534  1.00  0.00     0.009 C 
HETATM   10  C3  UNL     1      -3.134   3.960   1.225  1.00  0.00     0.009 C 
ENDBRANCH   7   8
ENDBRANCH   6   7
ENDBRANCH   5   6
BRANCH   5  11
HETATM   11  C15 UNL     1      -1.680  -0.418  -0.817  1.00  0.00     0.243 C 
HETATM   12  O2  UNL     1      -1.113  -0.508  -1.969  1.00  0.00    -0.271 OA
HETATM   13  N6  UNL     1      -2.893  -1.075  -0.648  1.00  0.00    -0.333 N 
HETATM   14  C16 UNL     1      -3.648  -1.014   0.566  1.00  0.00     0.084 C 
HETATM   15  C21 UNL     1      -3.435  -1.888  -1.734  1.00  0.00     0.176 C 
HETATM   16  C17 UNL     1      -4.943  -0.217   0.410  1.00  0.00     0.032 C 
HETATM   17  C18 UNL     1      -3.998  -2.455   0.946  1.00  0.00     0.025 C 
HETATM   18  C19 UNL     1      -4.912  -3.068  -0.085  1.00  0.00     0.004 C 
HETATM   19  C20 UNL     1      -4.806  -2.438  -1.426  1.00  0.00     0.035 C 
BRANCH  15  20
HETATM   20  C22 UNL     1      -2.574  -3.018  -2.120  1.00  0.00     0.254 C 
HETATM   21  N7  UNL     1      -1.386  -3.347  -1.434  1.00  0.00    -0.060 NA
HETATM   22  O3  UNL     1      -2.871  -3.767  -3.114  1.00  0.00    -0.275 OA
ENDBRANCH  15  20
ENDBRANCH   5  11
ENDBRANCH   1   5
BRANCH   3  23
HETATM   23  C8  UNL     1       2.854   0.792  -0.150  1.00  0.00     0.185 C 
BRANCH  23  24
HETATM   24  C9  UNL     1       3.035  -0.454  -0.983  1.00  0.00     0.088 C 
BRANCH  24  25
HETATM   25  C10 UNL     1       4.430  -0.935  -0.978  1.00  0.00     0.011 A 
HETATM   26  C11 UNL     1       5.554  -0.448  -0.360  1.00  0.00     0.041 A 
HETATM   27  C12 UNL     1       6.626  -1.251  -0.659  1.00  0.00     0.022 A 
HETATM   28  C14 UNL     1       6.114  -2.253  -1.488  1.00  0.00     0.102 A 
HETATM   29  N4  UNL     1       4.822  -2.031  -1.651  1.00  0.00    -0.368 N 
ATOM     30  H4  UNL     1       4.203  -2.615  -2.214  1.00  0.00     0.165 HD
BRANCH  27  31
HETATM   31  C13 UNL     1       8.006  -1.107  -0.219  1.00  0.00     0.121 C 
HETATM   32  N2  UNL     1       8.918  -1.942  -0.580  1.00  0.00    -0.387 N 
ATOM     33  H22 UNL     1       8.680  -2.726  -1.188  1.00  0.00     0.157 HD
ATOM     34  H21 UNL     1       9.885  -1.841  -0.272  1.00  0.00     0.157 HD
HETATM   35  N3  UNL     1       8.338  -0.016   0.627  1.00  0.00    -0.082 NA
ENDBRANCH  27  31
ENDBRANCH  24  25
ENDBRANCH  23  24
BRANCH  23  36
HETATM   36  N5  UNL     1       3.622   1.897  -0.633  1.00  0.00    -0.155 NA
HETATM   37 BR1  UNL     1       3.247   2.339  -2.414  1.00  0.00     0.030 Br
ENDBRANCH  23  36
ENDBRANCH   3  23
TORSDOF 11
