REMARK  12 active torsions:
REMARK  status: ('A' for Active; 'I' for Inactive)
REMARK    1  A    between atoms: C3_3  and  C4_4 
REMARK    2  A    between atoms: C4_4  and  N1_5 
REMARK       I    between atoms: N1_5  and  C5_7 
REMARK    3  A    between atoms: C5_7  and  C6_9 
REMARK    4  A    between atoms: C6_9  and  C7_10 
REMARK    5  A    between atoms: C6_9  and  N5_23 
REMARK    6  A    between atoms: C7_10  and  C8_11 
REMARK    7  A    between atoms: C10_15  and  N3_16 
REMARK       I    between atoms: N3_16  and  C11_18 
REMARK       I    between atoms: N5_23  and  C13_25 
REMARK    8  A    between atoms: C13_25  and  C14_27 
REMARK    9  A    between atoms: C14_27  and  C15_28 
REMARK   10  A    between atoms: C14_27  and  N6_32 
REMARK   11  A    between atoms: C15_28  and  C16_29 
REMARK       I    between atoms: N6_32  and  C19_34 
REMARK   12  A    between atoms: C19_34  and  C20_36 
ROOT
HETATM    1  C1  UNL     1       1.381   6.506  -2.902  1.00  0.00     0.112 C 
HETATM    2  C2  UNL     1       2.207   5.389  -2.405  1.00  0.00    -0.109 C 
HETATM    3  C3  UNL     1       2.895   4.483  -1.974  1.00  0.00    -0.087 C 
ENDROOT
BRANCH   3   4
HETATM    4  C4  UNL     1       3.747   3.414  -1.449  1.00  0.00     0.217 C 
BRANCH   4   5
HETATM    5  N1  UNL     1       3.022   2.481  -0.642  1.00  0.00    -0.349 N 
HETATM    6  C5  UNL     1       1.926   1.711  -1.213  1.00  0.00     0.241 C 
HETATM    7  O1  UNL     1       1.627   1.883  -2.438  1.00  0.00    -0.271 OA
ATOM      8  H1  UNL     1       3.274   2.355   0.338  1.00  0.00     0.163 HD
BRANCH   6   9
HETATM    9  C6  UNL     1       1.202   0.781  -0.394  1.00  0.00     0.182 C 
BRANCH   9  10
HETATM   10  C7  UNL     1       1.629  -0.642  -0.490  1.00  0.00     0.094 C 
BRANCH  10  11
HETATM   11  C8  UNL     1       2.960  -1.067  -0.062  1.00  0.00     0.045 A 
HETATM   12  C9  UNL     1       3.218  -1.458   1.290  1.00  0.00     0.131 A 
HETATM   13  N2  UNL     1       4.479  -1.899   1.394  1.00  0.00    -0.200 N 
HETATM   14  C10 UNL     1       5.037  -1.801   0.171  1.00  0.00     0.684 A 
ATOM     15  H2  UNL     1       4.932  -2.244   2.240  1.00  0.00     0.183 HD
HETATM   16  N4  UNL     1       4.114  -1.302  -0.679  1.00  0.00    -0.194 N 
ATOM     17  H4  UNL     1       4.281  -1.127  -1.670  1.00  0.00     0.184 HD
BRANCH  14  18
HETATM   18  N3  UNL     1       6.214  -2.173  -0.138  1.00  0.00    -0.160 N 
HETATM   19  C11 UNL     1       7.083  -2.754   0.818  1.00  0.00     0.231 C 
HETATM   20  C12 UNL     1       7.103  -4.255   1.025  1.00  0.00     0.118 C 
HETATM   21  O2  UNL     1       7.852  -2.049   1.508  1.00  0.00    -0.273 OA
ATOM     22  H3  UNL     1       6.539  -2.050  -1.097  1.00  0.00     0.187 HD
ENDBRANCH  14  18
ENDBRANCH  10  11
ENDBRANCH   9  10
BRANCH   9  23
HETATM   23  N5  UNL     1      -0.262   0.743  -0.644  1.00  0.00    -0.346 N 
HETATM   24  C13 UNL     1      -1.081   0.690   0.491  1.00  0.00     0.241 C 
HETATM   25  O3  UNL     1      -0.517   0.725   1.653  1.00  0.00    -0.271 OA
ATOM     26  H5  UNL     1      -0.648   0.755  -1.588  1.00  0.00     0.163 HD
BRANCH  24  27
HETATM   27  C14 UNL     1      -2.566   0.562   0.467  1.00  0.00     0.177 C 
BRANCH  27  28
HETATM   28  C15 UNL     1      -2.891   0.571   1.950  1.00  0.00     0.038 C 
BRANCH  28  29
HETATM   29  C16 UNL     1      -4.202   0.381   2.497  1.00  0.00    -0.020 C 
HETATM   30  C17 UNL     1      -5.370   1.232   2.267  1.00  0.00     0.009 C 
HETATM   31  C18 UNL     1      -3.989   0.351   4.057  1.00  0.00     0.009 C 
ENDBRANCH  28  29
ENDBRANCH  27  28
BRANCH  27  32
HETATM   32  N6  UNL     1      -2.789  -0.818  -0.013  1.00  0.00    -0.346 N 
HETATM   33  C19 UNL     1      -3.555  -0.989  -1.181  1.00  0.00     0.237 C 
HETATM   34  O4  UNL     1      -4.034   0.031  -1.796  1.00  0.00    -0.272 OA
ATOM     35  H6  UNL     1      -2.401  -1.619   0.485  1.00  0.00     0.163 HD
BRANCH  33  36
HETATM   36  C20 UNL     1      -3.872  -2.294  -1.787  1.00  0.00     0.091 C 
HETATM   37  C21 UNL     1      -4.744  -3.069  -0.845  1.00  0.00     0.037 C 
HETATM   38  C22 UNL     1      -4.591  -2.137  -3.133  1.00  0.00     0.037 C 
HETATM   39 BR1  UNL     1      -2.247  -3.292  -2.170  1.00  0.00    -0.076 Br
ENDBRANCH  33  36
ENDBRANCH  27  32
ENDBRANCH  24  27
ENDBRANCH   9  23
ENDBRANCH   6   9
ENDBRANCH   4   5
ENDBRANCH   3   4
TORSDOF 12
