REMARK  13 active torsions:
REMARK  status: ('A' for Active; 'I' for Inactive)
REMARK    1  A    between atoms: C2_2  and  C4_4 
REMARK    2  A    between atoms: C4_4  and  C5_5 
REMARK    3  A    between atoms: C5_5  and  N1_6 
REMARK    4  A    between atoms: C5_5  and  C14_24 
REMARK       I    between atoms: N1_6  and  C6_8 
REMARK    5  A    between atoms: C6_8  and  C7_10 
REMARK    6  A    between atoms: C7_10  and  N2_11 
REMARK       I    between atoms: N2_11  and  C8_13 
REMARK    7  A    between atoms: C8_13  and  C9_15 
REMARK    8  A    between atoms: C9_15  and  N3_16 
REMARK    9  A    between atoms: C9_15  and  C11_21 
REMARK       I    between atoms: N3_16  and  C10_18 
REMARK   10  A    between atoms: C14_24  and  N7_30 
REMARK   11  A    between atoms: N5_25  and  N6_27 
REMARK   12  A    between atoms: N7_30  and  C15_32 
REMARK   13  A    between atoms: C15_32  and  C16_33 
ROOT
HETATM    1  C5  UNL     1      -1.400  -1.848   0.559  1.00  0.00     0.153 C 
ENDROOT
BRANCH   1   2
HETATM    2  C4  UNL     1      -1.848  -2.826   1.551  1.00  0.00     0.037 C 
BRANCH   2   3
HETATM    3  C2  UNL     1      -2.514  -4.072   1.212  1.00  0.00    -0.020 C 
HETATM    4  C1  UNL     1      -3.816  -3.900   0.491  1.00  0.00     0.009 C 
HETATM    5  C3  UNL     1      -1.652  -5.079   0.479  1.00  0.00     0.009 C 
ENDBRANCH   2   3
ENDBRANCH   1   2
BRANCH   1   6
HETATM    6  N1  UNL     1      -0.744  -0.766   1.361  1.00  0.00    -0.348 N 
HETATM    7  C6  UNL     1       0.616  -0.427   1.159  1.00  0.00     0.235 C 
HETATM    8  O1  UNL     1       1.273  -1.049   0.291  1.00  0.00    -0.272 OA
ATOM      9  H1  UNL     1      -1.286  -0.265   2.065  1.00  0.00     0.163 HD
BRANCH   7  10
HETATM   10  C7  UNL     1       1.271   0.633   1.940  1.00  0.00     0.225 C 
BRANCH  10  11
HETATM   11  N2  UNL     1       2.643   0.863   1.613  1.00  0.00    -0.351 N 
HETATM   12  C8  UNL     1       3.133   1.271   0.356  1.00  0.00     0.241 C 
HETATM   13  O2  UNL     1       2.306   1.462  -0.594  1.00  0.00    -0.271 OA
ATOM     14  H2  UNL     1       3.328   0.719   2.355  1.00  0.00     0.163 HD
BRANCH  12  15
HETATM   15  C9  UNL     1       4.566   1.493   0.071  1.00  0.00     0.181 C 
BRANCH  15  16
HETATM   16  N3  UNL     1       4.759   1.905  -1.303  1.00  0.00    -0.332 N 
HETATM   17  C10 UNL     1       5.407   3.116  -1.645  1.00  0.00     0.329 C 
HETATM   18  N4  UNL     1       5.575   3.481  -3.006  1.00  0.00    -0.040 NA
HETATM   19  O3  UNL     1       5.822   3.848  -0.721  1.00  0.00    -0.251 OA
ATOM     20  H3  UNL     1       4.416   1.302  -2.051  1.00  0.00     0.164 HD
ENDBRANCH  15  16
BRANCH  15  21
HETATM   21  C11 UNL     1       5.344   0.186   0.250  1.00  0.00     0.009 C 
HETATM   22  C12 UNL     1       6.803   0.433  -0.045  1.00  0.00     0.012 C 
HETATM   23  C13 UNL     1       4.822  -0.867  -0.684  1.00  0.00     0.012 C 
ENDBRANCH  15  21
ENDBRANCH  12  15
ENDBRANCH  10  11
ENDBRANCH   7  10
ENDBRANCH   1   6
BRANCH   1  24
HETATM   24  C14 UNL     1      -2.432  -1.095  -0.199  1.00  0.00     0.121 C 
HETATM   25  N5  UNL     1      -2.488  -1.233  -1.456  1.00  0.00    -0.228 N 
ATOM     26  H5  UNL     1      -3.221  -0.687  -1.909  1.00  0.00     0.194 HD
BRANCH  25  27
HETATM   27  N6  UNL     1      -1.737  -1.985  -2.308  1.00  0.00    -0.037 N 
HETATM   28  O4  UNL     1      -0.515  -1.895  -2.529  1.00  0.00    -0.516 OA
HETATM   29  O5  UNL     1      -2.377  -2.984  -3.043  1.00  0.00    -0.516 OA
ENDBRANCH  25  27
BRANCH  24  30
HETATM   30  N7  UNL     1      -3.320  -0.238   0.484  1.00  0.00    -0.366 N 
ATOM     31  H7  UNL     1      -3.940  -0.675   1.165  1.00  0.00     0.161 HD
BRANCH  30  32
HETATM   32  C15 UNL     1      -3.447   1.203   0.322  1.00  0.00     0.048 A 
HETATM   33  C18 UNL     1      -2.354   2.036  -0.212  1.00  0.00     0.039 A 
HETATM   34  C19 UNL     1      -3.521   1.700  -1.072  1.00  0.00     0.013 A 
HETATM   35  C20 UNL     1      -4.478   2.765  -1.521  1.00  0.00     0.012 C 
BRANCH  32  36
HETATM   36  C16 UNL     1      -4.319   1.819   1.393  1.00  0.00     0.082 C 
HETATM   37  C17 UNL     1      -4.521   3.284   1.343  1.00  0.00     0.024 C 
HETATM   38 BR1  UNL     1      -6.036   0.926   1.498  1.00  0.00    -0.089 Br
ENDBRANCH  32  36
ENDBRANCH  30  32
ENDBRANCH  24  30
ENDBRANCH   1  24
TORSDOF 13
