REMARK  15 active torsions:
REMARK  status: ('A' for Active; 'I' for Inactive)
REMARK    1  A    between atoms: C2_2  and  C5_5 
REMARK    2  A    between atoms: C6_6  and  C7_7 
REMARK    3  A    between atoms: C8_8  and  C9_9 
REMARK    4  A    between atoms: C10_10  and  C11_11 
REMARK    5  A    between atoms: C11_11  and  C12_12 
REMARK    6  A    between atoms: C12_12  and  N1_13 
REMARK    7  A    between atoms: C12_12  and  C18_23 
REMARK       I    between atoms: N1_13  and  C13_15 
REMARK    8  A    between atoms: C13_15  and  C14_17 
REMARK    9  A    between atoms: C14_17  and  C15_18 
REMARK   10  A    between atoms: C15_18  and  C16_19 
REMARK   11  A    between atoms: C16_19  and  C17_20 
REMARK       I    between atoms: C18_23  and  N2_25 
REMARK   12  A    between atoms: N2_25  and  C19_27 
REMARK   13  A    between atoms: C19_27  and  C20_28 
REMARK   14  A    between atoms: C19_27  and  C21_30 
REMARK       I    between atoms: C21_30  and  N3_32 
REMARK   15  A    between atoms: C25_36  and  C26_37 
ROOT
HETATM    1  C12 UNL     1      -0.326   2.344   0.623  1.00  0.00     0.187 C 
ENDROOT
BRANCH   1   2
HETATM    2  C11 UNL     1       0.733   2.444   1.686  1.00  0.00     0.129 C 
BRANCH   2   3
HETATM    3  C10 UNL     1       1.590   1.285   1.686  1.00  0.00    -0.099 C 
HETATM    4  C9  UNL     1       2.347   0.317   1.708  1.00  0.00    -0.078 C 
BRANCH   4   5
HETATM    5  C8  UNL     1       3.208  -0.827   1.726  1.00  0.00     0.073 C 
HETATM    6  C7  UNL     1       4.329  -0.894   1.034  1.00  0.00     0.073 C 
BRANCH   6   7
HETATM    7  C6  UNL     1       5.192  -2.033   1.049  1.00  0.00    -0.077 C 
HETATM    8  C5  UNL     1       5.908  -3.016   1.063  1.00  0.00    -0.093 C 
BRANCH   8   9
HETATM    9  C2  UNL     1       6.754  -4.220   1.079  1.00  0.00     0.013 C 
HETATM   10  C1  UNL     1       7.442  -4.309  -0.244  1.00  0.00     0.028 C 
HETATM   11  C3  UNL     1       5.814  -5.398   1.300  1.00  0.00     0.028 C 
HETATM   12  C4  UNL     1       7.747  -4.133   2.196  1.00  0.00     0.028 C 
ENDBRANCH   8   9
ENDBRANCH   6   7
ENDBRANCH   4   5
ENDBRANCH   2   3
ENDBRANCH   1   2
BRANCH   1  13
HETATM   13  N1  UNL     1      -1.079   3.614   0.764  1.00  0.00    -0.347 N 
HETATM   14  C13 UNL     1      -1.103   4.607  -0.237  1.00  0.00     0.218 C 
HETATM   15  O1  UNL     1      -0.455   4.383  -1.278  1.00  0.00    -0.274 OA
ATOM     16  H1  UNL     1      -1.603   3.776   1.624  1.00  0.00     0.163 HD
BRANCH  14  17
HETATM   17  C14 UNL     1      -1.847   5.867  -0.102  1.00  0.00     0.103 C 
BRANCH  17  18
HETATM   18  C15 UNL     1      -1.603   6.803  -1.241  1.00  0.00     0.020 C 
BRANCH  18  19
HETATM   19  C16 UNL     1      -0.190   7.272  -1.393  1.00  0.00     0.113 C 
BRANCH  19  20
HETATM   20  C17 UNL     1      -0.075   8.213  -2.568  1.00  0.00     0.172 C 
HETATM   21  O2  UNL     1      -1.068   8.514  -3.272  1.00  0.00    -0.648 OA
HETATM   22  O3  UNL     1       1.156   8.768  -2.889  1.00  0.00    -0.648 OA
ENDBRANCH  19  20
ENDBRANCH  18  19
ENDBRANCH  17  18
ENDBRANCH  14  17
ENDBRANCH   1  13
BRANCH   1  23
HETATM   23  C18 UNL     1      -1.301   1.267   0.804  1.00  0.00     0.242 C 
HETATM   24  O4  UNL     1      -2.492   1.605   1.168  1.00  0.00    -0.271 OA
HETATM   25  N2  UNL     1      -1.113  -0.109   0.628  1.00  0.00    -0.345 N 
ATOM     26  H2  UNL     1      -0.193  -0.437   0.333  1.00  0.00     0.163 HD
BRANCH  25  27
HETATM   27  C19 UNL     1      -2.177  -1.114   0.847  1.00  0.00     0.190 C 
BRANCH  27  28
HETATM   28  C20 UNL     1      -1.673  -2.071   1.924  1.00  0.00     0.149 C 
HETATM   29 CL1  UNL     1      -2.828  -3.315   2.307  1.00  0.00    -0.128 Cl
ENDBRANCH  27  28
BRANCH  27  30
HETATM   30  C21 UNL     1      -2.375  -1.897  -0.391  1.00  0.00     0.244 C 
HETATM   31  O5  UNL     1      -1.273  -2.251  -0.973  1.00  0.00    -0.271 OA
HETATM   32  N3  UNL     1      -3.541  -2.287  -1.004  1.00  0.00    -0.337 N 
HETATM   33  C22 UNL     1      -3.652  -3.071  -2.246  1.00  0.00     0.127 C 
HETATM   34  C25 UNL     1      -4.916  -1.978  -0.625  1.00  0.00     0.176 C 
HETATM   35  C23 UNL     1      -4.946  -2.676  -2.889  1.00  0.00     0.022 C 
HETATM   36  C24 UNL     1      -5.523  -1.600  -2.000  1.00  0.00     0.036 C 
BRANCH  34  37
HETATM   37  C26 UNL     1      -5.700  -3.155  -0.207  1.00  0.00     0.254 C 
HETATM   38  N4  UNL     1      -7.021  -2.982   0.249  1.00  0.00    -0.060 NA
HETATM   39  O6  UNL     1      -5.199  -4.290  -0.257  1.00  0.00    -0.275 OA
ENDBRANCH  34  37
ENDBRANCH  27  30
ENDBRANCH  25  27
ENDBRANCH   1  23
TORSDOF 15
