REMARK  12 active torsions:
REMARK  status: ('A' for Active; 'I' for Inactive)
REMARK    1  A    between atoms: C2_2  and  C3_3 
REMARK    2  A    between atoms: C3_3  and  C4_4 
REMARK    3  A    between atoms: C4_4  and  C5_5 
REMARK       I    between atoms: N3_11  and  C7_13 
REMARK    4  A    between atoms: C7_13  and  C8_15 
REMARK    5  A    between atoms: C10_17  and  S1_18 
REMARK    6  A    between atoms: S1_18  and  N4_21 
REMARK    7  A    between atoms: N4_21  and  C11_23 
REMARK    8  A    between atoms: C11_23  and  C12_24 
REMARK    9  A    between atoms: C12_24  and  C13_25 
REMARK   10  A    between atoms: C13_25  and  N5_26 
REMARK   11  A    between atoms: N6_29  and  C16_30 
REMARK   12  A    between atoms: C22_36  and  N7_37 
REMARK       I    between atoms: N7_37  and  C23_39 
ROOT
HETATM    1  C8  UNL     1      -2.598   0.227  -0.046  1.00  0.00     0.042 A 
HETATM    2  C9  UNL     1      -1.700   1.226   0.354  1.00  0.00     0.043 A 
HETATM    3  C10 UNL     1      -0.671   1.713  -0.452  1.00  0.00     0.088 A 
HETATM    4  C20 UNL     1      -0.560   1.167  -1.696  1.00  0.00    -0.011 A 
HETATM    5  C21 UNL     1       0.427   1.609  -2.666  1.00  0.00     0.052 C 
HETATM    6  C22 UNL     1      -1.444   0.174  -2.104  1.00  0.00     0.049 A 
HETATM    7  C25 UNL     1      -2.468  -0.304  -1.285  1.00  0.00    -0.019 A 
HETATM    8  C26 UNL     1      -3.363  -1.373  -1.808  1.00  0.00     0.052 C 
ENDROOT
BRANCH   3   9
HETATM    9  S1  UNL     1       0.416   2.908   0.145  1.00  0.00     0.259 S 
HETATM   10  O2  UNL     1       0.341   4.193  -0.679  1.00  0.00    -0.201 OA
HETATM   11  O3  UNL     1      -0.196   3.425   1.465  1.00  0.00    -0.201 OA
BRANCH   9  12
HETATM   12  N4  UNL     1       1.970   2.498   0.524  1.00  0.00    -0.315 N 
ATOM     13  H4  UNL     1       2.258   2.626   1.494  1.00  0.00     0.172 HD
BRANCH  12  14
HETATM   14  C11 UNL     1       2.915   1.999  -0.349  1.00  0.00     0.134 C 
BRANCH  14  15
HETATM   15  C12 UNL     1       4.278   1.721   0.300  1.00  0.00     0.050 C 
BRANCH  15  16
HETATM   16  C13 UNL     1       5.196   1.210  -0.765  1.00  0.00     0.274 C 
BRANCH  16  17
HETATM   17  N5  UNL     1       6.516   0.905  -0.313  1.00  0.00     0.091 N 
HETATM   18  C14 UNL     1       7.295   0.447  -1.475  1.00  0.00     0.302 C 
HETATM   19  C15 UNL     1       8.663  -0.017  -1.099  1.00  0.00     0.302 C 
HETATM   20  N6  UNL     1       8.652  -0.997  -0.030  1.00  0.00     0.091 N 
HETATM   21  C18 UNL     1       7.808  -0.578   1.058  1.00  0.00     0.302 C 
HETATM   22  C19 UNL     1       6.419  -0.293   0.537  1.00  0.00     0.302 C 
BRANCH  20  23
HETATM   23  C16 UNL     1      10.002  -1.140   0.476  1.00  0.00     0.268 C 
HETATM   24  C17 UNL     1      10.052  -2.168   1.596  1.00  0.00     0.037 C 
ENDBRANCH  20  23
ENDBRANCH  16  17
ENDBRANCH  15  16
ENDBRANCH  14  15
ENDBRANCH  12  14
ENDBRANCH   9  12
ENDBRANCH   3   9
BRANCH   1  25
HETATM   25  C7  UNL     1      -3.649  -0.185   0.890  1.00  0.00     0.258 C 
HETATM   26  N3  UNL     1      -4.672  -1.083   0.564  1.00  0.00    -0.302 N 
HETATM   27  C6  UNL     1      -5.946  -0.761   0.667  1.00  0.00     0.168 A 
ATOM     28  H3  UNL     1      -4.424  -2.016   0.236  1.00  0.00     0.171 HD
HETATM   29  N2  UNL     1      -6.464   0.403   1.075  1.00  0.00    -0.279 N 
HETATM   30  S2  UNL     1      -7.349  -1.668   0.327  1.00  0.00    -0.038 SA
HETATM   31  N1  UNL     1      -7.723   0.530   1.105  1.00  0.00    -0.296 N 
ATOM     32  H2  UNL     1      -5.857   1.173   1.356  1.00  0.00     0.189 HD
HETATM   33  C5  UNL     1      -8.515  -0.461   0.743  1.00  0.00     0.069 A 
ATOM     34  H1  UNL     1      -8.131   1.412   1.414  1.00  0.00     0.187 HD
HETATM   35  O1  UNL     1      -3.637   0.296   2.060  1.00  0.00    -0.267 OA
BRANCH  33  36
HETATM   36  C4  UNL     1     -10.013  -0.528   0.700  1.00  0.00     0.066 C 
BRANCH  36  37
HETATM   37  C3  UNL     1     -10.615  -1.021   1.976  1.00  0.00     0.006 C 
BRANCH  37  38
HETATM   38  C2  UNL     1     -10.266  -0.143   3.152  1.00  0.00    -0.004 C 
HETATM   39  C1  UNL     1     -10.903  -0.685   4.402  1.00  0.00     0.005 C 
ENDBRANCH  37  38
ENDBRANCH  36  37
ENDBRANCH  33  36
ENDBRANCH   1  25
BRANCH   6  40
HETATM   40  N7  UNL     1      -1.295  -0.372  -3.413  1.00  0.00    -0.326 N 
HETATM   41  C23 UNL     1      -0.447  -1.490  -3.624  1.00  0.00     0.218 C 
HETATM   42  C24 UNL     1      -0.260  -2.093  -4.968  1.00  0.00     0.117 C 
HETATM   43  O4  UNL     1       0.157  -1.972  -2.633  1.00  0.00    -0.274 OA
ATOM     44  H7  UNL     1      -1.798   0.041  -4.198  1.00  0.00     0.169 HD
ENDBRANCH   6  40
TORSDOF 12
