REMARK  14 active torsions:
REMARK  status: ('A' for Active; 'I' for Inactive)
REMARK    1  A    between atoms: C2_2  and  C3_3 
REMARK    2  A    between atoms: C3_3  and  C4_4 
REMARK    3  A    between atoms: C8_8  and  O1_9 
REMARK    4  A    between atoms: C10_12  and  O2_13 
REMARK    5  A    between atoms: O2_13  and  C11_14 
REMARK    6  A    between atoms: C12_16  and  C13_17 
REMARK    7  A    between atoms: C13_17  and  O4_18 
REMARK    8  A    between atoms: C14_20  and  O5_21 
REMARK    9  A    between atoms: C15_23  and  O6_24 
REMARK   10  A    between atoms: C16_26  and  O7_27 
REMARK   11  A    between atoms: C19_31  and  C20_32 
REMARK   12  A    between atoms: C23_36  and  O9_37 
REMARK   13  A    between atoms: C25_39  and  O10_40 
REMARK   14  A    between atoms: C29_44  and  O11_45 
ROOT
HETATM    1  C4  UNL     1      -1.682  -3.619  -1.128  1.00  0.00     0.227 C 
HETATM    2  C5  UNL     1      -0.553  -4.390  -0.522  1.00  0.00     0.076 C 
HETATM    3  C6  UNL     1      -0.605  -3.306   0.557  1.00  0.00     0.262 A 
HETATM    4  C7  UNL     1       0.646  -2.527   0.665  1.00  0.00     0.017 A 
HETATM    5  C8  UNL     1       1.827  -2.775   1.337  1.00  0.00     0.077 A 
HETATM    6  C9  UNL     1       2.903  -1.877   1.282  1.00  0.00     0.074 A 
HETATM    7  C10 UNL     1       2.823  -0.711   0.556  1.00  0.00     0.075 A 
HETATM    8  C17 UNL     1       1.617  -0.483  -0.114  1.00  0.00     0.047 A 
HETATM    9  C18 UNL     1       0.558  -1.367  -0.060  1.00  0.00    -0.011 A 
HETATM   10  C19 UNL     1      -0.818  -1.343  -0.676  1.00  0.00     0.267 A 
HETATM   11  N1  UNL     1      -1.465  -2.513  -0.256  1.00  0.00     0.112 N 
ENDROOT
BRANCH  10  12
HETATM   12  C20 UNL     1      -1.525  -0.082  -0.156  1.00  0.00     0.087 C 
HETATM   13  C21 UNL     1      -1.652  -0.074   1.329  1.00  0.00     0.186 C 
HETATM   14  O8  UNL     1      -2.944   0.332   1.797  1.00  0.00    -0.347 OA
HETATM   15  C22 UNL     1      -3.646   1.313   1.119  1.00  0.00     0.116 A 
HETATM   16  C23 UNL     1      -4.353   2.330   1.771  1.00  0.00     0.136 A 
HETATM   17  C31 UNL     1      -3.615   1.240  -0.259  1.00  0.00     0.046 A 
HETATM   18  C25 UNL     1      -5.030   3.275   1.007  1.00  0.00     0.113 A 
HETATM   19  C27 UNL     1      -4.983   3.180  -0.373  1.00  0.00     0.008 A 
HETATM   20  C28 UNL     1      -5.696   4.179  -1.188  1.00  0.00     0.054 C 
HETATM   21  C29 UNL     1      -4.285   2.175  -1.014  1.00  0.00     0.088 A 
HETATM   22  C32 UNL     1      -2.847   0.130  -0.863  1.00  0.00     0.217 C 
HETATM   23  F1  UNL     1      -3.633  -1.024  -0.720  1.00  0.00    -0.244 F 
BRANCH  16  24
HETATM   24  O9  UNL     1      -4.367   2.378   3.145  1.00  0.00    -0.351 OA
HETATM   25  C24 UNL     1      -5.424   1.659   3.800  1.00  0.00     0.210 C 
ENDBRANCH  16  24
BRANCH  18  26
HETATM   26  O10 UNL     1      -5.725   4.276   1.670  1.00  0.00    -0.352 OA
HETATM   27  C26 UNL     1      -5.161   5.508   2.029  1.00  0.00     0.210 C 
ENDBRANCH  18  26
BRANCH  21  28
HETATM   28  O11 UNL     1      -4.276   2.132  -2.400  1.00  0.00    -0.355 OA
HETATM   29  C30 UNL     1      -5.244   1.422  -3.150  1.00  0.00     0.210 C 
ENDBRANCH  21  28
ENDBRANCH  10  12
BRANCH   1  30
HETATM   30  C3  UNL     1      -1.620  -3.453  -2.583  1.00  0.00     0.035 C 
BRANCH  30  31
HETATM   31  C2  UNL     1      -1.665  -4.747  -3.323  1.00  0.00    -0.002 C 
HETATM   32  C1  UNL     1      -0.584  -5.730  -3.108  1.00  0.00     0.005 C 
ENDBRANCH  30  31
ENDBRANCH   1  30
BRANCH   5  33
HETATM   33  O1  UNL     1       1.904  -3.959   2.071  1.00  0.00    -0.360 OA
ATOM     34  H1  UNL     1       2.716  -4.130   2.533  1.00  0.00     0.217 HD
ENDBRANCH   5  33
BRANCH   7  35
HETATM   35  O2  UNL     1       3.856   0.204   0.472  1.00  0.00    -0.318 OA
BRANCH  35  36
HETATM   36  C11 UNL     1       5.106   0.109   1.082  1.00  0.00     0.298 C 
HETATM   37  O3  UNL     1       6.050   0.015   0.048  1.00  0.00    -0.348 OA
HETATM   38  C12 UNL     1       6.393   1.260  -0.446  1.00  0.00     0.179 C 
HETATM   39  C14 UNL     1       7.362   1.897   0.523  1.00  0.00     0.180 C 
HETATM   40  C15 UNL     1       6.872   1.601   1.921  1.00  0.00     0.183 C 
HETATM   41  C16 UNL     1       5.379   1.328   1.944  1.00  0.00     0.205 C 
BRANCH  38  42
HETATM   42  C13 UNL     1       7.056   1.041  -1.792  1.00  0.00     0.198 C 
BRANCH  42  43
HETATM   43  O4  UNL     1       7.445   2.215  -2.390  1.00  0.00    -0.398 OA
ATOM     44  H4  UNL     1       7.860   2.078  -3.233  1.00  0.00     0.209 HD
ENDBRANCH  42  43
ENDBRANCH  38  42
BRANCH  39  45
HETATM   45  O5  UNL     1       8.602   1.238   0.359  1.00  0.00    -0.390 OA
ATOM     46  H5  UNL     1       9.211   1.638   0.968  1.00  0.00     0.210 HD
ENDBRANCH  39  45
BRANCH  40  47
HETATM   47  O6  UNL     1       7.508   0.451   2.395  1.00  0.00    -0.390 OA
ATOM     48  H6  UNL     1       7.200   0.265   3.274  1.00  0.00     0.210 HD
ENDBRANCH  40  47
BRANCH  41  49
HETATM   49  O7  UNL     1       5.041   1.003   3.255  1.00  0.00    -0.388 OA
ATOM     50  H7  UNL     1       5.212   1.766   3.795  1.00  0.00     0.210 HD
ENDBRANCH  41  49
ENDBRANCH  35  36
ENDBRANCH   7  35
TORSDOF 14
