REMARK  12 active torsions:
REMARK  status: ('A' for Active; 'I' for Inactive)
REMARK    1  A    between atoms: O1_2  and  C2_3 
REMARK    2  A    between atoms: C4_5  and  N1_6 
REMARK    3  A    between atoms: C10_13  and  O3_14 
REMARK    4  A    between atoms: C11_16  and  N2_17 
REMARK    5  A    between atoms: C14_20  and  N3_21 
REMARK    6  A    between atoms: N3_21  and  C15_23 
REMARK    7  A    between atoms: C15_23  and  C16_24 
REMARK    8  A    between atoms: C16_24  and  N4_25 
REMARK    9  A    between atoms: C17_29  and  O4_30 
REMARK   10  A    between atoms: C20_34  and  O5_35 
REMARK   11  A    between atoms: O5_35  and  C21_36 
REMARK   12  A    between atoms: C27_46  and  O7_47 
ROOT
HETATM    1  C2  UNL     1      -2.042   0.522  -1.383  1.00  0.00     0.149 C 
HETATM    2  C3  UNL     1      -3.020   1.315  -0.445  1.00  0.00     0.106 C 
HETATM    3  C4  UNL     1      -3.512   0.350   0.580  1.00  0.00     0.019 C 
HETATM    4  C7  UNL     1      -2.895  -0.922   0.238  1.00  0.00     0.031 C 
HETATM    5  C8  UNL     1      -2.159  -1.848   1.073  1.00  0.00     0.175 C 
HETATM    6  O2  UNL     1      -0.902  -1.445   1.614  1.00  0.00    -0.337 OA
HETATM    7  C9  UNL     1       0.234  -0.831   1.024  1.00  0.00     0.119 A 
HETATM    8  C10 UNL     1       1.345  -1.334   1.552  1.00  0.00     0.129 A 
HETATM    9  C11 UNL     1       2.587  -0.872   1.083  1.00  0.00     0.095 A 
HETATM   10  C14 UNL     1       2.634   0.094   0.077  1.00  0.00     0.092 A 
HETATM   11  C17 UNL     1       1.477   0.602  -0.459  1.00  0.00     0.108 A 
HETATM   12  C18 UNL     1       0.246   0.130   0.036  1.00  0.00     0.047 A 
HETATM   13  C19 UNL     1      -0.729   0.959  -0.654  1.00  0.00     0.020 C 
HETATM   14  C20 UNL     1      -0.507   2.222  -0.706  1.00  0.00     0.157 C 
HETATM   15  C23 UNL     1      -2.063  -3.083   0.151  1.00  0.00     0.075 A 
HETATM   16  C24 UNL     1      -2.830  -4.297   0.532  1.00  0.00     0.062 A 
HETATM   17  C25 UNL     1      -3.746  -4.100  -0.601  1.00  0.00     0.012 A 
HETATM   18 BR1  UNL     1      -5.281  -5.055  -1.294  1.00  0.00    -0.054 Br
HETATM   19  C26 UNL     1      -3.083  -3.013  -0.936  1.00  0.00     0.028 A 
HETATM   20  N5  UNL     1      -3.019  -1.829  -1.847  1.00  0.00    -0.354 N 
ATOM     21  H5  UNL     1      -3.427  -1.729  -2.777  1.00  0.00     0.163 HD
HETATM   22  C27 UNL     1      -2.239  -0.851  -1.099  1.00  0.00     0.200 C 
ENDROOT
BRANCH  10  23
HETATM   23  N3  UNL     1       3.862   0.595  -0.433  1.00  0.00    -0.384 N 
ATOM     24  H3  UNL     1       4.299   1.378   0.053  1.00  0.00     0.159 HD
BRANCH  23  25
HETATM   25  C15 UNL     1       4.529   0.063  -1.598  1.00  0.00     0.147 C 
BRANCH  25  26
HETATM   26  C16 UNL     1       5.832   0.802  -1.860  1.00  0.00     0.249 C 
BRANCH  26  27
HETATM   27  N4  UNL     1       5.515   2.188  -2.070  1.00  0.00    -0.078 N 
ATOM     28  H43 UNL     1       4.824   2.329  -2.807  1.00  0.00     0.274 HD
ATOM     29  H42 UNL     1       4.978   2.592  -1.303  1.00  0.00     0.274 HD
ATOM     30  H41 UNL     1       6.389   2.684  -2.246  1.00  0.00     0.274 HD
ENDBRANCH  26  27
ENDBRANCH  25  26
ENDBRANCH  23  25
ENDBRANCH  10  23
BRANCH   9  31
HETATM   31  N2  UNL     1       3.773  -1.389   1.652  1.00  0.00    -0.385 N 
HETATM   32  C12 UNL     1       4.309  -0.651   2.801  1.00  0.00     0.149 C 
HETATM   33  C13 UNL     1       4.451  -2.574   1.181  1.00  0.00     0.149 C 
ENDBRANCH   9  31
BRANCH  11  34
HETATM   34  O4  UNL     1       1.475   1.525  -1.466  1.00  0.00    -0.357 OA
ATOM     35  H4  UNL     1       0.674   1.877  -1.837  1.00  0.00     0.217 HD
ENDBRANCH  11  34
BRANCH   8  36
HETATM   36  O3  UNL     1       1.337  -2.294   2.546  1.00  0.00    -0.356 OA
ATOM     37  H3  UNL     1       2.131  -2.654   2.923  1.00  0.00     0.218 HD
ENDBRANCH   8  36
BRANCH   1  38
HETATM   38  O1  UNL     1      -2.017   1.013  -2.618  1.00  0.00    -0.374 OA
HETATM   39  C1  UNL     1      -3.056   1.115  -3.438  1.00  0.00     0.203 C 
ENDBRANCH   1  38
BRANCH  14  40
HETATM   40  O5  UNL     1       0.447   2.996  -0.214  1.00  0.00    -0.291 OA
BRANCH  40  41
HETATM   41  C21 UNL     1       0.474   3.759   0.953  1.00  0.00     0.259 C 
HETATM   42  C22 UNL     1       1.659   4.568   1.337  1.00  0.00     0.126 C 
HETATM   43  O6  UNL     1      -0.534   3.751   1.681  1.00  0.00    -0.265 OA
ENDBRANCH  40  41
ENDBRANCH  14  40
BRANCH  22  44
HETATM   44  O7  UNL     1      -1.036  -1.533  -1.341  1.00  0.00    -0.358 OA
HETATM   45  C28 UNL     1      -0.696  -1.522  -2.661  1.00  0.00     0.205 C 
ENDBRANCH  22  44
BRANCH   3  46
HETATM   46  N1  UNL     1      -3.729   0.756   1.895  1.00  0.00    -0.392 N 
HETATM   47  C5  UNL     1      -4.737   1.769   2.083  1.00  0.00     0.148 C 
HETATM   48  C6  UNL     1      -2.651   1.019   2.767  1.00  0.00     0.148 C 
ENDBRANCH   3  46
TORSDOF 12
