REMARK  14 active torsions:
REMARK  status: ('A' for Active; 'I' for Inactive)
REMARK    1  A    between atoms: C2_2  and  O2_4 
REMARK    2  A    between atoms: O2_4  and  C3_5 
REMARK    3  A    between atoms: C3_5  and  C4_6 
REMARK    4  A    between atoms: C5_8  and  O4_9 
REMARK    5  A    between atoms: O4_9  and  C6_10 
REMARK    6  A    between atoms: C7_11  and  C8_12 
REMARK    7  A    between atoms: C16_22  and  C17_23 
REMARK    8  A    between atoms: C17_23  and  C18_24 
REMARK    9  A    between atoms: C18_24  and  C19_25 
REMARK   10  A    between atoms: C19_25  and  O6_27 
REMARK   11  A    between atoms: C26_35  and  O8_36 
REMARK   12  A    between atoms: C31_42  and  O9_43 
REMARK   13  A    between atoms: C32_45  and  O10_46 
REMARK   14  A    between atoms: C33_48  and  O11_49 
ROOT
HETATM    1  C6  UNL     1       1.200  -0.246  -0.284  1.00  0.00     0.059 C 
HETATM    2  C7  UNL     1       0.162   0.401   0.131  1.00  0.00     0.013 C 
HETATM    3  C9  UNL     1      -1.153  -0.220   0.301  1.00  0.00     0.032 C 
HETATM    4  C10 UNL     1      -2.132   0.610  -0.505  1.00  0.00     0.055 C 
HETATM    5  C11 UNL     1      -3.560   0.416   0.007  1.00  0.00     0.122 C 
HETATM    6  F1  UNL     1      -3.423   0.380   1.407  1.00  0.00    -0.241 F 
HETATM    7  C12 UNL     1      -4.071  -0.865  -0.486  1.00  0.00     0.096 C 
HETATM    8  C13 UNL     1      -3.239  -1.539  -1.562  1.00  0.00     0.016 C 
HETATM    9  C14 UNL     1      -1.984  -2.157  -1.115  1.00  0.00     0.006 C 
HETATM   10  C15 UNL     1      -1.285  -1.671   0.101  1.00  0.00    -0.001 C 
HETATM   11  C16 UNL     1       0.040  -2.423   0.183  1.00  0.00    -0.004 C 
HETATM   12  C21 UNL     1       1.120  -1.651  -0.583  1.00  0.00     0.070 C 
HETATM   13  C22 UNL     1      -5.519  -0.882  -0.883  1.00  0.00     0.134 C 
HETATM   14  O7  UNL     1      -6.114  -1.938  -0.866  1.00  0.00    -0.297 OA
HETATM   15  C23 UNL     1      -6.185   0.381  -1.284  1.00  0.00     0.084 C 
HETATM   16  C24 UNL     1      -5.833   1.379  -0.198  1.00  0.00     0.006 C 
HETATM   17  C25 UNL     1      -6.694   2.579  -0.320  1.00  0.00     0.037 C 
HETATM   18  C26 UNL     1      -6.314   3.693   0.626  1.00  0.00     0.118 C 
HETATM   19  C27 UNL     1      -4.831   3.968   0.607  1.00  0.00     0.032 C 
HETATM   20  C28 UNL     1      -4.076   2.676   0.818  1.00  0.00     0.015 C 
HETATM   21  C29 UNL     1      -4.356   1.658  -0.271  1.00  0.00    -0.003 C 
HETATM   22  C30 UNL     1      -3.976   2.307  -1.578  1.00  0.00     0.019 C 
ENDROOT
BRANCH   1  23
HETATM   23  O4  UNL     1       2.457   0.385  -0.464  1.00  0.00    -0.321 OA
BRANCH  23  24
HETATM   24  C5  UNL     1       3.678  -0.239  -0.164  1.00  0.00     0.297 C 
HETATM   25  O3  UNL     1       4.728   0.587  -0.454  1.00  0.00    -0.348 OA
HETATM   26  C4  UNL     1       4.944   1.676   0.319  1.00  0.00     0.180 C 
HETATM   27  C33 UNL     1       4.624   1.396   1.801  1.00  0.00     0.180 C 
HETATM   28  C32 UNL     1       4.938  -0.098   1.966  1.00  0.00     0.183 C 
HETATM   29  C31 UNL     1       3.780  -0.775   1.214  1.00  0.00     0.205 C 
BRANCH  26  30
HETATM   30  C3  UNL     1       6.380   2.134   0.326  1.00  0.00     0.213 C 
BRANCH  30  31
HETATM   31  O2  UNL     1       6.939   2.524  -0.860  1.00  0.00    -0.319 OA
BRANCH  31  32
HETATM   32  C2  UNL     1       7.213   1.854  -2.000  1.00  0.00     0.254 C 
HETATM   33  C1  UNL     1       7.835   2.503  -3.210  1.00  0.00     0.126 C 
HETATM   34  O1  UNL     1       6.941   0.637  -2.063  1.00  0.00    -0.266 OA
ENDBRANCH  31  32
ENDBRANCH  30  31
ENDBRANCH  26  30
BRANCH  27  35
HETATM   35  O11 UNL     1       5.455   2.082   2.650  1.00  0.00    -0.390 OA
ATOM     36  H11 UNL     1       5.258   1.909   3.563  1.00  0.00     0.210 HD
ENDBRANCH  27  35
BRANCH  28  37
HETATM   37  O10 UNL     1       4.916  -0.463   3.304  1.00  0.00    -0.390 OA
ATOM     38  H10 UNL     1       5.631  -0.045   3.769  1.00  0.00     0.210 HD
ENDBRANCH  28  37
BRANCH  29  39
HETATM   39  O9  UNL     1       2.652  -0.534   1.995  1.00  0.00    -0.388 OA
ATOM     40  H9  UNL     1       2.717  -0.878   2.878  1.00  0.00     0.210 HD
ENDBRANCH  29  39
ENDBRANCH  23  24
ENDBRANCH   1  23
BRANCH   2  41
HETATM   41  C8  UNL     1       0.337   1.843   0.422  1.00  0.00     0.268 C 
HETATM   42  O5  UNL     1       1.424   2.421   0.258  1.00  0.00    -0.302 OA
ENDBRANCH   2  41
BRANCH  11  43
HETATM   43  C17 UNL     1       0.035  -3.768  -0.386  1.00  0.00     0.008 C 
BRANCH  43  44
HETATM   44  C18 UNL     1       1.285  -4.575  -0.337  1.00  0.00     0.032 C 
BRANCH  44  45
HETATM   45  C19 UNL     1       1.776  -4.901   1.023  1.00  0.00     0.114 C 
HETATM   46  C20 UNL     1       3.055  -5.750   0.889  1.00  0.00     0.039 C 
BRANCH  45  47
HETATM   47  O6  UNL     1       2.017  -3.873   1.885  1.00  0.00    -0.396 OA
ATOM     48  H6  UNL     1       2.332  -4.082   2.757  1.00  0.00     0.210 HD
ENDBRANCH  45  47
ENDBRANCH  44  45
ENDBRANCH  43  44
ENDBRANCH  11  43
BRANCH  18  49
HETATM   49  O8  UNL     1      -7.017   4.842   0.315  1.00  0.00    -0.396 OA
ATOM     50  H8  UNL     1      -6.778   5.543   0.910  1.00  0.00     0.210 HD
ENDBRANCH  18  49
TORSDOF 14
