REMARK  2 active torsions:
REMARK  status: ('A' for Active; 'I' for Inactive)
REMARK    1  A    between atoms: N1_1  and  C1_4 
REMARK    2  A    between atoms: C3_9  and  N4_10 
ROOT
HETATM    1  C1  UNL     1       0.864  -1.437   0.194  1.00  0.00     0.107 C 
HETATM    2  N2  UNL     1      -0.466  -1.515   0.299  1.00  0.00    -0.329 N 
ATOM      3  H2  UNL     1      -0.824  -2.430   0.572  1.00  0.00     0.168 HD
HETATM    4  C2  UNL     1      -1.405  -0.573   0.100  1.00  0.00     0.155 C 
HETATM    5  N3  UNL     1      -2.727  -1.000  -0.187  1.00  0.00    -0.080 NA
HETATM    6  C3  UNL     1      -1.268   0.806   0.133  1.00  0.00     0.194 C 
HETATM    7  C4  UNL     1      -0.079   1.518   0.061  1.00  0.00     0.222 C 
HETATM    8  O3  UNL     1      -0.146   2.764   0.071  1.00  0.00    -0.285 OA
HETATM    9  C5  UNL     1       1.207   1.021  -0.022  1.00  0.00     0.073 C 
HETATM   10  C6  UNL     1       1.599  -0.296  -0.138  1.00  0.00     0.011 C 
HETATM   11  C7  UNL     1       2.897   0.141  -0.676  1.00  0.00     0.127 C 
HETATM   12  C8  UNL     1       2.607   1.431  -0.039  1.00  0.00     0.168 C 
HETATM   13  O4  UNL     1       3.277   2.434   0.325  1.00  0.00    -0.292 OA
ENDROOT
BRANCH   1  14
HETATM   14  N1  UNL     1       1.556  -2.517   0.418  1.00  0.00    -0.385 N 
ATOM     15  H12 UNL     1       1.019  -3.350   0.660  1.00  0.00     0.157 HD
ATOM     16  H11 UNL     1       2.571  -2.457   0.338  1.00  0.00     0.157 HD
ENDBRANCH   1  14
BRANCH   6  17
HETATM   17  N4  UNL     1      -2.454   1.562   0.253  1.00  0.00    -0.108 N 
HETATM   18  O1  UNL     1      -3.565   1.025   0.325  1.00  0.00    -0.532 OA
HETATM   19  O2  UNL     1      -2.374   2.924   0.291  1.00  0.00    -0.532 OA
ENDBRANCH   6  17
TORSDOF 2
