REMARK  2 active torsions:
REMARK  status: ('A' for Active; 'I' for Inactive)
REMARK    1  A    between atoms: C3_6  and  N2_7 
REMARK    2  A    between atoms: N2_7  and  N3_9 
ROOT
HETATM    1  N3  UNL     1       0.494   1.149   0.577  1.00  0.00    -0.278 N 
ATOM      2  H3  UNL     1       0.196   2.097   0.349  1.00  0.00     0.189 HD
HETATM    3  C4  UNL     1       1.688   0.743   0.259  1.00  0.00     0.192 A 
HETATM    4  N4  UNL     1       2.716   1.467  -0.403  1.00  0.00    -0.314 N 
ATOM      5  H4  UNL     1       2.634   2.433  -0.720  1.00  0.00     0.170 HD
HETATM    6  C5  UNL     1       3.877   0.656  -0.562  1.00  0.00     0.180 A 
HETATM    7  S1  UNL     1       5.295   1.077  -1.267  1.00  0.00    -0.040 SA
HETATM    8  N5  UNL     1       3.596  -0.622   0.010  1.00  0.00    -0.297 N 
ATOM      9  H5  UNL     1       4.233  -1.418   0.050  1.00  0.00     0.171 HD
HETATM   10  C6  UNL     1       2.265  -0.584   0.515  1.00  0.00     0.293 A 
HETATM   11  O2  UNL     1       1.712  -1.561   1.084  1.00  0.00    -0.264 OA
ENDROOT
BRANCH   1  12
HETATM   12  N2  UNL     1      -0.367   0.284   1.226  1.00  0.00    -0.269 N 
ATOM     13  H2  UNL     1      -0.055  -0.179   2.080  1.00  0.00     0.190 HD
BRANCH  12  14
HETATM   14  C3  UNL     1      -1.683   0.022   0.732  1.00  0.00     0.197 A 
HETATM   15  N1  UNL     1      -2.770   0.478   1.215  1.00  0.00    -0.352 N 
HETATM   16  C2  UNL     1      -3.936   0.038   0.502  1.00  0.00     0.225 A 
ATOM     17  H1  UNL     1      -2.808   1.094   2.027  1.00  0.00     0.163 HD
HETATM   18  C1  UNL     1      -3.378  -0.815  -0.568  1.00  0.00     0.242 A 
HETATM   19  O1  UNL     1      -4.019  -1.440  -1.468  1.00  0.00    -0.271 OA
HETATM   20  N6  UNL     1      -1.971  -0.805  -0.398  1.00  0.00    -0.296 N 
ATOM     21  H6  UNL     1      -1.289  -1.297  -0.976  1.00  0.00     0.172 HD
ENDBRANCH  12  14
ENDBRANCH   1  12
TORSDOF 2
