REMARK  5 active torsions:
REMARK  status: ('A' for Active; 'I' for Inactive)
REMARK    1  A    between atoms: C7_18  and  N5_19 
REMARK    2  A    between atoms: N5_19  and  C8_22 
REMARK    3  A    between atoms: C8_22  and  C9_23 
REMARK    4  A    between atoms: C9_23  and  N6_24 
REMARK    5  A    between atoms: C14_32  and  C15_33 
ROOT
HETATM    1  N1  UNL     1       3.788  -0.672   3.496  1.00  0.00    -0.234 N 
ATOM      2  H11 UNL     1       4.576  -0.839   4.122  1.00  0.00     0.174 HD
ATOM      3  H12 UNL     1       2.835  -0.609   3.855  1.00  0.00     0.174 HD
HETATM    4  C1  UNL     1       3.975  -0.539   2.229  1.00  0.00     0.679 A 
HETATM    5  N2  UNL     1       2.918  -0.315   1.390  1.00  0.00    -0.192 N 
ATOM      6  H2  UNL     1       1.978  -0.258   1.781  1.00  0.00     0.184 HD
HETATM    7  C2  UNL     1       3.082  -0.170   0.082  1.00  0.00     0.079 A 
HETATM    8  C3  UNL     1       4.343  -0.247  -0.448  1.00  0.00     0.054 A 
HETATM    9  C4  UNL     1       5.414  -0.479   0.436  1.00  0.00     0.269 A 
HETATM   10  O1  UNL     1       6.561  -0.549  -0.047  1.00  0.00    -0.267 OA
HETATM   11  N3  UNL     1       5.224  -0.621   1.759  1.00  0.00    -0.156 N 
ATOM     12  H3  UNL     1       6.011  -0.787   2.387  1.00  0.00     0.187 HD
HETATM   13  C5  UNL     1       4.614  -0.114  -1.895  1.00  0.00     0.169 C 
HETATM   14  N4  UNL     1       3.678   0.824  -2.474  1.00  0.00    -0.354 N 
ATOM     15  H4  UNL     1       3.868   1.243  -3.384  1.00  0.00     0.162 HD
HETATM   16  C6  UNL     1       2.480   1.161  -1.760  1.00  0.00     0.255 C 
HETATM   17  O2  UNL     1       1.942   2.270  -1.898  1.00  0.00    -0.271 OA
HETATM   18  C7  UNL     1       1.946   0.093  -0.854  1.00  0.00     0.327 C 
ENDROOT
BRANCH  18  19
HETATM   19  N5  UNL     1       0.727   0.424  -0.228  1.00  0.00    -0.055 N 
ATOM     20  H52 UNL     1       0.491  -0.253   0.497  1.00  0.00     0.278 HD
ATOM     21  H51 UNL     1       0.826   1.257   0.352  1.00  0.00     0.278 HD
BRANCH  19  22
HETATM   22  C8  UNL     1      -0.349   0.573  -1.166  1.00  0.00     0.264 C 
BRANCH  22  23
HETATM   23  C9  UNL     1      -1.621   1.037  -0.491  1.00  0.00     0.300 C 
BRANCH  23  24
HETATM   24  N6  UNL     1      -2.198   0.187   0.472  1.00  0.00     0.102 N 
HETATM   25  C10 UNL     1      -3.152   0.815   1.343  1.00  0.00     0.300 C 
HETATM   26  C11 UNL     1      -3.998   1.770   0.546  1.00  0.00     0.262 C 
HETATM   27  N7  UNL     1      -4.817   1.068  -0.385  1.00  0.00    -0.073 N 
HETATM   28  C12 UNL     1      -5.054  -0.279  -0.007  1.00  0.00     0.235 C 
ATOM     29  H72 UNL     1      -5.695   1.562  -0.543  1.00  0.00     0.277 HD
ATOM     30  H71 UNL     1      -4.426   1.119  -1.326  1.00  0.00     0.277 HD
HETATM   31  C13 UNL     1      -4.037  -1.287  -0.377  1.00  0.00     0.070 C 
HETATM   32  C14 UNL     1      -2.630  -1.094  -0.001  1.00  0.00     0.285 C 
BRANCH  32  33
HETATM   33  C15 UNL     1      -2.224  -2.129   0.994  1.00  0.00     0.267 C 
HETATM   34  O3  UNL     1      -1.578  -1.952   1.982  1.00  0.00    -0.305 OA
ENDBRANCH  32  33
ENDBRANCH  23  24
ENDBRANCH  22  23
ENDBRANCH  19  22
ENDBRANCH  18  19
TORSDOF 5
