REMARK  9 active torsions:
REMARK  status: ('A' for Active; 'I' for Inactive)
REMARK    1  A    between atoms: C2_2  and  N1_3 
REMARK    2  A    between atoms: N1_3  and  C3_5 
REMARK    3  A    between atoms: C6_13  and  C7_14 
REMARK    4  A    between atoms: C7_14  and  O2_15 
REMARK    5  A    between atoms: N4_17  and  C8_18 
REMARK    6  A    between atoms: C8_18  and  C9_19 
REMARK    7  A    between atoms: C9_19  and  N5_20 
REMARK    8  A    between atoms: N5_20  and  C10_22 
REMARK    9  A    between atoms: C11_25  and  N7_26 
ROOT
HETATM    1  C3  UNL     1      -3.586  -0.868   0.463  1.00  0.00     0.682 A 
HETATM    2  N2  UNL     1      -4.240   0.218   0.015  1.00  0.00    -0.154 N 
ATOM      3  H2  UNL     1      -5.232   0.176  -0.217  1.00  0.00     0.187 HD
HETATM    4  C4  UNL     1      -3.547   1.358  -0.117  1.00  0.00     0.290 A 
HETATM    5  O1  UNL     1      -4.126   2.402  -0.536  1.00  0.00    -0.265 OA
HETATM    6  C5  UNL     1      -2.206   1.395   0.202  1.00  0.00     0.148 A 
HETATM    7  N3  UNL     1      -1.290   2.390   0.162  1.00  0.00    -0.336 N 
ATOM      8  H3  UNL     1      -1.452   3.353  -0.133  1.00  0.00     0.167 HD
HETATM    9  C6  UNL     1      -0.112   1.861   0.591  1.00  0.00     0.109 A 
HETATM   10  N4  UNL     1      -0.240   0.583   0.898  1.00  0.00    -0.317 N 
HETATM   11  C13 UNL     1      -1.554   0.274   0.658  1.00  0.00     0.157 A 
HETATM   12  N10 UNL     1      -2.259  -0.844   0.782  1.00  0.00    -0.174 N 
ATOM     13  H10 UNL     1      -1.805  -1.693   1.119  1.00  0.00     0.186 HD
ENDROOT
BRANCH  10  14
HETATM   14  C8  UNL     1       0.735  -0.339   1.376  1.00  0.00     0.152 C 
BRANCH  14  15
HETATM   15  C9  UNL     1       1.458  -1.126   0.336  1.00  0.00     0.158 C 
BRANCH  15  16
HETATM   16  N5  UNL     1       2.205  -0.394  -0.620  1.00  0.00    -0.224 N 
ATOM     17  H5  UNL     1       1.673  -0.000  -1.396  1.00  0.00     0.177 HD
BRANCH  16  18
HETATM   18  C10 UNL     1       3.451  -0.168  -0.630  1.00  0.00     0.696 A 
HETATM   19  N6  UNL     1       4.315  -0.600   0.305  1.00  0.00    -0.022 N 
HETATM   20  C11 UNL     1       5.646  -0.312   0.220  1.00  0.00     0.694 A 
ATOM     21  H6  UNL     1       3.970  -1.152   1.090  1.00  0.00     0.203 HD
HETATM   22  N8  UNL     1       6.126   0.407  -0.791  1.00  0.00    -0.141 N 
HETATM   23  C12 UNL     1       5.280   0.844  -1.728  1.00  0.00     0.352 A 
ATOM     24  H8  UNL     1       7.122   0.621  -0.850  1.00  0.00     0.189 HD
HETATM   25  O3  UNL     1       5.700   1.525  -2.696  1.00  0.00    -0.246 OA
HETATM   26  N9  UNL     1       3.959   0.557  -1.643  1.00  0.00    -0.140 N 
ATOM     27  H9  UNL     1       3.330   0.901  -2.369  1.00  0.00     0.189 HD
BRANCH  20  28
HETATM   28  N7  UNL     1       6.472  -0.737   1.132  1.00  0.00    -0.234 N 
ATOM     29  H72 UNL     1       6.104  -1.288   1.907  1.00  0.00     0.174 HD
ATOM     30  H71 UNL     1       7.467  -0.522   1.068  1.00  0.00     0.174 HD
ENDBRANCH  20  28
ENDBRANCH  16  18
ENDBRANCH  15  16
ENDBRANCH  14  15
ENDBRANCH  10  14
BRANCH   9  31
HETATM   31  C7  UNL     1       1.137   2.677   0.697  1.00  0.00     0.241 C 
BRANCH  31  32
HETATM   32  O2  UNL     1       0.815   4.057   0.670  1.00  0.00    -0.393 OA
ATOM     33  H2  UNL     1       1.608   4.575   0.737  1.00  0.00     0.209 HD
ENDBRANCH  31  32
ENDBRANCH   9  31
BRANCH   1  34
HETATM   34  N1  UNL     1      -4.230  -1.963   0.596  1.00  0.00    -0.226 N 
ATOM     35  H1  UNL     1      -3.719  -2.777   0.937  1.00  0.00     0.177 HD
BRANCH  34  36
HETATM   36  C2  UNL     1      -5.617  -2.123   0.299  1.00  0.00     0.133 C 
HETATM   37  C1  UNL     1      -5.919  -2.244  -1.174  1.00  0.00     0.027 C 
ENDBRANCH  34  36
ENDBRANCH   1  34
TORSDOF 9
