REMARK  4 active torsions:
REMARK  status: ('A' for Active; 'I' for Inactive)
REMARK    1  A    between atoms: C3_3  and  C4_4 
REMARK    2  A    between atoms: C3_3  and  N3_12 
REMARK    3  A    between atoms: C4_4  and  N1_5 
REMARK    4  A    between atoms: C4_4  and  C5_9 
ROOT
HETATM    1  C1  UNL     1      -1.223   2.489  -0.784  1.00  0.00     0.014 C 
HETATM    2  C2  UNL     1      -0.778   1.501  -0.252  1.00  0.00    -0.087 C 
HETATM    3  C3  UNL     1      -0.218   0.300   0.377  1.00  0.00     0.230 C 
ENDROOT
BRANCH   3   4
HETATM    4  C4  UNL     1      -0.920  -0.894  -0.220  1.00  0.00     0.308 C 
BRANCH   4   5
HETATM    5  N1  UNL     1      -0.739  -0.987  -1.651  1.00  0.00    -0.064 N 
ATOM      6  H13 UNL     1      -1.026  -0.124  -2.113  1.00  0.00     0.275 HD
ATOM      7  H12 UNL     1       0.251  -0.984  -1.896  1.00  0.00     0.275 HD
ATOM      8  H11 UNL     1      -1.214  -1.794  -2.055  1.00  0.00     0.275 HD
ENDBRANCH   4   5
BRANCH   4   9
HETATM    9  C5  UNL     1      -2.371  -0.833   0.069  1.00  0.00     0.264 C 
HETATM   10  N2  UNL     1      -2.816  -0.738   1.410  1.00  0.00    -0.060 NA
HETATM   11  O1  UNL     1      -3.170  -0.869  -0.903  1.00  0.00    -0.274 OA
ENDBRANCH   4   9
ENDBRANCH   3   4
BRANCH   3  12
HETATM   12  N3  UNL     1       1.207   0.221   0.276  1.00  0.00    -0.219 N 
HETATM   13  N4  UNL     1       1.922  -0.842  -0.121  1.00  0.00    -0.233 N 
HETATM   14  N5  UNL     1       3.186  -0.488  -0.067  1.00  0.00    -0.247 N 
ATOM     15  H4  UNL     1       1.555  -1.749  -0.409  1.00  0.00     0.208 HD
HETATM   16  C6  UNL     1       3.321   0.782   0.355  1.00  0.00     0.330 A 
ATOM     17  H5  UNL     1       3.965  -1.098  -0.314  1.00  0.00     0.192 HD
HETATM   18  O2  UNL     1       4.389   1.449   0.525  1.00  0.00    -0.260 OA
HETATM   19  C7  UNL     1       2.036   1.233   0.575  1.00  0.00     0.334 A 
HETATM   20  O3  UNL     1       1.755   2.396   0.982  1.00  0.00    -0.260 OA
ENDBRANCH   3  12
TORSDOF 4
