REMARK  7 active torsions:
REMARK  status: ('A' for Active; 'I' for Inactive)
REMARK    1  A    between atoms: C2_2  and  C3_3 
REMARK    2  A    between atoms: C3_3  and  N1_4 
REMARK    3  A    between atoms: N1_4  and  C4_5 
REMARK       I    between atoms: N1_4  and  C10_14 
REMARK    4  A    between atoms: C4_5  and  C5_6 
REMARK       I    between atoms: C5_6  and  N2_8 
REMARK    5  A    between atoms: N2_8  and  C6_10 
REMARK    6  A    between atoms: C10_14  and  C11_16 
REMARK       I    between atoms: C11_16  and  N3_18 
REMARK    7  A    between atoms: N3_18  and  C12_20 
ROOT
HETATM    1  N1  UNL     1       1.350   1.691   0.921  1.00  0.00    -0.335 N 
HETATM    2  C10 UNL     1       0.025   1.267   1.119  1.00  0.00     0.311 C 
HETATM    3  O2  UNL     1      -0.593   1.755   2.130  1.00  0.00    -0.262 OA
ENDROOT
BRANCH   2   4
HETATM    4  C11 UNL     1      -0.735   0.341   0.317  1.00  0.00     0.310 C 
HETATM    5  O3  UNL     1      -0.207  -0.196  -0.680  1.00  0.00    -0.262 OA
HETATM    6  N3  UNL     1      -2.069   0.019   0.626  1.00  0.00    -0.342 N 
ATOM      7  H3  UNL     1      -2.490   0.463   1.442  1.00  0.00     0.163 HD
BRANCH   6   8
HETATM    8  C12 UNL     1      -2.880  -0.900  -0.137  1.00  0.00     0.055 C 
HETATM    9  C13 UNL     1      -2.195  -2.255  -0.118  1.00  0.00     0.040 C 
HETATM   10  C14 UNL     1      -3.147  -0.422  -1.536  1.00  0.00     0.060 C 
HETATM   11  C15 UNL     1      -4.590   0.086  -1.464  1.00  0.00     0.239 C 
HETATM   12  N4  UNL     1      -5.237  -0.766  -0.498  1.00  0.00    -0.072 N 
HETATM   13  C16 UNL     1      -5.826  -1.937  -1.120  1.00  0.00     0.272 C 
HETATM   14  C17 UNL     1      -6.328  -0.067   0.184  1.00  0.00     0.272 C 
HETATM   15  C18 UNL     1      -4.243  -1.068   0.483  1.00  0.00     0.267 C 
ENDBRANCH   6   8
ENDBRANCH   2   4
BRANCH   1  16
HETATM   16  C3  UNL     1       1.913   2.636   1.905  1.00  0.00     0.126 C 
BRANCH  16  17
HETATM   17  C2  UNL     1       1.648   4.044   1.469  1.00  0.00     0.015 C 
HETATM   18  C1  UNL     1       2.198   5.063   2.433  1.00  0.00     0.006 C 
ENDBRANCH  16  17
ENDBRANCH   1  16
BRANCH   1  19
HETATM   19  C4  UNL     1       2.233   1.328  -0.140  1.00  0.00     0.228 C 
BRANCH  19  20
HETATM   20  C5  UNL     1       3.025   0.111   0.149  1.00  0.00     0.236 C 
HETATM   21  O1  UNL     1       2.890  -0.509   1.249  1.00  0.00    -0.272 OA
HETATM   22  N2  UNL     1       3.952  -0.383  -0.804  1.00  0.00    -0.352 N 
ATOM     23  H2  UNL     1       4.052   0.125  -1.683  1.00  0.00     0.163 HD
BRANCH  22  24
HETATM   24  C6  UNL     1       4.760  -1.558  -0.606  1.00  0.00     0.022 C 
HETATM   25  C7  UNL     1       3.981  -2.821  -0.401  1.00  0.00     0.037 C 
HETATM   26  C8  UNL     1       5.663  -1.784  -1.809  1.00  0.00     0.037 C 
HETATM   27  C9  UNL     1       5.624  -1.354   0.647  1.00  0.00     0.037 C 
ENDBRANCH  22  24
ENDBRANCH  19  20
ENDBRANCH   1  19
TORSDOF 7
