REMARK  7 active torsions:
REMARK  status: ('A' for Active; 'I' for Inactive)
REMARK    1  A    between atoms: N1_2  and  C3_4 
REMARK    2  A    between atoms: C3_4  and  C4_5 
REMARK    3  A    between atoms: C4_5  and  N2_6 
REMARK       I    between atoms: N2_6  and  C5_8 
REMARK    4  A    between atoms: C5_8  and  C6_10 
REMARK    5  A    between atoms: C12_16  and  C13_17 
REMARK    6  A    between atoms: C13_17  and  S1_18 
REMARK    7  A    between atoms: S1_18  and  N3_19 
ROOT
HETATM    1  C6  UNL     1      -0.636  -0.517  -0.171  1.00  0.00     0.118 C 
HETATM    2  C7  UNL     1      -0.394  -0.544  -1.690  1.00  0.00     0.051 C 
HETATM    3  C8  UNL     1      -1.749  -0.046  -2.071  1.00  0.00     0.202 C 
HETATM    4  C9  UNL     1      -2.688  -0.775  -1.098  1.00  0.00     0.017 C 
HETATM    5  C10 UNL     1      -4.150  -0.634  -1.296  1.00  0.00     0.019 C 
HETATM    6  C11 UNL     1      -2.407  -2.225  -0.861  1.00  0.00     0.019 C 
HETATM    7  C12 UNL     1      -1.972   0.196  -0.193  1.00  0.00     0.164 C 
HETATM    8  N4  UNL     1      -1.876   1.169  -1.261  1.00  0.00    -0.058 N 
HETATM    9  C14 UNL     1      -0.811   2.109  -1.225  1.00  0.00     0.273 C 
HETATM   10  C15 UNL     1      -3.038   1.908  -1.671  1.00  0.00     0.273 C 
ENDROOT
BRANCH   1  11
HETATM   11  C5  UNL     1       0.494   0.089   0.473  1.00  0.00     0.224 C 
HETATM   12  N2  UNL     1       1.783  -0.393   0.117  1.00  0.00    -0.359 N 
ATOM     13  H2  UNL     1       1.840  -1.141  -0.574  1.00  0.00     0.162 HD
HETATM   14  O1  UNL     1       0.520   1.011   1.335  1.00  0.00    -0.273 OA
BRANCH  12  15
HETATM   15  C4  UNL     1       3.014   0.110   0.671  1.00  0.00     0.152 C 
BRANCH  15  16
HETATM   16  C3  UNL     1       4.175  -0.626   0.058  1.00  0.00     0.290 C 
BRANCH  16  17
HETATM   17  N1  UNL     1       5.461  -0.220   0.516  1.00  0.00     0.081 N 
HETATM   18  C1  UNL     1       5.745  -0.543   1.876  1.00  0.00     0.309 C 
HETATM   19  C2  UNL     1       5.819   1.123   0.181  1.00  0.00     0.309 C 
ENDBRANCH  16  17
ENDBRANCH  15  16
ENDBRANCH  12  15
ENDBRANCH   1  11
BRANCH   7  20
HETATM   20  C13 UNL     1      -2.549   0.666   1.036  1.00  0.00     0.204 C 
BRANCH  20  21
HETATM   21  S1  UNL     1      -2.953  -0.352   2.347  1.00  0.00     0.226 S 
HETATM   22  O2  UNL     1      -4.111  -1.261   2.199  1.00  0.00    -0.206 OA
HETATM   23  O3  UNL     1      -3.375   0.585   3.496  1.00  0.00    -0.206 OA
BRANCH  21  24
HETATM   24  N3  UNL     1      -1.653  -1.254   3.032  1.00  0.00    -0.328 N 
ATOM     25  H32 UNL     1      -0.705  -1.173   2.665  1.00  0.00     0.168 HD
ATOM     26  H31 UNL     1      -1.894  -1.862   3.815  1.00  0.00     0.168 HD
ENDBRANCH  21  24
ENDBRANCH  20  21
ENDBRANCH   7  20
TORSDOF 7
