REMARK  6 active torsions:
REMARK  status: ('A' for Active; 'I' for Inactive)
REMARK    1  A    between atoms: C2_2  and  C3_3 
REMARK    2  A    between atoms: N1_5  and  C5_6 
REMARK    3  A    between atoms: C5_6  and  C6_7 
REMARK    4  A    between atoms: C6_7  and  C7_8 
REMARK    5  A    between atoms: C7_8  and  C8_9 
REMARK    6  A    between atoms: C8_9  and  N2_10 
ROOT
HETATM    1  C7  UNL     1      -0.352   0.327   0.145  1.00  0.00     0.032 C 
ENDROOT
BRANCH   1   2
HETATM    2  C6  UNL     1      -1.012  -0.843  -0.497  1.00  0.00     0.022 C 
BRANCH   2   3
HETATM    3  C5  UNL     1      -2.237  -1.236   0.263  1.00  0.00     0.126 C 
BRANCH   3   4
HETATM    4  N1  UNL     1      -3.246  -0.203   0.354  1.00  0.00    -0.342 N 
HETATM    5  C4  UNL     1      -4.224  -0.164  -0.714  1.00  0.00     0.151 C 
HETATM    6  C3  UNL     1      -5.330   0.808  -0.480  1.00  0.00     0.102 C 
HETATM    7  N4  UNL     1      -4.903   2.032   0.152  1.00  0.00    -0.347 N 
HETATM    8  C18 UNL     1      -4.107   1.884   1.345  1.00  0.00     0.309 C 
ATOM      9  H4  UNL     1      -5.150   2.948  -0.223  1.00  0.00     0.163 HD
HETATM   10  C17 UNL     1      -3.234   0.701   1.447  1.00  0.00     0.311 C 
HETATM   11  O3  UNL     1      -4.129   2.712   2.288  1.00  0.00    -0.262 OA
HETATM   12  O2  UNL     1      -2.538   0.547   2.465  1.00  0.00    -0.262 OA
BRANCH   6  13
HETATM   13  C2  UNL     1      -6.403   0.184   0.397  1.00  0.00     0.022 C 
HETATM   14  C1  UNL     1      -7.003  -1.050  -0.226  1.00  0.00     0.007 C 
ENDBRANCH   6  13
ENDBRANCH   3   4
ENDBRANCH   2   3
ENDBRANCH   1   2
BRANCH   1  15
HETATM   15  C8  UNL     1       0.889   0.679  -0.671  1.00  0.00     0.272 C 
BRANCH  15  16
HETATM   16  N2  UNL     1       1.807  -0.460  -0.698  1.00  0.00     0.088 N 
HETATM   17  C9  UNL     1       2.951  -0.043  -1.489  1.00  0.00     0.273 C 
HETATM   18  C10 UNL     1       3.864   0.729  -0.540  1.00  0.00     0.049 C 
HETATM   19  C11 UNL     1       4.609  -0.276   0.290  1.00  0.00     0.045 C 
HETATM   20  C12 UNL     1       5.829  -0.704  -0.487  1.00  0.00     0.039 C 
HETATM   21  C14 UNL     1       5.185   0.294   1.515  1.00  0.00     0.226 C 
HETATM   22  C15 UNL     1       3.674  -1.430   0.568  1.00  0.00     0.049 C 
HETATM   23  C13 UNL     1       6.778   0.467  -0.212  1.00  0.00     0.123 C 
HETATM   24  N3  UNL     1       6.493   0.741   1.198  1.00  0.00    -0.360 N 
ATOM     25  H3  UNL     1       7.137   1.186   1.852  1.00  0.00     0.162 HD
HETATM   26  O1  UNL     1       4.593   0.355   2.621  1.00  0.00    -0.273 OA
HETATM   27  C16 UNL     1       2.266  -0.819   0.607  1.00  0.00     0.273 C 
ENDBRANCH  15  16
ENDBRANCH   1  15
TORSDOF 6
