REMARK  9 active torsions:
REMARK  status: ('A' for Active; 'I' for Inactive)
REMARK    1  A    between atoms: C2_2  and  C3_3 
REMARK    2  A    between atoms: C3_3  and  C5_5 
REMARK    3  A    between atoms: C5_5  and  N1_6 
REMARK    4  A    between atoms: N1_6  and  C6_8 
REMARK    5  A    between atoms: C6_8  and  O1_9 
REMARK    6  A    between atoms: C6_8  and  N2_11 
REMARK    7  A    between atoms: N3_14  and  C9_15 
REMARK    8  A    between atoms: C9_15  and  C10_16 
REMARK    9  A    between atoms: N4_21  and  C13_22 
ROOT
HETATM    1  N2  UNL     1       1.725  -0.473  -0.664  1.00  0.00    -0.345 N 
HETATM    2  C7  UNL     1       1.265   0.109   0.561  1.00  0.00     0.146 C 
HETATM    3  C8  UNL     1      -0.077   0.850   0.283  1.00  0.00     0.137 C 
HETATM    4  N3  UNL     1      -1.034  -0.188   0.040  1.00  0.00    -0.396 N 
HETATM    5  C18 UNL     1      -0.500  -1.291  -0.714  1.00  0.00     0.137 C 
HETATM    6  C19 UNL     1       0.699  -0.908  -1.588  1.00  0.00     0.146 C 
ENDROOT
BRANCH   4   7
HETATM    7  C9  UNL     1      -2.339   0.217  -0.360  1.00  0.00     0.090 C 
HETATM    8  C11 UNL     1      -3.267  -0.964  -0.267  1.00  0.00     0.067 C 
HETATM    9  C12 UNL     1      -4.068  -0.858   1.020  1.00  0.00     0.275 C 
HETATM   10  N4  UNL     1      -4.995   0.221   0.914  1.00  0.00     0.092 N 
HETATM   11  C16 UNL     1      -4.308   1.448   0.613  1.00  0.00     0.275 C 
HETATM   12  C17 UNL     1      -2.807   1.282   0.641  1.00  0.00     0.067 C 
BRANCH   7  13
HETATM   13  C10 UNL     1      -2.482   0.856  -1.696  1.00  0.00     0.380 C 
HETATM   14  F1  UNL     1      -1.786   2.008  -1.899  1.00  0.00    -0.212 F 
HETATM   15  F2  UNL     1      -2.366  -0.056  -2.752  1.00  0.00    -0.212 F 
ENDBRANCH   7  13
BRANCH  10  16
HETATM   16  C13 UNL     1      -6.086  -0.037   0.034  1.00  0.00     0.215 C 
HETATM   17  C14 UNL     1      -6.911  -1.200   0.552  1.00  0.00     0.042 C 
HETATM   18  C15 UNL     1      -7.006   1.182   0.011  1.00  0.00     0.042 C 
ENDBRANCH  10  16
ENDBRANCH   4   7
BRANCH   1  19
HETATM   19  C6  UNL     1       3.074  -0.611  -0.970  1.00  0.00     0.215 C 
BRANCH  19  20
HETATM   20  N1  UNL     1       4.124  -0.215  -0.127  1.00  0.00    -0.356 N 
ATOM     21  H1  UNL     1       3.917   0.202   0.780  1.00  0.00     0.163 HD
BRANCH  20  22
HETATM   22  C5  UNL     1       5.492  -0.396  -0.539  1.00  0.00     0.127 C 
BRANCH  22  23
HETATM   23  C3  UNL     1       6.398   0.107   0.544  1.00  0.00    -0.001 C 
HETATM   24  C4  UNL     1       6.087  -0.655   1.821  1.00  0.00     0.011 C 
BRANCH  23  25
HETATM   25  C2  UNL     1       7.860  -0.048   0.170  1.00  0.00     0.001 C 
HETATM   26  C1  UNL     1       8.061   0.753  -1.120  1.00  0.00     0.005 C 
ENDBRANCH  23  25
ENDBRANCH  22  23
ENDBRANCH  20  22
ENDBRANCH  19  20
BRANCH  19  27
HETATM   27  O1  UNL     1       3.407  -1.139  -2.112  1.00  0.00    -0.333 OA
ATOM     28  H1  UNL     1       2.696  -1.407  -2.683  1.00  0.00     0.220 HD
ENDBRANCH  19  27
ENDBRANCH   1  19
TORSDOF 9
