REMARK  5 active torsions:
REMARK  status: ('A' for Active; 'I' for Inactive)
REMARK    1  A    between atoms: C1_2  and  C2_3 
REMARK       I    between atoms: C1_2  and  N1_12 
REMARK    2  A    between atoms: C2_3  and  C3_4 
REMARK    3  A    between atoms: N1_12  and  C9_14 
REMARK    4  A    between atoms: C9_14  and  C10_15 
REMARK       I    between atoms: C10_15  and  N2_17 
REMARK    5  A    between atoms: N3_20  and  C13_21 
ROOT
HETATM    1  C9  UNL     1       1.021   0.018   1.559  1.00  0.00     0.225 C 
ENDROOT
BRANCH   1   2
HETATM    2  N1  UNL     1       2.406  -0.321   1.665  1.00  0.00    -0.352 N 
HETATM    3  C1  UNL     1       3.353  -0.270   0.605  1.00  0.00     0.218 C 
HETATM    4  O1  UNL     1       2.930   0.116  -0.531  1.00  0.00    -0.274 OA
ATOM      5  H1  UNL     1       2.744  -0.625   2.578  1.00  0.00     0.162 HD
BRANCH   3   6
HETATM    6  C2  UNL     1       4.767  -0.637   0.773  1.00  0.00     0.107 C 
BRANCH   6   7
HETATM    7  C3  UNL     1       5.534  -0.473  -0.528  1.00  0.00    -0.005 C 
HETATM    8  C4  UNL     1       5.510   0.922  -1.035  1.00  0.00     0.011 C 
HETATM    9  C5  UNL     1       6.899   1.305  -1.500  1.00  0.00     0.079 C 
HETATM   10  C6  UNL     1       7.797   1.234  -0.262  1.00  0.00     0.243 C 
HETATM   11  F1  UNL     1       7.156   1.954   0.727  1.00  0.00    -0.206 F 
HETATM   12  F2  UNL     1       9.021   1.817  -0.490  1.00  0.00    -0.206 F 
HETATM   13  C7  UNL     1       7.912  -0.195   0.223  1.00  0.00     0.079 C 
HETATM   14  C8  UNL     1       6.904  -1.097  -0.436  1.00  0.00     0.011 C 
ENDBRANCH   6   7
ENDBRANCH   3   6
ENDBRANCH   1   2
BRANCH   1  15
HETATM   15  C10 UNL     1       0.243  -0.800   0.615  1.00  0.00     0.237 C 
HETATM   16  O2  UNL     1       0.825  -1.722  -0.010  1.00  0.00    -0.272 OA
HETATM   17  N2  UNL     1      -1.141  -0.572   0.398  1.00  0.00    -0.347 N 
HETATM   18  C11 UNL     1      -1.908  -1.367  -0.523  1.00  0.00     0.156 C 
HETATM   19  C20 UNL     1      -1.857   0.476   1.097  1.00  0.00     0.156 C 
HETATM   20  C12 UNL     1      -3.108  -0.635  -1.056  1.00  0.00     0.292 C 
HETATM   21  N3  UNL     1      -3.929  -0.027  -0.031  1.00  0.00     0.096 N 
HETATM   22  C19 UNL     1      -3.293  -0.045   1.246  1.00  0.00     0.292 C 
BRANCH  21  23
HETATM   23  C13 UNL     1      -5.214  -0.646  -0.059  1.00  0.00     0.223 C 
HETATM   24  C14 UNL     1      -6.161  -0.117   0.989  1.00  0.00     0.036 C 
HETATM   25  C15 UNL     1      -6.445   1.327   0.727  1.00  0.00     0.002 C 
HETATM   26  C16 UNL     1      -7.381   1.380  -0.488  1.00  0.00     0.000 C 
HETATM   27  C17 UNL     1      -7.261   0.128  -1.293  1.00  0.00     0.002 C 
HETATM   28  C18 UNL     1      -5.839  -0.380  -1.407  1.00  0.00     0.036 C 
ENDBRANCH  21  23
ENDBRANCH   1  15
TORSDOF 5
