REMARK  5 active torsions:
REMARK  status: ('A' for Active; 'I' for Inactive)
REMARK    1  A    between atoms: C9_9  and  C10_10 
REMARK       I    between atoms: C10_10  and  N1_12 
REMARK    2  A    between atoms: N1_12  and  C11_14 
REMARK    3  A    between atoms: C11_14  and  C12_15 
REMARK    4  A    between atoms: C12_15  and  C13_16 
REMARK    5  A    between atoms: N2_21  and  C16_22 
ROOT
HETATM    1  C1  UNL     1      -3.841  -3.149   1.187  1.00  0.00     0.015 C 
HETATM    2  C2  UNL     1      -2.834  -2.903   0.371  1.00  0.00    -0.084 C 
HETATM    3  C3  UNL     1      -2.966  -2.624  -1.092  1.00  0.00     0.039 C 
HETATM    4  C4  UNL     1      -1.526  -2.331  -1.377  1.00  0.00     0.004 C 
HETATM    5  C5  UNL     1      -0.876  -3.532  -0.673  1.00  0.00     0.016 C 
HETATM    6  C6  UNL     1      -1.383  -2.829   0.573  1.00  0.00     0.028 C 
HETATM    7  C7  UNL     1      -1.016  -1.545  -0.155  1.00  0.00     0.004 C 
HETATM    8  C8  UNL     1       0.424  -1.297  -0.337  1.00  0.00     0.032 C 
HETATM    9  C9  UNL     1       0.655   0.189  -0.684  1.00  0.00     0.097 C 
HETATM   10  C15 UNL     1       0.182   0.961   0.468  1.00  0.00     0.136 C 
HETATM   11  N2  UNL     1      -1.240   0.836   0.583  1.00  0.00    -0.387 N 
HETATM   12  C21 UNL     1      -1.843  -0.400   0.274  1.00  0.00     0.069 C 
ENDROOT
BRANCH   9  13
HETATM   13  C10 UNL     1       2.005   0.367  -1.200  1.00  0.00     0.223 C 
HETATM   14  O1  UNL     1       2.166   1.103  -2.229  1.00  0.00    -0.273 OA
HETATM   15  N1  UNL     1       3.165  -0.264  -0.601  1.00  0.00    -0.360 N 
ATOM     16  H1  UNL     1       3.073  -0.838   0.237  1.00  0.00     0.162 HD
BRANCH  15  17
HETATM   17  C11 UNL     1       4.439  -0.062  -1.213  1.00  0.00     0.128 C 
BRANCH  17  18
HETATM   18  C12 UNL     1       5.601  -0.723  -0.583  1.00  0.00     0.098 C 
BRANCH  18  19
HETATM   19  C13 UNL     1       5.909  -0.258   0.812  1.00  0.00     0.241 C 
HETATM   20  C14 UNL     1       6.240   1.230   0.805  1.00  0.00     0.090 C 
HETATM   21  F1  UNL     1       4.874  -0.509   1.649  1.00  0.00    -0.207 F 
HETATM   22  F2  UNL     1       7.055  -0.958   1.259  1.00  0.00    -0.207 F 
ENDBRANCH  18  19
ENDBRANCH  17  18
ENDBRANCH  15  17
ENDBRANCH   9  13
BRANCH  11  23
HETATM   23  C16 UNL     1      -2.011   1.998   0.299  1.00  0.00     0.087 C 
HETATM   24  C17 UNL     1      -3.286   1.784  -0.456  1.00  0.00     0.051 C 
HETATM   25  C18 UNL     1      -4.074   3.071  -0.481  1.00  0.00     0.169 C 
HETATM   26  O2  UNL     1      -3.333   4.137   0.017  1.00  0.00    -0.391 OA
HETATM   27  C19 UNL     1      -3.193   3.937   1.390  1.00  0.00     0.169 C 
HETATM   28  C20 UNL     1      -2.369   2.690   1.595  1.00  0.00     0.051 C 
ENDBRANCH  11  23
TORSDOF 5
