REMARK  4 active torsions:
REMARK  status: ('A' for Active; 'I' for Inactive)
REMARK    1  A    between atoms: C2_6  and  C3_7 
REMARK    2  A    between atoms: C3_7  and  C4_8 
REMARK    3  A    between atoms: N3_13  and  C7_14 
REMARK    4  A    between atoms: N5_25  and  C16_26 
ROOT
HETATM    1  C3  UNL     1       0.509  -0.449  -0.633  1.00  0.00     0.054 C 
HETATM    2  C13 UNL     1       0.262  -1.809  -0.145  1.00  0.00     0.023 C 
HETATM    3  C14 UNL     1       1.281  -2.370  -1.152  1.00  0.00     0.003 C 
HETATM    4  C15 UNL     1       1.061  -1.089  -1.927  1.00  0.00     0.023 C 
ENDROOT
BRANCH   1   5
HETATM    5  C2  UNL     1       1.677   0.237   0.032  1.00  0.00     0.084 A 
HETATM    6  S1  UNL     1       1.830   1.871   0.540  1.00  0.00    -0.037 SA
HETATM    7  C1  UNL     1       3.415   1.772   1.171  1.00  0.00     0.161 A 
HETATM    8  N1  UNL     1       4.176   2.684   1.732  1.00  0.00    -0.378 N 
HETATM    9  N5  UNL     1       3.718   0.487   0.948  1.00  0.00    -0.266 N 
ATOM     10  H12 UNL     1       3.945   3.663   1.902  1.00  0.00     0.158 HD
ATOM     11  H11 UNL     1       5.122   2.625   2.109  1.00  0.00     0.158 HD
HETATM   12  N4  UNL     1       2.846  -0.247   0.386  1.00  0.00    -0.292 N 
ATOM     13  H4  UNL     1       3.057  -1.229   0.207  1.00  0.00     0.187 HD
BRANCH   9  14
HETATM   14  C16 UNL     1       5.046  -0.039   1.365  1.00  0.00     0.110 A 
HETATM   15  C17 UNL     1       6.234   0.458   0.577  1.00  0.00     0.029 A 
HETATM   16  C18 UNL     1       5.766  -0.925   0.326  1.00  0.00     0.029 A 
ENDBRANCH   9  14
ENDBRANCH   1   5
BRANCH   1  17
HETATM   17  C4  UNL     1      -0.546   0.465  -1.001  1.00  0.00     0.045 A 
HETATM   18  C5  UNL     1      -0.379   1.435  -2.001  1.00  0.00     0.046 A 
HETATM   19  C6  UNL     1      -1.538   2.136  -2.107  1.00  0.00     0.109 A 
HETATM   20  N2  UNL     1      -2.397   1.636  -1.219  1.00  0.00    -0.309 N 
HETATM   21  N3  UNL     1      -1.792   0.635  -0.561  1.00  0.00    -0.291 N 
ATOM     22  H2  UNL     1      -3.352   1.959  -1.066  1.00  0.00     0.186 HD
BRANCH  21  23
HETATM   23  C7  UNL     1      -2.412  -0.141   0.477  1.00  0.00     0.108 C 
HETATM   24  C8  UNL     1      -3.522  -1.038  -0.064  1.00  0.00     0.027 C 
HETATM   25  C9  UNL     1      -4.795  -0.318  -0.338  1.00  0.00     0.002 C 
HETATM   26  C10 UNL     1      -5.451   0.011   1.001  1.00  0.00     0.000 C 
HETATM   27  C11 UNL     1      -4.336   0.209   1.997  1.00  0.00     0.002 C 
HETATM   28  C12 UNL     1      -3.140   0.874   1.377  1.00  0.00     0.027 C 
ENDBRANCH  21  23
ENDBRANCH   1  17
TORSDOF 4
