REMARK  4 active torsions:
REMARK  status: ('A' for Active; 'I' for Inactive)
REMARK       I    between atoms: C2_2  and  N1_4 
REMARK    1  A    between atoms: N1_4  and  N2_6 
REMARK    2  A    between atoms: C3_7  and  C4_8 
REMARK    3  A    between atoms: C8_13  and  C9_14 
REMARK    4  A    between atoms: C9_14  and  C10_16 
ROOT
HETATM    1  N2  UNL     1      -2.187   0.734   0.795  1.00  0.00    -0.232 N 
HETATM    2  C3  UNL     1      -1.434  -0.010   0.003  1.00  0.00     0.113 A 
HETATM    3  C8  UNL     1      -0.098   0.200  -0.014  1.00  0.00     0.085 A 
HETATM    4  S1  UNL     1       0.088   1.475   1.156  1.00  0.00    -0.053 SA
HETATM    5  C16 UNL     1      -1.518   1.663   1.569  1.00  0.00     0.165 A 
HETATM    6  S2  UNL     1      -2.227   2.710   2.660  1.00  0.00    -0.050 SA
ENDROOT
BRANCH   3   7
HETATM    7  C9  UNL     1       1.003  -0.271  -0.888  1.00  0.00     0.173 C 
HETATM    8  O3  UNL     1       0.770  -0.911  -1.923  1.00  0.00    -0.291 OA
BRANCH   7   9
HETATM    9  C10 UNL     1       2.408   0.022  -0.533  1.00  0.00     0.061 C 
HETATM   10  C11 UNL     1       2.828  -0.508   0.809  1.00  0.00     0.012 C 
HETATM   11  C12 UNL     1       4.342  -0.522   0.818  1.00  0.00     0.001 C 
HETATM   12  C13 UNL     1       4.979   0.755   0.416  1.00  0.00     0.000 C 
HETATM   13  C14 UNL     1       4.335   1.461  -0.752  1.00  0.00     0.001 C 
HETATM   14  C15 UNL     1       2.820   1.447  -0.651  1.00  0.00     0.012 C 
ENDBRANCH   7   9
ENDBRANCH   3   7
BRANCH   2  15
HETATM   15  C4  UNL     1      -1.973  -1.330  -0.541  1.00  0.00     0.105 A 
HETATM   16  C5  UNL     1      -1.236  -2.521  -0.597  1.00  0.00     0.041 A 
HETATM   17  C6  UNL     1      -2.060  -3.482  -1.127  1.00  0.00     0.027 A 
HETATM   18  C7  UNL     1      -3.256  -2.861  -1.372  1.00  0.00     0.142 A 
HETATM   19  O2  UNL     1      -3.108  -1.640  -1.006  1.00  0.00    -0.320 OA
ENDBRANCH   2  15
BRANCH   1  20
HETATM   20  N1  UNL     1      -3.603   0.922   0.777  1.00  0.00    -0.262 N 
HETATM   21  C2  UNL     1      -4.452   1.008  -0.321  1.00  0.00     0.232 C 
HETATM   22  C1  UNL     1      -5.961   1.152  -0.075  1.00  0.00     0.119 C 
HETATM   23  O1  UNL     1      -4.152   0.984  -1.545  1.00  0.00    -0.272 OA
ATOM     24  H1  UNL     1      -4.050   1.004   1.690  1.00  0.00     0.190 HD
ENDBRANCH   1  20
TORSDOF 4
