REMARK  2 active torsions:
REMARK  status: ('A' for Active; 'I' for Inactive)
REMARK    1  A    between atoms: C3_6  and  N2_7 
REMARK    2  A    between atoms: N2_7  and  N3_9 
ROOT
HETATM    1  N1  UNL     1      -3.259   0.042   0.271  1.00  0.00    -0.385 N 
ATOM      2  H11 UNL     1      -4.007  -0.652   0.254  1.00  0.00     0.157 HD
ATOM      3  H12 UNL     1      -3.509   1.015   0.446  1.00  0.00     0.157 HD
HETATM    4  C1  UNL     1      -2.037  -0.338   0.071  1.00  0.00     0.103 A 
HETATM    5  C2  UNL     1      -1.024   0.602   0.094  1.00  0.00     0.097 A 
HETATM    6  C3  UNL     1       0.288   0.251  -0.112  1.00  0.00     0.123 A 
HETATM    7  N4  UNL     1       0.572  -1.034  -0.339  1.00  0.00    -0.337 N 
ATOM      8  H4  UNL     1       1.538  -1.322  -0.495  1.00  0.00     0.168 HD
HETATM    9  C4  UNL     1      -0.422  -1.957  -0.362  1.00  0.00     0.183 A 
HETATM   10  N5  UNL     1      -1.708  -1.619  -0.160  1.00  0.00    -0.339 N 
ATOM     11  H5  UNL     1      -2.433  -2.336  -0.182  1.00  0.00     0.168 HD
ENDROOT
BRANCH   6  12
HETATM   12  N2  UNL     1       1.318   1.224  -0.086  1.00  0.00    -0.292 N 
ATOM     13  H2  UNL     1       1.051   2.192   0.091  1.00  0.00     0.188 HD
BRANCH  12  14
HETATM   14  N3  UNL     1       2.650   0.955  -0.282  1.00  0.00    -0.344 N 
ATOM     15  H32 UNL     1       2.899  -0.019  -0.457  1.00  0.00     0.176 HD
ATOM     16  H31 UNL     1       3.391   1.655  -0.263  1.00  0.00     0.176 HD
ENDBRANCH  12  14
ENDBRANCH   6  12
TORSDOF 2
