REMARK  4 active torsions:
REMARK  status: ('A' for Active; 'I' for Inactive)
REMARK    1  A    between atoms: C2_2  and  N1_5 
REMARK    2  A    between atoms: N1_5  and  N2_7 
REMARK    3  A    between atoms: N3_9  and  N4_11 
REMARK    4  A    between atoms: N4_11  and  N5_13 
ROOT
HETATM    1  N2  UNL     1       1.181  -0.352  -0.318  1.00  0.00    -0.231 N 
ATOM      2  H2  UNL     1       1.516  -1.195   0.148  1.00  0.00     0.209 HD
HETATM    3  N3  UNL     1       1.904   0.695  -0.343  1.00  0.00    -0.214 N 
ATOM      4  H3  UNL     1       1.582   1.545  -0.805  1.00  0.00     0.211 HD
ENDROOT
BRANCH   1   5
HETATM    5  N1  UNL     1      -0.074  -0.341  -0.931  1.00  0.00    -0.312 N 
ATOM      6  H1  UNL     1      -0.161  -0.542  -1.927  1.00  0.00     0.182 HD
BRANCH   5   7
HETATM    7  C2  UNL     1      -1.235  -0.047  -0.153  1.00  0.00     0.036 C 
HETATM    8  C1  UNL     1      -1.206   1.316   0.493  1.00  0.00     0.039 C 
HETATM    9  C3  UNL     1      -2.515  -0.194  -0.940  1.00  0.00     0.039 C 
HETATM   10  C4  UNL     1      -1.291  -1.088   0.974  1.00  0.00     0.039 C 
ENDBRANCH   5   7
ENDBRANCH   1   5
BRANCH   3  11
HETATM   11  N4  UNL     1       3.170   0.643   0.290  1.00  0.00    -0.234 N 
ATOM     12  H4  UNL     1       3.491   1.377   0.921  1.00  0.00     0.209 HD
BRANCH  11  13
HETATM   13  N5  UNL     1       3.950  -0.477  -0.004  1.00  0.00    -0.330 N 
ATOM     14  H52 UNL     1       3.615  -1.203  -0.637  1.00  0.00     0.178 HD
ATOM     15  H51 UNL     1       4.862  -0.514   0.452  1.00  0.00     0.178 HD
ENDBRANCH  11  13
ENDBRANCH   3  11
TORSDOF 4
