REMARK  9 active torsions:
REMARK  status: ('A' for Active; 'I' for Inactive)
REMARK    1  A    between atoms: C2_2  and  O1_3 
REMARK    2  A    between atoms: O1_3  and  C3_4 
REMARK    3  A    between atoms: C3_4  and  C4_6 
REMARK    4  A    between atoms: C4_6  and  N1_7 
REMARK    5  A    between atoms: N1_7  and  O3_8 
REMARK    6  A    between atoms: N1_7  and  C5_10 
REMARK    7  A    between atoms: C8_13  and  C9_15 
REMARK    8  A    between atoms: C16_22  and  O4_23 
REMARK    9  A    between atoms: O4_23  and  C17_24 
ROOT
HETATM    1  C5  UNL     1       0.612   1.443   0.296  1.00  0.00     0.043 C 
HETATM    2  C6  UNL     1      -0.488   0.716   0.229  1.00  0.00    -0.015 C 
HETATM    3  C7  UNL     1      -0.669  -0.730  -0.061  1.00  0.00    -0.027 C 
HETATM    4  C8  UNL     1      -0.132  -1.590   0.749  1.00  0.00     0.026 C 
HETATM    5 CL1  UNL     1       0.803  -1.092   2.216  1.00  0.00    -0.088 Cl
HETATM    6  C13 UNL     1      -1.557  -0.984  -1.240  1.00  0.00     0.019 C 
HETATM    7  C14 UNL     1      -0.800  -1.233  -2.520  1.00  0.00     0.015 C 
HETATM    8  C15 UNL     1      -2.263   0.374  -1.545  1.00  0.00     0.042 C 
HETATM    9  C16 UNL     1      -2.820   1.013  -0.329  1.00  0.00     0.145 C 
HETATM   10  C19 UNL     1      -1.664   1.622   0.423  1.00  0.00     0.013 C 
HETATM   11  C20 UNL     1      -2.043   1.649   1.884  1.00  0.00     0.023 C 
HETATM   12  C21 UNL     1      -1.177   2.937   0.002  1.00  0.00     0.023 C 
HETATM   13  C22 UNL     1       0.244   2.892   0.612  1.00  0.00     0.061 C 
ENDROOT
BRANCH   1  14
HETATM   14  N1  UNL     1       1.940   1.000   0.096  1.00  0.00    -0.255 N 
BRANCH  14  15
HETATM   15  C4  UNL     1       2.987   1.618   0.852  1.00  0.00     0.266 C 
BRANCH  15  16
HETATM   16  C3  UNL     1       4.327   1.127   0.550  1.00  0.00     0.279 C 
HETATM   17  O2  UNL     1       5.304   1.613   1.162  1.00  0.00    -0.263 OA
BRANCH  16  18
HETATM   18  O1  UNL     1       4.559   0.146  -0.386  1.00  0.00    -0.321 OA
BRANCH  18  19
HETATM   19  C2  UNL     1       5.826  -0.377  -0.731  1.00  0.00     0.174 C 
HETATM   20  C1  UNL     1       6.689   0.764  -1.267  1.00  0.00     0.034 C 
ENDBRANCH  18  19
ENDBRANCH  16  18
ENDBRANCH  15  16
ENDBRANCH  14  15
BRANCH  14  21
HETATM   21  O3  UNL     1       2.216   0.146  -0.722  1.00  0.00    -0.287 OA
ATOM     22  H3  UNL     1       1.521  -0.264  -1.224  1.00  0.00     0.244 HD
ENDBRANCH  14  21
ENDBRANCH   1  14
BRANCH   4  23
HETATM   23  C9  UNL     1      -0.119  -3.049   0.744  1.00  0.00    -0.013 C 
HETATM   24  C10 UNL     1      -0.887  -3.497   2.004  1.00  0.00     0.020 C 
HETATM   25  C11 UNL     1       1.347  -3.458   1.080  1.00  0.00     0.020 C 
HETATM   26  C12 UNL     1      -0.471  -3.836  -0.432  1.00  0.00     0.020 C 
ENDBRANCH   4  23
BRANCH   9  27
HETATM   27  O4  UNL     1      -3.908   1.842  -0.487  1.00  0.00    -0.315 OA
BRANCH  27  28
HETATM   28  C17 UNL     1      -5.147   1.628   0.098  1.00  0.00     0.255 C 
HETATM   29  C18 UNL     1      -6.246   2.574  -0.133  1.00  0.00     0.126 C 
HETATM   30  O5  UNL     1      -5.245   0.604   0.807  1.00  0.00    -0.266 OA
ENDBRANCH  27  28
ENDBRANCH   9  27
TORSDOF 9
