REMARK  4 active torsions:
REMARK  status: ('A' for Active; 'I' for Inactive)
REMARK    1  A    between atoms: C2_2  and  N1_4 
REMARK    2  A    between atoms: C5_7  and  C6_8 
REMARK       I    between atoms: C6_8  and  N2_10 
REMARK    3  A    between atoms: N3_21  and  C16_22 
REMARK    4  A    between atoms: C16_22  and  C17_23 
ROOT
HETATM    1  N1  UNL     1      -2.162   2.496   0.061  1.00  0.00    -0.313 N 
HETATM    2  C4  UNL     1      -2.878   1.580  -0.607  1.00  0.00     0.124 A 
HETATM    3 CL1  UNL     1      -4.549   1.786  -1.142  1.00  0.00    -0.063 Cl
HETATM    4  C5  UNL     1      -2.132   0.450  -0.821  1.00  0.00     0.083 A 
HETATM    5  C12 UNL     1      -0.866   0.677  -0.247  1.00  0.00     0.029 A 
HETATM    6  C13 UNL     1      -0.940   1.946   0.278  1.00  0.00     0.155 A 
HETATM    7  O2  UNL     1       0.103   2.600   0.953  1.00  0.00    -0.334 OA
HETATM    8  C14 UNL     1       1.478   2.263   0.923  1.00  0.00     0.197 C 
HETATM    9  C15 UNL     1       1.634   0.765   1.232  1.00  0.00     0.144 C 
HETATM   10  N3  UNL     1       1.507   0.052   0.030  1.00  0.00    -0.406 N 
HETATM   11  C23 UNL     1       0.163  -0.355  -0.302  1.00  0.00     0.161 C 
ENDROOT
BRANCH   4  12
HETATM   12  C6  UNL     1      -2.601  -0.738  -1.512  1.00  0.00     0.257 C 
HETATM   13  O1  UNL     1      -2.469  -0.870  -2.776  1.00  0.00    -0.267 OA
HETATM   14  N2  UNL     1      -3.230  -1.817  -0.828  1.00  0.00    -0.348 N 
HETATM   15  C7  UNL     1      -3.691  -2.989  -1.523  1.00  0.00     0.126 C 
HETATM   16  C11 UNL     1      -3.393  -1.699   0.616  1.00  0.00     0.126 C 
HETATM   17  C8  UNL     1      -5.007  -3.518  -1.047  1.00  0.00     0.020 C 
HETATM   18  C9  UNL     1      -5.485  -2.867   0.223  1.00  0.00     0.003 C 
HETATM   19  C10 UNL     1      -4.278  -2.798   1.163  1.00  0.00     0.020 C 
ENDBRANCH   4  12
BRANCH   1  20
HETATM   20  C2  UNL     1      -2.608   3.804   0.472  1.00  0.00     0.085 C 
HETATM   21  C1  UNL     1      -2.196   4.871  -0.496  1.00  0.00     0.032 C 
HETATM   22  C3  UNL     1      -2.091   4.097   1.885  1.00  0.00     0.032 C 
ENDBRANCH   1  20
BRANCH  10  23
HETATM   23  C16 UNL     1       2.481  -0.904  -0.339  1.00  0.00     0.121 C 
BRANCH  23  24
HETATM   24  C17 UNL     1       3.839  -0.420  -0.726  1.00  0.00     0.003 C 
HETATM   25  C18 UNL     1       4.623   0.311   0.300  1.00  0.00     0.006 C 
HETATM   26  C19 UNL     1       6.125   0.272  -0.014  1.00  0.00     0.000 C 
HETATM   27  C20 UNL     1       6.628  -1.143   0.182  1.00  0.00     0.000 C 
HETATM   28  C21 UNL     1       5.471  -2.110  -0.039  1.00  0.00     0.000 C 
HETATM   29  C22 UNL     1       4.680  -1.604  -1.219  1.00  0.00     0.006 C 
ENDBRANCH  23  24
ENDBRANCH  10  23
TORSDOF 4
