REMARK  4 active torsions:
REMARK  status: ('A' for Active; 'I' for Inactive)
REMARK    1  A    between atoms: C4_5  and  C5_6 
REMARK    2  A    between atoms: C8_9  and  C9_10 
REMARK    3  A    between atoms: C9_10  and  N1_11 
REMARK    4  A    between atoms: C15_17  and  N2_18 
ROOT
HETATM    1  N1  UNL     1      -0.929  -1.048   0.463  1.00  0.00    -0.373 N 
HETATM    2  C10 UNL     1      -0.187   0.120   0.613  1.00  0.00     0.066 C 
HETATM    3  C11 UNL     1       1.194  -0.117   1.204  1.00  0.00     0.082 C 
HETATM    4  C12 UNL     1       1.978  -1.200   0.518  1.00  0.00     0.067 C 
HETATM    5  C13 UNL     1       2.249  -0.960  -0.930  1.00  0.00     0.041 C 
HETATM    6  C14 UNL     1       3.502  -0.125  -1.058  1.00  0.00     0.041 C 
HETATM    7  C15 UNL     1       4.641  -0.955  -0.531  1.00  0.00     0.246 C 
HETATM    8  C20 UNL     1       4.192  -1.860   0.578  1.00  0.00     0.204 C 
HETATM    9  O1  UNL     1       3.122  -1.386   1.287  1.00  0.00    -0.378 OA
HETATM   10  C21 UNL     1       1.091  -2.453   0.584  1.00  0.00     0.058 C 
HETATM   11  C22 UNL     1      -0.200  -2.140  -0.104  1.00  0.00     0.130 C 
ENDROOT
BRANCH   1  12
HETATM   12  C9  UNL     1      -2.236  -1.004  -0.029  1.00  0.00     0.067 C 
BRANCH  12  13
HETATM   13  C8  UNL     1      -3.323  -0.456   0.827  1.00  0.00     0.025 C 
HETATM   14  C7  UNL     1      -3.220   0.954   1.269  1.00  0.00     0.010 C 
HETATM   15  C6  UNL     1      -4.680   1.436   1.453  1.00  0.00     0.010 C 
HETATM   16  C5  UNL     1      -5.524   0.258   1.139  1.00  0.00     0.026 C 
HETATM   17  C23 UNL     1      -4.667  -0.462   0.095  1.00  0.00     0.019 C 
BRANCH  16  18
HETATM   18  C4  UNL     1      -6.850   0.658   0.592  1.00  0.00    -0.012 A 
HETATM   19  C3  UNL     1      -7.151   1.571  -0.383  1.00  0.00     0.017 A 
HETATM   20  C2  UNL     1      -8.450   1.741  -0.688  1.00  0.00     0.032 A 
HETATM   21  C1  UNL     1      -9.360   0.982   0.007  1.00  0.00     0.075 A 
HETATM   22 CL1  UNL     1     -11.127   0.990  -0.182  1.00  0.00    -0.076 Cl
HETATM   23  S1  UNL     1      -8.377   0.066   1.053  1.00  0.00    -0.082 SA
ENDBRANCH  16  18
ENDBRANCH  12  13
ENDBRANCH   1  12
BRANCH   7  24
HETATM   24  N2  UNL     1       5.809  -0.179  -0.199  1.00  0.00     0.095 N 
HETATM   25  C16 UNL     1       5.621   0.780   0.842  1.00  0.00     0.273 C 
HETATM   26  C17 UNL     1       6.401   2.005   0.387  1.00  0.00     0.032 C 
HETATM   27  C18 UNL     1       6.137   1.981  -1.104  1.00  0.00     0.032 C 
HETATM   28  C19 UNL     1       6.265   0.477  -1.380  1.00  0.00     0.273 C 
ENDBRANCH   7  24
TORSDOF 4
