REMARK  4 active torsions:
REMARK  status: ('A' for Active; 'I' for Inactive)
REMARK    1  A    between atoms: C2_2  and  C3_4 
REMARK    2  A    between atoms: C11_13  and  C12_14 
REMARK    3  A    between atoms: C12_14  and  C13_15 
REMARK    4  A    between atoms: C13_15  and  C14_16 
ROOT
HETATM    1  C3  UNL     1      -1.587   2.757   0.518  1.00  0.00     0.082 C 
HETATM    2  C4  UNL     1      -2.646   3.475  -0.291  1.00  0.00     0.032 C 
HETATM    3  C5  UNL     1      -1.891   1.317   0.784  1.00  0.00     0.042 C 
HETATM    4  C6  UNL     1      -1.288   0.350  -0.250  1.00  0.00     0.018 C 
HETATM    5  C7  UNL     1      -1.726   0.858  -1.617  1.00  0.00     0.023 C 
HETATM    6  C8  UNL     1       0.182   0.511  -0.068  1.00  0.00    -0.057 C 
HETATM    7  C9  UNL     1       0.624   1.741   0.036  1.00  0.00     0.056 C 
HETATM    8  C10 UNL     1      -0.219   2.952  -0.019  1.00  0.00     0.165 C 
HETATM    9  O2  UNL     1       0.179   4.023  -0.470  1.00  0.00    -0.292 OA
HETATM   10  C11 UNL     1       1.129  -0.633  -0.024  1.00  0.00     0.038 C 
HETATM   11  C18 UNL     1       0.448  -1.894   0.539  1.00  0.00     0.021 C 
HETATM   12  C19 UNL     1      -0.794  -2.101  -0.246  1.00  0.00     0.036 C 
HETATM   13  C20 UNL     1      -1.269  -3.494  -0.036  1.00  0.00     0.046 C 
HETATM   14  C21 UNL     1      -2.187  -4.084  -1.056  1.00  0.00     0.175 C 
HETATM   15  O4  UNL     1      -3.298  -4.024  -0.217  1.00  0.00    -0.385 OA
HETATM   16  C22 UNL     1      -2.442  -3.695   0.828  1.00  0.00     0.128 C 
HETATM   17  C23 UNL     1      -2.824  -2.588   1.720  1.00  0.00     0.036 C 
HETATM   18  C24 UNL     1      -2.600  -1.203   1.259  1.00  0.00     0.047 C 
HETATM   19  C25 UNL     1      -1.822  -1.035  -0.012  1.00  0.00     0.119 C 
HETATM   20  F1  UNL     1      -2.772  -1.292  -1.030  1.00  0.00    -0.241 F 
ENDROOT
BRANCH  10  21
HETATM   21  C12 UNL     1       1.847  -0.936  -1.287  1.00  0.00    -0.021 C 
BRANCH  21  22
HETATM   22  C13 UNL     1       2.798  -0.003  -1.882  1.00  0.00    -0.023 C 
BRANCH  22  23
HETATM   23  C14 UNL     1       4.105   0.283  -1.340  1.00  0.00     0.034 C 
HETATM   24  C15 UNL     1       4.403   0.823  -0.018  1.00  0.00     0.037 C 
HETATM   25  C16 UNL     1       5.935   0.690  -0.008  1.00  0.00     0.168 C 
HETATM   26  O3  UNL     1       6.255  -0.266  -0.935  1.00  0.00    -0.390 OA
HETATM   27  C17 UNL     1       5.099  -0.880  -1.407  1.00  0.00     0.176 C 
ENDBRANCH  22  23
ENDBRANCH  21  22
ENDBRANCH  10  21
BRANCH   1  28
HETATM   28  C2  UNL     1      -1.580   3.504   1.841  1.00  0.00     0.139 C 
HETATM   29  C1  UNL     1      -2.842   3.556   2.667  1.00  0.00     0.092 C 
HETATM   30  O1  UNL     1      -0.622   4.068   2.287  1.00  0.00    -0.297 OA
ENDBRANCH   1  28
TORSDOF 4
