REMARK  3 active torsions:
REMARK  status: ('A' for Active; 'I' for Inactive)
REMARK    1  A    between atoms: O1_2  and  C2_3 
REMARK    2  A    between atoms: C14_18  and  C15_19 
REMARK    3  A    between atoms: C14_18  and  C16_21 
ROOT
HETATM    1  C2  UNL     1       4.625   0.671   0.059  1.00  0.00     0.283 C 
HETATM    2  C3  UNL     1       3.930   1.413   1.118  1.00  0.00     0.296 C 
HETATM    3  O2  UNL     1       3.933   2.568   1.575  1.00  0.00    -0.262 OA
HETATM    4  O3  UNL     1       3.232   0.258   1.426  1.00  0.00    -0.277 OA
HETATM    5  C4  UNL     1       3.431  -0.178   0.138  1.00  0.00     0.218 C 
HETATM    6  O4  UNL     1       3.660  -1.542  -0.041  1.00  0.00    -0.345 OA
HETATM    7  C5  UNL     1       2.357  -1.615  -0.538  1.00  0.00     0.139 C 
HETATM    8  C6  UNL     1       1.433  -2.083   0.549  1.00  0.00     0.034 C 
HETATM    9  C7  UNL     1       0.069  -2.106   0.000  1.00  0.00     0.016 C 
HETATM   10  C8  UNL     1      -0.987  -1.288   0.791  1.00  0.00    -0.022 C 
HETATM   11  C9  UNL     1      -0.557  -1.402   2.206  1.00  0.00     0.020 C 
HETATM   12  C10 UNL     1      -2.202  -2.126   0.623  1.00  0.00    -0.021 C 
HETATM   13  C11 UNL     1      -3.445  -1.845   1.272  1.00  0.00    -0.030 C 
HETATM   14  C12 UNL     1      -3.710  -0.567   1.937  1.00  0.00     0.027 C 
HETATM   15  C13 UNL     1      -2.899   0.604   1.692  1.00  0.00     0.015 C 
HETATM   16  C14 UNL     1      -2.270   0.900   0.370  1.00  0.00    -0.020 C 
HETATM   17  C19 UNL     1      -1.007   0.064   0.147  1.00  0.00     0.007 C 
HETATM   18  C20 UNL     1       0.298   0.781   0.238  1.00  0.00     0.007 C 
HETATM   19  C21 UNL     1       1.235   0.639  -0.916  1.00  0.00     0.018 C 
HETATM   20  C22 UNL     1       2.402  -0.212  -0.874  1.00  0.00     0.042 C 
HETATM   21  C23 UNL     1       3.057  -0.108  -2.283  1.00  0.00     0.024 C 
ENDROOT
BRANCH   1  22
HETATM   22  O1  UNL     1       4.920   1.362  -1.085  1.00  0.00    -0.375 OA
HETATM   23  C1  UNL     1       6.301   1.212  -1.347  1.00  0.00     0.202 C 
ENDBRANCH   1  22
BRANCH  16  24
HETATM   24  C15 UNL     1      -1.903   2.372   0.490  1.00  0.00     0.124 C 
HETATM   25 CL1  UNL     1      -3.262   3.443   0.806  1.00  0.00    -0.130 Cl
ENDBRANCH  16  24
BRANCH  16  26
HETATM   26  C16 UNL     1      -3.183   0.795  -0.800  1.00  0.00    -0.013 C 
HETATM   27  C17 UNL     1      -4.401   1.610  -0.897  1.00  0.00     0.010 C 
HETATM   28  C18 UNL     1      -2.457   1.020  -2.128  1.00  0.00     0.010 C 
ENDBRANCH  16  26
TORSDOF 3
