REMARK  4 active torsions:
REMARK  status: ('A' for Active; 'I' for Inactive)
REMARK    1  A    between atoms: N1_1  and  N2_4 
REMARK    2  A    between atoms: C3_8  and  N3_9 
REMARK    3  A    between atoms: N3_9  and  C4_11 
REMARK    4  A    between atoms: C9_21  and  C10_22 
ROOT
HETATM    1  N2  UNL     1       4.480  -1.028   0.334  1.00  0.00    -0.292 N 
ATOM      2  H2  UNL     1       5.334  -0.587  -0.008  1.00  0.00     0.188 HD
HETATM    3  C1  UNL     1       3.373  -0.402   0.162  1.00  0.00     0.124 A 
HETATM    4  C2  UNL     1       2.187  -0.953   0.604  1.00  0.00     0.098 A 
HETATM    5  C3  UNL     1       1.014  -0.230   0.390  1.00  0.00     0.106 A 
HETATM    6  N5  UNL     1       1.151   0.944  -0.231  1.00  0.00    -0.326 N 
ATOM      7  H5  UNL     1       0.298   1.479  -0.392  1.00  0.00     0.169 HD
HETATM    8  C9  UNL     1       2.279   1.484  -0.659  1.00  0.00     0.146 A 
HETATM    9  N6  UNL     1       3.418   0.790  -0.456  1.00  0.00    -0.325 N 
ATOM     10  H6  UNL     1       4.311   1.169  -0.771  1.00  0.00     0.169 HD
ENDROOT
BRANCH   5  11
HETATM   11  N3  UNL     1      -0.250  -0.709   0.807  1.00  0.00    -0.371 N 
ATOM     12  H3  UNL     1      -0.326  -1.609   1.281  1.00  0.00     0.161 HD
BRANCH  11  13
HETATM   13  C4  UNL     1      -1.420   0.073   0.561  1.00  0.00     0.086 C 
HETATM   14  C5  UNL     1      -2.680  -0.591   1.084  1.00  0.00     0.052 C 
HETATM   15  C6  UNL     1      -3.814   0.375   0.810  1.00  0.00     0.234 C 
HETATM   16  N4  UNL     1      -3.997   0.437  -0.625  1.00  0.00    -0.075 N 
HETATM   17  C7  UNL     1      -2.907  -0.105  -1.373  1.00  0.00     0.234 C 
ATOM     18  H42 UNL     1      -4.874  -0.010  -0.894  1.00  0.00     0.277 HD
ATOM     19  H41 UNL     1      -4.194   1.393  -0.920  1.00  0.00     0.277 HD
HETATM   20  C8  UNL     1      -1.545   0.363  -0.907  1.00  0.00     0.052 C 
ENDBRANCH  11  13
ENDBRANCH   5  11
BRANCH   8  21
HETATM   21  C10 UNL     1       2.262   2.779  -1.321  1.00  0.00     0.307 C 
HETATM   22  O1  UNL     1       1.179   3.374  -1.481  1.00  0.00    -0.298 OA
ENDBRANCH   8  21
BRANCH   1  23
HETATM   23  N1  UNL     1       4.595  -2.266   0.954  1.00  0.00    -0.344 N 
ATOM     24  H12 UNL     1       3.731  -2.692   1.289  1.00  0.00     0.176 HD
ATOM     25  H11 UNL     1       5.475  -2.764   1.091  1.00  0.00     0.176 HD
ENDBRANCH   1  23
TORSDOF 4
