REMARK  2 active torsions:
REMARK  status: ('A' for Active; 'I' for Inactive)
REMARK       I    between atoms: C1_2  and  N2_4 
REMARK    1  A    between atoms: C6_15  and  N6_16 
REMARK    2  A    between atoms: N6_16  and  C7_18 
ROOT
HETATM    1  N1  UNL     1      -4.018   0.093  -2.112  1.00  0.00    -0.038 NA
HETATM    2  C1  UNL     1      -2.766  -0.507  -1.862  1.00  0.00     0.355 C 
HETATM    3  O1  UNL     1      -2.463  -1.561  -2.450  1.00  0.00    -0.249 OA
HETATM    4  N2  UNL     1      -1.868   0.089  -0.948  1.00  0.00    -0.188 N 
HETATM    5  N3  UNL     1      -1.888   1.187  -0.174  1.00  0.00    -0.283 N 
ATOM      6  H3  UNL     1      -2.559   1.936  -0.003  1.00  0.00     0.188 HD
HETATM    7  C2  UNL     1      -0.662   0.892   0.281  1.00  0.00     0.124 A 
HETATM    8  C3  UNL     1       0.445   1.148   1.064  1.00  0.00     0.096 A 
HETATM    9  N4  UNL     1       0.687   2.141   1.905  1.00  0.00    -0.348 N 
ATOM     10  H4  UNL     1       0.056   2.914   2.115  1.00  0.00     0.167 HD
HETATM   11  C4  UNL     1       1.928   1.950   2.442  1.00  0.00     0.181 A 
HETATM   12  N5  UNL     1       2.451   0.815   1.915  1.00  0.00    -0.347 N 
ATOM     13  H5  UNL     1       3.366   0.418   2.128  1.00  0.00     0.167 HD
HETATM   14  C5  UNL     1       1.533   0.302   1.050  1.00  0.00     0.107 A 
HETATM   15  C6  UNL     1       1.536  -0.818   0.250  1.00  0.00     0.138 A 
HETATM   16  N7  UNL     1       0.461  -1.052  -0.500  1.00  0.00    -0.323 N 
ATOM     17  H7  UNL     1       0.452  -1.880  -1.096  1.00  0.00     0.169 HD
HETATM   18  C8  UNL     1      -0.622  -0.238  -0.506  1.00  0.00     0.164 A 
ENDROOT
BRANCH  15  19
HETATM   19  N6  UNL     1       2.682  -1.680   0.256  1.00  0.00    -0.318 N 
ATOM     20  H6  UNL     1       3.472  -1.442   0.855  1.00  0.00     0.169 HD
BRANCH  19  21
HETATM   21  C7  UNL     1       2.757  -2.842  -0.534  1.00  0.00     0.354 C 
HETATM   22  O2  UNL     1       1.783  -3.157  -1.287  1.00  0.00    -0.283 OA
ENDBRANCH  19  21
ENDBRANCH  15  19
TORSDOF 2
