REMARK  5 active torsions:
REMARK  status: ('A' for Active; 'I' for Inactive)
REMARK    1  A    between atoms: N1_1  and  C1_4 
REMARK    2  A    between atoms: C4_12  and  C5_13 
REMARK    3  A    between atoms: C5_13  and  C6_14 
REMARK    4  A    between atoms: C6_14  and  C7_16 
REMARK    5  A    between atoms: C7_16  and  N4_17 
ROOT
HETATM    1  C1  UNL     1       4.483   0.526   0.563  1.00  0.00     0.147 A 
HETATM    2  N2  UNL     1       4.147  -0.677   0.080  1.00  0.00    -0.302 N 
ATOM      3  H2  UNL     1       4.888  -1.376   0.024  1.00  0.00     0.171 HD
HETATM    4  C2  UNL     1       2.938  -1.046  -0.333  1.00  0.00     0.277 A 
HETATM    5  O1  UNL     1       2.840  -2.252  -0.760  1.00  0.00    -0.266 OA
HETATM    6  C3  UNL     1       1.789  -0.291  -0.355  1.00  0.00     0.136 A 
HETATM    7  N3  UNL     1       0.511  -0.593  -0.762  1.00  0.00    -0.339 N 
ATOM      8  H3  UNL     1       0.229  -1.500  -1.133  1.00  0.00     0.167 HD
HETATM    9  C4  UNL     1      -0.307   0.433  -0.614  1.00  0.00     0.089 A 
HETATM   10  N5  UNL     1       0.436   1.442  -0.099  1.00  0.00    -0.338 N 
ATOM     11  H5  UNL     1       0.089   2.374   0.129  1.00  0.00     0.168 HD
HETATM   12  C8  UNL     1       1.704   1.022   0.064  1.00  0.00     0.111 A 
HETATM   13  S1  UNL     1       3.204   1.644   0.631  1.00  0.00    -0.034 SA
ENDROOT
BRANCH   9  14
HETATM   14  C5  UNL     1      -1.735   0.487  -0.938  1.00  0.00     0.156 C 
BRANCH  14  15
HETATM   15  C6  UNL     1      -2.615   0.090   0.182  1.00  0.00     0.159 C 
HETATM   16  O2  UNL     1      -2.229  -0.254   1.279  1.00  0.00    -0.296 OA
BRANCH  15  17
HETATM   17  C7  UNL     1      -4.086   0.114  -0.057  1.00  0.00     0.307 C 
BRANCH  17  18
HETATM   18  N4  UNL     1      -4.834  -0.296   1.118  1.00  0.00    -0.073 N 
ATOM     19  H43 UNL     1      -4.528  -1.210   1.452  1.00  0.00     0.274 HD
ATOM     20  H42 UNL     1      -4.582   0.265   1.932  1.00  0.00     0.274 HD
ATOM     21  H41 UNL     1      -5.841  -0.280   0.954  1.00  0.00     0.274 HD
ENDBRANCH  17  18
ENDBRANCH  15  17
ENDBRANCH  14  15
ENDBRANCH   9  14
BRANCH   1  22
HETATM   22  N1  UNL     1       5.684   0.790   0.939  1.00  0.00    -0.380 N 
ATOM     23  H12 UNL     1       6.451   0.119   0.898  1.00  0.00     0.158 HD
ATOM     24  H11 UNL     1       5.940   1.706   1.307  1.00  0.00     0.158 HD
ENDBRANCH   1  22
TORSDOF 5
