REMARK  3 active torsions:
REMARK  status: ('A' for Active; 'I' for Inactive)
REMARK    1  A    between atoms: C5_12  and  N4_13 
REMARK    2  A    between atoms: N4_13  and  N5_15 
REMARK    3  A    between atoms: N5_15  and  N6_17 
ROOT
HETATM    1  C1  UNL     1      -2.201  -1.419   0.716  1.00  0.00     0.178 C 
HETATM    2  N1  UNL     1      -1.467  -0.271   0.258  1.00  0.00    -0.290 N 
HETATM    3  C2  UNL     1      -2.243   0.789  -0.053  1.00  0.00     0.202 C 
HETATM    4  N2  UNL     1      -1.807   2.081  -0.077  1.00  0.00    -0.316 N 
ATOM      5  H2  UNL     1      -2.519   2.781   0.130  1.00  0.00     0.170 HD
HETATM    6  C3  UNL     1      -0.584   2.572  -0.331  1.00  0.00     0.276 C 
HETATM    7  O1  UNL     1      -0.486   3.840  -0.459  1.00  0.00    -0.266 OA
HETATM    8  C4  UNL     1       0.571   1.837  -0.466  1.00  0.00     0.142 C 
HETATM    9  N3  UNL     1       1.566   2.430  -1.013  1.00  0.00    -0.392 N 
ATOM     10  H31 UNL     1       2.422   1.885  -1.113  1.00  0.00     0.156 HD
ATOM     11  H32 UNL     1       1.417   3.397  -1.303  1.00  0.00     0.156 HD
HETATM   12  C5  UNL     1       0.775   0.516  -0.070  1.00  0.00     0.168 C 
HETATM   13  N7  UNL     1      -0.145  -0.423   0.210  1.00  0.00    -0.280 N 
ATOM     14  H7  UNL     1       0.210  -1.358   0.408  1.00  0.00     0.189 HD
ENDROOT
BRANCH  12  15
HETATM   15  N4  UNL     1       1.991   0.158   0.040  1.00  0.00    -0.268 N 
ATOM     16  H4  UNL     1       2.736   0.826  -0.158  1.00  0.00     0.190 HD
BRANCH  15  17
HETATM   17  N5  UNL     1       2.313  -1.145   0.430  1.00  0.00    -0.248 N 
ATOM     18  H5  UNL     1       2.051  -1.474   1.359  1.00  0.00     0.207 HD
BRANCH  17  19
HETATM   19  N6  UNL     1       2.990  -2.001  -0.441  1.00  0.00    -0.331 N 
ATOM     20  H62 UNL     1       3.245  -1.657  -1.367  1.00  0.00     0.178 HD
ATOM     21  H61 UNL     1       3.225  -2.952  -0.156  1.00  0.00     0.178 HD
ENDBRANCH  17  19
ENDBRANCH  15  17
ENDBRANCH  12  15
TORSDOF 3
