REMARK  4 active torsions:
REMARK  status: ('A' for Active; 'I' for Inactive)
REMARK    1  A    between atoms: N1_1  and  C1_4 
REMARK    2  A    between atoms: N7_16  and  C4_17 
REMARK    3  A    between atoms: C4_17  and  O1_18 
REMARK    4  A    between atoms: O1_18  and  N8_19 
ROOT
HETATM    1  C1  UNL     1      -2.353   0.742   0.170  1.00  0.00     0.714 A 
HETATM    2  N2  UNL     1      -2.894  -0.356   0.724  1.00  0.00    -0.185 N 
ATOM      3  H2  UNL     1      -3.881  -0.365   0.982  1.00  0.00     0.185 HD
HETATM    4  C2  UNL     1      -2.134  -1.440   0.937  1.00  0.00     0.215 A 
HETATM    5  N3  UNL     1      -0.830  -1.423   0.596  1.00  0.00    -0.183 N 
ATOM      6  H3  UNL     1      -0.258  -2.251   0.762  1.00  0.00     0.185 HD
HETATM    7  C3  UNL     1      -0.262  -0.320   0.033  1.00  0.00     0.741 A 
HETATM    8  N4  UNL     1      -1.028   0.759  -0.177  1.00  0.00     0.107 N 
HETATM    9  N5  UNL     1      -0.253   1.671  -0.720  1.00  0.00    -0.191 N 
ATOM     10  H5  UNL     1      -0.554   2.606  -0.995  1.00  0.00     0.211 HD
HETATM   11  N6  UNL     1       0.957   1.204  -0.855  1.00  0.00    -0.208 N 
ATOM     12  H6  UNL     1       1.753   1.705  -1.249  1.00  0.00     0.210 HD
HETATM   13  N7  UNL     1       0.970  -0.021  -0.396  1.00  0.00    -0.079 N 
ENDROOT
BRANCH  13  14
HETATM   14  C4  UNL     1       2.104  -0.952  -0.337  1.00  0.00     0.369 C 
BRANCH  14  15
HETATM   15  O1  UNL     1       2.789  -0.813   0.874  1.00  0.00    -0.265 OA
BRANCH  15  16
HETATM   16  N8  UNL     1       3.226   0.455   0.935  1.00  0.00    -0.309 N 
ATOM     17  H82 UNL     1       3.078   1.171   0.224  1.00  0.00     0.184 HD
ATOM     18  H81 UNL     1       3.726   0.556   1.818  1.00  0.00     0.184 HD
ENDBRANCH  15  16
ENDBRANCH  14  15
ENDBRANCH  13  14
BRANCH   1  19
HETATM   19  N1  UNL     1      -3.091   1.789  -0.035  1.00  0.00    -0.232 N 
ATOM     20  H12 UNL     1      -4.078   1.776   0.223  1.00  0.00     0.174 HD
ATOM     21  H11 UNL     1      -2.680   2.623  -0.456  1.00  0.00     0.174 HD
ENDBRANCH   1  19
TORSDOF 4
