REMARK  5 active torsions:
REMARK  status: ('A' for Active; 'I' for Inactive)
REMARK    1  A    between atoms: N1_1  and  C1_5 
REMARK    2  A    between atoms: C1_5  and  N2_6 
REMARK    3  A    between atoms: C1_5  and  C2_10 
REMARK    4  A    between atoms: C2_10  and  O2_12 
REMARK    5  A    between atoms: O2_12  and  C3_13 
ROOT
HETATM    1  C2  UNL     1      -1.810  -0.702  -0.187  1.00  0.00     0.319 C 
HETATM    2  O1  UNL     1      -1.668  -1.785  -0.788  1.00  0.00    -0.261 OA
ENDROOT
BRANCH   1   3
HETATM    3  C1  UNL     1      -3.198  -0.197   0.007  1.00  0.00     0.475 C 
BRANCH   3   4
HETATM    4  N1  UNL     1      -3.100   1.063   0.723  1.00  0.00    -0.041 N 
ATOM      5  H13 UNL     1      -2.644   1.780   0.159  1.00  0.00     0.277 HD
ATOM      6  H12 UNL     1      -4.013   1.505   0.830  1.00  0.00     0.277 HD
ATOM      7  H11 UNL     1      -2.635   0.942   1.623  1.00  0.00     0.277 HD
ENDBRANCH   3   4
BRANCH   3   8
HETATM    8  N2  UNL     1      -3.866  -0.024  -1.284  1.00  0.00    -0.041 N 
ATOM      9  H23 UNL     1      -4.779   0.418  -1.177  1.00  0.00     0.277 HD
ATOM     10  H22 UNL     1      -3.410   0.693  -1.848  1.00  0.00     0.277 HD
ATOM     11  H21 UNL     1      -3.935  -0.909  -1.787  1.00  0.00     0.277 HD
ENDBRANCH   3   8
ENDBRANCH   1   3
BRANCH   1  12
HETATM   12  O2  UNL     1      -0.684  -0.055   0.251  1.00  0.00    -0.283 OA
BRANCH  12  13
HETATM   13  C3  UNL     1       0.629  -0.477   0.099  1.00  0.00     0.355 C 
HETATM   14  C4  UNL     1       1.519   0.441  -0.675  1.00  0.00     0.293 C 
HETATM   15  N3  UNL     1       2.873  -0.136  -0.597  1.00  0.00    -0.070 N 
HETATM   16  C5  UNL     1       3.349   0.193   0.745  1.00  0.00     0.260 C 
ATOM     17  H32 UNL     1       2.911  -1.132  -0.816  1.00  0.00     0.277 HD
ATOM     18  H31 UNL     1       3.497   0.172  -1.343  1.00  0.00     0.277 HD
HETATM   19  C6  UNL     1       2.236   0.194   1.759  1.00  0.00     0.262 C 
HETATM   20  N4  UNL     1       1.222  -0.748   1.381  1.00  0.00    -0.045 N 
ATOM     21  H42 UNL     1       0.504  -0.813   2.103  1.00  0.00     0.280 HD
ATOM     22  H41 UNL     1       1.585  -1.701   1.415  1.00  0.00     0.280 HD
ENDBRANCH  12  13
ENDBRANCH   1  12
TORSDOF 5
