REMARK  5 active torsions:
REMARK  status: ('A' for Active; 'I' for Inactive)
REMARK       I    between atoms: C2_2  and  N1_4 
REMARK    1  A    between atoms: N1_4  and  N2_6 
REMARK    2  A    between atoms: C3_8  and  C4_9 
REMARK    3  A    between atoms: C7_12  and  N3_13 
REMARK    4  A    between atoms: N3_13  and  N4_15 
REMARK    5  A    between atoms: C8_18  and  N5_19 
ROOT
HETATM    1  C4  UNL     1      -0.085   0.158  -0.365  1.00  0.00    -0.017 A 
HETATM    2  C5  UNL     1      -0.819   0.320  -1.520  1.00  0.00     0.015 A 
HETATM    3  C6  UNL     1      -2.178   0.286  -1.426  1.00  0.00     0.034 A 
HETATM    4  C7  UNL     1      -2.826   0.094  -0.192  1.00  0.00     0.080 A 
HETATM    5  C8  UNL     1      -2.108  -0.070   0.968  1.00  0.00     0.131 A 
HETATM    6  C9  UNL     1      -0.705  -0.030   0.835  1.00  0.00     0.051 A 
ENDROOT
BRANCH   1   7
HETATM    7  C3  UNL     1       1.392   0.203  -0.465  1.00  0.00     0.118 C 
HETATM    8  N2  UNL     1       2.070   0.044   0.587  1.00  0.00    -0.309 N 
ATOM      9  H2  UNL     1       1.518  -0.104   1.432  1.00  0.00     0.186 HD
BRANCH   8  10
HETATM   10  N1  UNL     1       3.423   0.038   0.781  1.00  0.00    -0.271 N 
HETATM   11  C2  UNL     1       4.377  -0.319  -0.179  1.00  0.00     0.232 C 
HETATM   12  C1  UNL     1       5.835  -0.292   0.125  1.00  0.00     0.119 C 
HETATM   13  O1  UNL     1       4.040  -0.675  -1.335  1.00  0.00    -0.272 OA
ATOM     14  H1  UNL     1       3.765   0.316   1.701  1.00  0.00     0.190 HD
ENDBRANCH   8  10
ENDBRANCH   1   7
BRANCH   5  15
HETATM   15  N5  UNL     1      -2.667  -0.264   2.259  1.00  0.00    -0.113 N 
HETATM   16  O2  UNL     1      -1.958   0.181   3.230  1.00  0.00    -0.532 OA
HETATM   17  O3  UNL     1      -3.828  -0.844   2.597  1.00  0.00    -0.532 OA
ENDBRANCH   5  15
BRANCH   4  18
HETATM   18  N3  UNL     1      -4.240   0.088  -0.177  1.00  0.00    -0.305 N 
ATOM     19  H3  UNL     1      -4.746  -0.007   0.703  1.00  0.00     0.186 HD
BRANCH  18  20
HETATM   20  N4  UNL     1      -4.941   0.215  -1.391  1.00  0.00    -0.345 N 
ATOM     21  H42 UNL     1      -4.420   0.309  -2.263  1.00  0.00     0.176 HD
ATOM     22  H41 UNL     1      -5.961   0.211  -1.380  1.00  0.00     0.176 HD
ENDBRANCH  18  20
ENDBRANCH   4  18
TORSDOF 5
