REMARK  6 active torsions:
REMARK  status: ('A' for Active; 'I' for Inactive)
REMARK    1  A    between atoms: N1_1  and  C1_4 
REMARK    2  A    between atoms: C2_7  and  C3_8 
REMARK    3  A    between atoms: C3_8  and  O1_9 
REMARK    4  A    between atoms: O1_9  and  C4_10 
REMARK    5  A    between atoms: C4_10  and  C5_11 
REMARK    6  A    between atoms: C5_11  and  N3_12 
ROOT
HETATM    1  C1  UNL     1      -2.162  -1.450   0.280  1.00  0.00     0.121 A 
HETATM    2  N2  UNL     1      -0.834  -1.236   0.110  1.00  0.00    -0.329 N 
ATOM      3  H2  UNL     1      -0.154  -1.996   0.101  1.00  0.00     0.168 HD
HETATM    4  C2  UNL     1      -0.480   0.047  -0.046  1.00  0.00     0.108 A 
HETATM    5  N4  UNL     1      -1.291   1.087  -0.048  1.00  0.00    -0.329 N 
ATOM      6  H4  UNL     1      -0.907   2.023  -0.177  1.00  0.00     0.168 HD
HETATM    7  C6  UNL     1      -2.648   0.929   0.121  1.00  0.00     0.131 A 
HETATM    8  N5  UNL     1      -3.557   1.863   0.139  1.00  0.00    -0.302 N 
ATOM      9  H5  UNL     1      -3.298   2.843   0.021  1.00  0.00     0.171 HD
HETATM   10  C7  UNL     1      -4.827   1.514   0.314  1.00  0.00     0.290 A 
HETATM   11  O2  UNL     1      -5.861   2.252   0.364  1.00  0.00    -0.260 OA
HETATM   12  S1  UNL     1      -4.747  -0.184   0.458  1.00  0.00    -0.021 SA
HETATM   13  C8  UNL     1      -3.056  -0.367   0.284  1.00  0.00     0.097 A 
ENDROOT
BRANCH   4  14
HETATM   14  C3  UNL     1       1.005   0.316  -0.244  1.00  0.00     0.244 C 
BRANCH  14  15
HETATM   15  O1  UNL     1       1.671  -0.862  -0.288  1.00  0.00    -0.382 OA
BRANCH  15  16
HETATM   16  C4  UNL     1       2.990  -0.903  -0.502  1.00  0.00     0.195 C 
BRANCH  16  17
HETATM   17  C5  UNL     1       3.918  -0.232   0.444  1.00  0.00     0.255 C 
BRANCH  17  18
HETATM   18  N3  UNL     1       3.751   1.184   0.592  1.00  0.00    -0.077 N 
ATOM     19  H33 UNL     1       3.802   1.636  -0.321  1.00  0.00     0.274 HD
ATOM     20  H32 UNL     1       2.786   1.394   0.847  1.00  0.00     0.274 HD
ATOM     21  H31 UNL     1       4.388   1.645   1.242  1.00  0.00     0.274 HD
ENDBRANCH  17  18
ENDBRANCH  16  17
ENDBRANCH  15  16
ENDBRANCH  14  15
ENDBRANCH   4  14
BRANCH   1  22
HETATM   22  N1  UNL     1      -2.680  -2.609   0.443  1.00  0.00    -0.384 N 
ATOM     23  H12 UNL     1      -2.031  -3.396   0.440  1.00  0.00     0.157 HD
ATOM     24  H11 UNL     1      -3.679  -2.770   0.571  1.00  0.00     0.157 HD
ENDBRANCH   1  22
TORSDOF 6
