REMARK  4 active torsions:
REMARK  status: ('A' for Active; 'I' for Inactive)
REMARK    1  A    between atoms: N1_1  and  C1_4 
REMARK    2  A    between atoms: N4_13  and  C5_14 
REMARK    3  A    between atoms: C5_14  and  C6_15 
REMARK    4  A    between atoms: C6_15  and  C7_17 
ROOT
HETATM    1  C1  UNL     1      -2.118   1.187  -0.903  1.00  0.00     0.680 A 
HETATM    2  N2  UNL     1      -3.089   0.817  -0.061  1.00  0.00    -0.154 N 
ATOM      3  H2  UNL     1      -3.976   1.321  -0.088  1.00  0.00     0.187 HD
HETATM    4  C2  UNL     1      -2.947  -0.201   0.830  1.00  0.00     0.290 A 
HETATM    5  O1  UNL     1      -3.888  -0.500   1.589  1.00  0.00    -0.265 OA
HETATM    6  C3  UNL     1      -1.769  -0.898   0.894  1.00  0.00     0.147 A 
HETATM    7  N3  UNL     1      -1.291  -1.935   1.601  1.00  0.00    -0.345 N 
ATOM      8  H3  UNL     1      -1.802  -2.437   2.327  1.00  0.00     0.167 HD
HETATM    9  C4  UNL     1      -0.038  -2.209   1.206  1.00  0.00     0.185 A 
HETATM   10  N4  UNL     1       0.290  -1.329   0.229  1.00  0.00    -0.320 N 
HETATM   11  C8  UNL     1      -0.754  -0.506   0.011  1.00  0.00     0.157 A 
HETATM   12  N5  UNL     1      -0.948   0.516  -0.859  1.00  0.00    -0.174 N 
ATOM     13  H5  UNL     1      -0.195   0.783  -1.493  1.00  0.00     0.186 HD
ENDROOT
BRANCH  10  14
HETATM   14  C5  UNL     1       1.588  -1.241  -0.453  1.00  0.00     0.210 C 
BRANCH  14  15
HETATM   15  C6  UNL     1       2.488  -0.456   0.439  1.00  0.00     0.154 C 
HETATM   16  O2  UNL     1       3.206  -1.107   1.209  1.00  0.00    -0.295 OA
BRANCH  15  17
HETATM   17  C7  UNL     1       2.601   1.019   0.491  1.00  0.00     0.166 C 
HETATM   18  S1  UNL     1       4.013   1.609  -0.441  1.00  0.00    -0.090 SA
ENDBRANCH  15  17
ENDBRANCH  14  15
ENDBRANCH  10  14
BRANCH   1  19
HETATM   19  N1  UNL     1      -2.279   2.155  -1.746  1.00  0.00    -0.234 N 
ATOM     20  H12 UNL     1      -3.163   2.662  -1.779  1.00  0.00     0.174 HD
ATOM     21  H11 UNL     1      -1.538   2.437  -2.388  1.00  0.00     0.174 HD
ENDBRANCH   1  19
TORSDOF 4
