REMARK  3 active torsions:
REMARK  status: ('A' for Active; 'I' for Inactive)
REMARK       I    between atoms: C1_2  and  N2_4 
REMARK    1  A    between atoms: N2_4  and  N3_6 
REMARK    2  A    between atoms: C2_8  and  C3_9 
REMARK    3  A    between atoms: C6_15  and  N5_16 
ROOT
HETATM    1  C3  UNL     1      -0.539   0.405  -0.126  1.00  0.00     0.023 A 
HETATM    2  C4  UNL     1      -0.801   1.704   0.189  1.00  0.00     0.106 A 
HETATM    3  N4  UNL     1      -2.031   2.157   0.510  1.00  0.00    -0.331 N 
ATOM      4  H4  UNL     1      -2.176   3.140   0.739  1.00  0.00     0.168 HD
HETATM    5  C5  UNL     1      -3.071   1.288   0.524  1.00  0.00     0.280 A 
HETATM    6  O2  UNL     1      -4.244   1.650   0.815  1.00  0.00    -0.265 OA
HETATM    7  C6  UNL     1      -2.866  -0.020   0.218  1.00  0.00     0.195 A 
HETATM    8  C7  UNL     1      -1.615  -0.478  -0.108  1.00  0.00     0.098 A 
HETATM    9  N6  UNL     1      -1.354  -1.837  -0.435  1.00  0.00    -0.099 NA
ENDROOT
BRANCH   1  10
HETATM   10  C2  UNL     1       0.784  -0.076  -0.470  1.00  0.00     0.122 C 
HETATM   11  N3  UNL     1       1.784   0.730  -0.490  1.00  0.00    -0.307 N 
ATOM     12  H3  UNL     1       1.637   1.713  -0.261  1.00  0.00     0.186 HD
BRANCH  11  13
HETATM   13  N2  UNL     1       3.056   0.293  -0.815  1.00  0.00    -0.254 N 
HETATM   14  C1  UNL     1       3.944  -0.093   0.210  1.00  0.00     0.347 C 
HETATM   15  N1  UNL     1       5.270  -0.550  -0.090  1.00  0.00    -0.038 NA
HETATM   16  O1  UNL     1       3.584  -0.041   1.394  1.00  0.00    -0.249 OA
ATOM     17  H2  UNL     1       3.350   0.250  -1.791  1.00  0.00     0.191 HD
ENDBRANCH  11  13
ENDBRANCH   1  10
BRANCH   7  18
HETATM   18  N5  UNL     1      -3.944  -0.945   0.228  1.00  0.00    -0.108 N 
HETATM   19  O3  UNL     1      -3.781  -2.151  -0.049  1.00  0.00    -0.532 OA
HETATM   20  O4  UNL     1      -5.200  -0.534   0.544  1.00  0.00    -0.532 OA
ENDBRANCH   7  18
TORSDOF 3
