REMARK  0 active torsions:
REMARK  status: ('A' for Active; 'I' for Inactive)
ROOT
HETATM    1  C1  UNL     1      -2.915  -0.087   0.034  1.00  0.00     0.156 C 
HETATM    2  N1  UNL     1      -1.736   0.720  -0.011  1.00  0.00    -0.357 N 
HETATM    3  C2  UNL     1      -1.700   2.078  -0.068  1.00  0.00     0.093 A 
HETATM    4  C3  UNL     1      -0.431   2.541  -0.101  1.00  0.00     0.050 A 
HETATM    5  C4  UNL     1       0.398   1.431  -0.065  1.00  0.00     0.079 A 
HETATM    6  C5  UNL     1      -0.429   0.330  -0.010  1.00  0.00     0.104 A 
HETATM    7  C6  UNL     1      -0.017  -0.922   0.039  1.00  0.00     0.148 A 
HETATM    8  N2  UNL     1      -1.057  -1.883   0.093  1.00  0.00    -0.080 NA
HETATM    9  N3  UNL     1       1.311  -1.477   0.046  1.00  0.00    -0.316 N 
ATOM     10  H3  UNL     1       1.346  -2.496   0.087  1.00  0.00     0.169 HD
HETATM   11  C7  UNL     1       2.450  -0.907   0.009  1.00  0.00     0.208 A 
HETATM   12  N4  UNL     1       3.621  -1.718   0.029  1.00  0.00    -0.062 NA
HETATM   13  N5  UNL     1       2.656   0.509  -0.053  1.00  0.00    -0.273 N 
ATOM     14  H5  UNL     1       3.628   0.818  -0.078  1.00  0.00     0.189 HD
HETATM   15  N6  UNL     1       1.696   1.517  -0.084  1.00  0.00    -0.296 N 
ATOM     16  H6  UNL     1       2.066   2.466  -0.128  1.00  0.00     0.187 HD
ENDROOT
TORSDOF 0
