REMARK  5 active torsions:
REMARK  status: ('A' for Active; 'I' for Inactive)
REMARK    1  A    between atoms: C2_2  and  O1_3 
REMARK    2  A    between atoms: C2_2  and  N1_5 
REMARK    3  A    between atoms: N1_5  and  C3_7 
REMARK    4  A    between atoms: N4_12  and  O2_13 
REMARK    5  A    between atoms: C4_15  and  N5_16 
ROOT
HETATM    1  C3  UNL     1       0.178  -0.677  -0.295  1.00  0.00     0.710 A 
HETATM    2  N2  UNL     1       0.879  -1.406  -1.185  1.00  0.00    -0.115 N 
ATOM      3  H2  UNL     1       0.376  -2.019  -1.827  1.00  0.00     0.207 HD
HETATM    4  N3  UNL     1       2.202  -1.352  -1.253  1.00  0.00    -0.187 N 
ATOM      5  H3  UNL     1       2.681  -1.927  -1.946  1.00  0.00     0.212 HD
HETATM    6  N4  UNL     1       2.925  -0.582  -0.457  1.00  0.00     0.032 N 
HETATM    7  C4  UNL     1       2.257   0.160   0.445  1.00  0.00     0.733 A 
HETATM    8  N6  UNL     1       0.904   0.110   0.521  1.00  0.00    -0.018 N 
ATOM      9  H6  UNL     1       0.424   0.684   1.214  1.00  0.00     0.203 HD
ENDROOT
BRANCH   1  10
HETATM   10  N1  UNL     1      -1.104  -0.765  -0.268  1.00  0.00    -0.198 N 
ATOM     11  H1  UNL     1      -1.534  -1.400  -0.941  1.00  0.00     0.180 HD
BRANCH  10  12
HETATM   12  C2  UNL     1      -1.979  -0.070   0.601  1.00  0.00     0.231 C 
HETATM   13  C1  UNL     1      -2.198   1.373   0.267  1.00  0.00     0.063 C 
BRANCH  12  14
HETATM   14  O1  UNL     1      -3.200  -0.781   0.646  1.00  0.00    -0.377 OA
ATOM     15  H1  UNL     1      -3.061  -1.697   0.858  1.00  0.00     0.212 HD
ENDBRANCH  12  14
ENDBRANCH  10  12
ENDBRANCH   1  10
BRANCH   7  16
HETATM   16  N5  UNL     1       2.958   0.914   1.226  1.00  0.00    -0.231 N 
ATOM     17  H52 UNL     1       3.976   0.952   1.169  1.00  0.00     0.174 HD
ATOM     18  H51 UNL     1       2.452   1.476   1.910  1.00  0.00     0.174 HD
ENDBRANCH   7  16
BRANCH   6  19
HETATM   19  O2  UNL     1       4.302  -0.535  -0.538  1.00  0.00    -0.253 OA
ATOM     20  H2  UNL     1       4.821   0.018   0.034  1.00  0.00     0.247 HD
ENDBRANCH   6  19
TORSDOF 5
