REMARK  4 active torsions:
REMARK  status: ('A' for Active; 'I' for Inactive)
REMARK    1  A    between atoms: N1_1  and  C1_4 
REMARK    2  A    between atoms: C2_7  and  C3_8 
REMARK    3  A    between atoms: N4_10  and  O1_12 
REMARK    4  A    between atoms: N6_16  and  O2_17 
ROOT
HETATM    1  C1  UNL     1      -1.403   1.460  -0.654  1.00  0.00     0.695 A 
HETATM    2  N2  UNL     1      -0.232   1.084  -0.109  1.00  0.00    -0.171 N 
ATOM      3  H2  UNL     1       0.445   1.797   0.161  1.00  0.00     0.186 HD
HETATM    4  C2  UNL     1       0.063  -0.211   0.086  1.00  0.00     0.181 A 
HETATM    5  N5  UNL     1      -0.855  -1.117  -0.284  1.00  0.00    -0.239 N 
ATOM      6  H5  UNL     1      -0.659  -2.109  -0.148  1.00  0.00     0.193 HD
HETATM    7  N6  UNL     1      -2.025  -0.748  -0.829  1.00  0.00    -0.079 N 
HETATM    8  N7  UNL     1      -2.291   0.525  -1.010  1.00  0.00    -0.090 N 
ATOM      9  H7  UNL     1      -3.181   0.803  -1.425  1.00  0.00     0.210 HD
ENDROOT
BRANCH   4  10
HETATM   10  C3  UNL     1       1.340  -0.561   0.679  1.00  0.00     0.182 C 
HETATM   11  N3  UNL     1       1.607  -1.943   0.865  1.00  0.00    -0.077 NA
HETATM   12  N4  UNL     1       2.231   0.265   1.040  1.00  0.00    -0.252 N 
ATOM     13  H4  UNL     1       3.080  -0.134   1.441  1.00  0.00     0.195 HD
BRANCH  12  14
HETATM   14  O1  UNL     1       2.188   1.611   0.956  1.00  0.00    -0.288 OA
ATOM     15  H1  UNL     1       2.856   2.230   1.227  1.00  0.00     0.244 HD
ENDBRANCH  12  14
ENDBRANCH   4  10
BRANCH   1  16
HETATM   16  N1  UNL     1      -1.672   2.719  -0.836  1.00  0.00    -0.233 N 
ATOM     17  H12 UNL     1      -0.995   3.432  -0.565  1.00  0.00     0.174 HD
ATOM     18  H11 UNL     1      -2.560   3.004  -1.249  1.00  0.00     0.174 HD
ENDBRANCH   1  16
BRANCH   7  19
HETATM   19  O2  UNL     1      -2.956  -1.676  -1.204  1.00  0.00    -0.253 OA
ATOM     20  H2  UNL     1      -3.784  -1.415  -1.590  1.00  0.00     0.248 HD
ENDBRANCH   7  19
TORSDOF 4
