REMARK  8 active torsions:
REMARK  status: ('A' for Active; 'I' for Inactive)
REMARK    1  A    between atoms: C2_2  and  C4_4 
REMARK    2  A    between atoms: C10_11  and  C11_12 
REMARK    3  A    between atoms: C11_12  and  O2_14 
REMARK    4  A    between atoms: C11_12  and  C13_16 
REMARK    5  A    between atoms: C13_16  and  N1_17 
REMARK    6  A    between atoms: C13_16  and  C14_21 
REMARK       I    between atoms: C14_21  and  N2_23 
REMARK    7  A    between atoms: N3_26  and  C17_27 
REMARK    8  A    between atoms: C20_30  and  C21_31 
ROOT
HETATM    1  C13 UNL     1      -0.357  -0.405   0.538  1.00  0.00     0.309 C 
ENDROOT
BRANCH   1   2
HETATM    2  C11 UNL     1      -1.817  -0.233   0.773  1.00  0.00     0.099 C 
HETATM    3  C12 UNL     1      -2.193  -0.280   2.189  1.00  0.00     0.049 C 
BRANCH   2   4
HETATM    4  C10 UNL     1      -2.598  -1.040  -0.188  1.00  0.00     0.058 C 
HETATM    5  C6  UNL     1      -4.050  -0.607  -0.217  1.00  0.00    -0.019 A 
HETATM    6  C5  UNL     1      -4.917   0.388  -0.641  1.00  0.00     0.043 A 
HETATM    7  C7  UNL     1      -4.839  -1.553   0.389  1.00  0.00     0.060 A 
HETATM    8  C4  UNL     1      -6.186  -0.005  -0.272  1.00  0.00     0.057 A 
HETATM    9  O1  UNL     1      -6.073  -1.163   0.334  1.00  0.00    -0.319 OA
HETATM   10  C8  UNL     1      -3.948  -2.670   0.876  1.00  0.00     0.066 C 
HETATM   11  C9  UNL     1      -2.737  -2.485  -0.021  1.00  0.00     0.019 C 
BRANCH   8  12
HETATM   12  C2  UNL     1      -7.440   0.738  -0.520  1.00  0.00     0.035 C 
HETATM   13  C1  UNL     1      -7.748   0.832  -2.004  1.00  0.00     0.016 C 
HETATM   14  C3  UNL     1      -7.457   2.122   0.082  1.00  0.00     0.016 C 
ENDBRANCH   8  12
ENDBRANCH   2   4
BRANCH   2  15
HETATM   15  O2  UNL     1      -2.087   1.137   0.365  1.00  0.00    -0.387 OA
ATOM     16  H2  UNL     1      -1.585   1.656   0.983  1.00  0.00     0.210 HD
ENDBRANCH   2  15
ENDBRANCH   1   2
BRANCH   1  17
HETATM   17  N1  UNL     1       0.085  -1.704   0.928  1.00  0.00    -0.064 N 
ATOM     18  H13 UNL     1      -0.164  -1.908   1.896  1.00  0.00     0.275 HD
ATOM     19  H12 UNL     1      -0.456  -2.436   0.468  1.00  0.00     0.275 HD
ATOM     20  H11 UNL     1       1.085  -1.822   0.767  1.00  0.00     0.275 HD
ENDBRANCH   1  17
BRANCH   1  21
HETATM   21  C14 UNL     1       0.518   0.680   0.976  1.00  0.00     0.253 C 
HETATM   22  O3  UNL     1       0.051   1.629   1.644  1.00  0.00    -0.271 OA
HETATM   23  N2  UNL     1       1.895   0.679   0.660  1.00  0.00    -0.347 N 
HETATM   24  C15 UNL     1       2.426  -0.335  -0.234  1.00  0.00     0.145 C 
HETATM   25  C24 UNL     1       2.750   1.664   1.264  1.00  0.00     0.145 C 
HETATM   26  C16 UNL     1       3.362   0.420  -1.217  1.00  0.00     0.144 C 
HETATM   27  N3  UNL     1       4.433   0.885  -0.319  1.00  0.00    -0.364 N 
HETATM   28  C23 UNL     1       4.075   1.896   0.626  1.00  0.00     0.144 C 
BRANCH  27  29
HETATM   29  C17 UNL     1       5.713   0.309  -0.494  1.00  0.00     0.103 A 
HETATM   30  C18 UNL     1       6.540   0.045   0.559  1.00  0.00     0.049 A 
HETATM   31  C19 UNL     1       7.797  -0.531   0.344  1.00  0.00     0.021 A 
HETATM   32  C20 UNL     1       8.153  -0.815  -0.954  1.00  0.00     0.063 A 
HETATM   33  C22 UNL     1       7.277  -0.530  -2.003  1.00  0.00     0.106 A 
HETATM   34  N4  UNL     1       6.079   0.023  -1.776  1.00  0.00    -0.352 N 
ATOM     35  H4  UNL     1       5.449   0.228  -2.551  1.00  0.00     0.166 HD
BRANCH  32  36
HETATM   36  C21 UNL     1       9.454  -1.428  -1.250  1.00  0.00     0.418 C 
HETATM   37  F1  UNL     1       9.604  -2.676  -0.654  1.00  0.00    -0.166 F 
HETATM   38  F2  UNL     1       9.601  -1.592  -2.633  1.00  0.00    -0.166 F 
HETATM   39  F3  UNL     1      10.442  -0.579  -0.784  1.00  0.00    -0.166 F 
ENDBRANCH  32  36
ENDBRANCH  27  29
ENDBRANCH   1  21
TORSDOF 8
