REMARK  7 active torsions:
REMARK  status: ('A' for Active; 'I' for Inactive)
REMARK    1  A    between atoms: C2_2  and  C3_3 
REMARK    2  A    between atoms: C3_3  and  N1_4 
REMARK    3  A    between atoms: C8_12  and  N3_13 
REMARK    4  A    between atoms: N4_16  and  C11_17 
REMARK    5  A    between atoms: C14_21  and  C15_22 
REMARK    6  A    between atoms: C16_23  and  C17_24 
REMARK    7  A    between atoms: C20_31  and  N7_32 
ROOT
HETATM    1  N1  UNL     1      -2.675  -2.119  -1.454  1.00  0.00    -0.297 N 
HETATM    2  C4  UNL     1      -2.875  -2.710  -2.639  1.00  0.00     0.264 A 
HETATM    3  O1  UNL     1      -3.992  -3.163  -3.029  1.00  0.00    -0.266 OA
HETATM    4  C5  UNL     1      -1.770  -2.829  -3.488  1.00  0.00     0.163 A 
HETATM    5  N2  UNL     1      -0.563  -2.360  -3.107  1.00  0.00    -0.358 N 
ATOM      6  H2  UNL     1       0.234  -2.453  -3.737  1.00  0.00     0.165 HD
HETATM    7  C6  UNL     1      -0.397  -1.772  -1.908  1.00  0.00     0.079 A 
HETATM    8  C7  UNL     1       0.819  -1.283  -1.485  1.00  0.00     0.065 A 
HETATM    9  C8  UNL     1       1.010  -0.668  -0.241  1.00  0.00     0.060 A 
HETATM   10  C14 UNL     1      -0.116  -0.580   0.551  1.00  0.00     0.076 A 
HETATM   11  N8  UNL     1      -1.328  -1.063   0.139  1.00  0.00    -0.338 N 
ATOM     12  H8  UNL     1      -2.138  -0.979   0.753  1.00  0.00     0.167 HD
HETATM   13  C21 UNL     1      -1.466  -1.649  -1.068  1.00  0.00     0.138 A 
ENDROOT
BRANCH  10  14
HETATM   14  C15 UNL     1      -0.083   0.007   1.873  1.00  0.00     0.062 A 
HETATM   15  C16 UNL     1      -0.479   1.268   2.261  1.00  0.00     0.046 A 
HETATM   16  N5  UNL     1      -0.254   1.354   3.580  1.00  0.00    -0.302 N 
HETATM   17  N6  UNL     1       0.258   0.226   4.044  1.00  0.00    -0.285 N 
ATOM     18  H5  UNL     1      -0.451   2.178   4.149  1.00  0.00     0.186 HD
HETATM   19  C20 UNL     1       0.382  -0.636   3.023  1.00  0.00     0.128 A 
ATOM     20  H6  UNL     1       0.515   0.042   5.014  1.00  0.00     0.188 HD
BRANCH  15  21
HETATM   21  C17 UNL     1      -1.056   2.347   1.391  1.00  0.00     0.038 A 
HETATM   22  C18 UNL     1      -1.573   3.583   2.050  1.00  0.00     0.011 A 
HETATM   23  C19 UNL     1      -0.275   3.687   1.375  1.00  0.00     0.011 A 
ENDBRANCH  15  21
BRANCH  19  24
HETATM   24  N7  UNL     1       0.848  -1.843   3.095  1.00  0.00    -0.384 N 
ATOM     25  H72 UNL     1       0.942  -2.498   2.319  1.00  0.00     0.157 HD
ATOM     26  H71 UNL     1       1.187  -2.312   3.935  1.00  0.00     0.157 HD
ENDBRANCH  19  24
ENDBRANCH  10  14
BRANCH   9  27
HETATM   27  N3  UNL     1       2.287  -0.194   0.135  1.00  0.00    -0.376 N 
HETATM   28  C9  UNL     1       2.527   1.194   0.345  1.00  0.00     0.143 C 
HETATM   29  C10 UNL     1       3.821   1.687  -0.295  1.00  0.00     0.145 C 
HETATM   30  N4  UNL     1       4.372   0.593  -1.058  1.00  0.00    -0.356 N 
HETATM   31  C12 UNL     1       4.645  -0.650  -0.321  1.00  0.00     0.145 C 
HETATM   32  C13 UNL     1       3.358  -1.155   0.303  1.00  0.00     0.143 C 
BRANCH  30  33
HETATM   33  C11 UNL     1       4.663   0.623  -2.426  1.00  0.00     0.350 C 
HETATM   34  O2  UNL     1       5.142  -0.346  -3.059  1.00  0.00    -0.284 OA
ENDBRANCH  30  33
ENDBRANCH   9  27
BRANCH   1  35
HETATM   35  C3  UNL     1      -3.766  -1.944  -0.536  1.00  0.00     0.133 C 
BRANCH  35  36
HETATM   36  C2  UNL     1      -4.381  -0.596  -0.739  1.00  0.00     0.016 C 
HETATM   37  C1  UNL     1      -4.935  -0.349  -2.106  1.00  0.00     0.006 C 
ENDBRANCH  35  36
ENDBRANCH   1  35
TORSDOF 7
