REMARK  6 active torsions:
REMARK  status: ('A' for Active; 'I' for Inactive)
REMARK    1  A    between atoms: C2_2  and  N1_3 
REMARK    2  A    between atoms: C5_9  and  C6_10 
REMARK    3  A    between atoms: C6_10  and  C7_11 
REMARK    4  A    between atoms: C9_13  and  C10_14 
REMARK    5  A    between atoms: C12_18  and  C13_19 
REMARK    6  A    between atoms: C19_33  and  N7_34 
ROOT
HETATM    1  C7  UNL     1      -0.847  -1.234  -0.147  1.00  0.00     0.018 A 
HETATM    2  C8  UNL     1       0.454  -0.699  -0.018  1.00  0.00     0.046 A 
HETATM    3  C9  UNL     1       1.437  -0.914  -0.945  1.00  0.00     0.076 A 
HETATM    4  N5  UNL     1       1.098  -1.670  -2.006  1.00  0.00    -0.296 N 
ATOM      5  H5  UNL     1       1.801  -1.852  -2.722  1.00  0.00     0.187 HD
HETATM    6  N6  UNL     1      -0.104  -2.183  -2.157  1.00  0.00    -0.266 N 
ATOM      7  H6  UNL     1      -0.295  -2.748  -2.984  1.00  0.00     0.190 HD
HETATM    8  C18 UNL     1      -1.105  -1.989  -1.250  1.00  0.00     0.266 A 
HETATM    9  O2  UNL     1      -2.220  -2.486  -1.428  1.00  0.00    -0.266 OA
ENDROOT
BRANCH   1  10
HETATM   10  C6  UNL     1      -1.762  -0.987   0.984  1.00  0.00     0.088 C 
BRANCH  10  11
HETATM   11  C5  UNL     1      -3.037  -0.359   0.714  1.00  0.00     0.007 A 
HETATM   12  C4  UNL     1      -3.086   0.965   0.288  1.00  0.00     0.117 A 
HETATM   13  N2  UNL     1      -4.241   1.526  -0.089  1.00  0.00    -0.201 N 
HETATM   14  C3  UNL     1      -5.417   0.892  -0.093  1.00  0.00     0.683 A 
ATOM     15  H2  UNL     1      -4.222   2.500  -0.393  1.00  0.00     0.183 HD
HETATM   16  N1  UNL     1      -6.548   1.378  -0.430  1.00  0.00    -0.206 N 
HETATM   17  N8  UNL     1      -5.384  -0.416   0.326  1.00  0.00    -0.176 N 
ATOM     18  H1  UNL     1      -7.324   0.719  -0.360  1.00  0.00     0.183 HD
HETATM   19  C19 UNL     1      -4.235  -1.017   0.718  1.00  0.00     0.126 A 
ATOM     20  H8  UNL     1      -6.252  -0.951   0.342  1.00  0.00     0.186 HD
BRANCH  16  21
HETATM   21  C2  UNL     1      -6.914   2.646  -0.876  1.00  0.00     0.074 C 
HETATM   22  C1  UNL     1      -5.852   3.548  -1.437  1.00  0.00     0.055 C 
ENDBRANCH  16  21
BRANCH  19  23
HETATM   23  N7  UNL     1      -4.406  -2.338   1.261  1.00  0.00    -0.375 N 
HETATM   24  C20 UNL     1      -5.017  -3.347   0.440  1.00  0.00     0.150 C 
HETATM   25  C21 UNL     1      -4.036  -2.654   2.614  1.00  0.00     0.150 C 
ENDBRANCH  19  23
ENDBRANCH  10  11
ENDBRANCH   1  10
BRANCH   3  26
HETATM   26  C10 UNL     1       2.819  -0.416  -0.825  1.00  0.00     0.077 A 
HETATM   27  C11 UNL     1       3.821  -0.680  -1.729  1.00  0.00     0.121 A 
HETATM   28  N3  UNL     1       4.939  -0.097  -1.290  1.00  0.00    -0.353 N 
HETATM   29  C12 UNL     1       4.695   0.531  -0.138  1.00  0.00     0.086 A 
ATOM     30  H3  UNL     1       5.842  -0.127  -1.763  1.00  0.00     0.166 HD
HETATM   31  N4  UNL     1       3.360   0.323   0.136  1.00  0.00    -0.343 N 
ATOM     32  H4  UNL     1       2.864   0.682   0.952  1.00  0.00     0.167 HD
BRANCH  29  33
HETATM   33  C13 UNL     1       5.675   1.257   0.704  1.00  0.00     0.057 C 
HETATM   34  C14 UNL     1       6.653   0.278   1.343  1.00  0.00     0.038 C 
HETATM   35  C15 UNL     1       8.064   0.494   0.890  1.00  0.00     0.168 C 
HETATM   36  O1  UNL     1       8.164   0.576  -0.502  1.00  0.00    -0.391 OA
HETATM   37  C16 UNL     1       7.450   1.626  -1.024  1.00  0.00     0.168 C 
HETATM   38  C17 UNL     1       6.457   2.246  -0.085  1.00  0.00     0.038 C 
ENDBRANCH  29  33
ENDBRANCH   3  26
TORSDOF 6
