REMARK  2 active torsions:
REMARK  status: ('A' for Active; 'I' for Inactive)
REMARK    1  A    between atoms: C3_4  and  C4_5 
REMARK       I    between atoms: C4_5  and  N2_7 
REMARK    2  A    between atoms: N2_7  and  N3_9 
ROOT
HETATM    1  C4  UNL     1       0.499  -0.238  -0.838  1.00  0.00     0.290 C 
HETATM    2  O1  UNL     1       1.035  -0.541  -1.930  1.00  0.00    -0.264 OA
HETATM    3  N2  UNL     1       1.323   0.069   0.266  1.00  0.00    -0.225 N 
ATOM      4  H2  UNL     1       0.910   0.319   1.165  1.00  0.00     0.194 HD
ENDROOT
BRANCH   3   5
HETATM    5  N3  UNL     1       2.707   0.027   0.113  1.00  0.00    -0.096 N 
HETATM    6  N4  UNL     1       3.388  -0.279  -0.986  1.00  0.00    -0.189 N 
HETATM    7  N5  UNL     1       4.665  -0.190  -0.665  1.00  0.00    -0.209 N 
ATOM      8  H4  UNL     1       3.001  -0.532  -1.895  1.00  0.00     0.213 HD
HETATM    9  N6  UNL     1       4.800   0.162   0.601  1.00  0.00    -0.209 N 
ATOM     10  H5  UNL     1       5.439  -0.368  -1.305  1.00  0.00     0.211 HD
HETATM   11  N7  UNL     1       3.575   0.293   1.073  1.00  0.00    -0.189 N 
ATOM     12  H6  UNL     1       5.673   0.304   1.110  1.00  0.00     0.211 HD
ATOM     13  H7  UNL     1       3.336   0.558   2.028  1.00  0.00     0.213 HD
ENDBRANCH   3   5
BRANCH   1  14
HETATM   14  C3  UNL     1      -0.969  -0.208  -0.730  1.00  0.00     0.120 A 
HETATM   15  C2  UNL     1      -1.662   0.111   0.417  1.00  0.00     0.083 A 
HETATM   16  C1  UNL     1      -3.011   0.026   0.113  1.00  0.00     0.133 A 
HETATM   17  N1  UNL     1      -4.022   0.289   1.061  1.00  0.00    -0.081 NA
HETATM   18  N9  UNL     1      -3.081  -0.328  -1.161  1.00  0.00    -0.287 N 
HETATM   19  N8  UNL     1      -1.871  -0.471  -1.675  1.00  0.00    -0.294 N 
ATOM     20  H9  UNL     1      -3.950  -0.471  -1.676  1.00  0.00     0.188 HD
ATOM     21  H8  UNL     1      -1.662  -0.739  -2.637  1.00  0.00     0.187 HD
ENDBRANCH   1  14
TORSDOF 2
