REMARK  2 active torsions:
REMARK  status: ('A' for Active; 'I' for Inactive)
REMARK    1  A    between atoms: C3_11  and  S1_12 
REMARK    2  A    between atoms: S1_12  and  N5_13 
ROOT
HETATM    1  N1  UNL     1      -1.944   2.736   0.515  1.00  0.00    -0.234 N 
ATOM      2  H11 UNL     1      -1.383   3.584   0.590  1.00  0.00     0.174 HD
ATOM      3  H12 UNL     1      -2.959   2.835   0.539  1.00  0.00     0.174 HD
HETATM    4  C1  UNL     1      -1.359   1.573   0.392  1.00  0.00     0.680 A 
HETATM    5  N2  UNL     1      -2.098   0.456   0.293  1.00  0.00    -0.163 N 
ATOM      6  H2  UNL     1      -3.114   0.538   0.316  1.00  0.00     0.187 HD
HETATM    7  C2  UNL     1      -1.548  -0.777   0.164  1.00  0.00     0.208 A 
HETATM    8  N3  UNL     1      -2.377  -1.928   0.064  1.00  0.00    -0.063 NA
HETATM    9  N4  UNL     1      -0.211  -0.848   0.138  1.00  0.00    -0.307 N 
ATOM     10  H4  UNL     1       0.229  -1.764   0.043  1.00  0.00     0.170 HD
HETATM   11  C3  UNL     1       0.582   0.247   0.233  1.00  0.00     0.212 A 
HETATM   12  N6  UNL     1      -0.032   1.443   0.360  1.00  0.00    -0.166 N 
ATOM     13  H6  UNL     1       0.543   2.282   0.435  1.00  0.00     0.186 HD
ENDROOT
BRANCH  11  14
HETATM   14  S1  UNL     1       2.285   0.051   0.189  1.00  0.00     0.179 S 
HETATM   15  O1  UNL     1       2.927  -0.715   1.282  1.00  0.00    -0.227 OA
BRANCH  14  16
HETATM   16  N5  UNL     1       3.058   0.104  -1.309  1.00  0.00    -0.343 N 
ATOM     17  H52 UNL     1       2.616   0.632  -2.062  1.00  0.00     0.167 HD
ATOM     18  H51 UNL     1       4.071  -0.013  -1.335  1.00  0.00     0.167 HD
ENDBRANCH  14  16
ENDBRANCH  11  14
TORSDOF 2
