REMARK  3 active torsions:
REMARK  status: ('A' for Active; 'I' for Inactive)
REMARK       I    between atoms: C1_2  and  N1_3 
REMARK    1  A    between atoms: C1_2  and  C3_15 
REMARK    2  A    between atoms: N1_3  and  N2_5 
REMARK    3  A    between atoms: N2_5  and  C2_7 
ROOT
HETATM    1  O1  UNL     1       0.438   1.620   0.265  1.00  0.00    -0.263 OA
HETATM    2  C1  UNL     1       0.779   0.569  -0.328  1.00  0.00     0.305 C 
HETATM    3  N1  UNL     1      -0.140  -0.034  -1.246  1.00  0.00    -0.249 N 
ATOM      4  H1  UNL     1       0.146  -0.888  -1.724  1.00  0.00     0.191 HD
ENDROOT
BRANCH   3   5
HETATM    5  N2  UNL     1      -1.387   0.476  -1.517  1.00  0.00    -0.127 N 
ATOM      6  H2  UNL     1      -1.478   1.058  -2.349  1.00  0.00     0.206 HD
BRANCH   5   7
HETATM    7  C2  UNL     1      -2.439   0.288  -0.824  1.00  0.00     0.725 A 
HETATM    8  N3  UNL     1      -3.642   0.823  -1.148  1.00  0.00    -0.117 N 
HETATM    9  N4  UNL     1      -4.530   0.461  -0.261  1.00  0.00    -0.211 N 
ATOM     10  H3  UNL     1      -3.825   1.416  -1.958  1.00  0.00     0.207 HD
HETATM   11  N5  UNL     1      -3.932  -0.299   0.639  1.00  0.00     0.009 NA
ATOM     12  H4  UNL     1      -5.516   0.721  -0.263  1.00  0.00     0.206 HD
HETATM   13  N6  UNL     1      -2.657  -0.408   0.301  1.00  0.00    -0.112 N 
ATOM     14  H6  UNL     1      -1.952  -0.937   0.815  1.00  0.00     0.203 HD
ENDBRANCH   5   7
ENDBRANCH   3   5
BRANCH   2  15
HETATM   15  C3  UNL     1       2.087   0.007  -0.063  1.00  0.00     0.192 A 
HETATM   16  N7  UNL     1       2.652  -1.107  -0.586  1.00  0.00    -0.280 N 
HETATM   17  N8  UNL     1       3.857  -1.269  -0.080  1.00  0.00    -0.294 N 
ATOM     18  H7  UNL     1       2.212  -1.726  -1.267  1.00  0.00     0.188 HD
HETATM   19  C4  UNL     1       4.102  -0.262   0.783  1.00  0.00     0.199 A 
ATOM     20  H8  UNL     1       4.499  -2.030  -0.304  1.00  0.00     0.187 HD
HETATM   21  N9  UNL     1       3.012   0.501   0.777  1.00  0.00    -0.332 N 
ATOM     22  H9  UNL     1       2.894   1.347   1.335  1.00  0.00     0.168 HD
ENDBRANCH   2  15
TORSDOF 3
