REMARK  7 active torsions:
REMARK  status: ('A' for Active; 'I' for Inactive)
REMARK    1  A    between atoms: C7_7  and  C8_8 
REMARK    2  A    between atoms: C8_8  and  C9_9 
REMARK    3  A    between atoms: C9_9  and  N1_10 
REMARK    4  A    between atoms: C9_9  and  C10_14 
REMARK    5  A    between atoms: C10_14  and  N2_15 
REMARK    6  A    between atoms: C10_14  and  C11_19 
REMARK    7  A    between atoms: C11_19  and  C12_20 
ROOT
HETATM    1  C9  UNL     1       0.099   1.416  -1.320  1.00  0.00     0.218 C 
ENDROOT
BRANCH   1   2
HETATM    2  C8  UNL     1      -1.294   1.292  -0.872  1.00  0.00     0.074 C 
BRANCH   2   3
HETATM    3  C7  UNL     1      -1.697   0.239   0.050  1.00  0.00    -0.050 A 
HETATM    4  C2  UNL     1      -1.810  -1.063  -0.390  1.00  0.00    -0.056 A 
HETATM    5  C1  UNL     1      -1.516  -1.399  -1.802  1.00  0.00     0.049 C 
HETATM    6  C3  UNL     1      -2.225  -2.108   0.433  1.00  0.00     0.007 A 
HETATM    7  C4  UNL     1      -2.541  -1.844   1.748  1.00  0.00     0.001 A 
HETATM    8  C5  UNL     1      -2.437  -0.550   2.210  1.00  0.00     0.001 A 
HETATM    9  C6  UNL     1      -2.022   0.462   1.371  1.00  0.00     0.007 A 
ENDBRANCH   2   3
ENDBRANCH   1   2
BRANCH   1  10
HETATM   10  N1  UNL     1       0.130   2.575  -2.330  1.00  0.00    -0.073 N 
ATOM     11  H13 UNL     1      -0.533   2.460  -3.097  1.00  0.00     0.274 HD
ATOM     12  H12 UNL     1      -0.254   3.444  -1.960  1.00  0.00     0.274 HD
ATOM     13  H11 UNL     1       1.098   2.661  -2.641  1.00  0.00     0.274 HD
ENDBRANCH   1  10
BRANCH   1  14
HETATM   14  C10 UNL     1       1.174   1.821  -0.401  1.00  0.00     0.219 C 
BRANCH  14  15
HETATM   15  N2  UNL     1       2.470   1.886  -1.133  1.00  0.00    -0.073 N 
ATOM     16  H23 UNL     1       2.684   1.011  -1.611  1.00  0.00     0.274 HD
ATOM     17  H22 UNL     1       2.417   2.492  -1.951  1.00  0.00     0.274 HD
ATOM     18  H21 UNL     1       3.215   2.167  -0.496  1.00  0.00     0.274 HD
ENDBRANCH  14  15
BRANCH  14  19
HETATM   19  C11 UNL     1       1.457   1.129   0.859  1.00  0.00     0.093 C 
BRANCH  19  20
HETATM   20  C12 UNL     1       1.828  -0.294   0.775  1.00  0.00     0.027 A 
HETATM   21  C13 UNL     1       2.075  -1.121  -0.271  1.00  0.00     0.114 A 
HETATM   22  N3  UNL     1       2.363  -2.339   0.194  1.00  0.00    -0.360 N 
HETATM   23  C14 UNL     1       2.301  -2.289   1.535  1.00  0.00     0.180 A 
ATOM     24  H3  UNL     1       2.589  -3.160  -0.368  1.00  0.00     0.166 HD
HETATM   25  N4  UNL     1       1.979  -1.058   1.895  1.00  0.00    -0.355 N 
ATOM     26  H4  UNL     1       1.862  -0.732   2.855  1.00  0.00     0.166 HD
ENDBRANCH  19  20
ENDBRANCH  14  19
ENDBRANCH   1  14
TORSDOF 7
