REMARK  7 active torsions:
REMARK  status: ('A' for Active; 'I' for Inactive)
REMARK    1  A    between atoms: C3_3  and  C5_5 
REMARK    2  A    between atoms: C5_5  and  N1_6 
REMARK    3  A    between atoms: N1_6  and  C6_8 
REMARK    4  A    between atoms: C6_8  and  N2_10 
REMARK    5  A    between atoms: N2_10  and  N3_12 
REMARK    6  A    between atoms: N3_12  and  C7_13 
REMARK    7  A    between atoms: C7_13  and  C8_14 
ROOT
HETATM    1  C1  UNL     1       6.523   1.422  -0.199  1.00  0.00     0.012 C 
HETATM    2  C2  UNL     1       5.441   0.971  -0.478  1.00  0.00    -0.108 C 
HETATM    3  C3  UNL     1       4.064   0.421  -0.801  1.00  0.00     0.098 C 
HETATM    4  C4  UNL     1       4.157  -1.067  -0.832  1.00  0.00     0.029 C 
ENDROOT
BRANCH   3   5
HETATM    5  C5  UNL     1       3.151   1.048   0.159  1.00  0.00     0.080 C 
BRANCH   5   6
HETATM    6  N1  UNL     1       1.791   0.735   0.112  1.00  0.00    -0.345 N 
ATOM      7  H1  UNL     1       1.235   1.463  -0.338  1.00  0.00     0.167 HD
BRANCH   6   8
HETATM    8  C6  UNL     1       1.015  -0.349   0.541  1.00  0.00     0.187 C 
HETATM    9  S1  UNL     1       1.574  -1.635   1.354  1.00  0.00    -0.040 SA
BRANCH   8  10
HETATM   10  N2  UNL     1      -0.378  -0.307   0.296  1.00  0.00    -0.280 N 
ATOM     11  H2  UNL     1      -0.705   0.519  -0.205  1.00  0.00     0.184 HD
BRANCH  10  12
HETATM   12  N3  UNL     1      -1.358  -1.214   0.632  1.00  0.00    -0.133 NA
BRANCH  12  13
HETATM   13  C7  UNL     1      -2.310  -1.324  -0.517  1.00  0.00     0.192 C 
BRANCH  13  14
HETATM   14  C8  UNL     1      -3.552  -0.559  -0.105  1.00  0.00     0.025 A 
HETATM   15  C9  UNL     1      -4.465  -1.018   0.770  1.00  0.00     0.026 A 
HETATM   16  C10 UNL     1      -5.544  -0.177   1.062  1.00  0.00     0.003 A 
HETATM   17  C11 UNL     1      -5.648   1.064   0.467  1.00  0.00     0.017 A 
HETATM   18  C12 UNL     1      -4.696   1.489  -0.421  1.00  0.00     0.088 A 
HETATM   19  N4  UNL     1      -3.679   0.673  -0.683  1.00  0.00    -0.368 N 
ATOM     20  H4  UNL     1      -2.964   0.979  -1.343  1.00  0.00     0.165 HD
ENDBRANCH  13  14
ENDBRANCH  12  13
ENDBRANCH  10  12
ENDBRANCH   8  10
ENDBRANCH   6   8
ENDBRANCH   5   6
ENDBRANCH   3   5
TORSDOF 7
