REMARK  13 active torsions:
REMARK  status: ('A' for Active; 'I' for Inactive)
REMARK    1  A    between atoms: O1_2  and  C2_3 
REMARK    2  A    between atoms: C5_8  and  N2_9 
REMARK    3  A    between atoms: N2_9  and  C6_11 
REMARK    4  A    between atoms: C6_11  and  C7_12 
REMARK    5  A    between atoms: C12_20  and  N4_21 
REMARK    6  A    between atoms: N4_21  and  C13_22 
REMARK    7  A    between atoms: C17_29  and  C18_30 
REMARK    8  A    between atoms: C18_30  and  C19_31 
REMARK    9  A    between atoms: C19_31  and  N6_32 
REMARK   10  A    between atoms: N6_32  and  C20_33 
REMARK   11  A    between atoms: N6_32  and  C24_37 
REMARK   12  A    between atoms: C20_33  and  C21_34 
REMARK   13  A    between atoms: C29_42  and  O3_43 
ROOT
HETATM    1  C2  UNL     1      -3.407  -4.695   0.505  1.00  0.00     0.103 A 
HETATM    2  C3  UNL     1      -3.759  -3.434   0.893  1.00  0.00     0.070 A 
HETATM    3  C4  UNL     1      -2.937  -2.339   0.596  1.00  0.00     0.067 A 
HETATM    4  N1  UNL     1      -3.327  -1.107   1.003  1.00  0.00    -0.191 N 
ATOM      5  H1  UNL     1      -4.205  -1.003   1.511  1.00  0.00     0.184 HD
HETATM    6  C5  UNL     1      -2.570  -0.005   0.747  1.00  0.00     0.684 A 
HETATM    7  N3  UNL     1      -1.444  -0.200   0.086  1.00  0.00    -0.164 N 
ATOM      8  H3  UNL     1      -0.874   0.624  -0.107  1.00  0.00     0.187 HD
HETATM    9  C12 UNL     1      -0.966  -1.404  -0.367  1.00  0.00     0.200 A 
HETATM   10  C27 UNL     1      -1.764  -2.517  -0.089  1.00  0.00     0.052 A 
HETATM   11  C28 UNL     1      -1.400  -3.799  -0.485  1.00  0.00     0.058 A 
HETATM   12  C29 UNL     1      -2.201  -4.853  -0.194  1.00  0.00     0.102 A 
ENDROOT
BRANCH   9  13
HETATM   13  N4  UNL     1       0.069  -1.512  -0.975  1.00  0.00    -0.422 NA
BRANCH  13  14
HETATM   14  C13 UNL     1       1.156  -1.886  -1.653  1.00  0.00     0.196 C 
HETATM   15  C14 UNL     1       0.984  -1.898  -3.194  1.00  0.00     0.043 C 
HETATM   16  C15 UNL     1       2.164  -2.659  -3.750  1.00  0.00     0.030 C 
HETATM   17  C16 UNL     1       3.442  -1.925  -3.355  1.00  0.00     0.233 C 
HETATM   18  N5  UNL     1       3.538  -1.841  -1.911  1.00  0.00    -0.068 N 
HETATM   19  C17 UNL     1       2.429  -1.035  -1.445  1.00  0.00     0.226 C 
ATOM     20  H52 UNL     1       3.580  -2.756  -1.462  1.00  0.00     0.277 HD
ATOM     21  H51 UNL     1       4.443  -1.494  -1.593  1.00  0.00     0.277 HD
BRANCH  19  22
HETATM   22  C18 UNL     1       2.548  -0.733   0.031  1.00  0.00     0.080 C 
BRANCH  22  23
HETATM   23  C19 UNL     1       3.731   0.051   0.406  1.00  0.00     0.060 C 
BRANCH  23  24
HETATM   24  N6  UNL     1       3.977   1.338  -0.052  1.00  0.00    -0.388 N 
BRANCH  24  25
HETATM   25  C20 UNL     1       5.350   1.777   0.203  1.00  0.00     0.127 C 
BRANCH  25  26
HETATM   26  C21 UNL     1       5.751   1.973   1.592  1.00  0.00     0.003 A 
HETATM   27  C22 UNL     1       5.236   2.862   2.606  1.00  0.00     0.007 A 
HETATM   28  C23 UNL     1       6.514   3.274   1.877  1.00  0.00     0.007 A 
ENDBRANCH  25  26
ENDBRANCH  24  25
BRANCH  24  29
HETATM   29  C24 UNL     1       3.084   2.405   0.163  1.00  0.00     0.083 A 
HETATM   30  C25 UNL     1       1.697   2.504  -0.364  1.00  0.00     0.027 A 
HETATM   31  C26 UNL     1       1.944   2.446   1.083  1.00  0.00     0.027 A 
ENDBRANCH  24  29
ENDBRANCH  23  24
ENDBRANCH  22  23
ENDBRANCH  19  22
ENDBRANCH  13  14
ENDBRANCH   9  13
BRANCH   6  32
HETATM   32  N2  UNL     1      -3.023   1.104   1.164  1.00  0.00    -0.205 N 
ATOM     33  H2  UNL     1      -3.917   1.025   1.648  1.00  0.00     0.183 HD
BRANCH  32  34
HETATM   34  C6  UNL     1      -2.535   2.421   1.090  1.00  0.00     0.083 C 
BRANCH  34  35
HETATM   35  C7  UNL     1      -3.628   3.459   1.337  1.00  0.00     0.028 C 
HETATM   36  C8  UNL     1      -4.676   3.274   0.290  1.00  0.00     0.036 C 
HETATM   37  C9  UNL     1      -5.127   4.597  -0.293  1.00  0.00     0.168 C 
HETATM   38  O2  UNL     1      -5.361   5.435   0.819  1.00  0.00    -0.391 OA
HETATM   39  C10 UNL     1      -4.104   5.913   1.183  1.00  0.00     0.168 C 
HETATM   40  C11 UNL     1      -3.113   4.845   1.497  1.00  0.00     0.036 C 
ENDBRANCH  34  35
ENDBRANCH  32  34
ENDBRANCH   6  32
BRANCH  12  41
HETATM   41  O3  UNL     1      -1.875  -6.123  -0.565  1.00  0.00    -0.353 OA
HETATM   42  C30 UNL     1      -0.754  -6.562  -1.248  1.00  0.00     0.210 C 
ENDBRANCH  12  41
BRANCH   1  43
HETATM   43  O1  UNL     1      -4.203  -5.812   0.783  1.00  0.00    -0.353 OA
HETATM   44  C1  UNL     1      -5.421  -5.682   1.483  1.00  0.00     0.210 C 
ENDBRANCH   1  43
TORSDOF 13
