REMARK  4 active torsions:
REMARK  status: ('A' for Active; 'I' for Inactive)
REMARK       I    between atoms: C2_2  and  N1_4 
REMARK    1  A    between atoms: C3_6  and  C4_7 
REMARK    2  A    between atoms: C6_13  and  C7_14 
REMARK    3  A    between atoms: C8_15  and  C9_16 
REMARK    4  A    between atoms: C14_21  and  O4_22 
ROOT
HETATM    1  C9  UNL     1      -0.802  -0.754  -0.846  1.00  0.00     0.029 C 
HETATM    2  C10 UNL     1      -1.940   0.140  -0.495  1.00  0.00    -0.032 C 
HETATM    3  C11 UNL     1      -2.485   0.782  -1.762  1.00  0.00     0.016 C 
HETATM    4  C12 UNL     1      -1.411   1.285   0.362  1.00  0.00     0.012 C 
HETATM    5  C13 UNL     1      -2.456   2.306   0.667  1.00  0.00     0.032 C 
HETATM    6  C14 UNL     1      -3.785   1.762   1.036  1.00  0.00     0.118 C 
HETATM    7  C15 UNL     1      -4.167   0.486   0.377  1.00  0.00     0.037 C 
HETATM    8  C16 UNL     1      -3.032  -0.511   0.291  1.00  0.00    -0.001 C 
HETATM    9  C17 UNL     1      -3.514  -1.714  -0.444  1.00  0.00     0.038 C 
HETATM   10  C18 UNL     1      -2.480  -2.637  -0.932  1.00  0.00     0.132 C 
HETATM   11  O5  UNL     1      -2.206  -3.653   0.013  1.00  0.00    -0.384 OA
HETATM   12  C19 UNL     1      -0.962  -3.039   0.284  1.00  0.00     0.180 C 
HETATM   13  C20 UNL     1      -1.090  -2.190  -0.945  1.00  0.00     0.011 C 
HETATM   14  C21 UNL     1      -0.310  -2.855  -2.088  1.00  0.00     0.020 C 
ENDROOT
BRANCH   1  15
HETATM   15  C8  UNL     1       0.299  -0.565   0.183  1.00  0.00    -0.019 C 
HETATM   16  C7  UNL     1       1.441  -0.008  -0.160  1.00  0.00     0.016 C 
BRANCH  16  17
HETATM   17  C6  UNL     1       2.515   0.190   0.788  1.00  0.00     0.071 A 
HETATM   18  C4  UNL     1       3.746   0.782   0.453  1.00  0.00     0.086 A 
HETATM   19  N2  UNL     1       4.447   0.778   1.592  1.00  0.00    -0.255 N 
HETATM   20  O2  UNL     1       3.739   0.238   2.569  1.00  0.00    -0.194 OA
ATOM     21  H2  UNL     1       5.395   1.141   1.693  1.00  0.00     0.195 HD
HETATM   22  C5  UNL     1       2.568  -0.124   2.105  1.00  0.00     0.317 A 
HETATM   23  O3  UNL     1       1.720  -0.665   2.861  1.00  0.00    -0.257 OA
BRANCH  18  24
HETATM   24  C3  UNL     1       4.128   1.272  -0.856  1.00  0.00     0.123 C 
HETATM   25  N1  UNL     1       5.186   1.802  -1.228  1.00  0.00    -0.335 N 
HETATM   26  C2  UNL     1       6.351   2.114  -0.576  1.00  0.00     0.217 C 
ATOM     27  H1  UNL     1       5.190   2.056  -2.216  1.00  0.00     0.168 HD
HETATM   28  C1  UNL     1       7.540   1.198  -0.562  1.00  0.00     0.117 C 
HETATM   29  O1  UNL     1       6.535   3.201   0.072  1.00  0.00    -0.274 OA
ENDBRANCH  18  24
ENDBRANCH  16  17
ENDBRANCH   1  15
BRANCH   6  30
HETATM   30  O4  UNL     1      -4.753   2.728   0.674  1.00  0.00    -0.396 OA
ATOM     31  H4  UNL     1      -5.605   2.379   0.910  1.00  0.00     0.210 HD
ENDBRANCH   6  30
TORSDOF 4
