REMARK  4 active torsions:
REMARK  status: ('A' for Active; 'I' for Inactive)
REMARK    1  A    between atoms: C3_3  and  C4_4 
REMARK    2  A    between atoms: C4_4  and  O2_6 
REMARK    3  A    between atoms: O2_6  and  C5_7 
REMARK    4  A    between atoms: C5_7  and  C6_8 
ROOT
HETATM    1  C1  UNL     1      -0.646  -1.699   2.382  1.00  0.00     0.013 C 
HETATM    2  C2  UNL     1      -0.796  -1.073   1.362  1.00  0.00    -0.095 C 
HETATM    3  C3  UNL     1      -0.998  -0.322   0.124  1.00  0.00     0.135 C 
HETATM    4  C8  UNL     1      -1.183   1.149   0.517  1.00  0.00     0.202 C 
HETATM    5  O3  UNL     1      -2.531   1.245   0.819  1.00  0.00    -0.369 OA
HETATM    6  C9  UNL     1      -3.128   0.609  -0.255  1.00  0.00     0.229 C 
HETATM    7  C10 UNL     1      -4.505   0.289   0.038  1.00  0.00     0.091 C 
HETATM    8  N1  UNL     1      -5.619   0.043   0.259  1.00  0.00    -0.195 NA
HETATM    9  C11 UNL     1      -2.293  -0.626  -0.543  1.00  0.00     0.082 C 
ENDROOT
BRANCH   3  10
HETATM   10  C4  UNL     1       0.174  -0.392  -0.754  1.00  0.00     0.282 C 
HETATM   11  O1  UNL     1       0.188  -0.855  -1.911  1.00  0.00    -0.263 OA
BRANCH  10  12
HETATM   12  O2  UNL     1       1.371   0.101  -0.249  1.00  0.00    -0.316 OA
BRANCH  12  13
HETATM   13  C5  UNL     1       2.576   0.094  -0.991  1.00  0.00     0.205 C 
BRANCH  13  14
HETATM   14  C6  UNL     1       3.624   0.694  -0.130  1.00  0.00    -0.011 C 
HETATM   15  C7  UNL     1       4.696  -0.004   0.203  1.00  0.00     0.009 C 
ENDBRANCH  13  14
ENDBRANCH  12  13
ENDBRANCH  10  12
ENDBRANCH   3  10
TORSDOF 4
