REMARK  3 active torsions:
REMARK  status: ('A' for Active; 'I' for Inactive)
REMARK    1  A    between atoms: N1_4  and  C4_5 
REMARK    2  A    between atoms: C4_5  and  C5_6 
REMARK    3  A    between atoms: C5_6  and  N2_7 
ROOT
HETATM    1  N2  UNL     1      -2.021   0.059   0.033  1.00  0.00    -0.408 N 
HETATM    2  C6  UNL     1      -2.414  -0.920  -0.914  1.00  0.00     0.138 C 
HETATM    3  C7  UNL     1      -3.591  -1.753  -0.454  1.00  0.00     0.158 C 
HETATM    4  N3  UNL     1      -4.793  -0.965  -0.595  1.00  0.00    -0.339 N 
ATOM      5  H3  UNL     1      -5.597  -1.429  -1.019  1.00  0.00     0.179 HD
HETATM    6  N4  UNL     1      -4.949   0.212  -0.256  1.00  0.00    -0.339 N 
ATOM      7  H4  UNL     1      -5.884   0.569  -0.452  1.00  0.00     0.179 HD
HETATM    8  C8  UNL     1      -4.094   1.171   0.351  1.00  0.00     0.158 C 
HETATM    9  C9  UNL     1      -2.946   0.439   1.028  1.00  0.00     0.138 C 
ENDROOT
BRANCH   1  10
HETATM   10  C5  UNL     1      -0.660  -0.022   0.453  1.00  0.00     0.137 C 
BRANCH  10  11
HETATM   11  C4  UNL     1       0.300   0.389  -0.676  1.00  0.00     0.146 C 
BRANCH  11  12
HETATM   12  N1  UNL     1       1.627   0.270  -0.226  1.00  0.00    -0.372 N 
HETATM   13  C3  UNL     1       2.174  -0.991  -0.015  1.00  0.00     0.063 C 
HETATM   14  C2  UNL     1       3.566  -0.999   0.522  1.00  0.00     0.045 C 
HETATM   15  C1  UNL     1       4.456   0.102   0.009  1.00  0.00     0.010 C 
HETATM   16  C11 UNL     1       3.737   1.409   0.333  1.00  0.00     0.045 C 
HETATM   17  C10 UNL     1       2.384   1.426  -0.345  1.00  0.00     0.063 C 
ENDBRANCH  11  12
ENDBRANCH  10  11
ENDBRANCH   1  10
TORSDOF 3
