REMARK  5 active torsions:
REMARK  status: ('A' for Active; 'I' for Inactive)
REMARK    1  A    between atoms: C2_2  and  O1_3 
REMARK    2  A    between atoms: O1_3  and  C3_4 
REMARK    3  A    between atoms: C3_4  and  C4_6 
REMARK    4  A    between atoms: C4_6  and  O3_7 
REMARK    5  A    between atoms: O3_7  and  C5_8 
REMARK       I    between atoms: C5_8  and  N1_10 
ROOT
HETATM    1  C5  UNL     1       0.057  -0.961   0.624  1.00  0.00     0.363 C 
HETATM    2  O4  UNL     1       0.778  -0.604   1.588  1.00  0.00    -0.238 OA
HETATM    3  N1  UNL     1      -1.261  -0.484   0.516  1.00  0.00    -0.328 N 
HETATM    4  C6  UNL     1      -1.780   0.415   1.515  1.00  0.00     0.128 C 
HETATM    5  C7  UNL     1      -2.543   1.571   0.947  1.00  0.00     0.020 C 
HETATM    6  C8  UNL     1      -3.521   1.136  -0.121  1.00  0.00     0.003 C 
HETATM    7  C9  UNL     1      -2.689   0.427  -1.196  1.00  0.00     0.020 C 
HETATM    8  C10 UNL     1      -2.157  -0.849  -0.566  1.00  0.00     0.128 C 
ENDROOT
BRANCH   1   9
HETATM    9  O3  UNL     1       0.631  -1.828  -0.295  1.00  0.00    -0.294 OA
BRANCH   9  10
HETATM   10  C4  UNL     1       1.925  -2.336  -0.252  1.00  0.00     0.291 C 
BRANCH  10  11
HETATM   11  C3  UNL     1       2.996  -1.302  -0.298  1.00  0.00     0.287 C 
HETATM   12  O2  UNL     1       4.181  -1.705  -0.254  1.00  0.00    -0.262 OA
BRANCH  11  13
HETATM   13  O1  UNL     1       2.778   0.030  -0.384  1.00  0.00    -0.290 OA
BRANCH  13  14
HETATM   14  C2  UNL     1       3.653   1.081  -0.434  1.00  0.00     0.135 C 
HETATM   15  C1  UNL     1       4.951   1.076  -0.413  1.00  0.00     0.038 C 
ENDBRANCH  13  14
ENDBRANCH  11  13
ENDBRANCH  10  11
ENDBRANCH   9  10
ENDBRANCH   1   9
TORSDOF 5
