REMARK  3 active torsions:
REMARK  status: ('A' for Active; 'I' for Inactive)
REMARK    1  A    between atoms: C2_2  and  C3_3 
REMARK    2  A    between atoms: C3_3  and  C4_4 
REMARK    3  A    between atoms: C8_9  and  N2_10 
ROOT
HETATM    1  C4  UNL     1      -0.662  -0.016  -0.095  1.00  0.00     0.015 C 
HETATM    2  C5  UNL     1      -0.836   0.419   1.317  1.00  0.00     0.019 C 
HETATM    3  C6  UNL     1      -0.312   1.172  -0.978  1.00  0.00     0.043 C 
HETATM    4  C7  UNL     1       1.182   1.259  -0.731  1.00  0.00     0.279 C 
HETATM    5  N1  UNL     1       1.542  -0.108  -1.032  1.00  0.00     0.152 N 
HETATM    6  C8  UNL     1       2.830  -0.482  -0.526  1.00  0.00     0.445 C 
HETATM    7  C9  UNL     1       2.673  -0.596   0.960  1.00  0.00     0.300 C 
HETATM    8  N3  UNL     1       1.281  -0.909   1.126  1.00  0.00    -0.039 N 
ATOM      9  H31 UNL     1       0.829  -0.323   1.828  1.00  0.00     0.279 HD
ATOM     10  H32 UNL     1       1.134  -1.810   1.581  1.00  0.00     0.279 HD
HETATM   11  C10 UNL     1       0.642  -0.828  -0.153  1.00  0.00     0.430 C 
ENDROOT
BRANCH   1  12
HETATM   12  C3  UNL     1      -1.761  -0.838  -0.626  1.00  0.00     0.013 C 
BRANCH  12  13
HETATM   13  C2  UNL     1      -3.125  -0.304  -0.698  1.00  0.00    -0.004 C 
HETATM   14  C1  UNL     1      -3.779   0.106   0.591  1.00  0.00     0.005 C 
ENDBRANCH  12  13
ENDBRANCH   1  12
BRANCH   6  15
HETATM   15  N2  UNL     1       3.890   0.406  -0.874  1.00  0.00    -0.046 N 
ATOM     16  H23 UNL     1       3.930   0.529  -1.886  1.00  0.00     0.277 HD
ATOM     17  H22 UNL     1       3.661   1.358  -0.589  1.00  0.00     0.277 HD
ATOM     18  H21 UNL     1       4.806   0.140  -0.514  1.00  0.00     0.277 HD
ENDBRANCH   6  15
TORSDOF 3
