REMARK  10 active torsions:
REMARK  status: ('A' for Active; 'I' for Inactive)
REMARK    1  A    between atoms: C2_2  and  C3_3 
REMARK    2  A    between atoms: C3_3  and  C4_4 
REMARK    3  A    between atoms: C4_4  and  C5_5 
REMARK    4  A    between atoms: C4_4  and  C17_23 
REMARK       I    between atoms: C5_5  and  N1_7 
REMARK    5  A    between atoms: N2_10  and  C8_11 
REMARK    6  A    between atoms: C8_11  and  N3_13 
REMARK    7  A    between atoms: N3_13  and  C9_15 
REMARK    8  A    between atoms: C17_23  and  C18_25 
REMARK    9  A    between atoms: C18_25  and  O2_26 
REMARK   10  A    between atoms: C18_25  and  C19_28 
ROOT
HETATM    1  C5  UNL     1      -1.976   1.043  -0.705  1.00  0.00     0.252 C 
HETATM    2  O1  UNL     1      -2.332   2.274  -0.492  1.00  0.00    -0.268 OA
HETATM    3  N1  UNL     1      -0.618   0.919  -0.962  1.00  0.00    -0.336 N 
HETATM    4  C6  UNL     1       0.232   2.152  -0.999  1.00  0.00     0.147 C 
HETATM    5  C7  UNL     1       1.322   2.026   0.045  1.00  0.00     0.145 C 
HETATM    6  N2  UNL     1       2.094   0.811  -0.205  1.00  0.00    -0.354 N 
HETATM    7  C13 UNL     1       1.633   0.023  -1.328  1.00  0.00     0.155 C 
HETATM    8  C14 UNL     1       0.114  -0.292  -1.188  1.00  0.00     0.044 C 
HETATM    9  C15 UNL     1       0.056  -1.282  -0.045  1.00  0.00     0.040 C 
HETATM   10  C16 UNL     1      -0.220  -1.017  -2.462  1.00  0.00     0.040 C 
ENDROOT
BRANCH   1  11
HETATM   11  C4  UNL     1      -2.959  -0.018  -0.660  1.00  0.00     0.036 C 
BRANCH  11  12
HETATM   12  C3  UNL     1      -3.830   0.088  -1.884  1.00  0.00     0.072 C 
BRANCH  12  13
HETATM   13  C2  UNL     1      -4.547   1.330  -2.105  1.00  0.00    -0.032 C 
HETATM   14  C1  UNL     1      -4.315   2.044  -3.200  1.00  0.00     0.007 C 
ENDBRANCH  12  13
ENDBRANCH  11  12
BRANCH  11  15
HETATM   15  C17 UNL     1      -3.555  -0.395   0.610  1.00  0.00     0.071 C 
HETATM   16  N4  UNL     1      -4.187  -1.726   0.530  1.00  0.00    -0.103 NA
BRANCH  15  17
HETATM   17  C18 UNL     1      -4.408   0.465   1.434  1.00  0.00     0.227 C 
BRANCH  17  18
HETATM   18  O2  UNL     1      -5.709   0.658   1.061  1.00  0.00    -0.383 OA
ATOM     19  H2  UNL     1      -6.262   1.216   1.595  1.00  0.00     0.211 HD
ENDBRANCH  17  18
BRANCH  17  20
HETATM   20  C19 UNL     1      -4.471  -0.181   2.808  1.00  0.00     0.268 C 
HETATM   21  O3  UNL     1      -5.539  -0.411   3.327  1.00  0.00    -0.304 OA
ENDBRANCH  17  20
ENDBRANCH  15  17
ENDBRANCH  11  15
ENDBRANCH   1  11
BRANCH   6  22
HETATM   22  C8  UNL     1       3.178   0.517   0.627  1.00  0.00     0.170 C 
HETATM   23  S1  UNL     1       3.533   1.563   1.858  1.00  0.00    -0.041 SA
BRANCH  22  24
HETATM   24  N3  UNL     1       3.979  -0.645   0.447  1.00  0.00    -0.359 N 
ATOM     25  H3  UNL     1       3.783  -1.305  -0.305  1.00  0.00     0.162 HD
BRANCH  24  26
HETATM   26  C9  UNL     1       5.091  -0.867   1.370  1.00  0.00     0.021 C 
HETATM   27  C10 UNL     1       4.559  -0.988   2.775  1.00  0.00     0.037 C 
HETATM   28  C11 UNL     1       5.815  -2.151   1.030  1.00  0.00     0.037 C 
HETATM   29  C12 UNL     1       6.038   0.305   1.207  1.00  0.00     0.037 C 
ENDBRANCH  24  26
ENDBRANCH  22  24
ENDBRANCH   6  22
TORSDOF 10
