REMARK  10 active torsions:
REMARK  status: ('A' for Active; 'I' for Inactive)
REMARK    1  A    between atoms: C2_2  and  O1_3 
REMARK    2  A    between atoms: O1_3  and  C3_4 
REMARK       I    between atoms: C3_4  and  N1_6 
REMARK    3  A    between atoms: N1_6  and  C4_8 
REMARK    4  A    between atoms: N2_11  and  C7_12 
REMARK    5  A    between atoms: C7_12  and  O3_13 
REMARK    6  A    between atoms: C8_15  and  N3_16 
REMARK    7  A    between atoms: C8_15  and  C14_27 
REMARK    8  A    between atoms: N3_16  and  C9_18 
REMARK    9  A    between atoms: C9_18  and  C10_20 
REMARK   10  A    between atoms: C10_20  and  N4_22 
REMARK       I    between atoms: N4_22  and  C12_24 
ROOT
HETATM    1  C7  UNL     1      -0.482  -0.710   0.773  1.00  0.00     0.161 C 
HETATM    2  C8  UNL     1      -1.501  -0.443  -0.188  1.00  0.00     0.065 C 
ENDROOT
BRANCH   1   3
HETATM    3  N2  UNL     1       0.886  -0.619   0.719  1.00  0.00    -0.360 N 
HETATM    4  C6  UNL     1       1.731  -0.938   1.920  1.00  0.00     0.127 C 
HETATM    5  C5  UNL     1       3.160  -1.193   1.492  1.00  0.00     0.045 C 
HETATM    6  C4  UNL     1       3.756   0.043   0.832  1.00  0.00     0.089 C 
HETATM    7  C18 UNL     1       2.662   0.824   0.112  1.00  0.00     0.045 C 
HETATM    8  C17 UNL     1       1.689  -0.266  -0.403  1.00  0.00     0.127 C 
BRANCH   6   9
HETATM    9  N1  UNL     1       4.657  -0.451  -0.214  1.00  0.00    -0.332 N 
HETATM   10  C3  UNL     1       6.025  -0.094  -0.235  1.00  0.00     0.360 C 
HETATM   11  O2  UNL     1       6.501   0.661   0.651  1.00  0.00    -0.239 OA
ATOM     12  H1  UNL     1       4.289  -1.065  -0.941  1.00  0.00     0.165 HD
BRANCH  10  13
HETATM   13  O1  UNL     1       6.863  -0.566  -1.225  1.00  0.00    -0.304 OA
BRANCH  13  14
HETATM   14  C2  UNL     1       8.230  -0.229  -1.273  1.00  0.00     0.176 C 
HETATM   15  C1  UNL     1       8.382   1.265  -1.405  1.00  0.00     0.034 C 
ENDBRANCH  13  14
ENDBRANCH  10  13
ENDBRANCH   6   9
ENDBRANCH   1   3
BRANCH   1  16
HETATM   16  O3  UNL     1      -0.931  -1.127   1.936  1.00  0.00    -0.345 OA
ATOM     17  H3  UNL     1      -1.878  -1.190   1.973  1.00  0.00     0.219 HD
ENDBRANCH   1  16
BRANCH   2  18
HETATM   18  N3  UNL     1      -2.854  -0.714   0.208  1.00  0.00    -0.348 N 
ATOM     19  H3  UNL     1      -3.351  -1.364  -0.401  1.00  0.00     0.166 HD
BRANCH  18  20
HETATM   20  C9  UNL     1      -3.607  -0.237   1.289  1.00  0.00     0.100 C 
HETATM   21  S1  UNL     1      -3.177   0.793   2.457  1.00  0.00    -0.063 SA
BRANCH  20  22
HETATM   22  C10 UNL     1      -5.031  -0.741   1.421  1.00  0.00     0.142 C 
HETATM   23  C11 UNL     1      -5.010  -2.265   1.566  1.00  0.00     0.040 C 
BRANCH  22  24
HETATM   24  N4  UNL     1      -5.750  -0.367   0.234  1.00  0.00    -0.351 N 
HETATM   25  C12 UNL     1      -6.946   0.404   0.261  1.00  0.00     0.214 C 
HETATM   26  C13 UNL     1      -7.649   0.760  -0.984  1.00  0.00     0.117 C 
HETATM   27  O4  UNL     1      -7.447   0.809   1.354  1.00  0.00    -0.274 OA
ATOM     28  H4  UNL     1      -5.386  -0.668  -0.670  1.00  0.00     0.163 HD
ENDBRANCH  22  24
ENDBRANCH  20  22
ENDBRANCH  18  20
ENDBRANCH   2  18
BRANCH   2  29
HETATM   29  C14 UNL     1      -1.464   0.817  -1.003  1.00  0.00     0.032 C 
HETATM   30  C15 UNL     1      -1.442   2.092  -0.193  1.00  0.00     0.016 C 
HETATM   31  C16 UNL     1      -2.835   0.923  -1.767  1.00  0.00     0.016 C 
ENDBRANCH   2  29
TORSDOF 10
