REMARK  7 active torsions:
REMARK  status: ('A' for Active; 'I' for Inactive)
REMARK    1  A    between atoms: C4_5  and  N2_6 
REMARK    2  A    between atoms: C7_9  and  N3_10 
REMARK       I    between atoms: N3_10  and  C8_12 
REMARK    3  A    between atoms: C8_12  and  C9_14 
REMARK    4  A    between atoms: C9_14  and  C10_15 
REMARK    5  A    between atoms: C10_15  and  N4_16 
REMARK       I    between atoms: N4_16  and  C11_18 
REMARK    6  A    between atoms: C11_18  and  C12_20 
REMARK    7  A    between atoms: C12_20  and  O3_21 
ROOT
HETATM    1  N3  UNL     1       0.099   0.576   0.358  1.00  0.00    -0.356 N 
ATOM      2  H3  UNL     1      -0.032  -0.384   0.039  1.00  0.00     0.162 HD
HETATM    3  C8  UNL     1      -1.027   1.354   0.681  1.00  0.00     0.219 C 
HETATM    4  O1  UNL     1      -0.893   2.544   1.057  1.00  0.00    -0.274 OA
ENDROOT
BRANCH   3   5
HETATM    5  C9  UNL     1      -2.376   0.734   0.572  1.00  0.00     0.122 C 
BRANCH   5   6
HETATM    6  C10 UNL     1      -3.400   1.720   1.089  1.00  0.00     0.132 C 
BRANCH   6   7
HETATM    7  N4  UNL     1      -4.712   1.156   1.129  1.00  0.00    -0.358 N 
HETATM    8  C11 UNL     1      -5.410   0.701   0.002  1.00  0.00     0.252 C 
HETATM    9  O2  UNL     1      -4.893   0.797  -1.138  1.00  0.00    -0.270 OA
ATOM     10  H4  UNL     1      -5.171   1.079   2.037  1.00  0.00     0.162 HD
BRANCH   8  11
HETATM   11  C12 UNL     1      -6.748   0.110   0.163  1.00  0.00     0.138 C 
HETATM   12  C13 UNL     1      -7.839   0.779  -0.590  1.00  0.00     0.048 C 
HETATM   13  C14 UNL     1      -8.636  -0.255  -1.379  1.00  0.00     0.004 C 
HETATM   14  C15 UNL     1      -9.079  -1.343  -0.442  1.00  0.00     0.000 C 
HETATM   15  C16 UNL     1      -7.887  -2.100   0.119  1.00  0.00     0.004 C 
HETATM   16  C17 UNL     1      -6.636  -1.348  -0.256  1.00  0.00     0.048 C 
BRANCH  11  17
HETATM   17  O3  UNL     1      -7.096   0.122   1.525  1.00  0.00    -0.380 OA
ATOM     18  H3  UNL     1      -7.960  -0.260   1.629  1.00  0.00     0.211 HD
ENDBRANCH  11  17
ENDBRANCH   8  11
ENDBRANCH   6   7
ENDBRANCH   5   6
ENDBRANCH   3   5
BRANCH   1  19
HETATM   19  C7  UNL     1       1.428   1.104   0.468  1.00  0.00     0.087 C 
HETATM   20  C6  UNL     1       2.283   0.889  -0.751  1.00  0.00     0.055 C 
HETATM   21  C5  UNL     1       3.649   1.425  -0.450  1.00  0.00     0.275 C 
HETATM   22  N2  UNL     1       4.365   0.605   0.537  1.00  0.00     0.093 N 
HETATM   23  C19 UNL     1       3.431  -0.233   1.265  1.00  0.00     0.275 C 
HETATM   24  C18 UNL     1       2.172   0.480   1.629  1.00  0.00     0.055 C 
BRANCH  22  25
HETATM   25  C4  UNL     1       5.402  -0.064  -0.134  1.00  0.00     0.226 C 
HETATM   26  C3  UNL     1       5.644  -1.494   0.114  1.00  0.00     0.066 C 
HETATM   27  C2  UNL     1       7.164  -1.718   0.275  1.00  0.00     0.274 C 
HETATM   28  N1  UNL     1       7.914  -1.133  -0.788  1.00  0.00     0.084 N 
HETATM   29  C1  UNL     1       9.326  -1.247  -0.450  1.00  0.00     0.309 C 
HETATM   30  C21 UNL     1       7.655   0.269  -0.980  1.00  0.00     0.274 C 
HETATM   31  C20 UNL     1       6.692   0.753   0.074  1.00  0.00     0.066 C 
ENDBRANCH  22  25
ENDBRANCH   1  19
TORSDOF 7
