REMARK  8 active torsions:
REMARK  status: ('A' for Active; 'I' for Inactive)
REMARK    1  A    between atoms: C2_2  and  C3_3 
REMARK    2  A    between atoms: C3_3  and  C4_4 
REMARK    3  A    between atoms: C4_4  and  O1_5 
REMARK       I    between atoms: N1_7  and  C5_8 
REMARK    4  A    between atoms: N2_17  and  S1_18 
REMARK    5  A    between atoms: S1_18  and  N3_21 
REMARK    6  A    between atoms: N3_21  and  C13_23 
REMARK    7  A    between atoms: C13_23  and  C14_24 
REMARK    8  A    between atoms: C14_24  and  N4_27 
ROOT
HETATM    1  C4  UNL     1      -3.204   0.014  -0.040  1.00  0.00     0.143 C 
HETATM    2  N1  UNL     1      -3.930  -1.269   0.046  1.00  0.00    -0.320 N 
HETATM    3  C5  UNL     1      -5.288  -1.475   0.392  1.00  0.00     0.218 C 
HETATM    4  C6  UNL     1      -5.898  -2.825   0.440  1.00  0.00     0.117 C 
HETATM    5  O2  UNL     1      -6.022  -0.496   0.671  1.00  0.00    -0.274 OA
HETATM    6  C7  UNL     1      -3.005  -2.313  -0.287  1.00  0.00     0.130 C 
HETATM    7  C8  UNL     1      -1.764  -1.859   0.447  1.00  0.00     0.034 C 
HETATM    8  C9  UNL     1      -1.799  -0.362   0.056  1.00  0.00     0.013 C 
HETATM    9  C10 UNL     1      -1.136   0.345   1.234  1.00  0.00     0.016 C 
HETATM   10  C11 UNL     1      -0.261   1.477   0.759  1.00  0.00     0.022 C 
HETATM   11  C12 UNL     1       1.149   0.894   0.602  1.00  0.00     0.137 C 
HETATM   12  N2  UNL     1       1.009  -0.481   0.276  1.00  0.00    -0.294 N 
HETATM   13  C17 UNL     1       0.449  -0.754  -0.999  1.00  0.00     0.137 C 
HETATM   14  C18 UNL     1      -0.966  -0.289  -1.185  1.00  0.00     0.035 C 
ENDROOT
BRANCH  12  15
HETATM   15  S1  UNL     1       2.352  -1.450   0.680  1.00  0.00     0.317 S 
HETATM   16  O3  UNL     1       2.594  -1.288   2.172  1.00  0.00    -0.183 OA
HETATM   17  O4  UNL     1       2.053  -2.904   0.454  1.00  0.00    -0.183 OA
BRANCH  15  18
HETATM   18  N3  UNL     1       3.791  -1.013  -0.119  1.00  0.00    -0.300 N 
ATOM     19  H3  UNL     1       4.084  -1.394  -1.018  1.00  0.00     0.173 HD
BRANCH  18  20
HETATM   20  C13 UNL     1       4.549  -0.032   0.636  1.00  0.00     0.171 C 
BRANCH  20  21
HETATM   21  C14 UNL     1       5.817   0.364  -0.050  1.00  0.00     0.133 C 
HETATM   22  C15 UNL     1       6.523   1.383   0.821  1.00  0.00     0.047 C 
HETATM   23  C16 UNL     1       5.554   1.009  -1.401  1.00  0.00     0.047 C 
BRANCH  21  24
HETATM   24  N4  UNL     1       6.672  -0.782  -0.300  1.00  0.00    -0.070 N 
ATOM     25  H43 UNL     1       6.860  -1.301   0.558  1.00  0.00     0.275 HD
ATOM     26  H42 UNL     1       6.179  -1.508  -0.820  1.00  0.00     0.275 HD
ATOM     27  H41 UNL     1       7.537  -0.512  -0.768  1.00  0.00     0.275 HD
ENDBRANCH  21  24
ENDBRANCH  20  21
ENDBRANCH  18  20
ENDBRANCH  15  18
ENDBRANCH  12  15
BRANCH   1  28
HETATM   28  C3  UNL     1      -3.734   0.700  -1.231  1.00  0.00     0.061 C 
BRANCH  28  29
HETATM   29  C2  UNL     1      -3.430   2.122  -1.465  1.00  0.00     0.000 C 
HETATM   30  C1  UNL     1      -3.899   3.060  -0.378  1.00  0.00     0.005 C 
ENDBRANCH  28  29
ENDBRANCH   1  28
BRANCH   1  31
HETATM   31  O1  UNL     1      -3.654   0.675   1.126  1.00  0.00    -0.370 OA
ATOM     32  H1  UNL     1      -3.312   0.233   1.894  1.00  0.00     0.212 HD
ENDBRANCH   1  31
TORSDOF 8
