REMARK  8 active torsions:
REMARK  status: ('A' for Active; 'I' for Inactive)
REMARK    1  A    between atoms: C2_2  and  S1_4 
REMARK    2  A    between atoms: S1_4  and  N1_7 
REMARK       I    between atoms: N1_7  and  C4_9 
REMARK       I    between atoms: C4_9  and  N2_11 
REMARK    3  A    between atoms: C8_15  and  C9_16 
REMARK    4  A    between atoms: C9_16  and  N3_17 
REMARK       I    between atoms: N3_17  and  C10_19 
REMARK    5  A    between atoms: C10_19  and  C11_21 
REMARK       I    between atoms: C11_21  and  N4_23 
REMARK    6  A    between atoms: N4_23  and  C12_25 
REMARK    7  A    between atoms: C12_25  and  C13_26 
REMARK    8  A    between atoms: C13_26  and  C14_27 
ROOT
HETATM    1  N1  UNL     1      -5.033  -0.913  -0.116  1.00  0.00    -0.235 N 
ATOM      2  H1  UNL     1      -5.557  -0.243   0.447  1.00  0.00     0.183 HD
HETATM    3  C4  UNL     1      -3.619  -0.855  -0.053  1.00  0.00     0.332 C 
HETATM    4  O3  UNL     1      -3.010  -1.717  -0.775  1.00  0.00    -0.246 OA
HETATM    5  N2  UNL     1      -2.980   0.092   0.753  1.00  0.00    -0.327 N 
HETATM    6  C5  UNL     1      -3.627   1.079   1.582  1.00  0.00     0.128 C 
HETATM    7  C6  UNL     1      -2.759   2.305   1.370  1.00  0.00     0.022 C 
HETATM    8  C7  UNL     1      -1.479   1.775   0.671  1.00  0.00     0.028 C 
HETATM    9  C8  UNL     1      -1.542   0.327   0.972  1.00  0.00     0.106 C 
ENDROOT
BRANCH   9  10
HETATM   10  C9  UNL     1      -0.692  -0.630   0.256  1.00  0.00     0.148 C 
BRANCH  10  11
HETATM   11  N3  UNL     1       0.716  -0.475   0.447  1.00  0.00    -0.351 N 
HETATM   12  C10 UNL     1       1.570   0.539   0.032  1.00  0.00     0.309 C 
HETATM   13  O4  UNL     1       1.226   1.515  -0.640  1.00  0.00    -0.262 OA
ATOM     14  H3  UNL     1       1.164  -1.227   0.970  1.00  0.00     0.162 HD
BRANCH  12  15
HETATM   15  C11 UNL     1       3.017   0.495   0.399  1.00  0.00     0.313 C 
HETATM   16  O5  UNL     1       3.422  -0.451   1.095  1.00  0.00    -0.262 OA
HETATM   17  N4  UNL     1       3.866   1.523  -0.052  1.00  0.00    -0.329 N 
ATOM     18  H4  UNL     1       3.364   2.221  -0.601  1.00  0.00     0.168 HD
BRANCH  17  19
HETATM   19  C12 UNL     1       5.216   1.823   0.064  1.00  0.00     0.088 C 
BRANCH  19  20
HETATM   20  C13 UNL     1       6.343   1.103  -0.493  1.00  0.00    -0.001 C 
BRANCH  20  21
HETATM   21  C14 UNL     1       6.747  -0.271  -0.205  1.00  0.00    -0.032 C 
HETATM   22  C15 UNL     1       7.045  -0.541   1.264  1.00  0.00     0.018 C 
HETATM   23  C16 UNL     1       8.211  -0.403  -0.840  1.00  0.00     0.018 C 
HETATM   24  C17 UNL     1       6.016  -1.391  -0.866  1.00  0.00     0.018 C 
ENDBRANCH  20  21
ENDBRANCH  19  20
ENDBRANCH  17  19
ENDBRANCH  12  15
ENDBRANCH  10  11
ENDBRANCH   9  10
BRANCH   1  25
HETATM   25  S1  UNL     1      -5.935  -2.026  -1.069  1.00  0.00     0.237 S 
HETATM   26  O1  UNL     1      -5.977  -3.403  -0.471  1.00  0.00    -0.205 OA
HETATM   27  O2  UNL     1      -5.345  -2.175  -2.462  1.00  0.00    -0.205 OA
BRANCH  25  28
HETATM   28  C2  UNL     1      -7.614  -1.457  -1.275  1.00  0.00     0.121 C 
HETATM   29  C1  UNL     1      -7.578  -0.123  -1.986  1.00  0.00     0.027 C 
HETATM   30  C3  UNL     1      -8.270  -1.253   0.062  1.00  0.00     0.027 C 
ENDBRANCH  25  28
ENDBRANCH   1  25
TORSDOF 8
