REMARK  6 active torsions:
REMARK  status: ('A' for Active; 'I' for Inactive)
REMARK       I    between atoms: N1_2  and  C2_4 
REMARK    1  A    between atoms: C2_4  and  C3_6 
REMARK       I    between atoms: N2_10  and  C7_11 
REMARK    2  A    between atoms: C7_11  and  C8_13 
REMARK       I    between atoms: C8_13  and  N3_15 
REMARK    3  A    between atoms: N3_15  and  C9_17 
REMARK    4  A    between atoms: C9_17  and  C10_18 
REMARK    5  A    between atoms: C9_17  and  C13_22 
REMARK    6  A    between atoms: C13_22  and  N5_23 
REMARK       I    between atoms: N5_23  and  C14_25 
ROOT
HETATM    1  C10 UNL     1      -2.206   2.415  -1.061  1.00  0.00     0.114 C 
HETATM    2  C11 UNL     1      -1.054   3.457  -1.207  1.00  0.00     0.027 C 
HETATM    3  C12 UNL     1      -3.454   3.090  -0.988  1.00  0.00     0.065 C 
HETATM    4  N4  UNL     1      -4.443   3.664  -0.949  1.00  0.00    -0.197 NA
ENDROOT
BRANCH   1   5
HETATM    5  C9  UNL     1      -1.819   1.355  -0.145  1.00  0.00     0.130 C 
BRANCH   5   6
HETATM    6  N3  UNL     1      -0.628   0.671  -0.704  1.00  0.00    -0.345 N 
HETATM    7  C8  UNL     1       0.693   0.868  -0.248  1.00  0.00     0.310 C 
HETATM    8  O3  UNL     1       1.008   1.679   0.674  1.00  0.00    -0.262 OA
ATOM      9  H3  UNL     1      -0.773   0.013  -1.470  1.00  0.00     0.163 HD
BRANCH   7  10
HETATM   10  C7  UNL     1       1.802   0.125  -0.811  1.00  0.00     0.312 C 
HETATM   11  N2  UNL     1       3.165   0.281  -0.522  1.00  0.00    -0.331 N 
HETATM   12  C3  UNL     1       4.217  -0.616  -1.030  1.00  0.00     0.179 C 
HETATM   13  C6  UNL     1       3.810   1.327   0.237  1.00  0.00     0.127 C 
HETATM   14  C4  UNL     1       5.371   0.304  -1.311  1.00  0.00     0.037 C 
HETATM   15  C5  UNL     1       5.290   1.231  -0.110  1.00  0.00     0.022 C 
HETATM   16  O2  UNL     1       1.474  -0.778  -1.665  1.00  0.00    -0.262 OA
BRANCH  12  17
HETATM   17  C2  UNL     1       4.561  -1.581   0.067  1.00  0.00     0.240 C 
HETATM   18  N1  UNL     1       5.440  -2.662  -0.096  1.00  0.00    -0.364 N 
HETATM   19  C1  UNL     1       5.738  -3.540   0.987  1.00  0.00     0.149 C 
ATOM     20  H1  UNL     1       5.874  -2.823  -1.005  1.00  0.00     0.161 HD
HETATM   21  O1  UNL     1       4.024  -1.390   1.192  1.00  0.00    -0.271 OA
ENDBRANCH  12  17
ENDBRANCH   7  10
ENDBRANCH   5   6
BRANCH   5  22
HETATM   22  C13 UNL     1      -2.762   0.242   0.255  1.00  0.00     0.054 C 
HETATM   23  C16 UNL     1      -3.081  -0.556  -0.939  1.00  0.00     0.033 C 
HETATM   24  C17 UNL     1      -4.522  -0.584  -1.384  1.00  0.00     0.002 C 
HETATM   25  C18 UNL     1      -5.513  -0.718  -0.295  1.00  0.00     0.000 C 
HETATM   26  C19 UNL     1      -5.294   0.382   0.673  1.00  0.00     0.002 C 
HETATM   27  C20 UNL     1      -3.920   0.715   1.075  1.00  0.00     0.033 C 
BRANCH  22  28
HETATM   28  N5  UNL     1      -1.965  -0.561   1.172  1.00  0.00    -0.350 N 
HETATM   29  C14 UNL     1      -2.205  -1.738   1.848  1.00  0.00     0.214 C 
HETATM   30  C15 UNL     1      -1.170  -2.368   2.759  1.00  0.00     0.117 C 
HETATM   31  O4  UNL     1      -3.279  -2.365   1.763  1.00  0.00    -0.274 OA
ATOM     32  H5  UNL     1      -1.039  -0.173   1.351  1.00  0.00     0.163 HD
ENDBRANCH  22  28
ENDBRANCH   5  22
ENDBRANCH   1   5
TORSDOF 6
