REMARK  6 active torsions:
REMARK  status: ('A' for Active; 'I' for Inactive)
REMARK       I    between atoms: C2_2  and  N1_4 
REMARK    1  A    between atoms: N3_14  and  C9_15 
REMARK    2  A    between atoms: C9_15  and  C10_16 
REMARK       I    between atoms: C10_16  and  N4_18 
REMARK    3  A    between atoms: N4_18  and  C11_20 
REMARK    4  A    between atoms: C11_20  and  C12_21 
REMARK    5  A    between atoms: C12_21  and  N5_22 
REMARK       I    between atoms: N5_22  and  C13_24 
REMARK    6  A    between atoms: C13_24  and  C14_26 
ROOT
HETATM    1  C9  UNL     1      -1.373   0.065   0.084  1.00  0.00     0.219 C 
ENDROOT
BRANCH   1   2
HETATM    2  N3  UNL     1      -2.211  -1.041   0.341  1.00  0.00    -0.402 N 
HETATM    3  C8  UNL     1      -2.541  -1.889  -0.752  1.00  0.00     0.117 C 
HETATM    4  C7  UNL     1      -3.741  -1.323  -1.491  1.00  0.00     0.021 C 
HETATM    5  C6  UNL     1      -4.937  -2.248  -1.458  1.00  0.00     0.029 C 
HETATM    6  C5  UNL     1      -6.249  -1.493  -1.488  1.00  0.00     0.232 C 
HETATM    7  N2  UNL     1      -6.825  -1.563  -0.149  1.00  0.00    -0.074 N 
HETATM    8  C4  UNL     1      -6.916  -0.231   0.430  1.00  0.00     0.252 C 
ATOM      9  H22 UNL     1      -6.311  -2.206   0.454  1.00  0.00     0.277 HD
ATOM     10  H21 UNL     1      -7.726  -2.042  -0.146  1.00  0.00     0.277 HD
HETATM   11  C3  UNL     1      -6.069  -0.063   1.663  1.00  0.00     0.153 C 
HETATM   12  N1  UNL     1      -5.036   0.912   1.449  1.00  0.00    -0.349 N 
HETATM   13  C2  UNL     1      -5.396   2.260   1.247  1.00  0.00     0.215 C 
HETATM   14  C21 UNL     1      -3.608   0.614   1.424  1.00  0.00     0.145 C 
HETATM   15  C1  UNL     1      -6.808   2.671   1.249  1.00  0.00     0.117 C 
HETATM   16  O1  UNL     1      -4.512   3.125   1.061  1.00  0.00    -0.274 OA
HETATM   17  C20 UNL     1      -3.244  -0.809   1.297  1.00  0.00     0.137 C 
ENDBRANCH   1   2
BRANCH   1  18
HETATM   18  C10 UNL     1       0.036  -0.273  -0.264  1.00  0.00     0.235 C 
HETATM   19  O2  UNL     1       0.376  -1.467  -0.300  1.00  0.00    -0.272 OA
HETATM   20  N4  UNL     1       0.928   0.771  -0.537  1.00  0.00    -0.358 N 
ATOM     21  H4  UNL     1       0.595   1.734  -0.499  1.00  0.00     0.162 HD
BRANCH  20  22
HETATM   22  C11 UNL     1       2.306   0.514  -0.871  1.00  0.00     0.142 C 
BRANCH  22  23
HETATM   23  C12 UNL     1       2.995  -0.152   0.271  1.00  0.00     0.142 C 
BRANCH  23  24
HETATM   24  N5  UNL     1       4.374  -0.415  -0.039  1.00  0.00    -0.359 N 
HETATM   25  C13 UNL     1       5.278   0.635  -0.323  1.00  0.00     0.221 C 
HETATM   26  O3  UNL     1       4.967   1.845  -0.322  1.00  0.00    -0.273 OA
ATOM     27  H5  UNL     1       4.707  -1.379  -0.054  1.00  0.00     0.162 HD
BRANCH  25  28
HETATM   28  C14 UNL     1       6.696   0.272  -0.643  1.00  0.00     0.078 C 
HETATM   29  C15 UNL     1       7.242  -0.465   0.566  1.00  0.00     0.014 C 
HETATM   30  C16 UNL     1       8.654  -0.910   0.185  1.00  0.00     0.001 C 
HETATM   31  C17 UNL     1       9.486   0.372   0.154  1.00  0.00     0.000 C 
HETATM   32  C18 UNL     1       8.966   1.262  -0.942  1.00  0.00     0.001 C 
HETATM   33  C19 UNL     1       7.495   1.516  -0.842  1.00  0.00     0.014 C 
ENDBRANCH  25  28
ENDBRANCH  23  24
ENDBRANCH  22  23
ENDBRANCH  20  22
ENDBRANCH   1  18
TORSDOF 6
