REMARK  8 active torsions:
REMARK  status: ('A' for Active; 'I' for Inactive)
REMARK    1  A    between atoms: N4_5  and  C2_6 
REMARK    2  A    between atoms: C2_6  and  N5_7 
REMARK    3  A    between atoms: N5_7  and  C3_9 
REMARK    4  A    between atoms: C5_11  and  N6_12 
REMARK    5  A    between atoms: C10_20  and  N8_21 
REMARK    6  A    between atoms: N8_21  and  C11_23 
REMARK    7  A    between atoms: C11_23  and  C12_24 
REMARK    8  A    between atoms: C12_24  and  O2_25 
ROOT
HETATM    1  C3  UNL     1       0.462   0.519   0.055  1.00  0.00     0.121 A 
HETATM    2  C4  UNL     1      -0.381  -0.585  -0.010  1.00  0.00     0.097 A 
HETATM    3  C5  UNL     1      -1.745  -0.414   0.076  1.00  0.00     0.122 A 
HETATM    4  N7  UNL     1      -2.191   0.842   0.219  1.00  0.00    -0.177 N 
ATOM      5  H7  UNL     1      -3.197   1.000   0.284  1.00  0.00     0.185 HD
HETATM    6  C10 UNL     1      -1.353   1.918   0.281  1.00  0.00     0.681 A 
HETATM    7  N9  UNL     1      -0.027   1.761   0.199  1.00  0.00    -0.177 N 
ATOM      8  H9  UNL     1       0.598   2.566   0.245  1.00  0.00     0.185 HD
ENDROOT
BRANCH   1   9
HETATM    9  N5  UNL     1       1.743   0.364  -0.026  1.00  0.00    -0.358 N 
ATOM     10  H5  UNL     1       2.364   1.172   0.021  1.00  0.00     0.162 HD
BRANCH   9  11
HETATM   11  C2  UNL     1       2.278  -0.948  -0.181  1.00  0.00     0.274 C 
BRANCH  11  12
HETATM   12  N4  UNL     1       3.731  -0.880  -0.401  1.00  0.00    -0.209 N 
HETATM   13  N3  UNL     1       4.348  -0.785  -1.572  1.00  0.00    -0.001 NA
HETATM   14  N2  UNL     1       5.658  -0.747  -1.378  1.00  0.00    -0.002 NA
HETATM   15  N1  UNL     1       5.917  -0.817  -0.073  1.00  0.00    -0.232 N 
HETATM   16  C1  UNL     1       7.238  -0.805   0.555  1.00  0.00     0.180 C 
HETATM   17  C13 UNL     1       4.712  -0.899   0.519  1.00  0.00     0.355 A 
HETATM   18  O3  UNL     1       4.536  -0.981   1.762  1.00  0.00    -0.244 OA
ENDBRANCH  11  12
ENDBRANCH   9  11
ENDBRANCH   1   9
BRANCH   3  19
HETATM   19  N6  UNL     1      -2.617  -1.537   0.008  1.00  0.00    -0.363 N 
HETATM   20  C6  UNL     1      -4.024  -1.331   0.123  1.00  0.00     0.150 C 
HETATM   21  C7  UNL     1      -4.839  -2.534   0.443  1.00  0.00     0.187 C 
HETATM   22  O1  UNL     1      -4.174  -3.732   0.338  1.00  0.00    -0.388 OA
HETATM   23  C8  UNL     1      -3.211  -3.759  -0.640  1.00  0.00     0.187 C 
HETATM   24  C9  UNL     1      -2.066  -2.858  -0.179  1.00  0.00     0.150 C 
ENDBRANCH   3  19
BRANCH   6  25
HETATM   25  N8  UNL     1      -1.833   3.103   0.420  1.00  0.00    -0.224 N 
ATOM     26  H8  UNL     1      -2.847   3.199   0.480  1.00  0.00     0.177 HD
BRANCH  25  27
HETATM   27  C11 UNL     1      -1.050   4.291   0.496  1.00  0.00     0.164 C 
BRANCH  27  28
HETATM   28  C12 UNL     1      -0.649   4.803  -0.892  1.00  0.00     0.184 C 
BRANCH  28  29
HETATM   29  O2  UNL     1      -1.810   5.086  -1.634  1.00  0.00    -0.399 OA
ATOM     30  H2  UNL     1      -1.561   5.403  -2.494  1.00  0.00     0.209 HD
ENDBRANCH  28  29
ENDBRANCH  27  28
ENDBRANCH  25  27
ENDBRANCH   6  25
TORSDOF 8
