REMARK  8 active torsions:
REMARK  status: ('A' for Active; 'I' for Inactive)
REMARK    1  A    between atoms: N1_2  and  C3_4 
REMARK    2  A    between atoms: C4_7  and  N3_8 
REMARK    3  A    between atoms: N3_8  and  C5_10 
REMARK    4  A    between atoms: N5_14  and  C7_15 
REMARK    5  A    between atoms: C11_26  and  N10_27 
REMARK    6  A    between atoms: N10_27  and  C12_29 
REMARK    7  A    between atoms: C12_29  and  C13_30 
REMARK    8  A    between atoms: C13_30  and  O1_31 
ROOT
HETATM    1  C3  UNL     1      -2.436  -0.678   0.274  1.00  0.00     0.708 A 
HETATM    2  N2  UNL     1      -1.128  -0.409   0.257  1.00  0.00    -0.021 N 
ATOM      3  H2  UNL     1      -0.473  -1.179   0.397  1.00  0.00     0.203 HD
HETATM    4  C4  UNL     1      -0.631   0.826   0.065  1.00  0.00     0.712 A 
HETATM    5  N9  UNL     1      -1.494   1.840  -0.117  1.00  0.00    -0.021 N 
ATOM      6  H9  UNL     1      -1.147   2.788  -0.264  1.00  0.00     0.203 HD
HETATM    7  C11 UNL     1      -2.816   1.601  -0.105  1.00  0.00     0.707 A 
HETATM    8  N11 UNL     1      -3.293   0.362   0.087  1.00  0.00    -0.021 N 
ATOM      9  H11 UNL     1      -4.300   0.199   0.093  1.00  0.00     0.203 HD
ENDROOT
BRANCH   4  10
HETATM   10  N3  UNL     1       0.620   1.109   0.045  1.00  0.00    -0.178 N 
ATOM     11  H3  UNL     1       0.912   2.075  -0.106  1.00  0.00     0.185 HD
BRANCH  10  12
HETATM   12  C5  UNL     1       1.623   0.088   0.232  1.00  0.00     0.112 C 
HETATM   13  N4  UNL     1       1.607  -0.910   1.008  1.00  0.00    -0.362 N 
HETATM   14  C6  UNL     1       2.809  -1.723   0.917  1.00  0.00     0.249 C 
ATOM     15  H4  UNL     1       0.830  -1.123   1.634  1.00  0.00     0.162 HD
HETATM   16  N5  UNL     1       3.705  -0.868   0.165  1.00  0.00    -0.342 N 
HETATM   17  C10 UNL     1       2.882   0.089  -0.525  1.00  0.00     0.203 C 
BRANCH  16  18
HETATM   18  C7  UNL     1       5.113  -0.968   0.127  1.00  0.00     0.138 A 
HETATM   19  C8  UNL     1       5.941  -0.155  -0.587  1.00  0.00     0.160 A 
HETATM   20  N6  UNL     1       7.194  -0.584  -0.351  1.00  0.00    -0.290 N 
HETATM   21  C9  UNL     1       8.415  -0.024  -0.897  1.00  0.00     0.178 C 
HETATM   22  N7  UNL     1       7.127  -1.606   0.465  1.00  0.00    -0.240 N 
HETATM   23  N8  UNL     1       5.874  -1.860   0.771  1.00  0.00    -0.270 N 
ATOM     24  H7  UNL     1       7.931  -2.129   0.813  1.00  0.00     0.208 HD
ATOM     25  H8  UNL     1       5.542  -2.602   1.387  1.00  0.00     0.190 HD
ENDBRANCH  16  18
ENDBRANCH  10  12
ENDBRANCH   4  10
BRANCH   1  26
HETATM   26  N1  UNL     1      -2.942  -1.974   0.475  1.00  0.00    -0.225 N 
HETATM   27  C1  UNL     1      -2.000  -3.059   0.671  1.00  0.00     0.168 C 
HETATM   28  C2  UNL     1      -4.342  -2.261   0.493  1.00  0.00     0.168 C 
ENDBRANCH   1  26
BRANCH   7  29
HETATM   29  N10 UNL     1      -3.652   2.573  -0.281  1.00  0.00    -0.223 N 
ATOM     30  H10 UNL     1      -3.283   3.512  -0.427  1.00  0.00     0.177 HD
BRANCH  29  31
HETATM   31  C12 UNL     1      -5.070   2.390  -0.280  1.00  0.00     0.164 C 
BRANCH  31  32
HETATM   32  C13 UNL     1      -5.738   3.757  -0.174  1.00  0.00     0.184 C 
BRANCH  32  33
HETATM   33  O1  UNL     1      -7.110   3.631  -0.169  1.00  0.00    -0.399 OA
ATOM     34  H1  UNL     1      -7.526   4.482  -0.103  1.00  0.00     0.209 HD
ENDBRANCH  32  33
ENDBRANCH  31  32
ENDBRANCH  29  31
ENDBRANCH   7  29
TORSDOF 8
