REMARK  7 active torsions:
REMARK  status: ('A' for Active; 'I' for Inactive)
REMARK    1  A    between atoms: C4_10  and  C5_11 
REMARK    2  A    between atoms: C5_11  and  N4_12 
REMARK    3  A    between atoms: N8_22  and  C9_23 
REMARK    4  A    between atoms: N9_24  and  O2_25 
REMARK    5  A    between atoms: N9_24  and  C10_27 
REMARK    6  A    between atoms: C10_27  and  C11_28 
REMARK    7  A    between atoms: C11_28  and  O3_29 
ROOT
HETATM    1  N1  UNL     1       4.924  -2.584   1.238  1.00  0.00    -0.190 NA
HETATM    2  C1  UNL     1       4.828  -1.741   0.487  1.00  0.00     0.120 C 
HETATM    3  C2  UNL     1       4.702  -0.658  -0.435  1.00  0.00     0.142 A 
HETATM    4  N2  UNL     1       5.274  -0.674  -1.681  1.00  0.00    -0.298 N 
ATOM      5  H2  UNL     1       5.820  -1.432  -2.091  1.00  0.00     0.171 HD
HETATM    6  C3  UNL     1       4.978   0.491  -2.252  1.00  0.00     0.325 A 
HETATM    7  O1  UNL     1       5.362   0.796  -3.421  1.00  0.00    -0.247 OA
HETATM    8  N3  UNL     1       4.254   1.206  -1.407  1.00  0.00    -0.308 N 
ATOM      9  H3  UNL     1       3.895   2.141  -1.599  1.00  0.00     0.170 HD
HETATM   10  C4  UNL     1       4.050   0.517  -0.233  1.00  0.00     0.069 A 
ENDROOT
BRANCH  10  11
HETATM   11  C5  UNL     1       3.261   1.083   0.850  1.00  0.00     0.193 C 
BRANCH  11  12
HETATM   12  N4  UNL     1       1.890   0.688   0.949  1.00  0.00    -0.303 N 
HETATM   13  C6  UNL     1       0.965   1.271   0.121  1.00  0.00     0.188 A 
HETATM   14  N5  UNL     1      -0.330   0.931   0.119  1.00  0.00    -0.335 N 
HETATM   15  C7  UNL     1      -0.773  -0.020   0.951  1.00  0.00     0.164 A 
ATOM     16  H5  UNL     1      -0.979   1.396  -0.516  1.00  0.00     0.168 HD
HETATM   17  C8  UNL     1       0.101  -0.645   1.807  1.00  0.00     0.164 A 
HETATM   18  N8  UNL     1      -1.978  -0.582   1.192  1.00  0.00    -0.217 N 
HETATM   19  N6  UNL     1      -0.584  -1.550   2.529  1.00  0.00    -0.277 N 
HETATM   20  C12 UNL     1       1.434  -0.250   1.766  1.00  0.00     0.281 A 
HETATM   21  N7  UNL     1      -1.826  -1.488   2.138  1.00  0.00    -0.233 N 
ATOM     22  H6  UNL     1      -0.204  -2.168   3.246  1.00  0.00     0.189 HD
ATOM     23  H7  UNL     1      -2.580  -2.064   2.514  1.00  0.00     0.209 HD
HETATM   24  O4  UNL     1       2.192  -0.855   2.583  1.00  0.00    -0.265 OA
BRANCH  18  25
HETATM   25  C9  UNL     1      -3.186  -0.225   0.515  1.00  0.00     0.236 C 
HETATM   26  N9  UNL     1      -4.139  -1.072   0.395  1.00  0.00    -0.252 N 
BRANCH  26  27
HETATM   27  O2  UNL     1      -3.983  -2.324   0.925  1.00  0.00    -0.287 OA
ATOM     28  H2  UNL     1      -4.690  -2.952   0.836  1.00  0.00     0.244 HD
ENDBRANCH  26  27
BRANCH  26  29
HETATM   29  C10 UNL     1      -5.363  -0.732  -0.281  1.00  0.00     0.182 C 
BRANCH  29  30
HETATM   30  C11 UNL     1      -5.369   0.665  -0.820  1.00  0.00     0.186 C 
BRANCH  30  31
HETATM   31  O3  UNL     1      -6.588   0.949  -1.469  1.00  0.00    -0.399 OA
ATOM     32  H3  UNL     1      -6.592   1.835  -1.811  1.00  0.00     0.209 HD
ENDBRANCH  30  31
ENDBRANCH  29  30
ENDBRANCH  26  29
ENDBRANCH  18  25
ENDBRANCH  11  12
ENDBRANCH  10  11
TORSDOF 7
