REMARK  11 active torsions:
REMARK  status: ('A' for Active; 'I' for Inactive)
REMARK    1  A    between atoms: C3_4  and  C4_5 
REMARK    2  A    between atoms: C7_8  and  N1_9 
REMARK    3  A    between atoms: N2_12  and  C10_13 
REMARK    4  A    between atoms: C10_13  and  C11_14 
REMARK    5  A    between atoms: C11_14  and  O2_15 
REMARK    6  A    between atoms: C14_19  and  N3_20 
REMARK    7  A    between atoms: N6_28  and  C16_29 
REMARK    8  A    between atoms: C16_29  and  C17_30 
REMARK    9  A    between atoms: C17_30  and  C18_31 
REMARK   10  A    between atoms: C18_31  and  O5_32 
REMARK   11  A    between atoms: O5_32  and  O6_33 
ROOT
HETATM    1  C4  UNL     1       1.264  -0.136   0.344  1.00  0.00    -0.005 A 
HETATM    2  C5  UNL     1       0.613   0.538   1.353  1.00  0.00     0.016 A 
HETATM    3  C6  UNL     1      -0.753   0.677   1.317  1.00  0.00     0.033 A 
HETATM    4  C7  UNL     1      -1.476   0.137   0.260  1.00  0.00     0.063 A 
HETATM    5  C14 UNL     1      -0.844  -0.523  -0.733  1.00  0.00     0.130 A 
HETATM    6  C15 UNL     1       0.551  -0.667  -0.696  1.00  0.00     0.052 A 
ENDROOT
BRANCH   1   7
HETATM    7  C3  UNL     1       2.730  -0.287   0.385  1.00  0.00     0.065 A 
HETATM    8  C2  UNL     1       3.475   0.189   1.414  1.00  0.00     0.107 A 
HETATM    9  C1  UNL     1       4.865  -0.016   1.358  1.00  0.00     0.265 A 
HETATM   10  O1  UNL     1       5.609   0.395   2.271  1.00  0.00    -0.267 OA
HETATM   11  N6  UNL     1       5.452  -0.661   0.328  1.00  0.00    -0.243 N 
HETATM   12  N5  UNL     1       4.668  -1.099  -0.640  1.00  0.00    -0.237 N 
HETATM   13  N4  UNL     1       3.351  -0.920  -0.617  1.00  0.00    -0.285 N 
ATOM     14  H5  UNL     1       5.086  -1.590  -1.430  1.00  0.00     0.208 HD
ATOM     15  H4  UNL     1       2.793  -1.279  -1.392  1.00  0.00     0.188 HD
BRANCH  11  16
HETATM   16  C16 UNL     1       6.879  -0.856   0.303  1.00  0.00     0.156 C 
BRANCH  16  17
HETATM   17  C17 UNL     1       7.611   0.301  -0.386  1.00  0.00     0.051 C 
BRANCH  17  18
HETATM   18  C18 UNL     1       9.103  -0.011  -0.350  1.00  0.00     0.211 C 
BRANCH  18  19
HETATM   19  O5  UNL     1       9.806   1.031  -0.972  1.00  0.00    -0.243 OA
BRANCH  19  20
HETATM   20  O6  UNL     1      11.105   0.793  -0.955  1.00  0.00    -0.251 OA
ATOM     21  H6  UNL     1      11.581   1.499  -1.376  1.00  0.00     0.253 HD
ENDBRANCH  19  20
ENDBRANCH  18  19
ENDBRANCH  17  18
ENDBRANCH  16  17
ENDBRANCH  11  16
ENDBRANCH   1   7
BRANCH   5  22
HETATM   22  N3  UNL     1      -1.549  -1.076  -1.838  1.00  0.00    -0.113 N 
HETATM   23  O3  UNL     1      -1.097  -2.102  -2.427  1.00  0.00    -0.532 OA
HETATM   24  O4  UNL     1      -2.689  -0.550  -2.292  1.00  0.00    -0.532 OA
ENDBRANCH   5  22
BRANCH   4  25
HETATM   25  N1  UNL     1      -2.893   0.267   0.316  1.00  0.00    -0.376 N 
HETATM   26  C8  UNL     1      -3.664  -0.880   0.682  1.00  0.00     0.142 C 
HETATM   27  C9  UNL     1      -5.097  -0.858   0.288  1.00  0.00     0.136 C 
HETATM   28  N2  UNL     1      -5.715   0.412   0.159  1.00  0.00    -0.407 N 
HETATM   29  C12 UNL     1      -4.942   1.552   0.487  1.00  0.00     0.136 C 
HETATM   30  C13 UNL     1      -3.523   1.516   0.036  1.00  0.00     0.142 C 
BRANCH  28  31
HETATM   31  C10 UNL     1      -6.567   0.581  -0.973  1.00  0.00     0.143 C 
BRANCH  31  32
HETATM   32  C11 UNL     1      -7.826  -0.240  -0.898  1.00  0.00     0.183 C 
BRANCH  32  33
HETATM   33  O2  UNL     1      -8.569   0.115   0.214  1.00  0.00    -0.399 OA
ATOM     34  H2  UNL     1      -9.364  -0.403   0.261  1.00  0.00     0.209 HD
ENDBRANCH  32  33
ENDBRANCH  31  32
ENDBRANCH  28  31
ENDBRANCH   4  25
TORSDOF 11
