REMARK  10 active torsions:
REMARK  status: ('A' for Active; 'I' for Inactive)
REMARK    1  A    between atoms: O1_2  and  C2_3 
REMARK    2  A    between atoms: C2_3  and  C3_4 
REMARK    3  A    between atoms: N4_11  and  C4_12 
REMARK    4  A    between atoms: C4_12  and  C5_13 
REMARK    5  A    between atoms: C5_13  and  N5_14 
REMARK    6  A    between atoms: N6_17  and  C8_18 
REMARK    7  A    between atoms: C8_18  and  C9_19 
REMARK    8  A    between atoms: C10_20  and  C11_21 
REMARK    9  A    between atoms: C11_21  and  N7_22 
REMARK   10  A    between atoms: C12_23  and  O2_24 
ROOT
HETATM    1  N5  UNL     1       2.932  -1.737   0.544  1.00  0.00    -0.331 N 
HETATM    2  C6  UNL     1       2.922  -0.892   1.747  1.00  0.00     0.147 C 
HETATM    3  C7  UNL     1       1.425  -0.775   1.980  1.00  0.00     0.148 C 
HETATM    4  N6  UNL     1       0.949  -0.531   0.632  1.00  0.00    -0.329 N 
HETATM    5  C19 UNL     1       1.812  -1.262  -0.224  1.00  0.00     0.320 C 
HETATM    6  O4  UNL     1       1.644  -1.468  -1.436  1.00  0.00    -0.247 OA
ENDROOT
BRANCH   4   7
HETATM    7  C8  UNL     1      -0.161   0.281   0.248  1.00  0.00     0.154 C 
BRANCH   7   8
HETATM    8  C9  UNL     1      -1.442  -0.432   0.177  1.00  0.00    -0.009 C 
HETATM    9  C10 UNL     1      -2.500  -0.109   0.912  1.00  0.00    -0.009 C 
BRANCH   9  10
HETATM   10  C11 UNL     1      -3.790  -0.797   0.865  1.00  0.00     0.163 C 
BRANCH  10  11
HETATM   11  N7  UNL     1      -4.891   0.057   0.485  1.00  0.00    -0.274 N 
HETATM   12  C12 UNL     1      -5.328   0.282  -0.764  1.00  0.00     0.174 A 
HETATM   13  C13 UNL     1      -6.411   1.164  -0.727  1.00  0.00     0.094 A 
HETATM   14  C14 UNL     1      -7.215   1.718  -1.687  1.00  0.00     0.034 A 
HETATM   15  N8  UNL     1      -6.592   1.446   0.575  1.00  0.00    -0.270 N 
HETATM   16  C15 UNL     1      -8.229   2.575  -1.351  1.00  0.00     0.004 A 
HETATM   17  C16 UNL     1      -8.418   2.866  -0.024  1.00  0.00     0.018 A 
HETATM   18  C17 UNL     1      -7.595   2.294   0.906  1.00  0.00     0.102 A 
HETATM   19  C18 UNL     1      -5.678   0.780   1.301  1.00  0.00     0.335 A 
HETATM   20  O3  UNL     1      -5.620   0.864   2.566  1.00  0.00    -0.246 OA
BRANCH  12  21
HETATM   21  O2  UNL     1      -4.838  -0.238  -1.946  1.00  0.00    -0.344 OA
ATOM     22  H2  UNL     1      -5.147  -0.079  -2.830  1.00  0.00     0.219 HD
ENDBRANCH  12  21
ENDBRANCH  10  11
ENDBRANCH   9  10
ENDBRANCH   7   8
ENDBRANCH   4   7
BRANCH   1  23
HETATM   23  C5  UNL     1       3.852  -2.781   0.271  1.00  0.00     0.149 C 
BRANCH  23  24
HETATM   24  C4  UNL     1       5.078  -2.448  -0.490  1.00  0.00     0.172 C 
BRANCH  24  25
HETATM   25  N4  UNL     1       5.942  -1.469   0.084  1.00  0.00    -0.260 N 
HETATM   26  C3  UNL     1       5.918  -0.156  -0.173  1.00  0.00     0.139 A 
HETATM   27  N1  UNL     1       6.895   0.409   0.597  1.00  0.00    -0.270 N 
HETATM   28  N2  UNL     1       7.492  -0.518   1.294  1.00  0.00    -0.227 N 
ATOM     29  H1  UNL     1       7.123   1.403   0.623  1.00  0.00     0.190 HD
HETATM   30  N3  UNL     1       6.901  -1.656   0.971  1.00  0.00    -0.224 N 
ATOM     31  H2  UNL     1       8.259  -0.391   1.954  1.00  0.00     0.210 HD
ATOM     32  H3  UNL     1       7.155  -2.565   1.359  1.00  0.00     0.210 HD
BRANCH  26  33
HETATM   33  C2  UNL     1       5.086   0.637  -1.080  1.00  0.00     0.246 C 
BRANCH  33  34
HETATM   34  O1  UNL     1       5.646   1.800  -1.534  1.00  0.00    -0.389 OA
HETATM   35  C1  UNL     1       6.794   1.689  -2.267  1.00  0.00     0.202 C 
ENDBRANCH  33  34
ENDBRANCH  26  33
ENDBRANCH  24  25
ENDBRANCH  23  24
ENDBRANCH   1  23
TORSDOF 10
