REMARK  10 active torsions:
REMARK  status: ('A' for Active; 'I' for Inactive)
REMARK    1  A    between atoms: N1_4  and  C3_5 
REMARK    2  A    between atoms: N3_8  and  C4_9 
REMARK    3  A    between atoms: C4_9  and  C5_10 
REMARK    4  A    between atoms: N5_19  and  C11_20 
REMARK    5  A    between atoms: C11_20  and  C12_21 
REMARK    6  A    between atoms: C12_21  and  C13_22 
REMARK    7  A    between atoms: C13_22  and  N6_23 
REMARK    8  A    between atoms: N8_31  and  C19_32 
REMARK    9  A    between atoms: C19_32  and  C20_33 
REMARK   10  A    between atoms: C20_33  and  O3_34 
ROOT
HETATM    1  C3  UNL     1       0.310  -0.027  -1.103  1.00  0.00     0.702 A 
HETATM    2  N2  UNL     1       0.707  -1.329  -1.158  1.00  0.00    -0.125 N 
ATOM      3  H2  UNL     1       1.585  -1.679  -0.774  1.00  0.00     0.206 HD
HETATM    4  N3  UNL     1      -0.181  -2.074  -1.766  1.00  0.00    -0.222 N 
HETATM    5  C10 UNL     1      -1.175  -1.216  -2.113  1.00  0.00     0.358 A 
HETATM    6  O2  UNL     1      -2.205  -1.591  -2.730  1.00  0.00    -0.244 OA
HETATM    7  N5  UNL     1      -0.865   0.040  -1.699  1.00  0.00    -0.130 N 
ENDROOT
BRANCH   1   8
HETATM    8  N1  UNL     1       1.109   0.960  -0.461  1.00  0.00    -0.206 N 
HETATM    9  C2  UNL     1       1.358   2.258  -0.978  1.00  0.00     0.244 C 
HETATM   10  C1  UNL     1       2.482   2.933  -0.260  1.00  0.00     0.238 C 
HETATM   11  O1  UNL     1       2.571   4.178  -0.236  1.00  0.00    -0.272 OA
HETATM   12  N8  UNL     1       3.464   2.138   0.401  1.00  0.00    -0.347 N 
HETATM   13  C18 UNL     1       3.204   0.749   0.738  1.00  0.00     0.146 C 
HETATM   14  C17 UNL     1       1.684   0.565   0.827  1.00  0.00     0.161 C 
BRANCH  12  15
HETATM   15  C19 UNL     1       4.737   2.718   0.757  1.00  0.00     0.151 C 
BRANCH  15  16
HETATM   16  C20 UNL     1       5.777   2.586  -0.329  1.00  0.00     0.183 C 
BRANCH  16  17
HETATM   17  O3  UNL     1       6.023   1.249  -0.642  1.00  0.00    -0.399 OA
ATOM     18  H3  UNL     1       6.678   1.166  -1.325  1.00  0.00     0.209 HD
ENDBRANCH  16  17
ENDBRANCH  15  16
ENDBRANCH  12  15
ENDBRANCH   1   8
BRANCH   7  19
HETATM   19  C11 UNL     1      -1.722   1.168  -1.883  1.00  0.00     0.154 C 
BRANCH  19  20
HETATM   20  C12 UNL     1      -2.715   1.371  -0.770  1.00  0.00     0.041 C 
BRANCH  20  21
HETATM   21  C13 UNL     1      -2.127   1.605   0.583  1.00  0.00     0.131 C 
BRANCH  21  22
HETATM   22  N6  UNL     1      -3.260   1.785   1.504  1.00  0.00    -0.352 N 
HETATM   23  C14 UNL     1      -3.911   0.839   2.219  1.00  0.00     0.108 A 
HETATM   24  C15 UNL     1      -4.912   1.439   2.953  1.00  0.00     0.106 A 
HETATM   25  N7  UNL     1      -4.867   2.745   2.683  1.00  0.00    -0.361 N 
HETATM   26  C16 UNL     1      -3.885   2.943   1.823  1.00  0.00     0.182 A 
ATOM     27  H7  UNL     1      -5.481   3.461   3.071  1.00  0.00     0.166 HD
ENDBRANCH  21  22
ENDBRANCH  20  21
ENDBRANCH  19  20
ENDBRANCH   7  19
BRANCH   4  28
HETATM   28  C4  UNL     1      -0.190  -3.512  -2.026  1.00  0.00     0.211 C 
BRANCH  28  29
HETATM   29  C5  UNL     1      -0.737  -4.247  -0.850  1.00  0.00     0.029 A 
HETATM   30  C6  UNL     1      -1.689  -3.715  -0.031  1.00  0.00     0.027 A 
HETATM   31  C7  UNL     1      -2.161  -4.494   1.020  1.00  0.00     0.003 A 
HETATM   32  C8  UNL     1      -1.652  -5.751   1.184  1.00  0.00     0.017 A 
HETATM   33  C9  UNL     1      -0.677  -6.269   0.328  1.00  0.00     0.088 A 
HETATM   34  N4  UNL     1      -0.237  -5.506  -0.676  1.00  0.00    -0.368 N 
ATOM     35  H4  UNL     1       0.474  -5.864  -1.314  1.00  0.00     0.165 HD
ENDBRANCH  28  29
ENDBRANCH   4  28
TORSDOF 10
