REMARK  5 active torsions:
REMARK  status: ('A' for Active; 'I' for Inactive)
REMARK    1  A    between atoms: N4_14  and  C7_15 
REMARK    2  A    between atoms: C7_15  and  C8_16 
REMARK    3  A    between atoms: C8_16  and  C9_17 
REMARK    4  A    between atoms: C9_17  and  N5_18 
REMARK    5  A    between atoms: C11_25  and  N9_26 
ROOT
HETATM    1  C7  UNL     1      -0.070   1.201  -1.263  1.00  0.00     0.131 C 
ENDROOT
BRANCH   1   2
HETATM    2  N4  UNL     1      -1.205   1.206  -0.394  1.00  0.00    -0.335 N 
HETATM    3  C4  UNL     1      -2.208   0.303  -0.350  1.00  0.00     0.149 A 
HETATM    4  C3  UNL     1      -2.446  -0.822  -1.104  1.00  0.00     0.280 A 
HETATM    5  C5  UNL     1      -3.113   0.644   0.649  1.00  0.00     0.145 A 
HETATM    6  N2  UNL     1      -3.539  -1.544  -0.845  1.00  0.00    -0.273 N 
HETATM    7  O2  UNL     1      -1.620  -1.113  -2.000  1.00  0.00    -0.265 OA
HETATM    8  C2  UNL     1      -4.415  -1.199   0.136  1.00  0.00     0.330 A 
ATOM      9  H2  UNL     1      -3.722  -2.380  -1.400  1.00  0.00     0.173 HD
HETATM   10  N1  UNL     1      -4.204  -0.108   0.883  1.00  0.00    -0.288 N 
HETATM   11  O1  UNL     1      -5.422  -1.937   0.309  1.00  0.00    -0.246 OA
HETATM   12  C1  UNL     1      -5.127   0.253   1.924  1.00  0.00     0.163 C 
HETATM   13  N3  UNL     1      -2.623   1.769   1.198  1.00  0.00    -0.336 N 
HETATM   14  C6  UNL     1      -1.478   2.095   0.562  1.00  0.00     0.185 A 
ATOM     15  H3  UNL     1      -3.046   2.289   1.967  1.00  0.00     0.168 HD
ENDBRANCH   1   2
BRANCH   1  16
HETATM   16  C8  UNL     1       1.089   0.445  -0.603  1.00  0.00     0.036 C 
BRANCH  16  17
HETATM   17  C9  UNL     1       2.224   0.436  -1.571  1.00  0.00     0.119 C 
BRANCH  17  18
HETATM   18  N5  UNL     1       3.412  -0.244  -1.103  1.00  0.00    -0.182 NA
HETATM   19  N6  UNL     1       3.091  -1.500  -0.565  1.00  0.00    -0.289 N 
HETATM   20  C10 UNL     1       3.613  -1.576   0.743  1.00  0.00     0.201 A 
ATOM     21  H6  UNL     1       2.568  -2.235  -1.041  1.00  0.00     0.183 HD
HETATM   22  N7  UNL     1       3.475  -2.718   1.601  1.00  0.00    -0.062 NA
HETATM   23  N8  UNL     1       4.214  -0.482   1.033  1.00  0.00    -0.323 N 
HETATM   24  C11 UNL     1       4.132   0.405  -0.070  1.00  0.00     0.382 A 
ATOM     25  H8  UNL     1       4.679  -0.281   1.919  1.00  0.00     0.165 HD
BRANCH  24  26
HETATM   26  N9  UNL     1       3.686   1.743   0.260  1.00  0.00    -0.044 N 
ATOM     27  H93 UNL     1       3.679   2.324  -0.578  1.00  0.00     0.278 HD
ATOM     28  H92 UNL     1       2.691   1.733   0.482  1.00  0.00     0.278 HD
ATOM     29  H91 UNL     1       4.204   2.210   1.004  1.00  0.00     0.278 HD
ENDBRANCH  24  26
ENDBRANCH  17  18
ENDBRANCH  16  17
ENDBRANCH   1  16
TORSDOF 5
