REMARK  6 active torsions:
REMARK  status: ('A' for Active; 'I' for Inactive)
REMARK    1  A    between atoms: N1_1  and  C1_4 
REMARK    2  A    between atoms: N4_10  and  C4_12 
REMARK    3  A    between atoms: C4_12  and  C5_13 
REMARK    4  A    between atoms: C5_13  and  O1_14 
REMARK    5  A    between atoms: O1_14  and  C6_15 
REMARK    6  A    between atoms: C6_15  and  C7_16 
ROOT
HETATM    1  C1  UNL     1       5.123   0.850   1.199  1.00  0.00     0.692 A 
HETATM    2  N2  UNL     1       5.412   0.577  -0.075  1.00  0.00    -0.170 N 
ATOM      3  H2  UNL     1       6.387   0.573  -0.376  1.00  0.00     0.186 HD
HETATM    4  C2  UNL     1       4.448   0.308  -0.968  1.00  0.00     0.216 A 
HETATM    5  N3  UNL     1       3.145   0.309  -0.586  1.00  0.00    -0.061 N 
HETATM    6  C3  UNL     1       2.802   0.581   0.701  1.00  0.00     0.719 A 
HETATM    7  N4  UNL     1       1.628   0.603   1.134  1.00  0.00    -0.201 N 
ATOM      8  H4  UNL     1       1.598   0.831   2.128  1.00  0.00     0.183 HD
HETATM    9  N7  UNL     1       3.846   0.846   1.553  1.00  0.00    -0.021 N 
ATOM     10  H7  UNL     1       3.623   1.054   2.526  1.00  0.00     0.203 HD
HETATM   11  N8  UNL     1       2.346   0.003  -1.688  1.00  0.00    -0.240 N 
ATOM     12  H8  UNL     1       1.328  -0.062  -1.677  1.00  0.00     0.191 HD
HETATM   13  C10 UNL     1       3.171  -0.204  -2.831  1.00  0.00     0.315 A 
HETATM   14  O2  UNL     1       2.828  -0.496  -4.005  1.00  0.00    -0.262 OA
HETATM   15  C11 UNL     1       4.548  -0.016  -2.410  1.00  0.00     0.287 A 
HETATM   16  O3  UNL     1       5.604  -0.097  -3.067  1.00  0.00    -0.278 OA
ENDROOT
BRANCH   7  17
HETATM   17  C4  UNL     1       0.342   0.397   0.612  1.00  0.00     0.105 C 
BRANCH  17  18
HETATM   18  C5  UNL     1      -0.743   0.552   1.678  1.00  0.00     0.213 C 
BRANCH  18  19
HETATM   19  O1  UNL     1      -1.966   0.365   1.144  1.00  0.00    -0.379 OA
BRANCH  19  20
HETATM   20  C6  UNL     1      -2.223  -0.858   0.583  1.00  0.00     0.243 C 
BRANCH  20  21
HETATM   21  C7  UNL     1      -3.666  -0.861   0.111  1.00  0.00     0.097 C 
HETATM   22  N5  UNL     1      -4.535  -1.691   0.552  1.00  0.00    -0.377 N 
HETATM   23  C8  UNL     1      -5.830  -1.441  -0.093  1.00  0.00     0.140 C 
ATOM     24  H5  UNL     1      -4.355  -2.416   1.246  1.00  0.00     0.160 HD
HETATM   25  C9  UNL     1      -5.681  -0.081  -0.740  1.00  0.00     0.140 C 
HETATM   26  N6  UNL     1      -4.223   0.024  -0.848  1.00  0.00    -0.377 N 
ATOM     27  H6  UNL     1      -3.705   0.622  -1.492  1.00  0.00     0.160 HD
ENDBRANCH  20  21
ENDBRANCH  19  20
ENDBRANCH  18  19
ENDBRANCH  17  18
ENDBRANCH   7  17
BRANCH   1  28
HETATM   28  N1  UNL     1       6.050   1.113   2.079  1.00  0.00    -0.234 N 
ATOM     29  H12 UNL     1       7.033   1.116   1.807  1.00  0.00     0.174 HD
ATOM     30  H11 UNL     1       5.829   1.322   3.053  1.00  0.00     0.174 HD
ENDBRANCH   1  28
TORSDOF 6
