REMARK  8 active torsions:
REMARK  status: ('A' for Active; 'I' for Inactive)
REMARK    1  A    between atoms: C3_5  and  N2_6 
REMARK    2  A    between atoms: C5_12  and  C6_13 
REMARK    3  A    between atoms: C6_13  and  N4_14 
REMARK    4  A    between atoms: C10_22  and  C11_23 
REMARK    5  A    between atoms: C11_23  and  O1_24 
REMARK    6  A    between atoms: C11_23  and  N7_26 
REMARK    7  A    between atoms: N7_26  and  C12_28 
REMARK    8  A    between atoms: N10_33  and  O2_34 
ROOT
HETATM    1  C12 UNL     1       4.616  -1.467  -0.595  1.00  0.00     0.241 C 
HETATM    2  C13 UNL     1       4.476  -0.022  -0.498  1.00  0.00     0.078 C 
HETATM    3  N8  UNL     1       4.398   1.129  -0.434  1.00  0.00    -0.196 NA
ENDROOT
BRANCH   1   4
HETATM    4  N7  UNL     1       4.184  -2.225   0.513  1.00  0.00    -0.379 N 
ATOM      5  H7  UNL     1       4.868  -2.693   1.108  1.00  0.00     0.157 HD
BRANCH   4   6
HETATM    6  C11 UNL     1       2.820  -2.336   0.797  1.00  0.00     0.284 C 
BRANCH   6   7
HETATM    7  C10 UNL     1       2.168  -1.044   1.129  1.00  0.00     0.149 A 
HETATM    8  N6  UNL     1       1.262  -0.457   0.346  1.00  0.00    -0.324 N 
HETATM    9  C9  UNL     1       0.672   0.715   0.658  1.00  0.00     0.157 A 
ATOM     10  H6  UNL     1       1.004  -0.915  -0.528  1.00  0.00     0.169 HD
HETATM   11  N4  UNL     1      -0.226   1.488   0.054  1.00  0.00    -0.270 N 
HETATM   12  C8  UNL     1       1.026   1.348   1.858  1.00  0.00     0.143 A 
HETATM   13  N5  UNL     1      -0.426   2.576   0.853  1.00  0.00    -0.305 N 
HETATM   14  C7  UNL     1       0.311   2.514   1.938  1.00  0.00     0.145 A 
ATOM     15  H5  UNL     1      -1.066   3.340   0.635  1.00  0.00     0.186 HD
HETATM   16  N10 UNL     1       1.937   0.739   2.628  1.00  0.00    -0.157 N 
HETATM   17  N9  UNL     1       2.491  -0.405   2.290  1.00  0.00    -0.258 N 
ATOM     18  H9  UNL     1       3.181  -0.826   2.913  1.00  0.00     0.191 HD
BRANCH  11  19
HETATM   19  C6  UNL     1      -0.957   1.298  -1.181  1.00  0.00     0.193 C 
BRANCH  19  20
HETATM   20  C5  UNL     1      -2.299   0.769  -0.910  1.00  0.00     0.000 A 
HETATM   21  C2  UNL     1      -2.672  -0.512  -0.793  1.00  0.00     0.032 A 
HETATM   22  C1  UNL     1      -1.780  -1.633  -1.061  1.00  0.00     0.069 C 
HETATM   23  N1  UNL     1      -3.965  -0.814  -0.455  1.00  0.00    -0.196 N 
HETATM   24  C3  UNL     1      -4.885   0.137  -0.235  1.00  0.00     0.675 A 
ATOM     25  H1  UNL     1      -4.237  -1.793  -0.368  1.00  0.00     0.184 HD
HETATM   26  N3  UNL     1      -4.537   1.433  -0.348  1.00  0.00    -0.202 N 
HETATM   27  C4  UNL     1      -3.283   1.746  -0.675  1.00  0.00     0.117 A 
ATOM     28  H3  UNL     1      -5.226   2.168  -0.185  1.00  0.00     0.183 HD
BRANCH  24  29
HETATM   29  N2  UNL     1      -6.072  -0.257   0.081  1.00  0.00    -0.234 N 
ATOM     30  H22 UNL     1      -6.336  -1.239   0.167  1.00  0.00     0.174 HD
ATOM     31  H21 UNL     1      -6.772   0.466   0.248  1.00  0.00     0.174 HD
ENDBRANCH  24  29
ENDBRANCH  19  20
ENDBRANCH  11  19
BRANCH  16  32
HETATM   32  O2  UNL     1       2.257   1.394   3.801  1.00  0.00    -0.267 OA
ATOM     33  H2  UNL     1       2.903   0.962   4.347  1.00  0.00     0.247 HD
ENDBRANCH  16  32
ENDBRANCH   6   7
BRANCH   6  34
HETATM   34  O1  UNL     1       2.641  -3.233   1.901  1.00  0.00    -0.370 OA
ATOM     35  H1  UNL     1       3.058  -4.060   1.689  1.00  0.00     0.212 HD
ENDBRANCH   6  34
ENDBRANCH   4   6
ENDBRANCH   1   4
TORSDOF 8
