REMARK  7 active torsions:
REMARK  status: ('A' for Active; 'I' for Inactive)
REMARK    1  A    between atoms: O1_2  and  C2_3 
REMARK    2  A    between atoms: C3_6  and  N2_7 
REMARK    3  A    between atoms: N2_7  and  N3_9 
REMARK    4  A    between atoms: C4_14  and  N5_15 
REMARK       I    between atoms: N5_15  and  C5_17 
REMARK       I    between atoms: C5_17  and  N8_22 
REMARK    5  A    between atoms: N8_22  and  C7_24 
REMARK    6  A    between atoms: C7_24  and  C8_25 
REMARK    7  A    between atoms: C8_25  and  N9_26 
ROOT
HETATM    1  N5  UNL     1      -0.012   1.863   0.159  1.00  0.00    -0.021 N 
ATOM      2  H5  UNL     1      -0.145   2.771  -0.286  1.00  0.00     0.203 HD
HETATM    3  C5  UNL     1      -1.072   1.301   0.922  1.00  0.00     0.701 C 
HETATM    4  N6  UNL     1      -1.305   1.797   2.086  1.00  0.00    -0.126 N 
ATOM      5  H6  UNL     1      -2.060   1.412   2.654  1.00  0.00     0.197 HD
HETATM    6  C6  UNL     1      -0.549   2.843   2.578  1.00  0.00     0.196 C 
HETATM    7  N7  UNL     1       0.087   3.715   2.971  1.00  0.00    -0.171 NA
HETATM    8  N8  UNL     1      -1.856   0.212   0.405  1.00  0.00    -0.223 N 
ATOM      9  H8  UNL     1      -1.906   0.018  -0.595  1.00  0.00     0.177 HD
ENDROOT
BRANCH   1  10
HETATM   10  C4  UNL     1       1.114   1.251   0.017  1.00  0.00     0.714 A 
HETATM   11  N4  UNL     1       1.327   0.052   0.588  1.00  0.00    -0.020 N 
HETATM   12  C3  UNL     1       2.521  -0.593   0.435  1.00  0.00     0.719 A 
ATOM     13  H4  UNL     1       0.588  -0.381   1.142  1.00  0.00     0.203 HD
HETATM   14  N1  UNL     1       3.502  -0.043  -0.288  1.00  0.00    -0.152 N 
HETATM   15  C2  UNL     1       3.300   1.149  -0.859  1.00  0.00     0.252 A 
ATOM     16  H1  UNL     1       4.393  -0.526  -0.402  1.00  0.00     0.188 HD
HETATM   17  N12 UNL     1       2.115   1.785  -0.705  1.00  0.00    -0.153 N 
ATOM     18  H12 UNL     1       1.978   2.693  -1.148  1.00  0.00     0.188 HD
BRANCH  12  19
HETATM   19  N2  UNL     1       2.632  -1.735   1.018  1.00  0.00    -0.071 N 
ATOM     20  H2  UNL     1       1.854  -2.113   1.558  1.00  0.00     0.212 HD
BRANCH  19  21
HETATM   21  N3  UNL     1       3.821  -2.453   0.907  1.00  0.00    -0.024 N 
HETATM   22  O2  UNL     1       4.076  -3.001  -0.178  1.00  0.00    -0.516 OA
HETATM   23  O3  UNL     1       4.707  -2.569   1.950  1.00  0.00    -0.516 OA
ENDBRANCH  19  21
ENDBRANCH  12  19
BRANCH  15  24
HETATM   24  O1  UNL     1       4.330   1.714  -1.611  1.00  0.00    -0.326 OA
HETATM   25  C1  UNL     1       5.558   1.077  -1.784  1.00  0.00     0.213 C 
ENDBRANCH  15  24
ENDBRANCH   1  10
BRANCH   8  26
HETATM   26  C7  UNL     1      -2.569  -0.595   1.368  1.00  0.00     0.160 C 
BRANCH  26  27
HETATM   27  C8  UNL     1      -3.364  -1.708   0.733  1.00  0.00     0.170 C 
BRANCH  27  28
HETATM   28  N9  UNL     1      -4.367  -1.213  -0.193  1.00  0.00    -0.286 N 
HETATM   29  C9  UNL     1      -4.241  -0.989  -1.504  1.00  0.00     0.130 A 
HETATM   30  C10 UNL     1      -5.445  -0.517  -1.996  1.00  0.00     0.127 A 
HETATM   31  N10 UNL     1      -6.281  -0.468  -0.951  1.00  0.00    -0.296 N 
HETATM   32  N11 UNL     1      -5.625  -0.881   0.094  1.00  0.00    -0.241 N 
ATOM     33  H10 UNL     1      -7.254  -0.163  -0.971  1.00  0.00     0.187 HD
ATOM     34  H11 UNL     1      -6.029  -0.944   1.029  1.00  0.00     0.208 HD
ENDBRANCH  27  28
ENDBRANCH  26  27
ENDBRANCH   8  26
TORSDOF 7
