REMARK  8 active torsions:
REMARK  status: ('A' for Active; 'I' for Inactive)
REMARK    1  A    between atoms: N1_2  and  C2_4 
REMARK    2  A    between atoms: C3_7  and  N3_8 
REMARK    3  A    between atoms: N4_11  and  C6_12 
REMARK    4  A    between atoms: C6_12  and  C7_13 
REMARK    5  A    between atoms: C7_13  and  N5_14 
REMARK    6  A    between atoms: C8_21  and  C9_22 
REMARK    7  A    between atoms: C9_22  and  N9_23 
REMARK    8  A    between atoms: C12_31  and  N11_32 
ROOT
HETATM    1  N3  UNL     1       0.919  -0.153  -0.926  1.00  0.00    -0.210 N 
HETATM    2  C4  UNL     1      -0.053   0.838  -0.510  1.00  0.00     0.186 C 
HETATM    3  C5  UNL     1      -1.422   0.298  -0.262  1.00  0.00     0.083 C 
HETATM    4  N4  UNL     1      -1.571  -1.087  -0.200  1.00  0.00    -0.369 N 
HETATM    5  C10 UNL     1      -0.594  -1.951  -0.738  1.00  0.00     0.147 C 
HETATM    6  C11 UNL     1       0.378  -1.270  -1.669  1.00  0.00     0.161 C 
ENDROOT
BRANCH   1   7
HETATM    7  C3  UNL     1       2.290   0.012  -0.596  1.00  0.00     0.709 A 
HETATM    8  N2  UNL     1       2.652   1.102   0.098  1.00  0.00    -0.021 N 
HETATM    9  C2  UNL     1       3.914   1.369   0.474  1.00  0.00     0.706 A 
ATOM     10  H2  UNL     1       1.924   1.769   0.356  1.00  0.00     0.203 HD
HETATM   11  N12 UNL     1       4.863   0.486   0.129  1.00  0.00    -0.022 N 
HETATM   12  C12 UNL     1       4.531  -0.615  -0.567  1.00  0.00     0.706 A 
ATOM     13  H12 UNL     1       5.834   0.650   0.394  1.00  0.00     0.203 HD
HETATM   14  N10 UNL     1       3.244  -0.863  -0.936  1.00  0.00    -0.021 N 
ATOM     15  H10 UNL     1       3.010  -1.704  -1.464  1.00  0.00     0.203 HD
BRANCH   9  16
HETATM   16  N1  UNL     1       4.222   2.449   1.151  1.00  0.00    -0.229 N 
HETATM   17  C1  UNL     1       3.123   3.335   1.470  1.00  0.00     0.165 C 
ATOM     18  H1  UNL     1       5.180   2.653   1.436  1.00  0.00     0.177 HD
ENDBRANCH   9  16
BRANCH  12  19
HETATM   19  N11 UNL     1       5.431  -1.466  -0.901  1.00  0.00    -0.229 N 
HETATM   20  C13 UNL     1       6.792  -1.240  -0.531  1.00  0.00     0.165 C 
ATOM     21  H11 UNL     1       5.176  -2.301  -1.429  1.00  0.00     0.177 HD
ENDBRANCH  12  19
ENDBRANCH   1   7
BRANCH   4  22
HETATM   22  C6  UNL     1      -2.210  -1.629   0.918  1.00  0.00     0.085 C 
BRANCH  22  23
HETATM   23  C7  UNL     1      -3.651  -1.496   1.144  1.00  0.00     0.197 C 
BRANCH  23  24
HETATM   24  N5  UNL     1      -4.244  -0.197   1.241  1.00  0.00    -0.257 N 
HETATM   25  N6  UNL     1      -4.270   0.586   2.337  1.00  0.00    -0.224 N 
HETATM   26  N7  UNL     1      -4.874   1.697   2.027  1.00  0.00    -0.227 N 
ATOM     27  H6  UNL     1      -3.884   0.350   3.251  1.00  0.00     0.210 HD
HETATM   28  N8  UNL     1      -5.245   1.674   0.776  1.00  0.00    -0.271 N 
ATOM     29  H7  UNL     1      -5.034   2.473   2.669  1.00  0.00     0.210 HD
HETATM   30  C8  UNL     1      -4.853   0.480   0.271  1.00  0.00     0.141 A 
ATOM     31  H8  UNL     1      -5.736   2.414   0.274  1.00  0.00     0.190 HD
BRANCH  30  32
HETATM   32  C9  UNL     1      -5.107   0.001  -1.136  1.00  0.00     0.308 C 
BRANCH  32  33
HETATM   33  N9  UNL     1      -5.733   1.055  -1.876  1.00  0.00    -0.073 N 
ATOM     34  H93 UNL     1      -6.579   1.400  -1.423  1.00  0.00     0.274 HD
ATOM     35  H92 UNL     1      -5.196   1.922  -1.850  1.00  0.00     0.274 HD
ATOM     36  H91 UNL     1      -5.905   0.731  -2.828  1.00  0.00     0.274 HD
ENDBRANCH  32  33
ENDBRANCH  30  32
ENDBRANCH  23  24
ENDBRANCH  22  23
ENDBRANCH   4  22
TORSDOF 8
