REMARK  5 active torsions:
REMARK  status: ('A' for Active; 'I' for Inactive)
REMARK    1  A    between atoms: N1_1  and  C1_4 
REMARK    2  A    between atoms: C2_7  and  C3_8 
REMARK    3  A    between atoms: C3_8  and  N3_9 
REMARK    4  A    between atoms: C7_21  and  N7_22 
REMARK    5  A    between atoms: C12_28  and  C13_29 
ROOT
HETATM    1  C1  UNL     1      -0.677   0.496  -1.839  1.00  0.00     0.117 A 
HETATM    2  N2  UNL     1      -1.526   0.615  -0.803  1.00  0.00    -0.330 N 
ATOM      3  H2  UNL     1      -2.507   0.816  -0.997  1.00  0.00     0.168 HD
HETATM    4  C2  UNL     1      -1.136   0.480   0.488  1.00  0.00     0.104 A 
HETATM    5  N6  UNL     1       0.151   0.218   0.744  1.00  0.00    -0.330 N 
ATOM      6  H6  UNL     1       0.446   0.116   1.715  1.00  0.00     0.168 HD
HETATM    7  C7  UNL     1       1.087   0.082  -0.243  1.00  0.00     0.122 A 
HETATM    8  C12 UNL     1       0.642   0.226  -1.539  1.00  0.00     0.089 A 
ENDROOT
BRANCH   4   9
HETATM    9  C3  UNL     1      -2.148   0.631   1.594  1.00  0.00     0.229 C 
BRANCH   9  10
HETATM   10  N3  UNL     1      -3.483   0.389   1.047  1.00  0.00    -0.245 N 
HETATM   11  N4  UNL     1      -4.198   1.426   0.583  1.00  0.00    -0.291 N 
HETATM   12  C4  UNL     1      -5.435   1.249   0.072  1.00  0.00     0.200 A 
ATOM     13  H4  UNL     1      -3.800   2.364   0.617  1.00  0.00     0.188 HD
HETATM   14  N5  UNL     1      -5.992   0.023   0.008  1.00  0.00    -0.314 N 
HETATM   15  C5  UNL     1      -5.308  -1.032   0.460  1.00  0.00     0.316 A 
ATOM     16  H5  UNL     1      -6.927  -0.098  -0.382  1.00  0.00     0.170 HD
HETATM   17  O1  UNL     1      -5.809  -2.180   0.408  1.00  0.00    -0.262 OA
HETATM   18  C6  UNL     1      -4.042  -0.817   0.981  1.00  0.00     0.330 A 
HETATM   19  O2  UNL     1      -3.410  -1.810   1.403  1.00  0.00    -0.260 OA
ENDBRANCH   9  10
ENDBRANCH   4   9
BRANCH   1  20
HETATM   20  N1  UNL     1      -1.060   0.625  -3.058  1.00  0.00    -0.385 N 
ATOM     21  H12 UNL     1      -2.035   0.825  -3.280  1.00  0.00     0.157 HD
ATOM     22  H11 UNL     1      -0.416   0.535  -3.844  1.00  0.00     0.157 HD
ENDBRANCH   1  20
BRANCH   7  23
HETATM   23  N7  UNL     1       2.452  -0.179   0.075  1.00  0.00    -0.362 N 
HETATM   24  C8  UNL     1       2.864  -1.536   0.406  1.00  0.00     0.150 C 
HETATM   25  C9  UNL     1       4.370  -1.562   0.510  1.00  0.00     0.187 C 
HETATM   26  O3  UNL     1       4.741  -0.504   1.363  1.00  0.00    -0.388 OA
HETATM   27  C10 UNL     1       4.689   0.690   0.673  1.00  0.00     0.187 C 
HETATM   28  C11 UNL     1       3.354   0.951   0.043  1.00  0.00     0.150 C 
ENDBRANCH   7  23
BRANCH   8  29
HETATM   29  C13 UNL     1       1.618   0.086  -2.604  1.00  0.00     0.277 C 
HETATM   30  O4  UNL     1       1.804  -1.056  -3.087  1.00  0.00    -0.301 OA
ENDBRANCH   8  29
TORSDOF 5
