REMARK  9 active torsions:
REMARK  status: ('A' for Active; 'I' for Inactive)
REMARK    1  A    between atoms: N1_2  and  N2_3 
REMARK    2  A    between atoms: N2_3  and  S1_5 
REMARK    3  A    between atoms: S1_5  and  C2_8 
REMARK    4  A    between atoms: C5_14  and  C6_15 
REMARK       I    between atoms: C6_15  and  N5_17 
REMARK    5  A    between atoms: N5_17  and  N6_19 
REMARK    6  A    between atoms: C7_21  and  C8_22 
REMARK    7  A    between atoms: C9_23  and  O4_24 
REMARK    8  A    between atoms: C11_29  and  O7_30 
REMARK    9  A    between atoms: C12_32  and  O8_33 
ROOT
HETATM    1  C2  UNL     1      -3.685   1.498   0.084  1.00  0.00     0.169 A 
HETATM    2  C3  UNL     1      -3.846   2.669   0.804  1.00  0.00     0.097 A 
HETATM    3  C4  UNL     1      -2.602   3.172   1.165  1.00  0.00     0.147 A 
HETATM    4  N3  UNL     1      -1.721   2.282   0.646  1.00  0.00    -0.215 N 
HETATM    5  N4  UNL     1      -2.355   1.311   0.019  1.00  0.00    -0.278 N 
ATOM      6  H4  UNL     1      -1.900   0.528  -0.450  1.00  0.00     0.188 HD
HETATM    7  C5  UNL     1      -0.314   2.494   0.832  1.00  0.00     0.215 A 
HETATM    8  N7  UNL     1       0.124   3.523   1.488  1.00  0.00    -0.265 N 
ATOM      9  H7  UNL     1       1.130   3.647   1.603  1.00  0.00     0.190 HD
HETATM   10  N8  UNL     1      -0.760   4.483   2.051  1.00  0.00    -0.239 N 
ATOM     11  H8  UNL     1      -0.402   5.288   2.565  1.00  0.00     0.208 HD
HETATM   12  N9  UNL     1      -2.126   4.295   1.881  1.00  0.00    -0.269 N 
ATOM     13  H9  UNL     1      -2.786   4.967   2.273  1.00  0.00     0.190 HD
ENDROOT
BRANCH   7  14
HETATM   14  C6  UNL     1       0.617   1.531   0.270  1.00  0.00     0.307 C 
HETATM   15  O3  UNL     1       0.211   0.531  -0.367  1.00  0.00    -0.262 OA
HETATM   16  N5  UNL     1       2.007   1.722   0.442  1.00  0.00    -0.264 N 
ATOM     17  H5  UNL     1       2.329   2.539   0.961  1.00  0.00     0.190 HD
BRANCH  16  18
HETATM   18  N6  UNL     1       2.960   0.833  -0.073  1.00  0.00    -0.308 N 
HETATM   19  C7  UNL     1       2.817  -0.419   0.176  1.00  0.00     0.126 C 
ATOM     20  H6  UNL     1       3.745   1.171  -0.630  1.00  0.00     0.186 HD
BRANCH  19  21
HETATM   21  C8  UNL     1       3.788  -1.350  -0.346  1.00  0.00     0.075 A 
HETATM   22  C9  UNL     1       3.616  -2.713  -0.065  1.00  0.00     0.201 A 
HETATM   23  O5  UNL     1       4.517  -3.527  -0.555  1.00  0.00    -0.249 OA
HETATM   24  C10 UNL     1       5.542  -3.157  -1.272  1.00  0.00     0.326 A 
HETATM   25  O6  UNL     1       6.392  -3.973  -1.729  1.00  0.00    -0.256 OA
HETATM   26  C11 UNL     1       5.748  -1.823  -1.573  1.00  0.00     0.176 A 
HETATM   27  C12 UNL     1       4.842  -0.904  -1.093  1.00  0.00     0.121 A 
BRANCH  22  28
HETATM   28  O4  UNL     1       2.543  -3.166   0.694  1.00  0.00    -0.340 OA
ATOM     29  H4  UNL     1       2.426  -4.089   0.884  1.00  0.00     0.220 HD
ENDBRANCH  22  28
BRANCH  26  30
HETATM   30  O7  UNL     1       6.839  -1.432  -2.336  1.00  0.00    -0.353 OA
ATOM     31  H7  UNL     1       6.981  -0.516  -2.543  1.00  0.00     0.218 HD
ENDBRANCH  26  30
BRANCH  27  32
HETATM   32  O8  UNL     1       5.033   0.437  -1.383  1.00  0.00    -0.357 OA
ATOM     33  H8  UNL     1       5.766   0.747  -1.902  1.00  0.00     0.218 HD
ENDBRANCH  27  32
ENDBRANCH  19  21
ENDBRANCH  16  18
ENDBRANCH   7  14
BRANCH   1  34
HETATM   34  S1  UNL     1      -4.948   0.492  -0.590  1.00  0.00     0.290 S 
HETATM   35  O1  UNL     1      -4.773   0.356  -2.092  1.00  0.00    -0.198 OA
HETATM   36  O2  UNL     1      -6.285   1.087  -0.263  1.00  0.00    -0.198 OA
BRANCH  34  37
HETATM   37  N2  UNL     1      -4.865  -1.096   0.077  1.00  0.00    -0.226 N 
ATOM     38  H2  UNL     1      -5.343  -1.422   0.917  1.00  0.00     0.195 HD
BRANCH  37  39
HETATM   39  N1  UNL     1      -4.023  -1.856  -0.744  1.00  0.00    -0.136 NA
HETATM   40  C1  UNL     1      -4.555  -3.168  -0.947  1.00  0.00     0.159 C 
ENDBRANCH  37  39
ENDBRANCH  34  37
ENDBRANCH   1  34
TORSDOF 9
