REMARK  12 active torsions:
REMARK  status: ('A' for Active; 'I' for Inactive)
REMARK    1  A    between atoms: C2_2  and  O2_4 
REMARK    2  A    between atoms: O2_4  and  C3_5 
REMARK    3  A    between atoms: C3_5  and  C4_6 
REMARK    4  A    between atoms: C4_6  and  C5_7 
REMARK    5  A    between atoms: C5_7  and  O3_8 
REMARK    6  A    between atoms: O3_8  and  C6_9 
REMARK    7  A    between atoms: C6_9  and  C7_11 
REMARK    8  A    between atoms: C11_17  and  N2_18 
REMARK    9  A    between atoms: N3_20  and  N4_22 
REMARK   10  A    between atoms: N5_25  and  O6_26 
REMARK   11  A    between atoms: C12_31  and  N7_32 
REMARK   12  A    between atoms: C13_39  and  N9_41 
ROOT
HETATM    1  N9  UNL     1      -1.174   1.924  -0.758  1.00  0.00    -0.292 N 
ATOM      2  H9  UNL     1      -0.560   2.444  -1.385  1.00  0.00     0.174 HD
HETATM    3  C15 UNL     1      -1.294   2.351   0.546  1.00  0.00     0.179 C 
HETATM    4  N10 UNL     1      -1.379   2.742   1.655  1.00  0.00    -0.172 NA
ENDROOT
BRANCH   1   5
HETATM    5  C13 UNL     1      -1.861   0.801  -1.266  1.00  0.00     0.244 C 
HETATM    6  C4  UNL     1      -1.651  -0.531  -0.740  1.00  0.00     0.224 C 
HETATM    7  N6  UNL     1      -2.816  -1.256  -1.380  1.00  0.00    -0.004 N 
HETATM    8  C12 UNL     1      -3.796  -0.260  -1.637  1.00  0.00     0.581 C 
ATOM      9  H62 UNL     1      -2.557  -1.797  -2.205  1.00  0.00     0.283 HD
ATOM     10  H61 UNL     1      -3.164  -2.038  -0.826  1.00  0.00     0.283 HD
HETATM   11  N8  UNL     1      -3.332   0.965  -1.033  1.00  0.00     0.008 N 
ATOM     12  H82 UNL     1      -3.750   1.827  -1.383  1.00  0.00     0.284 HD
ATOM     13  H81 UNL     1      -3.620   1.129  -0.068  1.00  0.00     0.284 HD
HETATM   14  C14 UNL     1      -1.788   0.732  -2.803  1.00  0.00     0.075 C 
BRANCH   6  15
HETATM   15  C3  UNL     1      -1.933  -0.718   0.738  1.00  0.00     0.224 C 
BRANCH  15  16
HETATM   16  O2  UNL     1      -3.141  -0.212   1.180  1.00  0.00    -0.319 OA
BRANCH  16  17
HETATM   17  C2  UNL     1      -3.568  -0.285   2.476  1.00  0.00     0.254 C 
HETATM   18  C1  UNL     1      -4.866   0.263   2.933  1.00  0.00     0.126 C 
HETATM   19  O1  UNL     1      -2.818  -0.850   3.325  1.00  0.00    -0.266 OA
ENDBRANCH  16  17
ENDBRANCH  15  16
ENDBRANCH   6  15
BRANCH   6  20
HETATM   20  C5  UNL     1      -0.500  -1.383  -1.138  1.00  0.00     0.225 C 
BRANCH  20  21
HETATM   21  O3  UNL     1       0.774  -1.157  -0.769  1.00  0.00    -0.314 OA
BRANCH  21  22
HETATM   22  C6  UNL     1       1.785  -0.323  -0.993  1.00  0.00     0.314 C 
HETATM   23  O4  UNL     1       1.658   0.606  -1.813  1.00  0.00    -0.257 OA
BRANCH  22  24
HETATM   24  C7  UNL     1       3.107  -0.406  -0.323  1.00  0.00     0.168 A 
HETATM   25  C8  UNL     1       3.297  -1.413   0.590  1.00  0.00     0.131 A 
HETATM   26  N1  UNL     1       2.272  -2.364   0.903  1.00  0.00    -0.095 NA
HETATM   27  C9  UNL     1       4.511  -1.515   1.227  1.00  0.00     0.202 A 
HETATM   28  O5  UNL     1       4.731  -2.439   2.085  1.00  0.00    -0.286 OA
HETATM   29  C10 UNL     1       5.492  -0.598   0.921  1.00  0.00     0.109 A 
HETATM   30  C11 UNL     1       5.293   0.401   0.010  1.00  0.00     0.153 A 
HETATM   31  N5  UNL     1       4.085   0.462  -0.590  1.00  0.00    -0.199 N 
BRANCH  30  32
HETATM   32  N2  UNL     1       6.321   1.346  -0.297  1.00  0.00    -0.269 N 
HETATM   33  N3  UNL     1       6.959   1.999   0.554  1.00  0.00    -0.248 N 
ATOM     34  H3  UNL     1       7.667   2.644   0.203  1.00  0.00     0.207 HD
ATOM     35  H2  UNL     1       6.549   1.497  -1.280  1.00  0.00     0.190 HD
BRANCH  33  36
HETATM   36  N4  UNL     1       6.799   1.934   1.929  1.00  0.00    -0.331 N 
ATOM     37  H42 UNL     1       6.086   1.284   2.261  1.00  0.00     0.178 HD
ATOM     38  H41 UNL     1       7.320   2.468   2.624  1.00  0.00     0.178 HD
ENDBRANCH  33  36
ENDBRANCH  30  32
BRANCH  31  39
HETATM   39  O6  UNL     1       3.861   1.470  -1.518  1.00  0.00    -0.281 OA
ATOM     40  H6  UNL     1       4.557   2.088  -1.708  1.00  0.00     0.245 HD
ENDBRANCH  31  39
ENDBRANCH  22  24
ENDBRANCH  21  22
ENDBRANCH  20  21
ENDBRANCH   6  20
BRANCH   8  41
HETATM   41  N7  UNL     1      -5.058  -0.629  -1.044  1.00  0.00    -0.025 N 
ATOM     42  H73 UNL     1      -5.366  -1.552  -1.350  1.00  0.00     0.278 HD
ATOM     43  H72 UNL     1      -4.966  -0.823  -0.047  1.00  0.00     0.278 HD
ATOM     44  H71 UNL     1      -5.762   0.086  -1.229  1.00  0.00     0.278 HD
ENDBRANCH   8  41
ENDBRANCH   1   5
TORSDOF 12
