REMARK  12 active torsions:
REMARK  status: ('A' for Active; 'I' for Inactive)
REMARK    1  A    between atoms: O1_2  and  C2_3 
REMARK    2  A    between atoms: C3_4  and  C4_5 
REMARK    3  A    between atoms: C6_9  and  O3_10 
REMARK    4  A    between atoms: C7_12  and  N2_13 
REMARK    5  A    between atoms: N2_13  and  N3_15 
REMARK    6  A    between atoms: N4_17  and  C8_19 
REMARK    7  A    between atoms: C9_20  and  C10_21 
REMARK    8  A    between atoms: C10_21  and  O4_22 
REMARK    9  A    between atoms: C10_21  and  O5_24 
REMARK   10  A    between atoms: N6_32  and  N7_33 
REMARK   11  A    between atoms: C14_36  and  N8_37 
REMARK   12  A    between atoms: C15_40  and  O8_41 
ROOT
HETATM    1  C8  UNL     1      -2.451   0.737  -0.564  1.00  0.00     0.111 C 
HETATM    2  C9  UNL     1      -3.292   1.436   0.274  1.00  0.00     0.096 C 
HETATM    3  C11 UNL     1      -4.677   1.296   0.332  1.00  0.00     0.264 C 
HETATM    4  O6  UNL     1      -5.284   2.129   1.029  1.00  0.00    -0.267 OA
HETATM    5  N5  UNL     1      -5.469   0.372  -0.268  1.00  0.00    -0.269 N 
HETATM    6  C12 UNL     1      -6.888   0.649  -0.282  1.00  0.00     0.164 C 
HETATM    7  C13 UNL     1      -5.086  -0.790  -0.861  1.00  0.00     0.351 C 
HETATM    8  O7  UNL     1      -6.009  -1.614  -1.043  1.00  0.00    -0.244 OA
HETATM    9  N6  UNL     1      -3.862  -1.179  -1.279  1.00  0.00    -0.193 N 
HETATM   10  C14 UNL     1      -2.750  -0.431  -1.274  1.00  0.00     0.154 C 
ENDROOT
BRANCH   1  11
HETATM   11  N4  UNL     1      -1.146   1.278  -0.706  1.00  0.00    -0.282 N 
HETATM   12  N3  UNL     1      -0.141   0.552  -0.568  1.00  0.00    -0.242 N 
ATOM     13  H3  UNL     1      -0.306  -0.431  -0.352  1.00  0.00     0.208 HD
ATOM     14  H4  UNL     1      -1.029   2.268  -0.923  1.00  0.00     0.188 HD
BRANCH  12  15
HETATM   15  N2  UNL     1       1.159   0.952  -0.680  1.00  0.00    -0.281 N 
ATOM     16  H2  UNL     1       1.309   1.905  -1.011  1.00  0.00     0.188 HD
BRANCH  15  17
HETATM   17  C7  UNL     1       2.318   0.207  -0.393  1.00  0.00     0.118 A 
HETATM   18  C6  UNL     1       2.194  -1.093   0.073  1.00  0.00     0.097 A 
HETATM   19  C5  UNL     1       3.357  -1.842   0.358  1.00  0.00     0.058 A 
HETATM   20  C3  UNL     1       4.592  -1.278   0.173  1.00  0.00     0.068 A 
HETATM   21  C2  UNL     1       4.722   0.005  -0.287  1.00  0.00     0.119 A 
HETATM   22  C15 UNL     1       3.585   0.769  -0.578  1.00  0.00     0.131 A 
BRANCH  18  23
HETATM   23  O3  UNL     1       1.035  -1.739   0.290  1.00  0.00    -0.358 OA
ATOM     24  H3  UNL     1       0.253  -1.235   0.098  1.00  0.00     0.217 HD
ENDBRANCH  18  23
BRANCH  20  25
HETATM   25  C4  UNL     1       5.757  -2.119   0.478  1.00  0.00     0.267 C 
HETATM   26  N1  UNL     1       5.594  -3.436   0.974  1.00  0.00    -0.057 NA
HETATM   27  O2  UNL     1       6.910  -1.683   0.303  1.00  0.00    -0.271 OA
ENDBRANCH  20  25
BRANCH  21  28
HETATM   28  O1  UNL     1       5.935   0.595  -0.480  1.00  0.00    -0.352 OA
HETATM   29  C1  UNL     1       6.604   1.354   0.531  1.00  0.00     0.210 C 
ENDBRANCH  21  28
BRANCH  22  30
HETATM   30  O8  UNL     1       3.709   2.046  -1.035  1.00  0.00    -0.356 OA
ATOM     31  H8  UNL     1       2.938   2.564  -1.232  1.00  0.00     0.218 HD
ENDBRANCH  22  30
ENDBRANCH  15  17
ENDBRANCH  12  15
ENDBRANCH   1  11
BRANCH   2  32
HETATM   32  C10 UNL     1      -2.696   2.427   1.203  1.00  0.00     0.296 C 
BRANCH  32  33
HETATM   33  O4  UNL     1      -1.751   3.211   0.545  1.00  0.00    -0.367 OA
ATOM     34  H4  UNL     1      -1.369   3.846   1.140  1.00  0.00     0.213 HD
ENDBRANCH  32  33
BRANCH  32  35
HETATM   35  O5  UNL     1      -2.046   1.800   2.273  1.00  0.00    -0.367 OA
ATOM     36  H5  UNL     1      -1.664   2.435   2.868  1.00  0.00     0.213 HD
ENDBRANCH  32  35
ENDBRANCH   2  32
BRANCH  10  37
HETATM   37  N8  UNL     1      -1.822  -0.843  -2.033  1.00  0.00    -0.382 N 
ATOM     38  H82 UNL     1      -0.976  -0.274  -2.029  1.00  0.00     0.157 HD
ATOM     39  H81 UNL     1      -2.040  -1.694  -2.551  1.00  0.00     0.157 HD
ENDBRANCH  10  37
BRANCH   9  40
HETATM   40  N7  UNL     1      -3.701  -2.470  -1.766  1.00  0.00    -0.333 N 
ATOM     41  H72 UNL     1      -4.547  -3.039  -1.770  1.00  0.00     0.177 HD
ATOM     42  H71 UNL     1      -2.777  -2.764  -2.082  1.00  0.00     0.177 HD
ENDBRANCH   9  40
TORSDOF 12
