REMARK  12 active torsions:
REMARK  status: ('A' for Active; 'I' for Inactive)
REMARK    1  A    between atoms: C3_7  and  O2_8 
REMARK    2  A    between atoms: O2_8  and  N2_9 
REMARK    3  A    between atoms: N2_9  and  C4_11 
REMARK    4  A    between atoms: C4_11  and  C5_16 
REMARK    5  A    between atoms: N3_12  and  O3_14 
REMARK    6  A    between atoms: C6_20  and  N6_21 
REMARK    7  A    between atoms: N8_27  and  C8_29 
REMARK    8  A    between atoms: C8_29  and  C9_30 
REMARK    9  A    between atoms: C9_30  and  C10_31 
REMARK   10  A    between atoms: C11_34  and  O6_35 
REMARK   11  A    between atoms: C13_41  and  N10_42 
REMARK   12  A    between atoms: N10_42  and  N11_43 
ROOT
HETATM    1  C5  UNL     1      -0.038   1.564   0.365  1.00  0.00     0.213 A 
HETATM    2  N4  UNL     1       0.097   0.290   0.772  1.00  0.00    -0.253 N 
ATOM      3  H4  UNL     1       0.959  -0.147   1.098  1.00  0.00     0.190 HD
HETATM    4  N5  UNL     1      -1.090  -0.301   0.676  1.00  0.00    -0.058 N 
HETATM    5  C6  UNL     1      -1.526  -1.549   0.944  1.00  0.00     0.701 A 
HETATM    6  N7  UNL     1      -2.810  -1.913   0.758  1.00  0.00    -0.172 N 
ATOM      7  H7  UNL     1      -3.089  -2.870   0.975  1.00  0.00     0.186 HD
HETATM    8  C7  UNL     1      -3.750  -1.040   0.287  1.00  0.00     0.155 A 
HETATM    9  N8  UNL     1      -4.957  -1.446   0.119  1.00  0.00    -0.373 N 
ATOM     10  H8  UNL     1      -5.144  -2.421   0.352  1.00  0.00     0.161 HD
HETATM   11  C11 UNL     1      -3.304   0.229   0.016  1.00  0.00     0.165 A 
HETATM   12  C12 UNL     1      -1.968   0.601   0.211  1.00  0.00     0.226 A 
HETATM   13  O7  UNL     1      -1.295   1.716   0.035  1.00  0.00    -0.267 OA
ENDROOT
BRANCH   1  14
HETATM   14  C4  UNL     1       0.993   2.570   0.302  1.00  0.00     0.199 C 
HETATM   15  N3  UNL     1       0.738   3.842   0.318  1.00  0.00    -0.248 N 
ATOM     16  H3  UNL     1       1.492   4.527   0.269  1.00  0.00     0.196 HD
BRANCH  14  17
HETATM   17  N2  UNL     1       2.383   2.204   0.212  1.00  0.00    -0.238 N 
ATOM     18  H2  UNL     1       3.110   2.901   0.047  1.00  0.00     0.197 HD
BRANCH  17  19
HETATM   19  O2  UNL     1       2.681   0.880   0.358  1.00  0.00    -0.220 OA
BRANCH  19  20
HETATM   20  C3  UNL     1       3.878   0.284   0.068  1.00  0.00     0.169 C 
HETATM   21  C2  UNL     1       4.028  -1.147   0.451  1.00  0.00     0.263 C 
HETATM   22  O1  UNL     1       5.144  -1.744  -0.161  1.00  0.00    -0.329 OA
HETATM   23  C1  UNL     1       6.059  -1.036  -0.925  1.00  0.00     0.153 C 
HETATM   24  N1  UNL     1       6.910  -1.624  -1.722  1.00  0.00    -0.381 N 
HETATM   25  C13 UNL     1       6.082   0.427  -0.842  1.00  0.00     0.272 C 
ATOM     26  H12 UNL     1       6.894  -2.642  -1.780  1.00  0.00     0.158 HD
ATOM     27  H11 UNL     1       7.583  -1.103  -2.284  1.00  0.00     0.158 HD
HETATM   28  N9  UNL     1       4.790   0.967  -0.502  1.00  0.00    -0.344 N 
ATOM     29  H9  UNL     1       4.596   1.943  -0.728  1.00  0.00     0.163 HD
BRANCH  25  30
HETATM   30  N10 UNL     1       7.059   0.839   0.180  1.00  0.00    -0.114 NA
BRANCH  30  31
HETATM   31  N11 UNL     1       8.293   0.303  -0.279  1.00  0.00    -0.346 N 
ATOM     32 2H11 UNL     1       8.450  -0.242  -1.127  1.00  0.00     0.172 HD
ATOM     33 1H11 UNL     1       8.970   0.588   0.429  1.00  0.00     0.172 HD
ENDBRANCH  30  31
ENDBRANCH  25  30
ENDBRANCH  19  20
ENDBRANCH  17  19
ENDBRANCH  14  17
BRANCH  15  34
HETATM   34  O3  UNL     1      -0.554   4.238   0.401  1.00  0.00    -0.288 OA
ATOM     35  H3  UNL     1      -0.741   5.169   0.413  1.00  0.00     0.244 HD
ENDBRANCH  15  34
ENDBRANCH   1  14
BRANCH   5  36
HETATM   36  N6  UNL     1      -0.637  -2.367   1.390  1.00  0.00    -0.233 N 
ATOM     37  H62 UNL     1       0.335  -2.091   1.531  1.00  0.00     0.174 HD
ATOM     38  H61 UNL     1      -0.967  -3.311   1.593  1.00  0.00     0.174 HD
ENDBRANCH   5  36
BRANCH  11  39
HETATM   39  O6  UNL     1      -4.182   1.176  -0.463  1.00  0.00    -0.354 OA
ATOM     40  H6  UNL     1      -3.873   2.055  -0.651  1.00  0.00     0.218 HD
ENDBRANCH  11  39
BRANCH   9  41
HETATM   41  C8  UNL     1      -6.064  -0.685  -0.357  1.00  0.00     0.132 C 
BRANCH  41  42
HETATM   42  C9  UNL     1      -7.354  -1.493  -0.330  1.00  0.00     0.132 C 
BRANCH  42  43
HETATM   43  C10 UNL     1      -8.451  -0.642  -0.838  1.00  0.00     0.174 C 
HETATM   44  O4  UNL     1      -8.375  -0.038  -1.928  1.00  0.00    -0.648 OA
HETATM   45  O5  UNL     1      -9.597  -0.519  -0.068  1.00  0.00    -0.648 OA
ENDBRANCH  42  43
ENDBRANCH  41  42
ENDBRANCH   9  41
TORSDOF 12
