REMARK  5 active torsions:
REMARK  status: ('A' for Active; 'I' for Inactive)
REMARK    1  A    between atoms: N1_1  and  C1_5 
REMARK    2  A    between atoms: C1_5  and  N2_6 
REMARK    3  A    between atoms: C1_5  and  C2_10 
REMARK    4  A    between atoms: C2_10  and  C3_11 
REMARK    5  A    between atoms: C3_11  and  C4_12 
ROOT
HETATM    1  C3  UNL     1      -0.670  -0.233  -0.517  1.00  0.00     0.082 C 
ENDROOT
BRANCH   1   2
HETATM    2  C2  UNL     1      -1.616  -0.058   0.631  1.00  0.00     0.069 C 
BRANCH   2   3
HETATM    3  C1  UNL     1      -3.009  -0.424   0.106  1.00  0.00     0.378 C 
BRANCH   3   4
HETATM    4  N1  UNL     1      -3.311   0.456  -0.962  1.00  0.00    -0.051 N 
ATOM      5  H13 UNL     1      -4.264   0.292  -1.286  1.00  0.00     0.276 HD
ATOM      6  H12 UNL     1      -3.398   1.409  -0.610  1.00  0.00     0.276 HD
ATOM      7  H11 UNL     1      -2.669   0.438  -1.755  1.00  0.00     0.276 HD
ENDBRANCH   3   4
BRANCH   3   8
HETATM    8  N2  UNL     1      -3.904  -0.399   1.212  1.00  0.00    -0.051 N 
ATOM      9  H23 UNL     1      -3.991   0.554   1.564  1.00  0.00     0.276 HD
ATOM     10  H22 UNL     1      -4.857  -0.563   0.888  1.00  0.00     0.276 HD
ATOM     11  H21 UNL     1      -3.687  -1.033   1.981  1.00  0.00     0.276 HD
ENDBRANCH   3   8
ENDBRANCH   2   3
ENDBRANCH   1   2
BRANCH   1  12
HETATM   12  C4  UNL     1       0.729   0.077  -0.197  1.00  0.00     0.108 C 
HETATM   13  N3  UNL     1       1.335   1.012  -0.847  1.00  0.00    -0.291 N 
HETATM   14  N4  UNL     1       2.654   1.495  -0.733  1.00  0.00    -0.319 N 
ATOM     15  H3  UNL     1       0.769   1.476  -1.557  1.00  0.00     0.188 HD
HETATM   16  C5  UNL     1       3.726   0.848   0.016  1.00  0.00     0.271 C 
ATOM     17  H4  UNL     1       2.877   2.367  -1.213  1.00  0.00     0.181 HD
HETATM   18  N5  UNL     1       3.500  -0.578   0.151  1.00  0.00    -0.105 NA
HETATM   19  N6  UNL     1       2.640  -0.866   1.238  1.00  0.00    -0.029 NA
HETATM   20  N7  UNL     1       1.301  -0.714   0.838  1.00  0.00    -0.275 N 
ATOM     21  H7  UNL     1       0.630  -1.260   1.378  1.00  0.00     0.185 HD
ENDBRANCH   1  12
TORSDOF 5
