REMARK  3 active torsions:
REMARK  status: ('A' for Active; 'I' for Inactive)
REMARK       I    between atoms: N1_1  and  C1_5 
REMARK       I    between atoms: C1_5  and  N2_6 
REMARK       I    between atoms: C1_5  and  N3_10 
REMARK    1  A    between atoms: N3_10  and  N4_12 
REMARK    2  A    between atoms: C2_14  and  C3_15 
REMARK    3  A    between atoms: N6_20  and  N7_21 
ROOT
HETATM    1  N4  UNL     1       0.053  -0.349   0.577  1.00  0.00    -0.311 N 
ATOM      2  H4  UNL     1       0.710   0.177   1.154  1.00  0.00     0.185 HD
HETATM    3  C2  UNL     1       0.373  -0.503  -0.642  1.00  0.00     0.139 C 
ENDROOT
BRANCH   1   4
HETATM    4  N3  UNL     1      -1.075  -0.809   1.206  1.00  0.00    -0.284 N 
HETATM    5  C1  UNL     1      -2.352  -0.193   0.900  1.00  0.00     0.494 C 
HETATM    6  N1  UNL     1      -2.585  -0.375  -0.521  1.00  0.00    -0.032 N 
HETATM    7  N2  UNL     1      -3.424  -0.834   1.632  1.00  0.00    -0.032 N 
ATOM      8  H13 UNL     1      -2.699  -1.356  -0.775  1.00  0.00     0.279 HD
ATOM      9  H12 UNL     1      -3.506  -0.047  -0.811  1.00  0.00     0.279 HD
ATOM     10  H11 UNL     1      -1.830   0.077  -1.037  1.00  0.00     0.279 HD
ATOM     11  H23 UNL     1      -4.345  -0.506   1.342  1.00  0.00     0.279 HD
ATOM     12  H22 UNL     1      -3.538  -1.815   1.378  1.00  0.00     0.279 HD
ATOM     13  H21 UNL     1      -3.260  -0.706   2.631  1.00  0.00     0.279 HD
ATOM     14  H3  UNL     1      -1.017  -1.573   1.879  1.00  0.00     0.184 HD
ENDBRANCH   1   4
BRANCH   3  15
HETATM   15  C3  UNL     1       1.634   0.080  -1.091  1.00  0.00     0.089 A 
HETATM   16  C4  UNL     1       2.166   0.028  -2.374  1.00  0.00     0.122 A 
HETATM   17  N5  UNL     1       3.335   0.687  -2.359  1.00  0.00    -0.358 N 
HETATM   18  C5  UNL     1       3.580   1.162  -1.124  1.00  0.00     0.206 A 
ATOM     19  H5  UNL     1       3.948   0.810  -3.165  1.00  0.00     0.166 HD
HETATM   20  N6  UNL     1       2.535   0.784  -0.366  1.00  0.00    -0.256 N 
BRANCH  20  21
HETATM   21  N7  UNL     1       2.344   1.050   0.997  1.00  0.00    -0.337 N 
ATOM     22  H72 UNL     1       1.552   0.763   1.572  1.00  0.00     0.177 HD
ATOM     23  H71 UNL     1       3.023   1.580   1.543  1.00  0.00     0.177 HD
ENDBRANCH  20  21
ENDBRANCH   3  15
TORSDOF 3
