REMARK  5 active torsions:
REMARK  status: ('A' for Active; 'I' for Inactive)
REMARK    1  A    between atoms: N1_1  and  C1_4 
REMARK    2  A    between atoms: C3_12  and  N5_13 
REMARK    3  A    between atoms: N5_13  and  N6_15 
REMARK    4  A    between atoms: N6_15  and  C4_17 
REMARK    5  A    between atoms: N7_18  and  N8_20 
ROOT
HETATM    1  C1  UNL     1      -2.168  -0.166   0.227  1.00  0.00     0.147 A 
HETATM    2  N2  UNL     1      -3.093   0.818   0.244  1.00  0.00    -0.335 N 
ATOM      3  H2  UNL     1      -4.061   0.588   0.470  1.00  0.00     0.168 HD
HETATM    4  C2  UNL     1      -2.768   2.094  -0.030  1.00  0.00     0.199 A 
HETATM    5  N3  UNL     1      -1.477   2.331  -0.320  1.00  0.00    -0.294 N 
ATOM      6  H3  UNL     1      -1.195   3.288  -0.533  1.00  0.00     0.187 HD
HETATM    7  N4  UNL     1      -0.553   1.382  -0.342  1.00  0.00    -0.281 N 
ATOM      8  H4  UNL     1       0.409   1.633  -0.570  1.00  0.00     0.188 HD
HETATM    9  C3  UNL     1      -0.846   0.094  -0.072  1.00  0.00     0.179 A 
ENDROOT
BRANCH   9  10
HETATM   10  N5  UNL     1       0.144  -0.928  -0.095  1.00  0.00    -0.280 N 
ATOM     11  H5  UNL     1      -0.135  -1.886   0.118  1.00  0.00     0.188 HD
BRANCH  10  12
HETATM   12  N6  UNL     1       1.473  -0.671  -0.396  1.00  0.00    -0.293 N 
ATOM     13  H6  UNL     1       1.707   0.166  -0.930  1.00  0.00     0.187 HD
BRANCH  12  14
HETATM   14  C4  UNL     1       2.507  -1.530   0.014  1.00  0.00     0.213 C 
HETATM   15  N7  UNL     1       3.710  -1.147   0.196  1.00  0.00    -0.301 N 
ATOM     16  H7  UNL     1       4.389  -1.847   0.495  1.00  0.00     0.187 HD
BRANCH  15  17
HETATM   17  N8  UNL     1       4.163   0.150   0.018  1.00  0.00    -0.344 N 
ATOM     18  H82 UNL     1       3.471   0.837  -0.281  1.00  0.00     0.176 HD
ATOM     19  H81 UNL     1       5.125   0.456   0.164  1.00  0.00     0.176 HD
ENDBRANCH  15  17
ENDBRANCH  12  14
ENDBRANCH  10  12
ENDBRANCH   9  10
BRANCH   1  20
HETATM   20  N1  UNL     1      -2.506  -1.394   0.496  1.00  0.00    -0.382 N 
ATOM     21  H12 UNL     1      -3.483  -1.586   0.717  1.00  0.00     0.157 HD
ATOM     22  H11 UNL     1      -1.807  -2.137   0.483  1.00  0.00     0.157 HD
ENDBRANCH   1  20
TORSDOF 5
