REMARK  11 active torsions:
REMARK  status: ('A' for Active; 'I' for Inactive)
REMARK    1  A    between atoms: N1_1  and  C1_5 
REMARK    2  A    between atoms: C1_5  and  C2_6 
REMARK    3  A    between atoms: C2_6  and  N2_7 
REMARK    4  A    between atoms: N2_7  and  C3_9 
REMARK    5  A    between atoms: C3_9  and  C4_10 
REMARK    6  A    between atoms: C4_10  and  C5_11 
REMARK    7  A    between atoms: C5_11  and  N3_12 
REMARK    8  A    between atoms: C9_21  and  N6_22 
REMARK    9  A    between atoms: N6_22  and  C10_24 
REMARK   10  A    between atoms: C11_28  and  C12_29 
REMARK   11  A    between atoms: C12_29  and  O2_30 
ROOT
HETATM    1  N3  UNL     1       1.070   0.353   1.294  1.00  0.00    -0.327 N 
HETATM    2  C6  UNL     1       1.311   1.303   2.200  1.00  0.00     0.185 A 
HETATM    3  N4  UNL     1       0.200   2.008   2.463  1.00  0.00    -0.345 N 
ATOM      4  H4  UNL     1       0.131   2.786   3.119  1.00  0.00     0.167 HD
HETATM    5  C7  UNL     1      -0.814   1.516   1.714  1.00  0.00     0.147 A 
HETATM    6  C8  UNL     1      -2.145   1.836   1.576  1.00  0.00     0.290 A 
HETATM    7  O1  UNL     1      -2.649   2.763   2.226  1.00  0.00    -0.265 OA
HETATM    8  N5  UNL     1      -2.877   1.103   0.708  1.00  0.00    -0.154 N 
ATOM      9  H5  UNL     1      -3.866   1.323   0.590  1.00  0.00     0.187 HD
HETATM   10  C9  UNL     1      -2.349   0.095  -0.005  1.00  0.00     0.686 A 
HETATM   11  N8  UNL     1      -1.014  -0.216   0.141  1.00  0.00    -0.174 N 
ATOM     12  H8  UNL     1      -0.609  -0.981  -0.399  1.00  0.00     0.186 HD
HETATM   13  C13 UNL     1      -0.254   0.475   0.981  1.00  0.00     0.156 A 
ENDROOT
BRANCH   1  14
HETATM   14  C5  UNL     1       1.980  -0.627   0.728  1.00  0.00     0.133 C 
BRANCH  14  15
HETATM   15  C4  UNL     1       2.609  -0.038  -0.496  1.00  0.00     0.040 C 
BRANCH  15  16
HETATM   16  C3  UNL     1       3.568  -1.085  -1.090  1.00  0.00     0.120 C 
BRANCH  16  17
HETATM   17  N2  UNL     1       4.558  -1.408  -0.142  1.00  0.00    -0.401 N 
ATOM     18  H2  UNL     1       4.579  -2.342   0.268  1.00  0.00     0.158 HD
BRANCH  17  19
HETATM   19  C2  UNL     1       5.514  -0.460   0.244  1.00  0.00     0.082 C 
BRANCH  19  20
HETATM   20  C1  UNL     1       6.547  -0.038  -0.739  1.00  0.00     0.273 C 
BRANCH  20  21
HETATM   21  N1  UNL     1       5.945   0.577  -1.894  1.00  0.00    -0.075 N 
ATOM     22  H13 UNL     1       5.246  -0.031  -2.321  1.00  0.00     0.274 HD
ATOM     23  H12 UNL     1       5.337   1.353  -1.632  1.00  0.00     0.274 HD
ATOM     24  H11 UNL     1       6.654   0.866  -2.568  1.00  0.00     0.274 HD
ENDBRANCH  20  21
ENDBRANCH  19  20
ENDBRANCH  17  19
ENDBRANCH  16  17
ENDBRANCH  15  16
ENDBRANCH  14  15
ENDBRANCH   1  14
BRANCH  10  25
HETATM   25  N6  UNL     1      -2.965  -0.624  -0.820  1.00  0.00    -0.174 N 
ATOM     26  H6  UNL     1      -2.384  -1.336  -1.262  1.00  0.00     0.182 HD
BRANCH  25  27
HETATM   27  C10 UNL     1      -4.299  -0.641  -1.244  1.00  0.00     0.448 C 
HETATM   28  N7  UNL     1      -5.244  -1.141  -0.242  1.00  0.00    -0.002 N 
HETATM   29  C11 UNL     1      -6.182  -0.232  -0.878  1.00  0.00     0.353 C 
ATOM     30  H72 UNL     1      -5.440  -2.135  -0.123  1.00  0.00     0.285 HD
ATOM     31  H71 UNL     1      -5.047  -1.113   0.758  1.00  0.00     0.285 HD
HETATM   32  O3  UNL     1      -5.056   0.498  -1.308  1.00  0.00    -0.308 OA
BRANCH  29  33
HETATM   33  C12 UNL     1      -6.996   0.594   0.069  1.00  0.00     0.225 C 
BRANCH  33  34
HETATM   34  O2  UNL     1      -7.770  -0.195   0.924  1.00  0.00    -0.397 OA
ATOM     35  H2  UNL     1      -8.286   0.329   1.525  1.00  0.00     0.209 HD
ENDBRANCH  33  34
ENDBRANCH  29  33
ENDBRANCH  25  27
ENDBRANCH  10  25
TORSDOF 11
