REMARK  7 active torsions:
REMARK  status: ('A' for Active; 'I' for Inactive)
REMARK    1  A    between atoms: C5_5  and  C6_6 
REMARK       I    between atoms: C6_6  and  N1_8 
REMARK    2  A    between atoms: N1_8  and  C7_10 
REMARK    3  A    between atoms: C14_20  and  N4_21 
REMARK    4  A    between atoms: N4_21  and  C15_23 
REMARK    5  A    between atoms: C19_31  and  N7_32 
REMARK    6  A    between atoms: N7_32  and  S1_34 
REMARK    7  A    between atoms: C23_39  and  C24_40 
ROOT
HETATM    1  C7  UNL     1       6.770   0.376  -0.489  1.00  0.00     0.107 A 
HETATM    2  C8  UNL     1       8.024   0.906  -0.205  1.00  0.00     0.050 A 
HETATM    3  C9  UNL     1       8.999   0.072   0.291  1.00  0.00     0.028 A 
HETATM    4  C10 UNL     1       8.784  -1.269   0.519  1.00  0.00     0.060 A 
HETATM    5  C11 UNL     1       9.801  -2.134   1.037  1.00  0.00     0.101 C 
HETATM    6  N2  UNL     1      10.617  -2.831   1.474  1.00  0.00    -0.191 NA
HETATM    7  C12 UNL     1       7.521  -1.753   0.223  1.00  0.00     0.112 A 
HETATM    8  N3  UNL     1       6.567  -0.939  -0.263  1.00  0.00    -0.351 N 
ATOM      9  H3  UNL     1       5.649  -1.333  -0.470  1.00  0.00     0.166 HD
ENDROOT
BRANCH   1  10
HETATM   10  N1  UNL     1       5.898   1.182  -0.942  1.00  0.00    -0.309 N 
HETATM   11  C6  UNL     1       4.567   0.865  -1.298  1.00  0.00     0.257 C 
HETATM   12  O1  UNL     1       4.292   0.714  -2.510  1.00  0.00    -0.267 OA
ATOM     13  H1  UNL     1       6.187   2.153  -1.060  1.00  0.00     0.170 HD
BRANCH  11  14
HETATM   14  C5  UNL     1       3.564   0.724  -0.266  1.00  0.00     0.034 A 
HETATM   15  C4  UNL     1       3.902   0.884   1.061  1.00  0.00     0.018 A 
HETATM   16  C3  UNL     1       2.921   0.753   2.045  1.00  0.00     0.010 A 
HETATM   17  C2  UNL     1       1.603   0.465   1.735  1.00  0.00    -0.035 A 
HETATM   18  C1  UNL     1       0.560   0.328   2.781  1.00  0.00     0.050 C 
HETATM   19  C14 UNL     1       1.289   0.309   0.402  1.00  0.00     0.040 A 
HETATM   20  C13 UNL     1       2.249   0.436  -0.584  1.00  0.00     0.047 A 
BRANCH  19  21
HETATM   21  N4  UNL     1      -0.080   0.015   0.052  1.00  0.00    -0.341 N 
ATOM     22  H4  UNL     1      -0.385  -0.957  -0.001  1.00  0.00     0.167 HD
BRANCH  21  23
HETATM   23  C15 UNL     1      -0.912   0.943  -0.191  1.00  0.00     0.119 A 
HETATM   24  N5  UNL     1      -0.481   2.244  -0.115  1.00  0.00    -0.338 N 
HETATM   25  C16 UNL     1      -1.342   3.214  -0.350  1.00  0.00     0.182 A 
ATOM     26  H5  UNL     1       0.489   2.456   0.119  1.00  0.00     0.168 HD
HETATM   27  N6  UNL     1      -2.623   2.983  -0.662  1.00  0.00    -0.351 N 
HETATM   28  C17 UNL     1      -3.107   1.736  -0.753  1.00  0.00     0.049 A 
ATOM     29  H6  UNL     1      -3.245   3.773  -0.834  1.00  0.00     0.166 HD
HETATM   30  C18 UNL     1      -4.425   1.507  -1.064  1.00  0.00     0.060 A 
HETATM   31  C27 UNL     1      -2.219   0.665  -0.509  1.00  0.00     0.042 A 
HETATM   32  C19 UNL     1      -4.900   0.232  -1.142  1.00  0.00     0.042 A 
HETATM   33  C22 UNL     1      -4.036  -0.785  -0.906  1.00  0.00     0.038 A 
HETATM   34  C23 UNL     1      -2.667  -0.625  -0.582  1.00  0.00    -0.036 A 
BRANCH  32  35
HETATM   35  N7  UNL     1      -6.275   0.071  -1.470  1.00  0.00    -0.317 N 
ATOM     36  H7  UNL     1      -6.639   0.187  -2.416  1.00  0.00     0.175 HD
BRANCH  35  37
HETATM   37  S1  UNL     1      -7.192  -0.307  -0.228  1.00  0.00     0.017 S 
HETATM   38  C20 UNL     1      -6.925   0.847   1.107  1.00  0.00     0.136 C 
HETATM   39  C21 UNL     1      -8.868  -0.375  -0.736  1.00  0.00     0.136 C 
HETATM   40  O2  UNL     1      -6.636  -1.627   0.229  1.00  0.00    -0.250 OA
ENDBRANCH  35  37
ENDBRANCH  32  35
BRANCH  34  41
HETATM   41  C24 UNL     1      -1.849  -1.805  -0.395  1.00  0.00     0.011 C 
HETATM   42  C25 UNL     1      -2.741  -3.061  -0.178  1.00  0.00     0.015 C 
HETATM   43  C26 UNL     1      -1.318  -2.093  -1.804  1.00  0.00     0.015 C 
ENDBRANCH  34  41
ENDBRANCH  21  23
ENDBRANCH  19  21
ENDBRANCH  11  14
ENDBRANCH   1  10
TORSDOF 7
