REMARK  5 active torsions:
REMARK  status: ('A' for Active; 'I' for Inactive)
REMARK    1  A    between atoms: C3_4  and  N2_5 
REMARK    2  A    between atoms: N2_5  and  C4_7 
REMARK    3  A    between atoms: C7_10  and  S1_11 
REMARK    4  A    between atoms: S1_11  and  N3_14 
REMARK    5  A    between atoms: N3_14  and  C8_16 
ROOT
HETATM    1  N1  UNL     1      -4.338   2.905  -4.707  1.00  0.00    -0.191 NA
HETATM    2  C1  UNL     1      -4.372   2.234  -3.764  1.00  0.00     0.104 C 
HETATM    3  C2  UNL     1      -4.408   1.431  -2.594  1.00  0.00     0.099 A 
HETATM    4  C3  UNL     1      -3.238   1.164  -1.913  1.00  0.00     0.128 A 
HETATM    5  N6  UNL     1      -3.283   0.411  -0.816  1.00  0.00    -0.338 N 
ATOM      6  H6  UNL     1      -2.421   0.210  -0.309  1.00  0.00     0.167 HD
HETATM    7  C18 UNL     1      -4.463  -0.095  -0.361  1.00  0.00     0.079 A 
HETATM    8  C19 UNL     1      -4.427  -0.907   0.835  1.00  0.00     0.102 A 
HETATM    9  C20 UNL     1      -3.247  -1.199   1.541  1.00  0.00     0.041 A 
HETATM   10  C21 UNL     1      -3.632  -1.988   2.603  1.00  0.00     0.027 A 
HETATM   11  C22 UNL     1      -4.990  -2.140   2.505  1.00  0.00     0.142 A 
HETATM   12  O3  UNL     1      -5.384  -1.485   1.454  1.00  0.00    -0.320 OA
HETATM   13  C23 UNL     1      -5.639   0.161  -1.027  1.00  0.00     0.005 A 
HETATM   14  C24 UNL     1      -6.849  -0.325  -0.608  1.00  0.00     0.014 A 
HETATM   15  C25 UNL     1      -8.017  -0.047  -1.301  1.00  0.00     0.001 A 
HETATM   16  C26 UNL     1      -7.983   0.726  -2.431  1.00  0.00     0.001 A 
HETATM   17  C27 UNL     1      -6.791   1.221  -2.868  1.00  0.00     0.014 A 
HETATM   18  C28 UNL     1      -5.626   0.939  -2.169  1.00  0.00     0.001 A 
ENDROOT
BRANCH   4  19
HETATM   19  N2  UNL     1      -2.147   1.628  -2.343  1.00  0.00    -0.341 N 
ATOM     20  H2  UNL     1      -2.219   2.185  -3.194  1.00  0.00     0.167 HD
BRANCH  19  21
HETATM   21  C4  UNL     1      -0.855   1.494  -1.830  1.00  0.00     0.033 A 
HETATM   22  C5  UNL     1      -0.460   2.023  -0.622  1.00  0.00     0.031 A 
HETATM   23  C6  UNL     1       0.842   1.858  -0.163  1.00  0.00     0.027 A 
HETATM   24  C7  UNL     1       1.779   1.164  -0.897  1.00  0.00     0.080 A 
HETATM   25  C16 UNL     1       1.347   0.649  -2.099  1.00  0.00     0.027 A 
HETATM   26  C17 UNL     1       0.068   0.801  -2.568  1.00  0.00     0.031 A 
BRANCH  24  27
HETATM   27  S1  UNL     1       3.420   0.942  -0.335  1.00  0.00     0.264 S 
HETATM   28  O1  UNL     1       4.286   0.928  -1.577  1.00  0.00    -0.200 OA
HETATM   29  O2  UNL     1       3.786   2.177   0.447  1.00  0.00    -0.200 OA
BRANCH  27  30
HETATM   30  N3  UNL     1       3.542  -0.495   0.576  1.00  0.00    -0.266 N 
ATOM     31  H3  UNL     1       2.716  -1.073   0.728  1.00  0.00     0.180 HD
BRANCH  30  32
HETATM   32  C8  UNL     1       4.672  -0.849   1.070  1.00  0.00     0.115 A 
HETATM   33  C9  UNL     1       4.714  -2.018   1.797  1.00  0.00     0.051 A 
HETATM   34  C10 UNL     1       5.873  -2.494   2.373  1.00  0.00     0.035 A 
HETATM   35  C11 UNL     1       7.025  -1.736   2.190  1.00  0.00     0.059 A 
HETATM   36  N4  UNL     1       8.178  -2.175   2.742  1.00  0.00    -0.364 N 
HETATM   37  C15 UNL     1       6.971  -0.572   1.464  1.00  0.00     0.060 A 
HETATM   38  C12 UNL     1       9.292  -1.458   2.575  1.00  0.00     0.088 A 
ATOM     39  H4  UNL     1       8.197  -3.042   3.279  1.00  0.00     0.165 HD
HETATM   40  C13 UNL     1       9.282  -0.278   1.850  1.00  0.00     0.019 A 
HETATM   41  C14 UNL     1       8.117   0.206   1.268  1.00  0.00     0.033 A 
HETATM   42  N5  UNL     1       5.798  -0.143   0.913  1.00  0.00    -0.340 N 
ATOM     43  H5  UNL     1       5.780   0.724   0.376  1.00  0.00     0.167 HD
ENDBRANCH  30  32
ENDBRANCH  27  30
ENDBRANCH  24  27
ENDBRANCH  19  21
ENDBRANCH   4  19
TORSDOF 5
