REMARK  8 active torsions:
REMARK  status: ('A' for Active; 'I' for Inactive)
REMARK    1  A    between atoms: C3_3  and  C4_4 
REMARK    2  A    between atoms: C4_4  and  O1_5 
REMARK    3  A    between atoms: O1_5  and  C5_6 
REMARK    4  A    between atoms: C8_9  and  N1_10 
REMARK    5  A    between atoms: N1_10  and  C9_12 
REMARK    6  A    between atoms: C13_22  and  N5_23 
REMARK    7  A    between atoms: N5_23  and  C14_25 
REMARK    8  A    between atoms: N6_34  and  C23_35 
ROOT
HETATM    1  C1  UNL     1      11.359   1.643  -0.877  1.00  0.00     0.112 C 
HETATM    2  C2  UNL     1      11.064   0.422  -0.118  1.00  0.00    -0.109 C 
HETATM    3  C3  UNL     1      10.805  -0.587   0.517  1.00  0.00    -0.080 C 
ENDROOT
BRANCH   3   4
HETATM    4  C4  UNL     1      10.520  -1.793   1.258  1.00  0.00     0.269 C 
BRANCH   4   5
HETATM    5  O1  UNL     1       9.415  -2.479   0.744  1.00  0.00    -0.340 OA
BRANCH   5   6
HETATM    6  C5  UNL     1       8.134  -1.986   0.667  1.00  0.00     0.070 A 
HETATM    7  C6  UNL     1       7.716  -0.746   1.086  1.00  0.00     0.039 A 
HETATM    8  C7  UNL     1       6.384  -0.330   0.964  1.00  0.00     0.032 A 
HETATM    9  C8  UNL     1       5.437  -1.164   0.413  1.00  0.00     0.033 A 
HETATM   10  C29 UNL     1       5.849  -2.410  -0.009  1.00  0.00     0.032 A 
HETATM   11  C30 UNL     1       7.159  -2.819   0.110  1.00  0.00     0.039 A 
BRANCH   9  12
HETATM   12  N1  UNL     1       4.072  -0.783   0.271  1.00  0.00    -0.341 N 
ATOM     13  H1  UNL     1       3.378  -1.004   0.986  1.00  0.00     0.167 HD
BRANCH  12  14
HETATM   14  C9  UNL     1       3.753  -0.142  -0.810  1.00  0.00     0.136 A 
HETATM   15  N2  UNL     1       4.637   0.166  -1.768  1.00  0.00    -0.337 N 
HETATM   16  C10 UNL     1       4.239   0.832  -2.865  1.00  0.00     0.182 A 
ATOM     17  H2  UNL     1       5.615  -0.106  -1.665  1.00  0.00     0.168 HD
HETATM   18  N3  UNL     1       2.952   1.210  -3.041  1.00  0.00    -0.349 N 
HETATM   19  C11 UNL     1       2.031   0.909  -2.080  1.00  0.00     0.080 A 
ATOM     20  H3  UNL     1       2.673   1.714  -3.883  1.00  0.00     0.166 HD
HETATM   21  C12 UNL     1       0.708   1.282  -2.233  1.00  0.00     0.138 A 
HETATM   22  C28 UNL     1       2.435   0.224  -0.950  1.00  0.00     0.121 A 
HETATM   23  N4  UNL     1      -0.169   0.958  -1.249  1.00  0.00    -0.199 N 
HETATM   24  C13 UNL     1       0.222   0.291  -0.148  1.00  0.00     0.683 A 
ATOM     25  H4  UNL     1      -1.148   1.227  -1.347  1.00  0.00     0.183 HD
HETATM   26  N7  UNL     1       1.508  -0.075   0.007  1.00  0.00    -0.185 N 
ATOM     27  H7  UNL     1       1.792  -0.580   0.846  1.00  0.00     0.184 HD
BRANCH  24  28
HETATM   28  N5  UNL     1      -0.603  -0.027   0.800  1.00  0.00    -0.192 N 
ATOM     29  H5  UNL     1      -0.278  -0.532   1.624  1.00  0.00     0.184 HD
BRANCH  28  30
HETATM   30  C14 UNL     1      -1.970   0.342   0.669  1.00  0.00     0.049 A 
HETATM   31  C15 UNL     1      -2.362   1.628   0.971  1.00  0.00     0.031 A 
HETATM   32  C16 UNL     1      -3.664   2.060   0.869  1.00  0.00     0.020 A 
HETATM   33  C17 UNL     1      -4.607   1.123   0.435  1.00  0.00     0.039 A 
HETATM   34  C18 UNL     1      -4.274  -0.159   0.124  1.00  0.00    -0.035 A 
HETATM   35  C27 UNL     1      -5.998   1.536   0.315  1.00  0.00     0.255 C 
HETATM   36  C19 UNL     1      -2.952  -0.534   0.246  1.00  0.00     0.038 A 
HETATM   37  C20 UNL     1      -5.236  -1.184  -0.340  1.00  0.00     0.034 C 
HETATM   38  C21 UNL     1      -5.388  -2.277   0.692  1.00  0.00     0.017 C 
HETATM   39  C22 UNL     1      -6.539  -0.600  -0.794  1.00  0.00     0.136 C 
HETATM   40  N6  UNL     1      -6.947   0.590  -0.120  1.00  0.00    -0.339 N 
HETATM   41  O2  UNL     1      -6.372   2.715   0.589  1.00  0.00    -0.267 OA
BRANCH  40  42
HETATM   42  C23 UNL     1      -8.361   0.809   0.110  1.00  0.00     0.024 C 
HETATM   43  C24 UNL     1      -8.859   2.072  -0.543  1.00  0.00     0.037 C 
HETATM   44  C25 UNL     1      -8.566   0.938   1.604  1.00  0.00     0.037 C 
HETATM   45  C26 UNL     1      -9.201  -0.332  -0.401  1.00  0.00     0.037 C 
ENDBRANCH  40  42
ENDBRANCH  28  30
ENDBRANCH  24  28
ENDBRANCH  12  14
ENDBRANCH   9  12
ENDBRANCH   5   6
ENDBRANCH   4   5
ENDBRANCH   3   4
TORSDOF 8
