REMARK  7 active torsions:
REMARK  status: ('A' for Active; 'I' for Inactive)
REMARK    1  A    between atoms: O1_2  and  S1_3 
REMARK    2  A    between atoms: S1_3  and  N1_4 
REMARK    3  A    between atoms: S1_3  and  C2_8 
REMARK    4  A    between atoms: C3_11  and  C4_12 
REMARK    5  A    between atoms: C5_15  and  N4_16 
REMARK    6  A    between atoms: C7_23  and  O4_24 
REMARK    7  A    between atoms: C8_26  and  N6_27 
ROOT
HETATM    1  C2  UNL     1       1.631  -0.186  -0.169  1.00  0.00     0.213 A 
HETATM    2  N2  UNL     1       0.502   0.080   0.467  1.00  0.00    -0.327 N 
ATOM      3  H2  UNL     1       0.451   0.552   1.370  1.00  0.00     0.168 HD
HETATM    4  C3  UNL     1      -0.600  -0.360  -0.243  1.00  0.00     0.116 A 
HETATM    5  C8  UNL     1      -0.067  -0.922  -1.339  1.00  0.00     0.207 A 
HETATM    6  N7  UNL     1       1.325  -0.809  -1.306  1.00  0.00    -0.307 N 
HETATM    7  C9  UNL     1       2.225  -1.267  -2.332  1.00  0.00     0.160 C 
ENDROOT
BRANCH   4   8
HETATM    8  C4  UNL     1      -1.945  -0.244   0.281  1.00  0.00     0.118 A 
HETATM    9  N3  UNL     1      -2.091   0.164   1.585  1.00  0.00    -0.187 N 
HETATM   10  C5  UNL     1      -3.251   0.479   2.142  1.00  0.00     0.679 A 
ATOM     11  H3  UNL     1      -1.252   0.229   2.161  1.00  0.00     0.184 HD
HETATM   12  N5  UNL     1      -4.399   0.419   1.446  1.00  0.00    -0.154 N 
HETATM   13  C6  UNL     1      -4.370   0.041   0.181  1.00  0.00     0.295 A 
ATOM     14  H5  UNL     1      -5.284   0.663   1.890  1.00  0.00     0.187 HD
HETATM   15  O3  UNL     1      -5.406  -0.032  -0.511  1.00  0.00    -0.265 OA
HETATM   16  C7  UNL     1      -3.122  -0.289  -0.401  1.00  0.00     0.165 A 
BRANCH  10  17
HETATM   17  N4  UNL     1      -3.324   0.850   3.382  1.00  0.00    -0.234 N 
ATOM     18  H42 UNL     1      -2.453   0.896   3.910  1.00  0.00     0.174 HD
ATOM     19  H41 UNL     1      -4.217   1.093   3.811  1.00  0.00     0.174 HD
ENDBRANCH  10  17
BRANCH  16  20
HETATM   20  O4  UNL     1      -3.186  -0.635  -1.702  1.00  0.00    -0.354 OA
ATOM     21  H4  UNL     1      -4.008  -0.666  -2.178  1.00  0.00     0.218 HD
ENDBRANCH  16  20
ENDBRANCH   4   8
BRANCH   5  22
HETATM   22  N6  UNL     1      -0.619  -1.858  -2.250  1.00  0.00    -0.095 N 
HETATM   23  O5  UNL     1      -1.572  -2.619  -2.043  1.00  0.00    -0.530 OA
HETATM   24  O6  UNL     1       0.033  -2.148  -3.446  1.00  0.00    -0.530 OA
ENDBRANCH   5  22
BRANCH   1  25
HETATM   25  S1  UNL     1       3.267   0.220   0.387  1.00  0.00     0.204 S 
HETATM   26  O2  UNL     1       4.209  -0.860   0.058  1.00  0.00    -0.213 OA
BRANCH  25  27
HETATM   27  O1  UNL     1       3.770   1.676  -0.222  1.00  0.00    -0.291 OA
HETATM   28  C1  UNL     1       4.218   2.540   0.754  1.00  0.00     0.224 C 
ENDBRANCH  25  27
BRANCH  25  29
HETATM   29  N1  UNL     1       3.163   0.260   1.954  1.00  0.00    -0.333 N 
ATOM     30  H12 UNL     1       3.381   1.086   2.512  1.00  0.00     0.168 HD
ATOM     31  H11 UNL     1       2.853  -0.637   2.329  1.00  0.00     0.168 HD
ENDBRANCH  25  29
ENDBRANCH   1  25
TORSDOF 7
