REMARK  2 active torsions:
REMARK  status: ('A' for Active; 'I' for Inactive)
REMARK    1  A    between atoms: C2_2  and  N1_3 
REMARK    2  A    between atoms: N2_5  and  C3_7 
ROOT
HETATM    1  C3  UNL     1       0.969  -0.094  -0.159  1.00  0.00     0.316 C 
HETATM    2  N3  UNL     1       1.627  -1.316   0.219  1.00  0.00    -0.091 NA
HETATM    3  N4  UNL     1       2.996  -0.972   0.216  1.00  0.00    -0.277 N 
ATOM      4  H4  UNL     1       3.771  -1.616   0.061  1.00  0.00     0.185 HD
HETATM    5  C4  UNL     1       3.114   0.435   0.468  1.00  0.00     0.186 C 
HETATM    6  S1  UNL     1       4.495   1.280   0.693  1.00  0.00    -0.040 SA
HETATM    7  N5  UNL     1       1.773   0.912   0.476  1.00  0.00    -0.329 N 
ATOM      8  H5  UNL     1       1.446   1.799   0.859  1.00  0.00     0.165 HD
ENDROOT
BRANCH   1   9
HETATM    9  N2  UNL     1      -0.397  -0.037   0.174  1.00  0.00    -0.302 N 
HETATM   10  N1  UNL     1      -1.318  -0.255  -0.646  1.00  0.00    -0.338 N 
ATOM     11  H1  UNL     1      -1.065  -0.487  -1.606  1.00  0.00     0.179 HD
ATOM     12  H2  UNL     1      -0.651   0.194   1.135  1.00  0.00     0.183 HD
BRANCH  10  13
HETATM   13  C2  UNL     1      -2.691  -0.196  -0.310  1.00  0.00     0.134 C 
HETATM   14  C1  UNL     1      -2.933   0.623   0.944  1.00  0.00     0.028 C 
ENDBRANCH  10  13
ENDBRANCH   1   9
TORSDOF 2
