REMARK  2 active torsions:
REMARK  status: ('A' for Active; 'I' for Inactive)
REMARK    1  A    between atoms: C5_5  and  C6_6 
REMARK    2  A    between atoms: N1_7  and  N2_9 
ROOT
HETATM    1  C1  UNL     1      -2.116   0.343   1.613  1.00  0.00     0.023 C 
HETATM    2  C2  UNL     1      -1.226   0.094   0.434  1.00  0.00     0.013 C 
HETATM    3  C3  UNL     1      -1.551   0.985  -0.748  1.00  0.00     0.023 C 
HETATM    4  C4  UNL     1       0.229   0.284   0.753  1.00  0.00     0.047 C 
HETATM    5  C5  UNL     1       0.951  -0.801  -0.002  1.00  0.00     0.124 C 
HETATM    6  N3  UNL     1      -0.068  -1.493  -0.764  1.00  0.00    -0.370 N 
ATOM      7  H3  UNL     1       0.062  -2.012  -1.632  1.00  0.00     0.161 HD
HETATM    8  C7  UNL     1      -1.282  -1.302  -0.058  1.00  0.00     0.079 C 
HETATM    9  N4  UNL     1      -2.218  -2.201   0.091  1.00  0.00    -0.388 N 
ATOM     10  H41 UNL     1      -2.257  -3.162  -0.248  1.00  0.00     0.157 HD
ATOM     11  H42 UNL     1      -3.092  -2.064   0.599  1.00  0.00     0.157 HD
ENDROOT
BRANCH   5  12
HETATM   12  C6  UNL     1       1.963  -0.155  -0.864  1.00  0.00     0.104 C 
HETATM   13  N1  UNL     1       3.016   0.319  -0.326  1.00  0.00    -0.320 N 
ATOM     14  H1  UNL     1       3.120   0.233   0.685  1.00  0.00     0.185 HD
BRANCH  13  15
HETATM   15  N2  UNL     1       4.038   0.951  -1.044  1.00  0.00    -0.346 N 
ATOM     16  H22 UNL     1       3.917   1.028  -2.054  1.00  0.00     0.176 HD
ATOM     17  H21 UNL     1       4.881   1.331  -0.613  1.00  0.00     0.176 HD
ENDBRANCH  13  15
ENDBRANCH   5  12
TORSDOF 2
