REMARK  2 active torsions:
REMARK  status: ('A' for Active; 'I' for Inactive)
REMARK    1  A    between atoms: C2_2  and  N2_6 
REMARK    2  A    between atoms: N2_6  and  C3_8 
ROOT
HETATM    1  N2  UNL     1       1.005  -0.776   0.125  1.00  0.00    -0.374 N 
ATOM      2  H2  UNL     1       0.995  -1.710   0.536  1.00  0.00     0.161 HD
ENDROOT
BRANCH   1   3
HETATM    3  C2  UNL     1       2.215  -0.031   0.151  1.00  0.00     0.066 C 
HETATM    4  C1  UNL     1       3.123  -0.067  -1.022  1.00  0.00     0.088 C 
HETATM    5  N1  UNL     1       2.569   0.687   1.159  1.00  0.00    -0.389 N 
ATOM      6  H12 UNL     1       3.437   1.222   1.178  1.00  0.00     0.157 HD
ATOM      7  H11 UNL     1       1.945   0.712   1.965  1.00  0.00     0.157 HD
ENDBRANCH   1   3
BRANCH   1   8
HETATM    8  C3  UNL     1      -0.217  -0.260  -0.463  1.00  0.00     0.106 C 
HETATM    9  C4  UNL     1      -0.622   0.985   0.239  1.00  0.00     0.029 C 
HETATM   10  C5  UNL     1      -2.039   1.079   0.640  1.00  0.00     0.028 C 
HETATM   11  C6  UNL     1      -2.849  -0.156   0.478  1.00  0.00     0.167 C 
HETATM   12  O1  UNL     1      -2.531  -0.906  -0.642  1.00  0.00    -0.389 OA
HETATM   13  C7  UNL     1      -1.224  -1.351  -0.467  1.00  0.00     0.192 C 
ENDBRANCH   1   8
TORSDOF 2
