REMARK  10 active torsions:
REMARK  status: ('A' for Active; 'I' for Inactive)
REMARK    1  A    between atoms: C2_2  and  C3_3 
REMARK    2  A    between atoms: C6_8  and  N2_9 
REMARK    3  A    between atoms: N2_9  and  C7_10 
REMARK    4  A    between atoms: C7_10  and  O1_11 
REMARK    5  A    between atoms: C7_10  and  C8_13 
REMARK    6  A    between atoms: C8_13  and  C9_14 
REMARK    7  A    between atoms: C8_13  and  N3_18 
REMARK    8  A    between atoms: C9_14  and  C10_15 
REMARK       I    between atoms: N3_18  and  C13_20 
REMARK       I    between atoms: C13_20  and  N4_22 
REMARK    9  A    between atoms: N4_22  and  C14_23 
REMARK   10  A    between atoms: N4_22  and  C16_25 
ROOT
HETATM    1  C7  UNL     1       1.072   0.144  -1.258  1.00  0.00     0.239 C 
ENDROOT
BRANCH   1   2
HETATM    2  N2  UNL     1      -0.147  -0.182  -0.957  1.00  0.00    -0.359 NA
BRANCH   2   3
HETATM    3  C6  UNL     1      -1.274  -0.489  -0.681  1.00  0.00     0.198 A 
HETATM    4  N1  UNL     1      -2.039   0.382   0.046  1.00  0.00    -0.328 N 
HETATM    5  C5  UNL     1      -3.340   0.160   0.244  1.00  0.00     0.062 A 
ATOM      6  H1  UNL     1      -1.607   1.216   0.444  1.00  0.00     0.168 HD
HETATM    7  C4  UNL     1      -4.094   1.085   0.923  1.00  0.00     0.039 A 
HETATM    8  C20 UNL     1      -3.968  -0.944  -0.274  1.00  0.00     0.061 A 
HETATM    9  C3  UNL     1      -5.475   0.955   1.105  1.00  0.00    -0.050 A 
HETATM   10  C22 UNL     1      -6.067  -0.149   0.577  1.00  0.00    -0.053 A 
HETATM   11  C21 UNL     1      -5.318  -1.119  -0.119  1.00  0.00     0.039 A 
HETATM   12  C23 UNL     1      -7.496  -0.417   0.717  1.00  0.00     0.049 C 
HETATM   13  N5  UNL     1      -3.226  -1.812  -0.982  1.00  0.00    -0.355 N 
HETATM   14  C18 UNL     1      -1.912  -1.594  -1.183  1.00  0.00     0.155 A 
HETATM   15  C19 UNL     1      -3.937  -2.985  -1.496  1.00  0.00     0.156 C 
BRANCH   9  16
HETATM   16  C2  UNL     1      -6.175   2.081   1.705  1.00  0.00     0.034 C 
HETATM   17  C1  UNL     1      -6.310   3.152   0.600  1.00  0.00     0.010 C 
ENDBRANCH   9  16
ENDBRANCH   2   3
ENDBRANCH   1   2
BRANCH   1  18
HETATM   18  O1  UNL     1       1.190   1.462  -1.624  1.00  0.00    -0.334 OA
ATOM     19  H1  UNL     1       2.083   1.701  -1.844  1.00  0.00     0.220 HD
ENDBRANCH   1  18
BRANCH   1  20
HETATM   20  C8  UNL     1       2.386  -0.485  -1.320  1.00  0.00     0.079 C 
BRANCH  20  21
HETATM   21  C9  UNL     1       2.333  -1.914  -0.937  1.00  0.00     0.067 C 
BRANCH  21  22
HETATM   22  C10 UNL     1       1.878  -2.307   0.398  1.00  0.00    -0.017 C 
HETATM   23  C11 UNL     1       1.995  -3.843   0.485  1.00  0.00     0.010 C 
HETATM   24  C12 UNL     1       2.502  -1.668   1.588  1.00  0.00     0.010 C 
ENDBRANCH  21  22
ENDBRANCH  20  21
BRANCH  20  25
HETATM   25  N3  UNL     1       3.538   0.190  -0.858  1.00  0.00    -0.307 N 
HETATM   26  C13 UNL     1       4.004   1.477  -0.915  1.00  0.00     0.322 C 
HETATM   27  O2  UNL     1       3.414   2.467  -1.461  1.00  0.00    -0.247 OA
HETATM   28  N4  UNL     1       5.282   1.798  -0.299  1.00  0.00    -0.335 N 
ATOM     29  H3  UNL     1       4.177  -0.431  -0.362  1.00  0.00     0.170 HD
BRANCH  28  30
HETATM   30  C14 UNL     1       5.684   3.198  -0.236  1.00  0.00     0.123 C 
HETATM   31  C15 UNL     1       5.085   3.730   1.060  1.00  0.00     0.026 C 
ENDBRANCH  28  30
BRANCH  28  32
HETATM   32  C16 UNL     1       6.131   0.777   0.211  1.00  0.00     0.123 C 
HETATM   33  C17 UNL     1       7.066   0.233  -0.862  1.00  0.00     0.026 C 
ENDBRANCH  28  32
ENDBRANCH  20  25
ENDBRANCH   1  20
TORSDOF 10
