REMARK  8 active torsions:
REMARK  status: ('A' for Active; 'I' for Inactive)
REMARK    1  A    between atoms: C2_2  and  N1_3 
REMARK       I    between atoms: N1_3  and  C4_5 
REMARK       I    between atoms: C4_5  and  N2_7 
REMARK    2  A    between atoms: N2_7  and  C5_9 
REMARK    3  A    between atoms: C5_9  and  C6_10 
REMARK    4  A    between atoms: C6_10  and  N3_11 
REMARK       I    between atoms: N3_11  and  C7_13 
REMARK    5  A    between atoms: C7_13  and  C8_15 
REMARK    6  A    between atoms: C8_15  and  C9_17 
REMARK    7  A    between atoms: C9_17  and  C10_18 
REMARK    8  A    between atoms: C18_27  and  C19_28 
ROOT
HETATM    1  C9  UNL     1      -0.540   0.038   0.692  1.00  0.00     0.128 C 
ENDROOT
BRANCH   1   2
HETATM    2  C8  UNL     1       0.077  -0.212  -0.626  1.00  0.00     0.220 C 
HETATM    3  O3  UNL     1      -0.551  -0.662  -1.572  1.00  0.00    -0.287 OA
BRANCH   2   4
HETATM    4  C7  UNL     1       1.487   0.117  -0.731  1.00  0.00     0.287 C 
HETATM    5  N3  UNL     1       2.272  -0.149  -1.853  1.00  0.00    -0.353 N 
ATOM      6  H3  UNL     1       1.874  -0.599  -2.677  1.00  0.00     0.162 HD
HETATM    7  O2  UNL     1       2.011   0.691   0.295  1.00  0.00    -0.264 OA
BRANCH   5   8
HETATM    8  C6  UNL     1       3.668   0.232  -1.814  1.00  0.00     0.143 C 
BRANCH   8   9
HETATM    9  C5  UNL     1       4.371  -0.456  -0.699  1.00  0.00     0.144 C 
BRANCH   9  10
HETATM   10  N2  UNL     1       5.792  -0.014  -0.589  1.00  0.00    -0.341 N 
HETATM   11  C4  UNL     1       6.503  -0.559   0.492  1.00  0.00     0.317 C 
HETATM   12  N1  UNL     1       7.827  -0.275   0.794  1.00  0.00    -0.339 N 
HETATM   13  O1  UNL     1       5.900  -1.384   1.275  1.00  0.00    -0.247 OA
HETATM   14  C3  UNL     1       8.466  -0.822   1.999  1.00  0.00     0.154 C 
ATOM     15  H2  UNL     1       6.216   0.636  -1.251  1.00  0.00     0.164 HD
BRANCH  12  16
HETATM   16  C2  UNL     1       8.613   0.606  -0.042  1.00  0.00     0.122 C 
HETATM   17  C1  UNL     1       9.375  -0.118  -1.130  1.00  0.00     0.026 C 
ENDBRANCH  12  16
ENDBRANCH   9  10
ENDBRANCH   8   9
ENDBRANCH   5   8
ENDBRANCH   2   4
ENDBRANCH   1   2
BRANCH   1  18
HETATM   18  C10 UNL     1      -1.637   1.016   0.597  1.00  0.00    -0.037 A 
HETATM   19  C11 UNL     1      -1.343   2.365   0.742  1.00  0.00     0.025 A 
HETATM   20  C12 UNL     1      -2.319   3.271   0.642  1.00  0.00     0.091 A 
HETATM   21  N4  UNL     1      -3.645   2.978   0.400  1.00  0.00    -0.360 N 
HETATM   22  C13 UNL     1      -4.593   4.013   0.288  1.00  0.00     0.155 C 
HETATM   23  C14 UNL     1      -3.937   1.672   0.263  1.00  0.00     0.050 A 
HETATM   24  C15 UNL     1      -5.261   1.305   0.071  1.00  0.00    -0.034 A 
HETATM   25  C24 UNL     1      -2.945   0.666   0.356  1.00  0.00    -0.002 A 
HETATM   26  C16 UNL     1      -6.335   2.274   0.020  1.00  0.00     0.050 C 
HETATM   27  C17 UNL     1      -5.514  -0.067  -0.018  1.00  0.00     0.017 A 
HETATM   28  C18 UNL     1      -4.570  -1.060   0.068  1.00  0.00    -0.049 A 
HETATM   29  C23 UNL     1      -3.293  -0.669   0.253  1.00  0.00     0.022 A 
BRANCH  28  30
HETATM   30  C19 UNL     1      -5.075  -2.466   0.004  1.00  0.00    -0.024 C 
HETATM   31  C20 UNL     1      -5.823  -2.747   1.328  1.00  0.00     0.019 C 
HETATM   32  C21 UNL     1      -4.001  -3.471  -0.143  1.00  0.00     0.019 C 
HETATM   33  C22 UNL     1      -6.066  -2.553  -1.126  1.00  0.00     0.019 C 
ENDBRANCH  28  30
ENDBRANCH   1  18
TORSDOF 8
