REMARK  9 active torsions:
REMARK  status: ('A' for Active; 'I' for Inactive)
REMARK    1  A    between atoms: C2_2  and  N1_3 
REMARK    2  A    between atoms: C5_6  and  C6_7 
REMARK       I    between atoms: C6_7  and  N2_9 
REMARK    3  A    between atoms: N2_9  and  C7_11 
REMARK    4  A    between atoms: C7_11  and  C8_12 
REMARK    5  A    between atoms: N3_14  and  C10_15 
REMARK    6  A    between atoms: C10_15  and  C11_16 
REMARK    7  A    between atoms: C11_16  and  C12_17 
REMARK    8  A    between atoms: C16_21  and  N4_22 
REMARK    9  A    between atoms: N4_22  and  C17_24 
ROOT
HETATM    1  C8  UNL     1       1.658   1.430   0.627  1.00  0.00     0.060 C 
HETATM    2  C9  UNL     1       0.228   1.676   1.043  1.00  0.00     0.280 C 
HETATM    3  N3  UNL     1      -0.179   0.783   0.031  1.00  0.00     0.089 N 
HETATM    4  C23 UNL     1       0.959   1.249  -0.739  1.00  0.00     0.280 C 
ENDROOT
BRANCH   3   5
HETATM    5  C10 UNL     1      -0.147  -0.618   0.192  1.00  0.00     0.277 C 
BRANCH   5   6
HETATM    6  C11 UNL     1      -1.117  -1.191   1.177  1.00  0.00     0.070 C 
BRANCH   6   7
HETATM    7  C12 UNL     1      -2.539  -0.911   0.857  1.00  0.00    -0.034 A 
HETATM    8  C13 UNL     1      -3.254   0.059   1.579  1.00  0.00     0.019 A 
HETATM    9  C14 UNL     1      -4.575   0.346   1.314  1.00  0.00    -0.018 A 
HETATM   10  C15 UNL     1      -5.299   1.386   2.108  1.00  0.00     0.052 C 
HETATM   11  C16 UNL     1      -5.258  -0.328   0.303  1.00  0.00     0.107 A 
HETATM   12  N5  UNL     1      -4.572  -1.245  -0.376  1.00  0.00    -0.346 N 
HETATM   13  C21 UNL     1      -3.259  -1.547  -0.130  1.00  0.00     0.013 A 
ATOM     14  H5  UNL     1      -5.051  -1.751  -1.121  1.00  0.00     0.167 HD
HETATM   15  C22 UNL     1      -2.594  -2.596  -0.960  1.00  0.00     0.068 C 
BRANCH  11  16
HETATM   16  N4  UNL     1      -6.470  -0.044   0.083  1.00  0.00    -0.368 N 
ATOM     17  H4  UNL     1      -6.861   0.681   0.685  1.00  0.00     0.161 HD
BRANCH  16  18
HETATM   18  C17 UNL     1      -7.371  -0.582  -0.877  1.00  0.00     0.021 C 
HETATM   19  C18 UNL     1      -8.718   0.131  -0.695  1.00  0.00     0.037 C 
HETATM   20  C19 UNL     1      -6.971  -0.340  -2.307  1.00  0.00     0.037 C 
HETATM   21  C20 UNL     1      -7.646  -2.065  -0.678  1.00  0.00     0.037 C 
ENDBRANCH  16  18
ENDBRANCH  11  16
ENDBRANCH   6   7
ENDBRANCH   5   6
ENDBRANCH   3   5
BRANCH   1  22
HETATM   22  C7  UNL     1       2.560   2.613   0.681  1.00  0.00     0.131 C 
BRANCH  22  23
HETATM   23  N2  UNL     1       3.886   2.234   0.262  1.00  0.00    -0.356 N 
HETATM   24  C6  UNL     1       4.614   1.278   1.004  1.00  0.00     0.251 C 
HETATM   25  O1  UNL     1       4.161   0.719   2.057  1.00  0.00    -0.268 OA
ATOM     26  H2  UNL     1       4.298   2.656  -0.570  1.00  0.00     0.162 HD
BRANCH  24  27
HETATM   27  C5  UNL     1       5.956   0.912   0.538  1.00  0.00     0.034 A 
HETATM   28  C4  UNL     1       6.412   1.221  -0.716  1.00  0.00     0.034 A 
HETATM   29  C3  UNL     1       7.693   0.845  -1.071  1.00  0.00     0.091 A 
HETATM   30  N1  UNL     1       8.515   0.178  -0.214  1.00  0.00    -0.367 N 
HETATM   31  C25 UNL     1       8.083  -0.134   1.021  1.00  0.00     0.091 A 
HETATM   32  C24 UNL     1       6.822   0.230   1.388  1.00  0.00     0.034 A 
BRANCH  30  33
HETATM   33  C2  UNL     1       9.841  -0.166  -0.701  1.00  0.00     0.123 C 
HETATM   34  C1  UNL     1       9.841  -1.526  -1.370  1.00  0.00     0.027 C 
ENDBRANCH  30  33
ENDBRANCH  24  27
ENDBRANCH  22  23
ENDBRANCH   1  22
TORSDOF 9
