REMARK  7 active torsions:
REMARK  status: ('A' for Active; 'I' for Inactive)
REMARK    1  A    between atoms: C3_3  and  C4_4 
REMARK    2  A    between atoms: C4_4  and  C5_5 
REMARK    3  A    between atoms: C4_4  and  N1_16 
REMARK    4  A    between atoms: C5_5  and  C6_6 
REMARK    5  A    between atoms: C8_8  and  C9_9 
REMARK    6  A    between atoms: N1_16  and  C16_19 
REMARK    7  A    between atoms: C23_31  and  C24_32 
ROOT
HETATM    1  C1  UNL     1       0.687  -4.995  -1.146  1.00  0.00     0.012 C 
HETATM    2  C2  UNL     1       0.590  -3.924  -0.606  1.00  0.00    -0.115 C 
HETATM    3  C3  UNL     1       0.438  -2.600   0.060  1.00  0.00     0.126 C 
ENDROOT
BRANCH   3   4
HETATM    4  C4  UNL     1       0.402  -1.466  -0.859  1.00  0.00     0.202 C 
BRANCH   4   5
HETATM    5  C5  UNL     1       1.552  -1.087  -1.709  1.00  0.00     0.073 C 
BRANCH   5   6
HETATM    6  C6  UNL     1       2.798  -0.646  -1.102  1.00  0.00    -0.049 A 
HETATM    7  C7  UNL     1       2.879   0.748  -0.821  1.00  0.00     0.014 A 
HETATM    8  C8  UNL     1       3.973   1.284  -0.201  1.00  0.00    -0.058 A 
HETATM    9  C11 UNL     1       5.004   0.441   0.150  1.00  0.00     0.014 A 
HETATM   10  C12 UNL     1       4.968  -0.896  -0.102  1.00  0.00    -0.055 A 
HETATM   11  C13 UNL     1       6.100  -1.776   0.287  1.00  0.00     0.049 C 
HETATM   12  C14 UNL     1       3.848  -1.441  -0.737  1.00  0.00    -0.050 A 
HETATM   13  C15 UNL     1       3.958  -2.888  -1.028  1.00  0.00     0.049 C 
BRANCH   8  14
HETATM   14  C9  UNL     1       4.051   2.749   0.093  1.00  0.00     0.034 C 
HETATM   15  C10 UNL     1       3.500   3.077   1.457  1.00  0.00     0.010 C 
ENDBRANCH   8  14
ENDBRANCH   5   6
ENDBRANCH   4   5
BRANCH   4  16
HETATM   16  N1  UNL     1      -0.114  -0.255  -0.229  1.00  0.00    -0.056 N 
ATOM     17  H12 UNL     1       0.479   0.027   0.552  1.00  0.00     0.278 HD
ATOM     18  H11 UNL     1       0.015   0.552  -0.839  1.00  0.00     0.278 HD
BRANCH  16  19
HETATM   19  C16 UNL     1      -1.443  -0.362   0.174  1.00  0.00     0.286 C 
HETATM   20  C17 UNL     1      -2.505  -0.514  -0.822  1.00  0.00     0.254 C 
HETATM   21  O1  UNL     1      -2.565  -0.936  -1.995  1.00  0.00    -0.271 OA
HETATM   22  N2  UNL     1      -3.720  -0.029  -0.189  1.00  0.00    -0.310 N 
HETATM   23  C18 UNL     1      -5.148   0.164  -0.340  1.00  0.00     0.178 C 
HETATM   24  C21 UNL     1      -3.364   0.468   1.126  1.00  0.00     0.114 C 
HETATM   25  C19 UNL     1      -5.948  -1.091  -0.292  1.00  0.00     0.043 C 
HETATM   26  C20 UNL     1      -5.487   1.153   0.719  1.00  0.00     0.242 C 
HETATM   27  O2  UNL     1      -6.649   1.622   0.885  1.00  0.00    -0.271 OA
HETATM   28  N3  UNL     1      -4.312   1.448   1.462  1.00  0.00    -0.332 N 
ATOM     29  H3  UNL     1      -4.182   2.222   2.113  1.00  0.00     0.165 HD
HETATM   30  C22 UNL     1      -3.423  -0.668   2.155  1.00  0.00     0.064 C 
HETATM   31  C23 UNL     1      -1.945   0.843   0.966  1.00  0.00     0.078 C 
BRANCH  31  32
HETATM   32  C24 UNL     1      -1.621   2.139   0.366  1.00  0.00    -0.012 C 
HETATM   33  C25 UNL     1      -2.148   2.455  -0.980  1.00  0.00     0.010 C 
HETATM   34  C26 UNL     1      -1.903   3.281   1.313  1.00  0.00     0.010 C 
ENDBRANCH  31  32
ENDBRANCH  16  19
ENDBRANCH   4  16
ENDBRANCH   3   4
TORSDOF 7
