REMARK  9 active torsions:
REMARK  status: ('A' for Active; 'I' for Inactive)
REMARK    1  A    between atoms: N1_12  and  C12_13 
REMARK    2  A    between atoms: C12_13  and  C13_14 
REMARK    3  A    between atoms: C13_14  and  N2_15 
REMARK    4  A    between atoms: N2_15  and  C14_18 
REMARK    5  A    between atoms: C14_18  and  C15_19 
REMARK    6  A    between atoms: C15_19  and  C16_20 
REMARK    7  A    between atoms: C16_20  and  N3_21 
REMARK    8  A    between atoms: N3_21  and  C17_23 
REMARK    9  A    between atoms: C17_23  and  N4_25 
ROOT
HETATM    1  C1  UNL     1      -8.633   1.433  -0.524  1.00  0.00     0.048 C 
HETATM    2  C2  UNL     1      -7.379   0.639  -0.744  1.00  0.00    -0.060 A 
HETATM    3  C3  UNL     1      -7.279  -0.233  -1.802  1.00  0.00     0.007 A 
HETATM    4  C4  UNL     1      -6.137  -0.975  -2.025  1.00  0.00     0.015 A 
HETATM    5  C5  UNL     1      -5.076  -0.803  -1.123  1.00  0.00    -0.002 A 
HETATM    6  C6  UNL     1      -3.924  -1.547  -1.347  1.00  0.00    -0.037 A 
HETATM    7  C7  UNL     1      -3.877  -2.474  -2.505  1.00  0.00     0.050 C 
HETATM    8  C8  UNL     1      -2.884  -1.375  -0.466  1.00  0.00     0.001 A 
HETATM    9  C9  UNL     1      -1.706  -2.072  -0.614  1.00  0.00     0.039 A 
HETATM   10  C10 UNL     1      -0.663  -1.878   0.298  1.00  0.00     0.008 A 
HETATM   11  C11 UNL     1       0.550  -2.672   0.047  1.00  0.00     0.068 C 
HETATM   12  N1  UNL     1      -0.778  -1.029   1.317  1.00  0.00    -0.357 N 
HETATM   13  C20 UNL     1      -1.944  -0.346   1.452  1.00  0.00     0.121 A 
HETATM   14  C21 UNL     1      -3.015  -0.485   0.593  1.00  0.00     0.061 A 
HETATM   15  N5  UNL     1      -4.129   0.213   0.782  1.00  0.00    -0.349 N 
HETATM   16  C22 UNL     1      -4.317   1.157   1.862  1.00  0.00     0.156 C 
HETATM   17  C23 UNL     1      -5.176   0.059  -0.078  1.00  0.00     0.045 A 
HETATM   18  C24 UNL     1      -6.345   0.809   0.138  1.00  0.00     0.037 A 
ENDROOT
BRANCH  12  19
HETATM   19  C12 UNL     1       0.301  -0.835   2.271  1.00  0.00     0.155 C 
BRANCH  19  20
HETATM   20  C13 UNL     1       1.233   0.251   1.798  1.00  0.00     0.252 C 
BRANCH  20  21
HETATM   21  N2  UNL     1       2.286   0.409   2.766  1.00  0.00    -0.074 N 
ATOM     22  H22 UNL     1       1.894   0.589   3.690  1.00  0.00     0.277 HD
ATOM     23  H21 UNL     1       2.744  -0.485   2.941  1.00  0.00     0.277 HD
BRANCH  21  24
HETATM   24  C14 UNL     1       3.257   1.409   2.433  1.00  0.00     0.234 C 
BRANCH  24  25
HETATM   25  C15 UNL     1       4.087   0.983   1.218  1.00  0.00     0.047 C 
BRANCH  25  26
HETATM   26  C16 UNL     1       5.081   2.062   0.944  1.00  0.00     0.123 C 
BRANCH  26  27
HETATM   27  N3  UNL     1       5.943   1.805  -0.189  1.00  0.00    -0.367 N 
ATOM     28  H3  UNL     1       5.832   2.386  -1.020  1.00  0.00     0.161 HD
BRANCH  27  29
HETATM   29  C17 UNL     1       6.927   0.797  -0.208  1.00  0.00     0.169 C 
HETATM   30  S1  UNL     1       7.168  -0.162   1.082  1.00  0.00    -0.041 SA
BRANCH  29  31
HETATM   31  N4  UNL     1       7.727   0.611  -1.353  1.00  0.00    -0.367 N 
HETATM   32  C18 UNL     1       8.756  -0.429  -1.405  1.00  0.00     0.151 C 
HETATM   33  C19 UNL     1       7.507   1.492  -2.495  1.00  0.00     0.151 C 
ENDBRANCH  29  31
ENDBRANCH  27  29
ENDBRANCH  26  27
ENDBRANCH  25  26
ENDBRANCH  24  25
ENDBRANCH  21  24
ENDBRANCH  20  21
ENDBRANCH  19  20
ENDBRANCH  12  19
TORSDOF 9
