REMARK  9 active torsions:
REMARK  status: ('A' for Active; 'I' for Inactive)
REMARK    1  A    between atoms: C2_2  and  N1_3 
REMARK    2  A    between atoms: N1_3  and  C3_4 
REMARK    3  A    between atoms: N1_3  and  C5_6 
REMARK    4  A    between atoms: C5_6  and  C6_7 
REMARK    5  A    between atoms: C6_7  and  N2_8 
REMARK       I    between atoms: N2_8  and  C7_10 
REMARK    6  A    between atoms: C7_10  and  C8_12 
REMARK    7  A    between atoms: C8_12  and  N3_13 
REMARK    8  A    between atoms: C17_22  and  C18_23 
REMARK    9  A    between atoms: C19_24  and  C20_25 
ROOT
HETATM    1  N3  UNL     1      -0.788  -1.399   0.164  1.00  0.00    -0.334 N 
HETATM    2  C9  UNL     1      -0.313  -2.583   0.631  1.00  0.00     0.015 A 
HETATM    3  C10 UNL     1       0.969  -3.046   0.109  1.00  0.00     0.069 C 
HETATM    4  C11 UNL     1      -0.969  -3.341   1.545  1.00  0.00    -0.033 A 
HETATM    5  C12 UNL     1      -0.419  -4.599   2.015  1.00  0.00     0.050 C 
HETATM    6  C13 UNL     1      -2.177  -2.892   2.027  1.00  0.00    -0.045 A 
HETATM    7  C14 UNL     1      -2.983  -3.657   3.042  1.00  0.00     0.049 C 
HETATM    8  C15 UNL     1      -2.701  -1.688   1.578  1.00  0.00    -0.020 A 
HETATM    9  C16 UNL     1      -3.998  -1.193   2.087  1.00  0.00     0.052 C 
HETATM   10  C17 UNL     1      -1.964  -0.958   0.631  1.00  0.00     0.096 A 
ENDROOT
BRANCH   1  11
HETATM   11  C8  UNL     1      -0.052  -0.625  -0.805  1.00  0.00     0.232 C 
BRANCH  11  12
HETATM   12  C7  UNL     1       0.866   0.347  -0.184  1.00  0.00     0.235 C 
HETATM   13  N2  UNL     1       1.719   1.162  -0.962  1.00  0.00    -0.358 N 
ATOM     14  H2  UNL     1       1.679   1.055  -1.976  1.00  0.00     0.162 HD
HETATM   15  O1  UNL     1       0.881   0.441   1.060  1.00  0.00    -0.272 OA
BRANCH  13  16
HETATM   16  C6  UNL     1       2.636   2.128  -0.432  1.00  0.00     0.152 C 
BRANCH  16  17
HETATM   17  C5  UNL     1       3.681   1.575   0.487  1.00  0.00     0.292 C 
BRANCH  17  18
HETATM   18  N1  UNL     1       4.537   0.570  -0.108  1.00  0.00     0.089 N 
BRANCH  18  19
HETATM   19  C2  UNL     1       5.380   1.149  -1.106  1.00  0.00     0.268 C 
HETATM   20  C1  UNL     1       6.130   0.197  -1.979  1.00  0.00     0.037 C 
ENDBRANCH  18  19
BRANCH  18  21
HETATM   21  C3  UNL     1       5.237  -0.097   0.956  1.00  0.00     0.268 C 
HETATM   22  C4  UNL     1       5.928  -1.372   0.564  1.00  0.00     0.037 C 
ENDBRANCH  18  21
ENDBRANCH  17  18
ENDBRANCH  16  17
ENDBRANCH  13  16
ENDBRANCH  11  12
ENDBRANCH   1  11
BRANCH  10  23
HETATM   23  C18 UNL     1      -2.546   0.294   0.194  1.00  0.00    -0.042 C 
HETATM   24  C19 UNL     1      -3.043   1.338  -0.147  1.00  0.00    -0.056 C 
BRANCH  24  25
HETATM   25  C20 UNL     1      -3.649   2.579  -0.523  1.00  0.00     0.061 A 
HETATM   26  C21 UNL     1      -3.496   3.728   0.246  1.00  0.00     0.026 A 
HETATM   27  C22 UNL     1      -4.079   4.929  -0.103  1.00  0.00     0.019 A 
HETATM   28  C23 UNL     1      -4.828   4.935  -1.259  1.00  0.00     0.090 A 
HETATM   29  N4  UNL     1      -4.975   3.823  -2.003  1.00  0.00    -0.351 N 
HETATM   30  C24 UNL     1      -4.407   2.640  -1.669  1.00  0.00     0.119 A 
ATOM     31  H4  UNL     1      -5.537   3.873  -2.853  1.00  0.00     0.166 HD
HETATM   32  N5  UNL     1      -4.541   1.578  -2.370  1.00  0.00    -0.380 N 
HETATM   33  C25 UNL     1      -5.318   1.529  -3.597  1.00  0.00     0.147 C 
ATOM     34  H5  UNL     1      -4.080   0.725  -2.052  1.00  0.00     0.160 HD
ENDBRANCH  24  25
ENDBRANCH  10  23
TORSDOF 9
