REMARK  6 active torsions:
REMARK  status: ('A' for Active; 'I' for Inactive)
REMARK    1  A    between atoms: C5_6  and  C6_7 
REMARK    2  A    between atoms: C7_10  and  C8_11 
REMARK    3  A    between atoms: C8_11  and  O1_12 
REMARK    4  A    between atoms: O1_12  and  C9_13 
REMARK    5  A    between atoms: C15_21  and  C16_22 
REMARK    6  A    between atoms: C23_32  and  C24_33 
ROOT
HETATM    1  C1  UNL     1       3.990  -6.892  -0.934  1.00  0.00     0.229 C 
HETATM    2  N1  UNL     1       3.450  -5.877  -0.896  1.00  0.00    -0.429 NA
HETATM    3  C2  UNL     1       2.814  -4.673  -0.875  1.00  0.00     0.120 A 
HETATM    4  C3  UNL     1       1.441  -4.591  -0.965  1.00  0.00     0.046 A 
HETATM    5  C4  UNL     1       0.793  -3.356  -0.942  1.00  0.00     0.018 A 
HETATM    6  C5  UNL     1       1.543  -2.206  -0.828  1.00  0.00     0.009 A 
HETATM    7  C22 UNL     1       2.925  -2.303  -0.738  1.00  0.00     0.035 A 
HETATM    8  C23 UNL     1       3.565  -3.523  -0.760  1.00  0.00     0.089 A 
ENDROOT
BRANCH   8   9
HETATM    9  C24 UNL     1       5.040  -3.639  -0.665  1.00  0.00     0.420 C 
HETATM   10  F1  UNL     1       5.438  -4.378   0.439  1.00  0.00    -0.166 F 
HETATM   11  F2  UNL     1       5.592  -2.371  -0.564  1.00  0.00    -0.166 F 
HETATM   12  F3  UNL     1       5.550  -4.225  -1.808  1.00  0.00    -0.166 F 
ENDBRANCH   8   9
BRANCH   6  13
HETATM   13  C6  UNL     1       0.899  -0.882  -0.801  1.00  0.00     0.116 A 
HETATM   14  N2  UNL     1      -0.414  -0.642  -0.879  1.00  0.00    -0.342 N 
HETATM   15  C7  UNL     1      -0.641   0.692  -0.823  1.00  0.00     0.058 A 
ATOM     16  H2  UNL     1      -1.136  -1.357  -0.967  1.00  0.00     0.167 HD
HETATM   17  C15 UNL     1       0.580   1.302  -0.706  1.00  0.00     0.045 A 
HETATM   18  N5  UNL     1       1.498   0.316  -0.696  1.00  0.00    -0.343 N 
ATOM     19  H5  UNL     1       2.505   0.459  -0.620  1.00  0.00     0.167 HD
BRANCH  15  20
HETATM   20  C8  UNL     1      -1.969   1.346  -0.919  1.00  0.00     0.234 C 
BRANCH  20  21
HETATM   21  O1  UNL     1      -3.039   0.446  -1.013  1.00  0.00    -0.343 OA
BRANCH  21  22
HETATM   22  C9  UNL     1      -3.327  -0.415   0.034  1.00  0.00     0.092 A 
HETATM   23  C10 UNL     1      -2.730  -0.569   1.271  1.00  0.00     0.125 A 
HETATM   24  N3  UNL     1      -3.376  -1.544   1.947  1.00  0.00    -0.366 N 
HETATM   25  C11 UNL     1      -4.368  -2.045   1.230  1.00  0.00     0.013 A 
ATOM     26  H3  UNL     1      -3.131  -1.853   2.888  1.00  0.00     0.165 HD
HETATM   27  C12 UNL     1      -5.324  -3.140   1.618  1.00  0.00     0.068 C 
HETATM   28  C13 UNL     1      -4.366  -1.367   0.034  1.00  0.00    -0.005 A 
HETATM   29  C14 UNL     1      -5.284  -1.555  -1.117  1.00  0.00     0.053 C 
ENDBRANCH  21  22
ENDBRANCH  20  21
ENDBRANCH  15  20
BRANCH  17  30
HETATM   30  C16 UNL     1       0.810   2.772  -0.607  1.00  0.00     0.076 C 
HETATM   31  C17 UNL     1       2.285   3.092  -0.770  1.00  0.00     0.021 C 
HETATM   32  C18 UNL     1       2.599   4.487  -0.286  1.00  0.00     0.046 C 
HETATM   33  C19 UNL     1       2.321   4.440   1.203  1.00  0.00     0.062 C 
HETATM   34  N4  UNL     1       0.957   4.214   1.429  1.00  0.00    -0.377 N 
HETATM   35  C20 UNL     1       0.207   5.342   1.925  1.00  0.00     0.154 C 
HETATM   36  C21 UNL     1       0.208   3.364   0.609  1.00  0.00     0.073 C 
ENDBRANCH  17  30
ENDBRANCH   6  13
TORSDOF 6
