REMARK  9 active torsions:
REMARK  status: ('A' for Active; 'I' for Inactive)
REMARK    1  A    between atoms: C2_2  and  C5_5 
REMARK    2  A    between atoms: C5_5  and  C6_6 
REMARK    3  A    between atoms: C6_6  and  N1_7 
REMARK    4  A    between atoms: N1_7  and  C7_9 
REMARK    5  A    between atoms: C7_9  and  C8_10 
REMARK    6  A    between atoms: C8_10  and  C9_11 
REMARK    7  A    between atoms: C12_14  and  N2_15 
REMARK    8  A    between atoms: N2_15  and  C13_17 
REMARK    9  A    between atoms: C25_33  and  C26_34 
ROOT
HETATM    1  C9  UNL     1       1.047  -0.396   0.025  1.00  0.00    -0.013 C 
HETATM    2  C10 UNL     1       2.209  -1.029   0.771  1.00  0.00     0.007 C 
HETATM    3  C11 UNL     1       3.294  -1.435  -0.206  1.00  0.00     0.025 C 
HETATM    4  C12 UNL     1       3.633  -0.263  -1.103  1.00  0.00     0.083 C 
HETATM    5  C21 UNL     1       2.424   0.175  -1.907  1.00  0.00     0.025 C 
HETATM    6  C22 UNL     1       1.188  -0.600  -1.446  1.00  0.00     0.007 C 
ENDROOT
BRANCH   1   7
HETATM    7  C8  UNL     1      -0.209  -0.930   0.631  1.00  0.00     0.024 C 
BRANCH   7   8
HETATM    8  C7  UNL     1      -1.480  -0.376  -0.016  1.00  0.00     0.115 C 
BRANCH   8   9
HETATM    9  N1  UNL     1      -2.569  -0.959   0.662  1.00  0.00    -0.412 N 
ATOM     10  H1  UNL     1      -2.425  -1.607   1.436  1.00  0.00     0.154 HD
BRANCH   9  11
HETATM   11  C6  UNL     1      -3.903  -0.602   0.216  1.00  0.00     0.026 C 
HETATM   12  C23 UNL     1      -4.041  -1.135  -1.193  1.00  0.00     0.031 C 
HETATM   13  C24 UNL     1      -3.964  -2.649  -0.988  1.00  0.00     0.012 C 
HETATM   14  C25 UNL     1      -4.377  -2.883   0.449  1.00  0.00     0.053 C 
HETATM   15  C27 UNL     1      -4.795  -1.529   1.019  1.00  0.00     0.040 C 
BRANCH  11  16
HETATM   16  C5  UNL     1      -4.100   0.812   0.388  1.00  0.00     0.038 C 
BRANCH  16  17
HETATM   17  C2  UNL     1      -5.344   1.526   0.055  1.00  0.00    -0.049 C 
HETATM   18  C1  UNL     1      -5.013   2.996   0.447  1.00  0.00     0.014 C 
HETATM   19  C3  UNL     1      -5.734   1.632  -1.374  1.00  0.00     0.014 C 
HETATM   20  C4  UNL     1      -6.514   1.165   0.957  1.00  0.00     0.014 C 
ENDBRANCH  16  17
ENDBRANCH  11  16
BRANCH  14  21
HETATM   21  C26 UNL     1      -5.542  -3.844   0.440  1.00  0.00     0.357 C 
HETATM   22  F1  UNL     1      -5.988  -4.118   1.723  1.00  0.00    -0.214 F 
HETATM   23  F2  UNL     1      -5.096  -5.005  -0.172  1.00  0.00    -0.214 F 
ENDBRANCH  14  21
ENDBRANCH   9  11
ENDBRANCH   8   9
ENDBRANCH   7   8
ENDBRANCH   1   7
BRANCH   4  24
HETATM   24  N2  UNL     1       4.172   0.829  -0.344  1.00  0.00    -0.371 N 
ATOM     25  H2  UNL     1       3.546   1.582  -0.060  1.00  0.00     0.161 HD
BRANCH  24  26
HETATM   26  C13 UNL     1       5.396   0.897  -0.011  1.00  0.00     0.117 A 
HETATM   27  C14 UNL     1       5.785   2.024   0.731  1.00  0.00     0.136 A 
HETATM   28  N3  UNL     1       7.052   2.175   1.123  1.00  0.00    -0.361 N 
HETATM   29  C15 UNL     1       7.970   1.224   0.796  1.00  0.00     0.059 A 
ATOM     30  H3  UNL     1       7.330   2.995   1.662  1.00  0.00     0.165 HD
HETATM   31  C16 UNL     1       9.273   1.403   1.212  1.00  0.00     0.032 A 
HETATM   32  C20 UNL     1       7.625   0.111   0.072  1.00  0.00     0.060 A 
HETATM   33  C17 UNL     1      10.256   0.485   0.920  1.00  0.00     0.002 A 
HETATM   34  C18 UNL     1       9.906  -0.628   0.194  1.00  0.00     0.002 A 
HETATM   35  C19 UNL     1       8.596  -0.816  -0.228  1.00  0.00     0.032 A 
HETATM   36  N4  UNL     1       6.338  -0.012  -0.308  1.00  0.00    -0.340 N 
ATOM     37  H4  UNL     1       6.067  -0.835  -0.847  1.00  0.00     0.167 HD
ENDBRANCH  24  26
ENDBRANCH   4  24
TORSDOF 9
