REMARK  14 active torsions:
REMARK  status: ('A' for Active; 'I' for Inactive)
REMARK    1  A    between atoms: C3_3  and  C5_5 
REMARK    2  A    between atoms: C5_5  and  C6_6 
REMARK    3  A    between atoms: C6_6  and  C7_7 
REMARK    4  A    between atoms: C7_7  and  O2_9 
REMARK    5  A    between atoms: O2_9  and  C8_10 
REMARK    6  A    between atoms: C10_12  and  O3_13 
REMARK    7  A    between atoms: C10_12  and  C11_15 
REMARK    8  A    between atoms: C11_15  and  O5_17 
REMARK    9  A    between atoms: O5_17  and  C12_18 
REMARK   10  A    between atoms: C12_18  and  C13_19 
REMARK   11  A    between atoms: C15_21  and  O6_22 
REMARK   12  A    between atoms: C15_21  and  N1_24 
REMARK   13  A    between atoms: N1_24  and  O7_26 
REMARK   14  A    between atoms: C18_30  and  O8_31 
ROOT
HETATM    1  C8  UNL     1       0.289  -1.230  -0.122  1.00  0.00     0.164 C 
HETATM    2  C9  UNL     1      -0.451  -0.132   0.600  1.00  0.00     0.089 C 
HETATM    3  C10 UNL     1      -1.879  -0.446   0.879  1.00  0.00     0.200 C 
HETATM    4  C15 UNL     1      -2.498  -1.474  -0.029  1.00  0.00     0.196 C 
HETATM    5  C16 UNL     1      -1.693  -2.699  -0.253  1.00  0.00     0.074 C 
HETATM    6  C17 UNL     1      -2.374  -3.921   0.323  1.00  0.00     0.018 C 
HETATM    7  C18 UNL     1      -0.252  -2.604   0.205  1.00  0.00     0.159 C 
ENDROOT
BRANCH   1   8
HETATM    8  O2  UNL     1       1.660  -1.099   0.009  1.00  0.00    -0.313 OA
BRANCH   8   9
HETATM    9  C7  UNL     1       2.594  -0.811  -0.953  1.00  0.00     0.259 C 
HETATM   10  O1  UNL     1       2.111  -0.647  -2.106  1.00  0.00    -0.265 OA
BRANCH   9  11
HETATM   11  C6  UNL     1       4.034  -0.690  -0.730  1.00  0.00     0.115 C 
BRANCH  11  12
HETATM   12  C5  UNL     1       4.496   0.435   0.118  1.00  0.00     0.043 C 
BRANCH  12  13
HETATM   13  C3  UNL     1       4.172   1.789  -0.345  1.00  0.00    -0.087 C 
HETATM   14  C2  UNL     1       5.170   2.644  -0.625  1.00  0.00    -0.029 C 
HETATM   15  C1  UNL     1       6.595   2.224  -0.497  1.00  0.00     0.036 C 
HETATM   16  C4  UNL     1       2.773   2.259  -0.488  1.00  0.00     0.043 C 
ENDBRANCH  12  13
ENDBRANCH  11  12
ENDBRANCH   9  11
ENDBRANCH   8   9
ENDBRANCH   1   8
BRANCH   7  17
HETATM   17  O8  UNL     1       0.587  -3.474  -0.497  1.00  0.00    -0.388 OA
HETATM   18  C19 UNL     1       1.215  -4.417   0.292  1.00  0.00     0.202 C 
ENDBRANCH   7  17
BRANCH   3  19
HETATM   19  O3  UNL     1      -1.960  -0.862   2.210  1.00  0.00    -0.375 OA
ATOM     20  H3  UNL     1      -2.871  -1.062   2.388  1.00  0.00     0.211 HD
ENDBRANCH   3  19
BRANCH   3  21
HETATM   21  C11 UNL     1      -2.732   0.791   0.757  1.00  0.00     0.298 C 
HETATM   22  O4  UNL     1      -3.350   1.251   1.752  1.00  0.00    -0.262 OA
BRANCH  21  23
HETATM   23  O5  UNL     1      -2.869   1.461  -0.441  1.00  0.00    -0.319 OA
BRANCH  23  24
HETATM   24  C12 UNL     1      -3.643   2.618  -0.618  1.00  0.00     0.178 C 
BRANCH  24  25
HETATM   25  C13 UNL     1      -3.225   3.800   0.193  1.00  0.00     0.022 C 
HETATM   26  C14 UNL     1      -4.143   4.993  -0.100  1.00  0.00     0.007 C 
ENDBRANCH  24  25
ENDBRANCH  23  24
ENDBRANCH  21  23
ENDBRANCH   3  21
BRANCH   4  27
HETATM   27  O6  UNL     1      -2.719  -0.812  -1.267  1.00  0.00    -0.366 OA
ATOM     28  H6  UNL     1      -3.110  -1.461  -1.840  1.00  0.00     0.212 HD
ENDBRANCH   4  27
BRANCH   4  29
HETATM   29  N1  UNL     1      -3.821  -1.777   0.442  1.00  0.00    -0.266 N 
ATOM     30  H1  UNL     1      -4.642  -1.645  -0.149  1.00  0.00     0.191 HD
BRANCH  29  31
HETATM   31  O7  UNL     1      -3.925  -2.236   1.679  1.00  0.00    -0.292 OA
ATOM     32  H7  UNL     1      -4.800  -2.436   1.990  1.00  0.00     0.244 HD
ENDBRANCH  29  31
ENDBRANCH   4  29
TORSDOF 14
