REMARK  12 active torsions:
REMARK  status: ('A' for Active; 'I' for Inactive)
REMARK    1  A    between atoms: C3_4  and  C4_5 
REMARK    2  A    between atoms: C4_5  and  C5_6 
REMARK    3  A    between atoms: C5_6  and  C6_7 
REMARK    4  A    between atoms: C6_7  and  O2_8 
REMARK    5  A    between atoms: O2_8  and  C7_9 
REMARK    6  A    between atoms: C8_13  and  O3_14 
REMARK    7  A    between atoms: C9_16  and  C10_17 
REMARK    8  A    between atoms: C10_17  and  O4_18 
REMARK    9  A    between atoms: O4_18  and  C11_19 
REMARK   10  A    between atoms: C17_26  and  O6_27 
REMARK   11  A    between atoms: C18_29  and  O7_30 
REMARK   12  A    between atoms: C19_32  and  O8_33 
ROOT
HETATM    1  C7  UNL     1       0.189  -0.461  -1.245  1.00  0.00     0.472 C 
HETATM    2  N1  UNL     1       0.601  -1.610  -2.036  1.00  0.00     0.004 N 
ATOM      3  H11 UNL     1      -0.156  -2.184  -2.407  1.00  0.00     0.286 HD
ATOM      4  H12 UNL     1       1.038  -2.370  -1.515  1.00  0.00     0.286 HD
HETATM    5  C8  UNL     1       1.453  -0.955  -3.039  1.00  0.00     0.355 C 
HETATM    6  C9  UNL     1       2.121   0.114  -2.220  1.00  0.00     0.206 C 
HETATM    7  O5  UNL     1       1.319   0.340  -1.103  1.00  0.00    -0.327 OA
ENDROOT
BRANCH   1   8
HETATM    8  O2  UNL     1      -0.293  -0.933  -0.048  1.00  0.00    -0.339 OA
BRANCH   8   9
HETATM    9  C6  UNL     1      -1.663  -0.508   0.024  1.00  0.00     0.172 C 
BRANCH   9  10
HETATM   10  C5  UNL     1      -2.194  -1.004   1.301  1.00  0.00     0.029 C 
BRANCH  10  11
HETATM   11  C4  UNL     1      -3.606  -0.746   1.648  1.00  0.00     0.036 C 
BRANCH  11  12
HETATM   12  C3  UNL     1      -4.149   0.595   1.874  1.00  0.00     0.153 C 
HETATM   13  O1  UNL     1      -5.515   0.425   2.200  1.00  0.00    -0.376 OA
HETATM   14  C2  UNL     1      -6.392   0.428   1.186  1.00  0.00     0.149 C 
HETATM   15  C1  UNL     1      -7.636   1.213   1.633  1.00  0.00     0.042 C 
HETATM   16  C19 UNL     1      -5.987   0.832  -0.168  1.00  0.00     0.178 C 
HETATM   17  C18 UNL     1      -4.695   1.552  -0.329  1.00  0.00     0.180 C 
HETATM   18  C17 UNL     1      -3.949   1.720   0.961  1.00  0.00     0.178 C 
BRANCH  16  19
HETATM   19  O8  UNL     1      -6.007  -0.259  -1.072  1.00  0.00    -0.390 OA
ATOM     20  H8  UNL     1      -5.745   0.002  -1.947  1.00  0.00     0.210 HD
ENDBRANCH  16  19
BRANCH  17  21
HETATM   21  O7  UNL     1      -4.908   2.869  -0.816  1.00  0.00    -0.390 OA
ATOM     22  H7  UNL     1      -5.381   2.763  -1.633  1.00  0.00     0.210 HD
ENDBRANCH  17  21
BRANCH  18  23
HETATM   23  O6  UNL     1      -4.457   2.876   1.646  1.00  0.00    -0.390 OA
ATOM     24  H6  UNL     1      -4.327   3.607   1.053  1.00  0.00     0.210 HD
ENDBRANCH  18  23
ENDBRANCH  11  12
ENDBRANCH  10  11
ENDBRANCH   9  10
ENDBRANCH   8   9
ENDBRANCH   1   8
BRANCH   5  25
HETATM   25  O3  UNL     1       2.335  -1.913  -3.497  1.00  0.00    -0.368 OA
ATOM     26  H3  UNL     1       2.886  -1.490  -4.145  1.00  0.00     0.212 HD
ENDBRANCH   5  25
BRANCH   6  27
HETATM   27  C10 UNL     1       3.444  -0.424  -1.691  1.00  0.00     0.204 C 
BRANCH  27  28
HETATM   28  O4  UNL     1       4.011   0.509  -0.852  1.00  0.00    -0.383 OA
BRANCH  28  29
HETATM   29  C11 UNL     1       5.209   0.021  -0.371  1.00  0.00     0.121 C 
HETATM   30  C12 UNL     1       6.337   0.936  -0.813  1.00  0.00     0.032 C 
HETATM   31  C13 UNL     1       7.649   0.373  -0.322  1.00  0.00     0.002 C 
HETATM   32  C14 UNL     1       7.646   0.238   1.194  1.00  0.00     0.000 C 
HETATM   33  C15 UNL     1       6.516  -0.737   1.545  1.00  0.00     0.002 C 
HETATM   34  C16 UNL     1       5.228  -0.055   1.146  1.00  0.00     0.032 C 
ENDBRANCH  28  29
ENDBRANCH  27  28
ENDBRANCH   6  27
TORSDOF 12
