REMARK  11 active torsions:
REMARK  status: ('A' for Active; 'I' for Inactive)
REMARK    1  A    between atoms: O1_2  and  C2_3 
REMARK    2  A    between atoms: C2_3  and  C3_5 
REMARK    3  A    between atoms: C3_5  and  N1_6 
REMARK    4  A    between atoms: C3_5  and  C15_27 
REMARK    5  A    between atoms: N1_6  and  C4_9 
REMARK    6  A    between atoms: C4_9  and  C5_10 
REMARK    7  A    between atoms: C4_9  and  C8_17 
REMARK    8  A    between atoms: C5_10  and  C6_11 
REMARK    9  A    between atoms: N2_13  and  O3_15 
REMARK       I    between atoms: C8_17  and  N3_19 
REMARK   10  A    between atoms: N3_19  and  C9_21 
REMARK   11  A    between atoms: C16_30  and  N5_31 
ROOT
HETATM    1  N1  UNL     1      -1.046   0.548   0.158  1.00  0.00    -0.042 N 
ATOM      2  H11 UNL     1      -0.475   1.077   0.817  1.00  0.00     0.279 HD
ATOM      3  H12 UNL     1      -0.787   1.037  -0.699  1.00  0.00     0.279 HD
ENDROOT
BRANCH   1   4
HETATM    4  C3  UNL     1      -2.438   0.683   0.441  1.00  0.00     0.353 C 
BRANCH   4   5
HETATM    5  C2  UNL     1      -2.745   0.564   1.852  1.00  0.00     0.297 C 
HETATM    6  O2  UNL     1      -1.750   0.353   2.634  1.00  0.00    -0.262 OA
BRANCH   5   7
HETATM    7  O1  UNL     1      -3.985   0.652   2.468  1.00  0.00    -0.325 OA
HETATM    8  C1  UNL     1      -4.059   0.512   3.897  1.00  0.00     0.213 C 
ENDBRANCH   5   7
ENDBRANCH   4   5
BRANCH   4   9
HETATM    9  C15 UNL     1      -2.951   1.915  -0.220  1.00  0.00     0.131 A 
HETATM   10  N4  UNL     1      -3.033   1.986  -1.525  1.00  0.00    -0.323 N 
HETATM   11  C16 UNL     1      -3.472   3.089  -2.087  1.00  0.00     0.160 A 
ATOM     12  H4  UNL     1      -2.758   1.190  -2.101  1.00  0.00     0.169 HD
HETATM   13  S1  UNL     1      -3.793   4.080  -0.737  1.00  0.00     0.024 SA
HETATM   14  N6  UNL     1      -3.340   3.003   0.471  1.00  0.00    -0.311 N 
ATOM     15  H6  UNL     1      -3.356   3.140   1.482  1.00  0.00     0.175 HD
BRANCH  11  16
HETATM   16  N5  UNL     1      -3.622   3.320  -3.374  1.00  0.00    -0.379 N 
ATOM     17  H52 UNL     1      -3.430   2.727  -4.182  1.00  0.00     0.158 HD
ATOM     18  H51 UNL     1      -3.963   4.177  -3.810  1.00  0.00     0.158 HD
ENDBRANCH  11  16
ENDBRANCH   4   9
ENDBRANCH   1   4
BRANCH   1  19
HETATM   19  C4  UNL     1      -0.651  -0.877   0.114  1.00  0.00     0.284 C 
BRANCH  19  20
HETATM   20  C5  UNL     1      -1.201  -1.432  -1.141  1.00  0.00     0.097 C 
BRANCH  20  21
HETATM   21  C6  UNL     1      -1.081  -2.880  -1.389  1.00  0.00     0.008 C 
HETATM   22  C7  UNL     1      -1.990  -3.498  -2.455  1.00  0.00     0.065 C 
HETATM   23  N2  UNL     1      -0.274  -3.633  -0.800  1.00  0.00    -0.278 N 
ATOM     24  H2  UNL     1       0.350  -3.233  -0.099  1.00  0.00     0.193 HD
BRANCH  23  25
HETATM   25  O3  UNL     1      -0.197  -4.993  -1.066  1.00  0.00    -0.290 OA
ATOM     26  H3  UNL     1       0.416  -5.565  -0.619  1.00  0.00     0.244 HD
ENDBRANCH  23  25
ENDBRANCH  20  21
ENDBRANCH  19  20
BRANCH  19  27
HETATM   27  C8  UNL     1       0.819  -0.830   0.298  1.00  0.00     0.253 C 
HETATM   28  O4  UNL     1       1.246  -1.273   1.380  1.00  0.00    -0.271 OA
HETATM   29  N3  UNL     1       1.700  -0.307  -0.652  1.00  0.00    -0.333 N 
ATOM     30  H3  UNL     1       1.239   0.033  -1.496  1.00  0.00     0.168 HD
BRANCH  29  31
HETATM   31  C9  UNL     1       3.096  -0.158  -0.671  1.00  0.00    -0.011 C 
HETATM   32  C10 UNL     1       3.536   1.248  -0.823  1.00  0.00     0.052 C 
HETATM   33  C11 UNL     1       4.121   1.947   0.382  1.00  0.00     0.006 C 
HETATM   34  C12 UNL     1       5.204   1.057   0.951  1.00  0.00     0.001 C 
HETATM   35  C13 UNL     1       4.426  -0.162   1.501  1.00  0.00     0.006 C 
HETATM   36  C14 UNL     1       3.897  -0.929   0.347  1.00  0.00     0.052 C 
ENDBRANCH  29  31
ENDBRANCH  19  27
ENDBRANCH   1  19
TORSDOF 11
