REMARK  15 active torsions:
REMARK  status: ('A' for Active; 'I' for Inactive)
REMARK    1  A    between atoms: C2_2  and  O1_3 
REMARK    2  A    between atoms: O1_3  and  C3_4 
REMARK    3  A    between atoms: C3_4  and  C4_6 
REMARK    4  A    between atoms: C4_6  and  C6_9 
REMARK    5  A    between atoms: C8_12  and  C9_13 
REMARK    6  A    between atoms: C8_12  and  C17_23 
REMARK    7  A    between atoms: C9_13  and  O4_14 
REMARK    8  A    between atoms: O4_14  and  C10_15 
REMARK    9  A    between atoms: C10_15  and  C11_17 
REMARK   10  A    between atoms: C11_17  and  C12_18 
REMARK   11  A    between atoms: C12_18  and  C14_20 
REMARK   12  A    between atoms: C17_23  and  O7_25 
REMARK   13  A    between atoms: O7_25  and  C18_26 
REMARK   14  A    between atoms: C20_29  and  C22_31 
REMARK   15  A    between atoms: C22_31  and  O8_32 
ROOT
HETATM    1  C4  UNL     1       3.757   1.417  -0.071  1.00  0.00     0.205 C 
HETATM    2  C5  UNL     1       4.319   2.170   1.060  1.00  0.00     0.075 C 
HETATM    3  N1  UNL     1       4.783   2.754   1.945  1.00  0.00    -0.196 NA
ENDROOT
BRANCH   1   4
HETATM    4  C3  UNL     1       4.354   0.059  -0.149  1.00  0.00     0.277 C 
HETATM    5  O2  UNL     1       5.185  -0.262   0.737  1.00  0.00    -0.264 OA
BRANCH   4   6
HETATM    6  O1  UNL     1       4.064  -0.875  -1.124  1.00  0.00    -0.321 OA
BRANCH   6   7
HETATM    7  C2  UNL     1       4.701  -2.163  -1.111  1.00  0.00     0.174 C 
HETATM    8  C1  UNL     1       6.213  -1.965  -1.219  1.00  0.00     0.034 C 
ENDBRANCH   6   7
ENDBRANCH   4   6
ENDBRANCH   1   4
BRANCH   1   9
HETATM    9  C6  UNL     1       2.290   1.409  -0.045  1.00  0.00     0.105 C 
HETATM   10  C7  UNL     1       1.644   0.697   1.082  1.00  0.00     0.165 C 
HETATM   11  O3  UNL     1       2.070   0.322   2.137  1.00  0.00    -0.295 OA
HETATM   12  C8  UNL     1       0.183   0.467   0.691  1.00  0.00     0.179 C 
HETATM   13  S1  UNL     1      -0.127   2.015  -0.178  1.00  0.00    -0.126 SA
HETATM   14  C20 UNL     1       1.586   2.713  -0.068  1.00  0.00     0.039 C 
HETATM   15  C21 UNL     1       1.603   3.489   1.223  1.00  0.00     0.030 C 
BRANCH  12  16
HETATM   16  C9  UNL     1      -0.653   0.294   1.895  1.00  0.00     0.218 C 
BRANCH  16  17
HETATM   17  O4  UNL     1      -1.969   0.048   1.684  1.00  0.00    -0.319 OA
BRANCH  17  18
HETATM   18  C10 UNL     1      -3.010   0.733   1.191  1.00  0.00     0.259 C 
HETATM   19  O5  UNL     1      -2.834   1.920   0.805  1.00  0.00    -0.265 OA
BRANCH  18  20
HETATM   20  C11 UNL     1      -4.401   0.145   1.075  1.00  0.00     0.115 C 
BRANCH  20  21
HETATM   21  C12 UNL     1      -4.719  -0.212  -0.340  1.00  0.00    -0.005 C 
HETATM   22  C13 UNL     1      -3.756  -1.235  -0.887  1.00  0.00     0.011 C 
BRANCH  21  23
HETATM   23  C14 UNL     1      -6.150  -0.699  -0.377  1.00  0.00    -0.010 A 
HETATM   24  C15 UNL     1      -7.167   0.306   0.080  1.00  0.00     0.005 A 
HETATM   25  C16 UNL     1      -7.030  -0.084  -1.382  1.00  0.00     0.005 A 
ENDBRANCH  21  23
ENDBRANCH  20  21
ENDBRANCH  18  20
ENDBRANCH  17  18
ENDBRANCH  16  17
ENDBRANCH  12  16
BRANCH  12  26
HETATM   26  C17 UNL     1       0.203  -0.719  -0.197  1.00  0.00     0.287 C 
HETATM   27  O6  UNL     1      -0.157  -0.716  -1.394  1.00  0.00    -0.263 OA
BRANCH  26  28
HETATM   28  O7  UNL     1       0.654  -1.899   0.352  1.00  0.00    -0.320 OA
BRANCH  28  29
HETATM   29  C18 UNL     1       0.745  -3.130  -0.338  1.00  0.00     0.174 C 
HETATM   30  C19 UNL     1       1.282  -4.188   0.625  1.00  0.00     0.034 C 
ENDBRANCH  28  29
ENDBRANCH  26  28
ENDBRANCH  12  26
BRANCH  14  31
HETATM   31  C22 UNL     1       1.773   3.543  -1.281  1.00  0.00     0.185 C 
BRANCH  31  32
HETATM   32  O8  UNL     1       1.322   2.852  -2.391  1.00  0.00    -0.399 OA
ATOM     33  H8  UNL     1       1.442   3.384  -3.169  1.00  0.00     0.209 HD
ENDBRANCH  31  32
ENDBRANCH  14  31
ENDBRANCH   1   9
TORSDOF 15
