REMARK  14 active torsions:
REMARK  status: ('A' for Active; 'I' for Inactive)
REMARK    1  A    between atoms: O1_2  and  C2_3 
REMARK    2  A    between atoms: C2_3  and  C3_4 
REMARK    3  A    between atoms: C9_12  and  C10_13 
REMARK    4  A    between atoms: C10_13  and  S2_14 
REMARK    5  A    between atoms: S2_14  and  C11_15 
REMARK    6  A    between atoms: C11_15  and  C12_17 
REMARK    7  A    between atoms: C12_17  and  C13_18 
REMARK    8  A    between atoms: C13_18  and  C14_19 
REMARK    9  A    between atoms: C14_19  and  C15_20 
REMARK   10  A    between atoms: C15_20  and  O4_21 
REMARK   11  A    between atoms: O4_21  and  C16_22 
REMARK   12  A    between atoms: C16_22  and  C17_23 
REMARK   13  A    between atoms: C17_23  and  N1_24 
REMARK   14  A    between atoms: C20_33  and  O5_34 
ROOT
HETATM    1  C16 UNL     1       7.596   0.699   0.175  1.00  0.00     0.152 C 
HETATM    2  N2  UNL     1       7.458   0.634   1.406  1.00  0.00    -0.276 N 
ATOM      3  H2  UNL     1       7.663   1.530   1.849  1.00  0.00     0.180 HD
HETATM    4  C18 UNL     1       7.114  -0.289   2.313  1.00  0.00     0.183 C 
HETATM    5  N3  UNL     1       6.826  -1.068   3.120  1.00  0.00    -0.172 NA
ENDROOT
BRANCH   1   6
HETATM    6  O4  UNL     1       7.375  -0.375  -0.655  1.00  0.00    -0.337 OA
BRANCH   6   7
HETATM    7  C15 UNL     1       6.306  -1.254  -0.509  1.00  0.00     0.177 C 
BRANCH   7   8
HETATM    8  C14 UNL     1       4.967  -0.502  -0.631  1.00  0.00     0.027 C 
BRANCH   8   9
HETATM    9  C13 UNL     1       3.905  -1.537  -0.451  1.00  0.00     0.010 C 
BRANCH   9  10
HETATM   10  C12 UNL     1       2.493  -1.025  -0.529  1.00  0.00     0.091 C 
BRANCH  10  11
HETATM   11  C11 UNL     1       2.118  -0.419  -1.807  1.00  0.00     0.186 C 
HETATM   12  O3  UNL     1       2.879  -0.477  -2.760  1.00  0.00    -0.286 OA
BRANCH  11  13
HETATM   13  S2  UNL     1       0.583   0.418  -2.051  1.00  0.00    -0.089 SA
BRANCH  13  14
HETATM   14  C10 UNL     1      -0.489   0.480  -0.637  1.00  0.00     0.109 C 
BRANCH  14  15
HETATM   15  C9  UNL     1      -1.064  -0.828  -0.265  1.00  0.00    -0.011 C 
HETATM   16  C8  UNL     1      -2.396  -1.055  -0.257  1.00  0.00    -0.055 C 
HETATM   17  C5  UNL     1      -2.942  -2.376   0.122  1.00  0.00     0.027 C 
HETATM   18  C19 UNL     1      -3.364  -0.057  -0.612  1.00  0.00     0.086 C 
HETATM   19  S1  UNL     1      -4.685  -2.246  -0.264  1.00  0.00    -0.123 SA
HETATM   20  C6  UNL     1      -2.313  -3.404  -0.821  1.00  0.00     0.031 C 
HETATM   21  C7  UNL     1      -2.654  -2.789   1.521  1.00  0.00     0.031 C 
HETATM   22  C4  UNL     1      -4.645  -0.619  -1.116  1.00  0.00     0.195 C 
HETATM   23  O2  UNL     1      -5.690   0.124  -0.574  1.00  0.00    -0.365 OA
HETATM   24  C3  UNL     1      -5.149   1.338  -0.165  1.00  0.00     0.176 C 
HETATM   25  C20 UNL     1      -3.835   0.861   0.493  1.00  0.00     0.163 C 
BRANCH  24  26
HETATM   26  C2  UNL     1      -6.002   2.064   0.813  1.00  0.00     0.201 C 
BRANCH  26  27
HETATM   27  O1  UNL     1      -7.244   2.318   0.256  1.00  0.00    -0.393 OA
HETATM   28  C1  UNL     1      -7.191   3.096  -0.894  1.00  0.00     0.201 C 
ENDBRANCH  26  27
ENDBRANCH  24  26
BRANCH  25  29
HETATM   29  O5  UNL     1      -4.208   0.209   1.645  1.00  0.00    -0.387 OA
HETATM   30  C21 UNL     1      -3.658   0.785   2.790  1.00  0.00     0.202 C 
ENDBRANCH  25  29
ENDBRANCH  14  15
ENDBRANCH  13  14
ENDBRANCH  11  13
ENDBRANCH  10  11
ENDBRANCH   9  10
ENDBRANCH   8   9
ENDBRANCH   7   8
ENDBRANCH   6   7
ENDBRANCH   1   6
BRANCH   1  31
HETATM   31  C17 UNL     1       8.029   2.036  -0.411  1.00  0.00     0.314 C 
BRANCH  31  32
HETATM   32  N1  UNL     1       8.243   2.962   0.678  1.00  0.00    -0.072 N 
ATOM     33  H13 UNL     1       7.429   3.046   1.288  1.00  0.00     0.274 HD
ATOM     34  H12 UNL     1       8.900   2.606   1.372  1.00  0.00     0.274 HD
ATOM     35  H11 UNL     1       8.533   3.858   0.285  1.00  0.00     0.274 HD
ENDBRANCH  31  32
ENDBRANCH   1  31
TORSDOF 14
