REMARK  7 active torsions:
REMARK  status: ('A' for Active; 'I' for Inactive)
REMARK    1  A    between atoms: C3_4  and  C4_5 
REMARK    2  A    between atoms: N1_8  and  C7_9 
REMARK    3  A    between atoms: N2_12  and  C10_13 
REMARK    4  A    between atoms: C10_13  and  C11_14 
REMARK    5  A    between atoms: C12_17  and  N4_18 
REMARK    6  A    between atoms: N4_18  and  C13_20 
REMARK    7  A    between atoms: C13_20  and  C14_21 
ROOT
HETATM    1  C7  UNL     1       2.732   1.435   0.246  1.00  0.00     0.226 C 
HETATM    2  C8  UNL     1       1.692   0.446   0.600  1.00  0.00     0.055 C 
HETATM    3  C9  UNL     1       0.373   0.645  -0.194  1.00  0.00     0.124 C 
HETATM    4  N2  UNL     1       0.018   1.979  -0.243  1.00  0.00    -0.388 N 
HETATM    5  C22 UNL     1       1.022   2.959  -0.524  1.00  0.00     0.124 C 
HETATM    6  C23 UNL     1       2.323   2.241  -0.955  1.00  0.00     0.055 C 
ENDROOT
BRANCH   4   7
HETATM    7  C10 UNL     1      -1.289   2.371  -0.533  1.00  0.00     0.117 C 
BRANCH   7   8
HETATM    8  C11 UNL     1      -2.266   1.438   0.101  1.00  0.00     0.087 A 
HETATM    9  N3  UNL     1      -2.874   0.407  -0.575  1.00  0.00    -0.189 N 
HETATM   10  C12 UNL     1      -3.874  -0.279   0.010  1.00  0.00     0.678 A 
ATOM     11  H3  UNL     1      -2.569   0.162  -1.517  1.00  0.00     0.184 HD
HETATM   12  N5  UNL     1      -4.213   0.086   1.248  1.00  0.00    -0.200 N 
HETATM   13  C20 UNL     1      -3.660   1.083   1.961  1.00  0.00     0.132 A 
ATOM     14  H5  UNL     1      -4.963  -0.441   1.696  1.00  0.00     0.183 HD
HETATM   15  C21 UNL     1      -2.660   1.781   1.370  1.00  0.00     0.078 A 
HETATM   16 CL1  UNL     1      -1.846   3.062   2.261  1.00  0.00    -0.080 Cl
BRANCH  10  17
HETATM   17  N4  UNL     1      -4.564  -1.140  -0.666  1.00  0.00    -0.226 N 
ATOM     18  H4  UNL     1      -4.306  -1.255  -1.646  1.00  0.00     0.177 HD
BRANCH  17  19
HETATM   19  C13 UNL     1      -5.635  -1.940  -0.202  1.00  0.00     0.142 C 
BRANCH  19  20
HETATM   20  C14 UNL     1      -7.005  -1.413  -0.519  1.00  0.00     0.004 C 
HETATM   21  C15 UNL     1      -8.013  -2.424   0.074  1.00  0.00     0.006 C 
HETATM   22  C16 UNL     1      -9.397  -1.985  -0.156  1.00  0.00     0.000 C 
HETATM   23  C17 UNL     1      -9.620  -0.574  -0.552  1.00  0.00     0.000 C 
HETATM   24  C18 UNL     1      -8.699   0.368   0.149  1.00  0.00     0.000 C 
HETATM   25  C19 UNL     1      -7.284  -0.120   0.171  1.00  0.00     0.006 C 
ENDBRANCH  19  20
ENDBRANCH  17  19
ENDBRANCH  10  17
ENDBRANCH   7   8
ENDBRANCH   4   7
BRANCH   1  26
HETATM   26  N1  UNL     1       3.987   0.774   0.053  1.00  0.00     0.093 N 
HETATM   27  C6  UNL     1       5.131   1.528   0.533  1.00  0.00     0.273 C 
HETATM   28  C5  UNL     1       6.215   0.539   0.748  1.00  0.00     0.039 C 
HETATM   29  C4  UNL     1       6.576  -0.060  -0.652  1.00  0.00     0.022 C 
HETATM   30  C25 UNL     1       5.374  -0.707  -1.188  1.00  0.00     0.039 C 
HETATM   31  C24 UNL     1       4.190   0.269  -1.271  1.00  0.00     0.273 C 
BRANCH  29  32
HETATM   32  C3  UNL     1       7.680  -1.021  -0.380  1.00  0.00    -0.047 A 
HETATM   33  C2  UNL     1       8.966  -0.462  -0.339  1.00  0.00     0.081 A 
HETATM   34  C1  UNL     1      10.057  -1.268  -0.018  1.00  0.00     0.245 A 
HETATM   35  O1  UNL     1      11.217  -0.801   0.028  1.00  0.00    -0.268 OA
HETATM   36  N6  UNL     1       9.873  -2.569   0.251  1.00  0.00    -0.334 N 
HETATM   37  C27 UNL     1       8.633  -3.121   0.215  1.00  0.00     0.092 A 
ATOM     38  H6  UNL     1      10.676  -3.152   0.486  1.00  0.00     0.168 HD
HETATM   39  C26 UNL     1       7.547  -2.338  -0.102  1.00  0.00     0.025 A 
ENDBRANCH  29  32
ENDBRANCH   1  26
TORSDOF 7
