REMARK  7 active torsions:
REMARK  status: ('A' for Active; 'I' for Inactive)
REMARK    1  A    between atoms: C2_2  and  C3_3 
REMARK    2  A    between atoms: C3_3  and  N2_7 
REMARK    3  A    between atoms: N2_7  and  C4_9 
REMARK    4  A    between atoms: N3_13  and  S1_14 
REMARK    5  A    between atoms: S1_14  and  C8_17 
REMARK    6  A    between atoms: C11_20  and  N4_21 
REMARK    7  A    between atoms: C14_24  and  N5_25 
ROOT
HETATM    1  C8  UNL     1      -1.599   1.478  -0.158  1.00  0.00     0.074 A 
HETATM    2  C9  UNL     1      -0.764   1.795  -1.207  1.00  0.00     0.027 A 
HETATM    3  C10 UNL     1       0.544   1.321  -1.186  1.00  0.00     0.031 A 
HETATM    4  C11 UNL     1       1.054   0.548  -0.172  1.00  0.00     0.030 A 
HETATM    5  C22 UNL     1       0.158   0.261   0.863  1.00  0.00     0.031 A 
HETATM    6  C23 UNL     1      -1.142   0.707   0.885  1.00  0.00     0.027 A 
ENDROOT
BRANCH   1   7
HETATM    7  S1  UNL     1      -3.237   2.060  -0.150  1.00  0.00     0.245 S 
HETATM    8  O1  UNL     1      -3.725   2.348   1.234  1.00  0.00    -0.206 OA
HETATM    9  O2  UNL     1      -3.230   3.397  -0.878  1.00  0.00    -0.206 OA
BRANCH   7  10
HETATM   10  N3  UNL     1      -4.345   1.058  -0.956  1.00  0.00    -0.186 NA
HETATM   11  C7  UNL     1      -4.056   0.892  -2.363  1.00  0.00     0.109 C 
HETATM   12  C6  UNL     1      -5.380   0.639  -3.056  1.00  0.00     0.018 C 
HETATM   13  C5  UNL     1      -6.402   0.141  -2.074  1.00  0.00     0.029 C 
HETATM   14  C4  UNL     1      -5.790  -0.813  -1.068  1.00  0.00     0.116 C 
HETATM   15  C24 UNL     1      -4.575  -0.223  -0.371  1.00  0.00     0.193 C 
HETATM   16 CL1  UNL     1      -3.209  -1.348  -0.700  1.00  0.00    -0.105 Cl
BRANCH  14  17
HETATM   17  N2  UNL     1      -6.760  -1.167  -0.074  1.00  0.00    -0.373 N 
ATOM     18  H2  UNL     1      -6.979  -2.156   0.045  1.00  0.00     0.161 HD
BRANCH  17  19
HETATM   19  C3  UNL     1      -7.438  -0.234   0.758  1.00  0.00     0.070 C 
HETATM   20  N1  UNL     1      -6.966   0.937   1.016  1.00  0.00    -0.389 N 
ATOM     21  H12 UNL     1      -7.452   1.606   1.613  1.00  0.00     0.157 HD
ATOM     22  H11 UNL     1      -6.069   1.190   0.601  1.00  0.00     0.157 HD
BRANCH  19  23
HETATM   23  C2  UNL     1      -8.742  -0.602   1.361  1.00  0.00     0.071 C 
HETATM   24  C1  UNL     1      -8.517  -1.832   2.230  1.00  0.00     0.013 C 
ENDBRANCH  19  23
ENDBRANCH  17  19
ENDBRANCH  14  17
ENDBRANCH   7  10
ENDBRANCH   1   7
BRANCH   4  25
HETATM   25  N4  UNL     1       2.385   0.046  -0.141  1.00  0.00    -0.381 N 
HETATM   26  C12 UNL     1       3.233   0.085  -1.294  1.00  0.00     0.125 C 
HETATM   27  C13 UNL     1       4.584   0.638  -0.813  1.00  0.00     0.045 C 
HETATM   28  C14 UNL     1       5.125  -0.442   0.110  1.00  0.00     0.086 C 
HETATM   29  C20 UNL     1       4.283  -0.647   1.309  1.00  0.00     0.045 C 
HETATM   30  C21 UNL     1       2.825  -0.502   1.126  1.00  0.00     0.125 C 
BRANCH  28  31
HETATM   31  N5  UNL     1       6.455  -0.100   0.459  1.00  0.00    -0.389 N 
HETATM   32  C15 UNL     1       7.375  -0.033  -0.609  1.00  0.00     0.122 C 
HETATM   33  C16 UNL     1       8.810  -0.141  -0.289  1.00  0.00     0.020 C 
HETATM   34  C17 UNL     1       9.006  -1.139   0.834  1.00  0.00     0.007 C 
HETATM   35  C18 UNL     1       8.324  -0.482   2.042  1.00  0.00     0.044 C 
HETATM   36  C19 UNL     1       6.869  -0.235   1.768  1.00  0.00     0.058 C 
ENDBRANCH  28  31
ENDBRANCH   4  25
TORSDOF 7
