REMARK  7 active torsions:
REMARK  status: ('A' for Active; 'I' for Inactive)
REMARK    1  A    between atoms: C2_2  and  N2_6 
REMARK    2  A    between atoms: N3_11  and  C6_12 
REMARK    3  A    between atoms: C6_12  and  C7_13 
REMARK       I    between atoms: C7_13  and  N4_15 
REMARK    4  A    between atoms: N4_15  and  C8_17 
REMARK    5  A    between atoms: C8_17  and  C9_18 
REMARK    6  A    between atoms: C16_26  and  C17_27 
REMARK    7  A    between atoms: C18_28  and  C19_29 
ROOT
HETATM    1  C9  UNL     1       0.752  -0.125  -0.176  1.00  0.00    -0.005 C 
HETATM    2  C10 UNL     1       1.103  -1.431  -0.818  1.00  0.00     0.021 C 
HETATM    3  C11 UNL     1       0.334   0.777  -1.336  1.00  0.00     0.015 C 
HETATM    4  C12 UNL     1       0.601   2.200  -0.907  1.00  0.00     0.004 C 
HETATM    5  C13 UNL     1       2.129   2.297  -1.062  1.00  0.00     0.038 C 
HETATM    6  C14 UNL     1       2.791   1.414  -0.013  1.00  0.00     0.064 C 
HETATM    7  C15 UNL     1       3.316   2.388   1.055  1.00  0.00     0.046 C 
HETATM    8  O2  UNL     1       3.904   0.866  -0.618  1.00  0.00    -0.363 OA
HETATM    9  C16 UNL     1       4.779   0.267   0.279  1.00  0.00     0.214 C 
HETATM   10  C23 UNL     1       4.057  -0.202   1.487  1.00  0.00     0.159 C 
HETATM   11  O3  UNL     1       4.535  -0.205   2.593  1.00  0.00    -0.295 OA
HETATM   12  C24 UNL     1       2.658  -0.688   1.260  1.00  0.00     0.090 C 
HETATM   13  C25 UNL     1       1.887   0.450   0.627  1.00  0.00     0.040 C 
ENDROOT
BRANCH   1  14
HETATM   14  C8  UNL     1      -0.453  -0.241   0.694  1.00  0.00     0.073 C 
BRANCH  14  15
HETATM   15  N4  UNL     1      -1.706  -0.602   0.223  1.00  0.00    -0.339 N 
HETATM   16  C7  UNL     1      -2.203  -1.775  -0.308  1.00  0.00     0.249 C 
HETATM   17  O1  UNL     1      -1.596  -2.874  -0.501  1.00  0.00    -0.271 OA
ATOM     18  H4  UNL     1      -2.396   0.147   0.280  1.00  0.00     0.167 HD
BRANCH  16  19
HETATM   19  C6  UNL     1      -3.660  -1.868  -0.758  1.00  0.00     0.378 C 
BRANCH  19  20
HETATM   20  N3  UNL     1      -4.380  -0.640  -0.451  1.00  0.00     0.132 N 
HETATM   21  C5  UNL     1      -5.649  -0.634  -1.170  1.00  0.00     0.407 C 
HETATM   22  C4  UNL     1      -6.665  -1.595  -0.687  1.00  0.00     0.089 C 
HETATM   23  F1  UNL     1      -5.394  -0.852  -2.523  1.00  0.00    -0.216 F 
HETATM   24  C3  UNL     1      -7.517  -0.987   0.420  1.00  0.00     0.129 C 
HETATM   25  N2  UNL     1      -6.934   0.230   0.926  1.00  0.00    -0.370 N 
HETATM   26  C27 UNL     1      -5.576   0.374   1.444  1.00  0.00     0.154 C 
HETATM   27  C26 UNL     1      -4.740  -0.774   0.972  1.00  0.00     0.296 C 
BRANCH  25  28
HETATM   28  C2  UNL     1      -7.702   1.408   0.945  1.00  0.00     0.068 C 
HETATM   29  C1  UNL     1      -9.140   1.332   1.349  1.00  0.00     0.088 C 
HETATM   30  N1  UNL     1      -7.265   2.567   0.637  1.00  0.00    -0.389 N 
ATOM     31  H12 UNL     1      -7.822   3.421   0.651  1.00  0.00     0.157 HD
ATOM     32  H11 UNL     1      -6.284   2.619   0.361  1.00  0.00     0.157 HD
ENDBRANCH  25  28
ENDBRANCH  19  20
ENDBRANCH  16  19
ENDBRANCH  14  15
ENDBRANCH   1  14
BRANCH   9  33
HETATM   33  C17 UNL     1       5.298  -0.967  -0.414  1.00  0.00     0.009 C 
HETATM   34  C18 UNL     1       6.469  -0.988  -1.017  1.00  0.00    -0.023 C 
BRANCH  34  35
HETATM   35  C19 UNL     1       7.379   0.188  -1.070  1.00  0.00     0.012 A 
HETATM   36  C20 UNL     1       8.594   0.072  -1.929  1.00  0.00     0.013 A 
HETATM   37  C21 UNL     1       8.717  -0.003  -0.455  1.00  0.00    -0.010 A 
HETATM   38  C22 UNL     1       9.028  -1.305   0.231  1.00  0.00     0.010 C 
ENDBRANCH  34  35
ENDBRANCH   9  33
TORSDOF 7
