REMARK  11 active torsions:
REMARK  status: ('A' for Active; 'I' for Inactive)
REMARK    1  A    between atoms: C2_2  and  N1_3 
REMARK    2  A    between atoms: C2_2  and  C3_7 
REMARK    3  A    between atoms: C3_7  and  O1_8 
REMARK    4  A    between atoms: C3_7  and  N2_10 
REMARK    5  A    between atoms: N2_10  and  C4_12 
REMARK    6  A    between atoms: C5_17  and  N5_18 
REMARK    7  A    between atoms: C7_22  and  N6_23 
REMARK       I    between atoms: N6_23  and  C8_25 
REMARK    8  A    between atoms: C8_25  and  C9_27 
REMARK    9  A    between atoms: N9_32  and  C10_33 
REMARK   10  A    between atoms: C12_38  and  N12_39 
REMARK   11  A    between atoms: C13_44  and  N14_45 
ROOT
HETATM    1  N6  UNL     1      -0.907   0.714   0.275  1.00  0.00    -0.317 N 
ATOM      2  H6  UNL     1      -0.993  -0.228  -0.106  1.00  0.00     0.169 HD
HETATM    3  C8  UNL     1       0.409   1.195   0.366  1.00  0.00     0.293 C 
HETATM    4  O4  UNL     1       0.709   2.315   0.806  1.00  0.00    -0.264 OA
ENDROOT
BRANCH   3   5
HETATM    5  C9  UNL     1       1.537   0.335  -0.084  1.00  0.00     0.207 A 
HETATM    6  N7  UNL     1       1.376  -0.896  -0.581  1.00  0.00    -0.264 N 
HETATM    7  N8  UNL     1       2.594  -1.354  -0.872  1.00  0.00    -0.219 N 
ATOM      8  H7  UNL     1       0.493  -1.389  -0.712  1.00  0.00     0.190 HD
HETATM    9  N9  UNL     1       3.502  -0.453  -0.573  1.00  0.00    -0.173 N 
ATOM     10  H8  UNL     1       2.792  -2.272  -1.270  1.00  0.00     0.210 HD
HETATM   11  N15 UNL     1       2.835   0.594  -0.083  1.00  0.00    -0.257 N 
ATOM     12  H15 UNL     1       3.261   1.462   0.243  1.00  0.00     0.191 HD
BRANCH   9  13
HETATM   13  C10 UNL     1       4.902  -0.601  -0.750  1.00  0.00     0.162 A 
HETATM   14  C11 UNL     1       5.649  -1.193   0.249  1.00  0.00     0.166 A 
HETATM   15  N10 UNL     1       4.979  -1.629   1.414  1.00  0.00    -0.079 NA
HETATM   16  N11 UNL     1       6.986  -1.344   0.099  1.00  0.00    -0.177 N 
HETATM   17  C12 UNL     1       7.635  -0.933  -1.005  1.00  0.00     0.678 A 
ATOM     18  H11 UNL     1       7.519  -1.784   0.849  1.00  0.00     0.185 HD
HETATM   19  N13 UNL     1       6.907  -0.356  -1.977  1.00  0.00    -0.175 N 
HETATM   20  C13 UNL     1       5.574  -0.182  -1.879  1.00  0.00     0.148 A 
ATOM     21  H13 UNL     1       7.382  -0.037  -2.822  1.00  0.00     0.186 HD
BRANCH  17  22
HETATM   22  N12 UNL     1       8.922  -1.083  -1.138  1.00  0.00    -0.234 N 
ATOM     23 2H12 UNL     1       9.474  -1.521  -0.401  1.00  0.00     0.174 HD
ATOM     24 1H12 UNL     1       9.414  -0.771  -1.975  1.00  0.00     0.174 HD
ENDBRANCH  17  22
BRANCH  20  25
HETATM   25  N14 UNL     1       4.936   0.368  -2.827  1.00  0.00    -0.383 N 
ATOM     26 2H14 UNL     1       3.927   0.500  -2.753  1.00  0.00     0.157 HD
ATOM     27 1H14 UNL     1       5.433   0.678  -3.662  1.00  0.00     0.157 HD
ENDBRANCH  20  25
ENDBRANCH   9  13
ENDBRANCH   3   5
BRANCH   1  28
HETATM   28  C7  UNL     1      -2.116   1.318   0.622  1.00  0.00     0.085 A 
HETATM   29  C4  UNL     1      -3.339   0.601   0.570  1.00  0.00     0.149 A 
HETATM   30  N3  UNL     1      -4.476   1.258   0.876  1.00  0.00    -0.282 N 
HETATM   31  N4  UNL     1      -4.487   2.521   1.216  1.00  0.00    -0.279 N 
ATOM     32  H3  UNL     1      -5.361   0.751   0.841  1.00  0.00     0.188 HD
HETATM   33  C5  UNL     1      -3.381   3.258   1.288  1.00  0.00     0.190 A 
ATOM     34  H4  UNL     1      -5.381   2.960   1.435  1.00  0.00     0.189 HD
HETATM   35  C6  UNL     1      -2.172   2.644   0.984  1.00  0.00     0.089 A 
BRANCH  29  36
HETATM   36  N2  UNL     1      -3.354  -0.777   0.272  1.00  0.00    -0.322 N 
ATOM     37  H2  UNL     1      -2.448  -1.228   0.148  1.00  0.00     0.169 HD
BRANCH  36  38
HETATM   38  C3  UNL     1      -4.480  -1.585   0.130  1.00  0.00     0.147 C 
BRANCH  38  39
HETATM   39  C2  UNL     1      -5.881  -1.164   0.168  1.00  0.00     0.253 C 
HETATM   40  C1  UNL     1      -6.777  -2.394   0.100  1.00  0.00     0.049 C 
BRANCH  39  41
HETATM   41  N1  UNL     1      -6.137  -0.299  -0.988  1.00  0.00    -0.068 N 
ATOM     42  H13 UNL     1      -6.036  -0.799  -1.871  1.00  0.00     0.275 HD
ATOM     43  H12 UNL     1      -7.123  -0.051  -1.071  1.00  0.00     0.275 HD
ATOM     44  H11 UNL     1      -5.537   0.525  -0.942  1.00  0.00     0.275 HD
ENDBRANCH  39  41
ENDBRANCH  38  39
BRANCH  38  45
HETATM   45  O1  UNL     1      -4.229  -2.848  -0.055  1.00  0.00    -0.348 OA
ATOM     46  H1  UNL     1      -3.319  -3.121  -0.080  1.00  0.00     0.219 HD
ENDBRANCH  38  45
ENDBRANCH  36  38
ENDBRANCH  29  36
BRANCH  33  47
HETATM   47  N5  UNL     1      -3.426   4.635   1.663  1.00  0.00    -0.097 N 
HETATM   48  O2  UNL     1      -2.370   5.294   1.719  1.00  0.00    -0.530 OA
HETATM   49  O3  UNL     1      -4.600   5.269   1.967  1.00  0.00    -0.530 OA
ENDBRANCH  33  47
ENDBRANCH   1  28
TORSDOF 11
