REMARK  11 active torsions:
REMARK  status: ('A' for Active; 'I' for Inactive)
REMARK    1  A    between atoms: N3_7  and  C3_8 
REMARK    2  A    between atoms: C4_11  and  N5_12 
REMARK    3  A    between atoms: C5_17  and  N7_18 
REMARK    4  A    between atoms: C6_21  and  N8_22 
REMARK    5  A    between atoms: N8_22  and  C7_24 
REMARK    6  A    between atoms: C7_24  and  C8_30 
REMARK    7  A    between atoms: N9_25  and  N10_27 
REMARK    8  A    between atoms: C10_35  and  N12_36 
REMARK    9  A    between atoms: C11_39  and  C12_40 
REMARK   10  A    between atoms: C12_40  and  O4_41 
REMARK   11  A    between atoms: C12_40  and  O5_43 
ROOT
HETATM    1  N8  UNL     1       1.002  -0.076  -0.580  1.00  0.00    -0.332 N 
ATOM      2  H8  UNL     1       1.538  -0.845  -0.178  1.00  0.00     0.168 HD
ENDROOT
BRANCH   1   3
HETATM    3  C6  UNL     1       1.325   1.198  -0.117  1.00  0.00     0.127 A 
HETATM    4  C3  UNL     1       2.327   1.311   0.841  1.00  0.00     0.192 A 
HETATM    5  N4  UNL     1       2.646   2.532   1.292  1.00  0.00    -0.171 N 
HETATM    6  C4  UNL     1       2.059   3.669   0.880  1.00  0.00     0.679 A 
ATOM      7  H4  UNL     1       3.383   2.603   1.994  1.00  0.00     0.186 HD
HETATM    8  N6  UNL     1       1.091   3.560  -0.046  1.00  0.00    -0.175 N 
HETATM    9  C5  UNL     1       0.726   2.354  -0.540  1.00  0.00     0.145 A 
ATOM     10  H6  UNL     1       0.623   4.401  -0.383  1.00  0.00     0.186 HD
BRANCH   4  11
HETATM   11  N3  UNL     1       2.997   0.127   1.330  1.00  0.00    -0.161 N 
HETATM   12  N2  UNL     1       2.802  -0.518   2.441  1.00  0.00    -0.218 N 
HETATM   13  N1  UNL     1       3.629  -1.547   2.487  1.00  0.00    -0.272 N 
ATOM     14  H2  UNL     1       2.122  -0.270   3.160  1.00  0.00     0.210 HD
HETATM   15  C2  UNL     1       4.353  -1.526   1.358  1.00  0.00     0.109 A 
ATOM     16  H1  UNL     1       3.703  -2.230   3.241  1.00  0.00     0.190 HD
HETATM   17  C1  UNL     1       5.426  -2.520   0.981  1.00  0.00     0.092 C 
HETATM   18  N13 UNL     1       3.944  -0.472   0.647  1.00  0.00    -0.264 N 
ATOM     19  H13 UNL     1       4.303  -0.184  -0.263  1.00  0.00     0.190 HD
ENDBRANCH   4  11
BRANCH   6  20
HETATM   20  N5  UNL     1       2.430   4.818   1.373  1.00  0.00    -0.234 N 
ATOM     21  H52 UNL     1       3.165   4.901   2.076  1.00  0.00     0.174 HD
ATOM     22  H51 UNL     1       1.985   5.681   1.060  1.00  0.00     0.174 HD
ENDBRANCH   6  20
BRANCH   9  23
HETATM   23  N7  UNL     1      -0.206   2.335  -1.419  1.00  0.00    -0.383 N 
ATOM     24  H72 UNL     1      -0.652   3.196  -1.734  1.00  0.00     0.157 HD
ATOM     25  H71 UNL     1      -0.481   1.426  -1.791  1.00  0.00     0.157 HD
ENDBRANCH   9  23
ENDBRANCH   1   3
BRANCH   1  26
HETATM   26  C7  UNL     1       0.024  -0.438  -1.538  1.00  0.00     0.172 C 
HETATM   27  N9  UNL     1       0.334  -0.383  -2.774  1.00  0.00    -0.288 N 
ATOM     28  H9  UNL     1       1.272  -0.083  -3.040  1.00  0.00     0.188 HD
BRANCH  27  29
HETATM   29  N10 UNL     1      -0.578  -0.723  -3.766  1.00  0.00    -0.344 N 
ATOM     30 2H10 UNL     1      -1.511  -1.021  -3.482  1.00  0.00     0.176 HD
ATOM     31 1H10 UNL     1      -0.330  -0.679  -4.754  1.00  0.00     0.176 HD
ENDBRANCH  27  29
BRANCH  26  32
HETATM   32  C8  UNL     1      -1.328  -0.892  -1.182  1.00  0.00     0.197 A 
HETATM   33  N11 UNL     1      -1.974  -1.809  -1.919  1.00  0.00    -0.298 N 
HETATM   34  C9  UNL     1      -3.195  -2.276  -1.666  1.00  0.00     0.283 A 
ATOM     35  H11 UNL     1      -1.491  -2.178  -2.738  1.00  0.00     0.171 HD
HETATM   36  O1  UNL     1      -3.798  -3.134  -2.358  1.00  0.00    -0.265 OA
HETATM   37  C10 UNL     1      -3.855  -1.761  -0.532  1.00  0.00     0.205 A 
HETATM   38  C11 UNL     1      -3.188  -0.825   0.214  1.00  0.00     0.148 A 
HETATM   39  O6  UNL     1      -1.960  -0.434  -0.141  1.00  0.00    -0.287 OA
BRANCH  37  40
HETATM   40  N12 UNL     1      -5.152  -2.234  -0.211  1.00  0.00    -0.107 N 
HETATM   41  O2  UNL     1      -6.175  -1.787  -0.788  1.00  0.00    -0.531 OA
HETATM   42  O3  UNL     1      -5.369  -3.194   0.738  1.00  0.00    -0.531 OA
ENDBRANCH  37  40
BRANCH  38  43
HETATM   43  C12 UNL     1      -3.813  -0.228   1.425  1.00  0.00     0.315 C 
BRANCH  43  44
HETATM   44  O4  UNL     1      -4.405  -1.132   2.280  1.00  0.00    -0.365 OA
ATOM     45  H4  UNL     1      -4.804  -0.751   3.053  1.00  0.00     0.213 HD
ENDBRANCH  43  44
BRANCH  43  46
HETATM   46  O5  UNL     1      -2.798   0.429   2.140  1.00  0.00    -0.365 OA
ATOM     47  H5  UNL     1      -3.197   0.810   2.913  1.00  0.00     0.213 HD
ENDBRANCH  43  46
ENDBRANCH  38  43
ENDBRANCH  26  32
ENDBRANCH   1  26
TORSDOF 11
