REMARK  9 active torsions:
REMARK  status: ('A' for Active; 'I' for Inactive)
REMARK    1  A    between atoms: N1_2  and  C2_3 
REMARK    2  A    between atoms: N1_2  and  C11_36 
REMARK    3  A    between atoms: C3_6  and  N3_7 
REMARK    4  A    between atoms: N4_9  and  N5_11 
REMARK       I    between atoms: N5_11  and  C4_13 
REMARK       I    between atoms: C4_13  and  N7_17 
REMARK    5  A    between atoms: N7_17  and  N8_19 
REMARK       I    between atoms: N8_19  and  C5_21 
REMARK    6  A    between atoms: C7_27  and  C8_28 
REMARK    7  A    between atoms: C8_28  and  O2_29 
REMARK    8  A    between atoms: N16_43  and  C12_44 
REMARK    9  A    between atoms: C12_44  and  N17_45 
ROOT
HETATM    1  C2  UNL     1      -1.327   0.281   0.780  1.00  0.00     0.169 A 
HETATM    2  N2  UNL     1      -0.069   0.232   1.240  1.00  0.00    -0.172 N 
ATOM      3  H2  UNL     1       0.323   1.052   1.703  1.00  0.00     0.186 HD
HETATM    4  C3  UNL     1       0.697  -0.882   1.106  1.00  0.00     0.700 A 
HETATM    5  N10 UNL     1       0.180  -1.962   0.496  1.00  0.00    -0.186 N 
ATOM      6  H10 UNL     1       0.763  -2.793   0.400  1.00  0.00     0.184 HD
HETATM    7  C6  UNL     1      -1.079  -1.995   0.004  1.00  0.00     0.107 A 
HETATM    8  C7  UNL     1      -1.836  -2.945  -0.647  1.00  0.00     0.081 A 
HETATM    9  N11 UNL     1      -3.024  -2.369  -0.878  1.00  0.00    -0.296 N 
HETATM   10  C9  UNL     1      -4.169  -2.946  -1.535  1.00  0.00     0.177 C 
HETATM   11  N12 UNL     1      -3.007  -1.116  -0.393  1.00  0.00    -0.293 N 
ATOM     12  H12 UNL     1      -3.792  -0.467  -0.443  1.00  0.00     0.187 HD
HETATM   13  C10 UNL     1      -1.835  -0.836   0.159  1.00  0.00     0.123 A 
ENDROOT
BRANCH   4  14
HETATM   14  N3  UNL     1       2.031  -0.968   1.584  1.00  0.00    -0.117 N 
HETATM   15  N4  UNL     1       3.064  -0.870   0.889  1.00  0.00    -0.214 N 
ATOM     16  H4  UNL     1       3.963  -0.951   1.364  1.00  0.00     0.209 HD
ATOM     17  H3  UNL     1       2.157  -1.124   2.584  1.00  0.00     0.207 HD
BRANCH  15  18
HETATM   18  N5  UNL     1       3.079  -0.659  -0.481  1.00  0.00    -0.116 N 
HETATM   19  C4  UNL     1       4.194  -1.070  -1.244  1.00  0.00     0.706 C 
HETATM   20  N6  UNL     1       4.087  -1.301  -2.481  1.00  0.00    -0.232 N 
HETATM   21  N7  UNL     1       5.469  -1.227  -0.612  1.00  0.00    -0.128 N 
ATOM     22  H62 UNL     1       3.179  -1.189  -2.931  1.00  0.00     0.174 HD
ATOM     23  H61 UNL     1       4.892  -1.598  -3.032  1.00  0.00     0.174 HD
ATOM     24  H7  UNL     1       6.001  -2.088  -0.737  1.00  0.00     0.205 HD
ATOM     25  H5  UNL     1       2.286  -0.208  -0.937  1.00  0.00     0.207 HD
BRANCH  21  26
HETATM   26  N8  UNL     1       5.978  -0.195   0.175  1.00  0.00    -0.240 N 
HETATM   27  C5  UNL     1       7.284   0.291  -0.100  1.00  0.00     0.347 C 
HETATM   28  N9  UNL     1       7.840   1.352   0.689  1.00  0.00    -0.038 NA
HETATM   29  O1  UNL     1       7.995  -0.169  -1.018  1.00  0.00    -0.249 OA
ATOM     30  H8  UNL     1       5.424   0.203   0.933  1.00  0.00     0.192 HD
ENDBRANCH  21  26
ENDBRANCH  15  18
ENDBRANCH   4  14
BRANCH   1  31
HETATM   31  N1  UNL     1      -2.132   1.487   0.938  1.00  0.00    -0.167 N 
HETATM   32  C1  UNL     1      -3.329   1.346   1.699  1.00  0.00     0.177 C 
BRANCH  31  33
HETATM   33  C11 UNL     1      -1.688   2.680   0.351  1.00  0.00     0.721 A 
HETATM   34  N13 UNL     1      -0.504   2.775  -0.372  1.00  0.00    -0.115 N 
HETATM   35  N14 UNL     1      -0.318   3.989  -0.800  1.00  0.00    -0.213 N 
ATOM     36  H13 UNL     1       0.133   1.997  -0.544  1.00  0.00     0.207 HD
HETATM   37  N15 UNL     1      -1.333   4.701  -0.389  1.00  0.00    -0.209 N 
ATOM     38  H14 UNL     1       0.472   4.322  -1.353  1.00  0.00     0.210 HD
HETATM   39  N16 UNL     1      -2.186   3.909   0.321  1.00  0.00    -0.081 N 
ATOM     40  H15 UNL     1      -1.467   5.696  -0.571  1.00  0.00     0.210 HD
BRANCH  39  41
HETATM   41  C12 UNL     1      -3.413   4.419   0.887  1.00  0.00     0.398 C 
BRANCH  41  42
HETATM   42  N17 UNL     1      -4.506   4.349  -0.098  1.00  0.00    -0.061 N 
ATOM     43 3H17 UNL     1      -4.264   4.824  -0.967  1.00  0.00     0.276 HD
ATOM     44 2H17 UNL     1      -4.623   3.406  -0.468  1.00  0.00     0.276 HD
ATOM     45 1H17 UNL     1      -5.373   4.709   0.302  1.00  0.00     0.276 HD
ENDBRANCH  41  42
ENDBRANCH  39  41
ENDBRANCH  31  33
ENDBRANCH   1  31
BRANCH   8  46
HETATM   46  C8  UNL     1      -1.418  -4.316  -1.015  1.00  0.00     0.225 C 
BRANCH  46  47
HETATM   47  O2  UNL     1      -2.423  -5.002  -1.656  1.00  0.00    -0.395 OA
ATOM     48  H2  UNL     1      -2.155  -5.882  -1.892  1.00  0.00     0.209 HD
ENDBRANCH  46  47
ENDBRANCH   8  46
TORSDOF 9
