REMARK  9 active torsions:
REMARK  status: ('A' for Active; 'I' for Inactive)
REMARK    1  A    between atoms: C2_7  and  C3_8 
REMARK    2  A    between atoms: C3_8  and  O1_10 
REMARK    3  A    between atoms: C3_8  and  C5_12 
REMARK    4  A    between atoms: C6_15  and  C7_16 
REMARK    5  A    between atoms: C7_16  and  C8_17 
REMARK    6  A    between atoms: C8_17  and  O2_18 
REMARK    7  A    between atoms: C8_17  and  N5_20 
REMARK    8  A    between atoms: N5_20  and  O3_22 
REMARK    9  A    between atoms: C13_34  and  C14_35 
ROOT
HETATM    1  C5  UNL     1       1.405  -0.941   0.431  1.00  0.00     0.074 A 
HETATM    2  N4  UNL     1       0.232  -0.738  -0.108  1.00  0.00    -0.351 N 
ATOM      3  H4  UNL     1       0.123  -0.899  -1.109  1.00  0.00     0.166 HD
HETATM    4  C6  UNL     1      -0.789  -0.346   0.564  1.00  0.00     0.087 A 
HETATM    5  S1  UNL     1      -0.127  -0.226   2.141  1.00  0.00    -0.067 SA
HETATM    6  C13 UNL     1       1.502  -0.717   1.783  1.00  0.00     0.097 A 
ENDROOT
BRANCH   4   7
HETATM    7  C7  UNL     1      -2.223  -0.055   0.249  1.00  0.00     0.151 C 
HETATM    8  N6  UNL     1      -2.613   1.011   1.148  1.00  0.00    -0.343 N 
HETATM    9  C9  UNL     1      -3.191   1.977   0.569  1.00  0.00     0.185 C 
ATOM     10  H6  UNL     1      -2.439   0.986   2.153  1.00  0.00     0.163 HD
HETATM   11  N7  UNL     1      -3.658   3.132   1.251  1.00  0.00    -0.064 NA
HETATM   12  N8  UNL     1      -3.288   1.683  -0.808  1.00  0.00    -0.353 N 
HETATM   13  C10 UNL     1      -2.527   0.459  -1.078  1.00  0.00     0.061 C 
ATOM     14  H8  UNL     1      -3.801   2.230  -1.499  1.00  0.00     0.163 HD
HETATM   15  C11 UNL     1      -1.404   0.862  -1.970  1.00  0.00     0.041 C 
HETATM   16  C12 UNL     1      -3.470  -0.435  -1.885  1.00  0.00     0.041 C 
BRANCH   7  17
HETATM   17  C8  UNL     1      -2.992  -1.289   0.652  1.00  0.00     0.276 C 
BRANCH  17  18
HETATM   18  O2  UNL     1      -2.636  -1.556   1.995  1.00  0.00    -0.372 OA
ATOM     19  H2  UNL     1      -3.120  -2.333   2.249  1.00  0.00     0.212 HD
ENDBRANCH  17  18
BRANCH  17  20
HETATM   20  N5  UNL     1      -4.407  -1.187   0.632  1.00  0.00    -0.273 N 
ATOM     21  H5  UNL     1      -4.979  -1.739  -0.007  1.00  0.00     0.190 HD
BRANCH  20  22
HETATM   22  O3  UNL     1      -4.949  -0.322   1.502  1.00  0.00    -0.292 OA
ATOM     23  H3  UNL     1      -5.896  -0.254   1.489  1.00  0.00     0.244 HD
ENDBRANCH  20  22
ENDBRANCH  17  20
ENDBRANCH   7  17
ENDBRANCH   4   7
BRANCH   1  24
HETATM   24  C3  UNL     1       2.572  -1.391  -0.408  1.00  0.00     0.158 C 
HETATM   25  C4  UNL     1       2.157  -1.609  -1.857  1.00  0.00     0.062 C 
BRANCH  24  26
HETATM   26  C2  UNL     1       3.701  -0.474  -0.424  1.00  0.00     0.154 A 
HETATM   27  N3  UNL     1       4.961  -0.936  -0.755  1.00  0.00    -0.269 N 
HETATM   28  N2  UNL     1       5.794   0.051  -0.706  1.00  0.00    -0.225 N 
ATOM     29  H3  UNL     1       5.195  -1.899  -0.998  1.00  0.00     0.190 HD
HETATM   30  N1  UNL     1       5.133   1.143  -0.362  1.00  0.00    -0.223 N 
ATOM     31  H2  UNL     1       6.794  -0.003  -0.900  1.00  0.00     0.210 HD
HETATM   32  C1  UNL     1       5.772   2.441  -0.215  1.00  0.00     0.202 C 
HETATM   33  N10 UNL     1       3.867   0.834  -0.187  1.00  0.00    -0.268 N 
ATOM     34  H10 UNL     1       3.130   1.485   0.085  1.00  0.00     0.190 HD
ENDBRANCH  24  26
BRANCH  24  35
HETATM   35  O1  UNL     1       3.000  -2.655   0.044  1.00  0.00    -0.376 OA
ATOM     36  H1  UNL     1       2.263  -3.254   0.054  1.00  0.00     0.211 HD
ENDBRANCH  24  35
ENDBRANCH   1  24
BRANCH   6  37
HETATM   37  C14 UNL     1       2.558  -0.865   2.758  1.00  0.00     0.274 C 
HETATM   38  N9  UNL     1       2.314  -0.437   4.091  1.00  0.00    -0.057 NA
HETATM   39  O4  UNL     1       3.665  -1.346   2.490  1.00  0.00    -0.270 OA
ENDBRANCH   6  37
TORSDOF 9
