REMARK  10 active torsions:
REMARK  status: ('A' for Active; 'I' for Inactive)
REMARK    1  A    between atoms: C2_2  and  C3_3 
REMARK    2  A    between atoms: C4_4  and  C5_5 
REMARK    3  A    between atoms: C6_6  and  O1_7 
REMARK    4  A    between atoms: C7_9  and  O2_10 
REMARK    5  A    between atoms: C8_12  and  O3_13 
REMARK    6  A    between atoms: C9_15  and  N1_16 
REMARK    7  A    between atoms: C14_22  and  S1_23 
REMARK    8  A    between atoms: S1_23  and  C15_24 
REMARK    9  A    between atoms: C15_24  and  C16_25 
REMARK   10  A    between atoms: C16_25  and  O4_28 
ROOT
HETATM    1  N1  UNL     1      -1.564  -0.626   0.450  1.00  0.00    -0.315 N 
HETATM    2  C10 UNL     1      -1.302   0.534   1.042  1.00  0.00     0.119 A 
HETATM    3  C11 UNL     1      -2.278   1.371   1.654  1.00  0.00     0.118 C 
HETATM    4  N2  UNL     1      -3.053   2.067   2.154  1.00  0.00    -0.190 NA
HETATM    5  C12 UNL     1       0.067   0.839   0.994  1.00  0.00     0.059 A 
HETATM    6  C13 UNL     1       0.634  -0.212   0.333  1.00  0.00     0.045 A 
HETATM    7  C14 UNL     1       1.964  -0.431   0.005  1.00  0.00     0.085 A 
HETATM    8  N3  UNL     1       2.326  -1.544  -0.659  1.00  0.00    -0.346 N 
ATOM      9  H3  UNL     1       3.298  -1.724  -0.910  1.00  0.00     0.167 HD
HETATM   10  C20 UNL     1       1.344  -2.407  -0.975  1.00  0.00     0.182 A 
HETATM   11  N4  UNL     1       0.052  -2.198  -0.660  1.00  0.00    -0.338 N 
ATOM     12  H4  UNL     1      -0.643  -2.894  -0.931  1.00  0.00     0.168 HD
HETATM   13  C21 UNL     1      -0.352  -1.089   0.008  1.00  0.00     0.123 A 
ENDROOT
BRANCH   1  14
HETATM   14  C9  UNL     1      -2.751  -1.345   0.246  1.00  0.00     0.134 C 
HETATM   15  C5  UNL     1      -3.964  -0.706  -0.264  1.00  0.00     0.065 C 
HETATM   16  C6  UNL     1      -4.986  -1.852  -0.051  1.00  0.00     0.159 C 
HETATM   17  C7  UNL     1      -4.663  -2.399   1.302  1.00  0.00     0.178 C 
HETATM   18  C8  UNL     1      -3.205  -2.100   1.479  1.00  0.00     0.173 C 
BRANCH  15  19
HETATM   19  C4  UNL     1      -3.978  -0.583  -1.771  1.00  0.00    -0.021 C 
HETATM   20  C3  UNL     1      -4.069   0.560  -2.379  1.00  0.00    -0.030 C 
BRANCH  20  21
HETATM   21  C2  UNL     1      -4.174   1.907  -1.773  1.00  0.00     0.022 C 
HETATM   22  C1  UNL     1      -3.031   2.805  -2.169  1.00  0.00     0.009 C 
ENDBRANCH  20  21
ENDBRANCH  15  19
BRANCH  16  23
HETATM   23  O1  UNL     1      -4.636  -2.831  -0.989  1.00  0.00    -0.392 OA
ATOM     24  H1  UNL     1      -5.262  -3.533  -0.858  1.00  0.00     0.210 HD
ENDBRANCH  16  23
BRANCH  17  25
HETATM   25  O2  UNL     1      -4.893  -3.766   1.329  1.00  0.00    -0.390 OA
ATOM     26  H2  UNL     1      -4.688  -4.114   2.189  1.00  0.00     0.210 HD
ENDBRANCH  17  25
BRANCH  18  27
HETATM   27  O3  UNL     1      -2.998  -1.432   2.659  1.00  0.00    -0.391 OA
ATOM     28  H3  UNL     1      -2.074  -1.242   2.771  1.00  0.00     0.210 HD
ENDBRANCH  18  27
ENDBRANCH   1  14
BRANCH   7  29
HETATM   29  S1  UNL     1       3.198   0.783   0.475  1.00  0.00    -0.108 SA
BRANCH  29  30
HETATM   30  C15 UNL     1       4.823   0.223  -0.084  1.00  0.00     0.118 C 
BRANCH  30  31
HETATM   31  C16 UNL     1       5.884   1.229   0.300  1.00  0.00     0.062 C 
HETATM   32  C17 UNL     1       5.616   2.582  -0.321  1.00  0.00     0.046 C 
HETATM   33  C18 UNL     1       5.783   1.386   1.824  1.00  0.00     0.046 C 
BRANCH  31  34
HETATM   34  O4  UNL     1       7.157   0.807   0.027  1.00  0.00    -0.385 OA
HETATM   35  C19 UNL     1       7.401   0.537  -1.302  1.00  0.00     0.202 C 
ENDBRANCH  31  34
ENDBRANCH  30  31
ENDBRANCH  29  30
ENDBRANCH   7  29
TORSDOF 10
