REMARK  11 active torsions:
REMARK  status: ('A' for Active; 'I' for Inactive)
REMARK    1  A    between atoms: C2_2  and  C3_3 
REMARK    2  A    between atoms: C6_8  and  O3_9 
REMARK    3  A    between atoms: O3_9  and  C7_10 
REMARK    4  A    between atoms: C7_10  and  O4_12 
REMARK    5  A    between atoms: C7_10  and  C9_14 
REMARK    6  A    between atoms: C12_17  and  C13_18 
REMARK    7  A    between atoms: C13_18  and  O5_19 
REMARK    8  A    between atoms: C13_18  and  C16_23 
REMARK    9  A    between atoms: O5_19  and  C14_20 
REMARK   10  A    between atoms: C19_26  and  O7_27 
REMARK   11  A    between atoms: C22_31  and  O8_32 
ROOT
HETATM    1  C3  UNL     1      -0.323   2.948  -0.626  1.00  0.00     0.110 C 
HETATM    2  C4  UNL     1       0.509   4.074  -1.257  1.00  0.00     0.054 C 
HETATM    3  O1  UNL     1      -1.021   2.378  -1.716  1.00  0.00    -0.302 OA
HETATM    4  C5  UNL     1      -1.737   1.196  -1.676  1.00  0.00     0.289 C 
HETATM    5  O2  UNL     1      -2.717   0.885  -2.369  1.00  0.00    -0.262 OA
HETATM    6  C6  UNL     1      -1.161   0.224  -0.608  1.00  0.00     0.234 C 
HETATM    7  C12 UNL     1       0.314   0.525  -0.571  1.00  0.00     0.091 C 
HETATM    8  C22 UNL     1       0.580   1.913  -0.036  1.00  0.00     0.166 C 
ENDROOT
BRANCH   7   9
HETATM    9  C13 UNL     1       1.214  -0.547  -0.107  1.00  0.00     0.174 C 
BRANCH   9  10
HETATM   10  O5  UNL     1       2.583  -0.149  -0.107  1.00  0.00    -0.311 OA
BRANCH  10  11
HETATM   11  C14 UNL     1       3.380  -0.337   0.984  1.00  0.00     0.255 C 
HETATM   12  C15 UNL     1       4.816   0.090   0.960  1.00  0.00     0.126 C 
HETATM   13  O6  UNL     1       2.877  -0.877   2.003  1.00  0.00    -0.266 OA
ENDBRANCH  10  11
ENDBRANCH   9  10
BRANCH   9  14
HETATM   14  C16 UNL     1       1.195  -1.708  -1.079  1.00  0.00    -0.028 A 
HETATM   15  C17 UNL     1       1.814  -1.537  -2.306  1.00  0.00     0.012 A 
HETATM   16  C18 UNL     1       1.854  -2.535  -3.253  1.00  0.00     0.037 A 
HETATM   17  C19 UNL     1       1.264  -3.754  -2.991  1.00  0.00     0.065 A 
HETATM   18  C20 UNL     1       0.647  -3.926  -1.770  1.00  0.00     0.037 A 
HETATM   19  C21 UNL     1       0.619  -2.907  -0.832  1.00  0.00     0.012 A 
BRANCH  17  20
HETATM   20  O7  UNL     1       1.297  -4.775  -3.941  1.00  0.00    -0.361 OA
ATOM     21  H7  UNL     1       0.891  -5.615  -3.761  1.00  0.00     0.217 HD
ENDBRANCH  17  20
ENDBRANCH   9  14
ENDBRANCH   7   9
BRANCH   6  22
HETATM   22  O3  UNL     1      -1.758   0.573   0.568  1.00  0.00    -0.336 OA
BRANCH  22  23
HETATM   23  C7  UNL     1      -2.686  -0.223   1.128  1.00  0.00     0.183 C 
HETATM   24  C8  UNL     1      -3.301   0.578   2.320  1.00  0.00     0.084 C 
BRANCH  23  25
HETATM   25  O4  UNL     1      -3.804  -0.458   0.317  1.00  0.00    -0.362 OA
ATOM     26  H4  UNL     1      -4.460  -1.020   0.713  1.00  0.00     0.213 HD
ENDBRANCH  23  25
BRANCH  23  27
HETATM   27  C9  UNL     1      -2.263  -1.507   1.707  1.00  0.00    -0.032 C 
HETATM   28  C10 UNL     1      -2.723  -2.671   1.273  1.00  0.00     0.019 C 
HETATM   29  C11 UNL     1      -1.291  -1.528   2.836  1.00  0.00     0.048 C 
ENDBRANCH  23  27
ENDBRANCH  22  23
ENDBRANCH   6  22
BRANCH   8  30
HETATM   30  O8  UNL     1       0.563   1.856   1.332  1.00  0.00    -0.392 OA
ATOM     31  H8  UNL     1       1.137   1.198   1.707  1.00  0.00     0.210 HD
ENDBRANCH   8  30
BRANCH   1  32
HETATM   32  C2  UNL     1      -1.218   3.608   0.347  1.00  0.00     0.003 C 
HETATM   33  C1  UNL     1      -0.715   4.461   1.232  1.00  0.00     0.010 C 
ENDBRANCH   1  32
TORSDOF 11
