REMARK  8 active torsions:
REMARK  status: ('A' for Active; 'I' for Inactive)
REMARK    1  A    between atoms: C3_7  and  C4_8 
REMARK    2  A    between atoms: C4_8  and  N3_9 
REMARK    3  A    between atoms: N3_9  and  O1_10 
REMARK    4  A    between atoms: N3_9  and  C11_18 
REMARK    5  A    between atoms: O1_10  and  C5_11 
REMARK    6  A    between atoms: C5_11  and  C6_12 
REMARK    7  A    between atoms: C6_12  and  C7_14 
REMARK    8  A    between atoms: C15_27  and  C16_28 
ROOT
HETATM    1  C4  UNL     1       1.571   0.224   0.326  1.00  0.00     0.251 C 
HETATM    2  N4  UNL     1       2.864   0.225  -0.308  1.00  0.00    -0.335 N 
ATOM      3  H4  UNL     1       3.228  -0.683  -0.596  1.00  0.00     0.164 HD
HETATM    4  C14 UNL     1       3.676   1.331  -0.573  1.00  0.00     0.094 C 
HETATM    5  N5  UNL     1       4.673   1.230  -1.417  1.00  0.00    -0.388 N 
ATOM      6  H51 UNL     1       5.266   2.037  -1.610  1.00  0.00     0.157 HD
ATOM      7  H52 UNL     1       4.803   0.314  -1.846  1.00  0.00     0.157 HD
HETATM    8  C15 UNL     1       3.488   2.660   0.049  1.00  0.00     0.204 C 
HETATM    9  C17 UNL     1       2.980   2.482   1.414  1.00  0.00     0.071 C 
HETATM   10  S1  UNL     1       3.639   3.027   2.533  1.00  0.00    -0.076 SA
HETATM   11  S2  UNL     1       1.492   1.549   1.615  1.00  0.00    -0.057 SA
ENDROOT
BRANCH   1  12
HETATM   12  C3  UNL     1       1.475  -1.041   1.096  1.00  0.00     0.203 A 
HETATM   13  N2  UNL     1       1.937  -1.252   2.371  1.00  0.00    -0.277 N 
HETATM   14  N1  UNL     1       1.701  -2.472   2.756  1.00  0.00    -0.282 N 
ATOM     15  H2  UNL     1       2.403  -0.546   2.941  1.00  0.00     0.189 HD
HETATM   16  C2  UNL     1       1.077  -3.081   1.735  1.00  0.00     0.136 A 
ATOM     17  H1  UNL     1       1.943  -2.885   3.657  1.00  0.00     0.189 HD
HETATM   18  C1  UNL     1       0.592  -4.507   1.685  1.00  0.00     0.099 C 
HETATM   19  O5  UNL     1       0.964  -2.203   0.778  1.00  0.00    -0.277 OA
ENDBRANCH   1  12
BRANCH   1  20
HETATM   20  N3  UNL     1       0.478   0.382  -0.543  1.00  0.00    -0.242 N 
BRANCH  20  21
HETATM   21  O1  UNL     1      -0.651   0.862  -0.108  1.00  0.00    -0.272 OA
BRANCH  21  22
HETATM   22  C5  UNL     1      -1.674  -0.030  -0.014  1.00  0.00     0.280 C 
BRANCH  22  23
HETATM   23  C6  UNL     1      -2.949   0.630   0.436  1.00  0.00     0.160 C 
HETATM   24  O2  UNL     1      -2.900   1.830   0.630  1.00  0.00    -0.295 OA
BRANCH  23  25
HETATM   25  C7  UNL     1      -4.206  -0.093   0.645  1.00  0.00     0.012 C 
HETATM   26  C8  UNL     1      -4.081  -1.159   1.723  1.00  0.00     0.022 C 
HETATM   27  C9  UNL     1      -4.641  -0.810  -0.617  1.00  0.00     0.022 C 
HETATM   28  C10 UNL     1      -5.299   0.860   1.038  1.00  0.00     0.022 C 
ENDBRANCH  23  25
ENDBRANCH  22  23
ENDBRANCH  21  22
ENDBRANCH  20  21
BRANCH  20  29
HETATM   29  C11 UNL     1       0.768   0.547  -1.942  1.00  0.00     0.105 C 
HETATM   30  C12 UNL     1       1.441  -0.644  -2.577  1.00  0.00     0.034 C 
HETATM   31  C13 UNL     1      -0.473   0.902  -2.724  1.00  0.00     0.034 C 
ENDBRANCH  20  29
ENDBRANCH   1  20
BRANCH   8  32
HETATM   32  C16 UNL     1       4.748   3.388   0.103  1.00  0.00     0.190 C 
HETATM   33  O3  UNL     1       4.881   4.494  -0.477  1.00  0.00    -0.647 OA
HETATM   34  O4  UNL     1       5.851   2.888   0.796  1.00  0.00    -0.647 OA
ENDBRANCH   8  32
TORSDOF 8
