REMARK  13 active torsions:
REMARK  status: ('A' for Active; 'I' for Inactive)
REMARK    1  A    between atoms: C2_2  and  O1_3 
REMARK    2  A    between atoms: O1_3  and  C3_4 
REMARK    3  A    between atoms: C3_4  and  C4_5 
REMARK    4  A    between atoms: C4_5  and  O2_6 
REMARK    5  A    between atoms: O2_6  and  C5_7 
REMARK    6  A    between atoms: C5_7  and  C6_8 
REMARK    7  A    between atoms: C6_8  and  O3_9 
REMARK    8  A    between atoms: O3_9  and  C7_10 
REMARK    9  A    between atoms: C9_12  and  N1_13 
REMARK   10  A    between atoms: C17_22  and  N3_23 
REMARK   11  A    between atoms: N3_23  and  C18_25 
REMARK   12  A    between atoms: C22_32  and  N6_33 
REMARK   13  A    between atoms: N6_33  and  C23_35 
ROOT
HETATM    1  C18 UNL     1      -2.674   0.229   0.667  1.00  0.00     0.684 A 
HETATM    2  N4  UNL     1      -2.214   0.423   1.916  1.00  0.00    -0.200 N 
ATOM      3  H4  UNL     1      -1.461   1.095   2.067  1.00  0.00     0.183 HD
HETATM    4  C19 UNL     1      -2.719  -0.245   2.976  1.00  0.00     0.132 A 
HETATM    5  C20 UNL     1      -3.734  -1.163   2.828  1.00  0.00     0.104 A 
HETATM    6  C21 UNL     1      -4.290  -1.887   3.935  1.00  0.00     0.104 C 
HETATM    7  N5  UNL     1      -4.759  -2.465   4.829  1.00  0.00    -0.191 NA
HETATM    8  C22 UNL     1      -4.207  -1.359   1.532  1.00  0.00     0.139 A 
HETATM    9  N8  UNL     1      -3.669  -0.667   0.511  1.00  0.00    -0.175 N 
ATOM     10  H8  UNL     1      -4.032  -0.829  -0.428  1.00  0.00     0.186 HD
ENDROOT
BRANCH   8  11
HETATM   11  N6  UNL     1      -5.158  -2.218   1.393  1.00  0.00    -0.366 N 
ATOM     12  H6  UNL     1      -5.527  -2.714   2.204  1.00  0.00     0.161 HD
BRANCH  11  13
HETATM   13  C23 UNL     1      -5.689  -2.468   0.090  1.00  0.00     0.118 C 
HETATM   14  C24 UNL     1      -4.868  -3.512  -0.668  1.00  0.00     0.036 C 
HETATM   15  C25 UNL     1      -5.909  -4.019  -1.669  1.00  0.00     0.060 C 
HETATM   16  C26 UNL     1      -7.104  -4.138  -0.798  1.00  0.00     0.017 A 
HETATM   17  N7  UNL     1      -8.264  -4.801  -0.638  1.00  0.00    -0.369 N 
HETATM   18  C29 UNL     1      -6.978  -3.225   0.241  1.00  0.00    -0.012 A 
HETATM   19  C27 UNL     1      -8.896  -4.358   0.459  1.00  0.00     0.089 A 
ATOM     20  H7  UNL     1      -8.611  -5.532  -1.259  1.00  0.00     0.165 HD
HETATM   21  C28 UNL     1      -8.101  -3.385   1.000  1.00  0.00     0.028 A 
ENDBRANCH  11  13
ENDBRANCH   8  11
BRANCH   1  22
HETATM   22  N3  UNL     1      -2.208   0.856  -0.363  1.00  0.00    -0.189 N 
ATOM     23  H3  UNL     1      -2.617   0.649  -1.274  1.00  0.00     0.184 HD
BRANCH  22  24
HETATM   24  C17 UNL     1      -1.172   1.806  -0.304  1.00  0.00     0.082 A 
HETATM   25  C7  UNL     1       0.137   1.407  -0.205  1.00  0.00     0.098 A 
HETATM   26  C8  UNL     1       1.144   2.362  -0.149  1.00  0.00     0.068 A 
HETATM   27  C9  UNL     1       0.880   3.732  -0.190  1.00  0.00     0.033 A 
HETATM   28  C15 UNL     1      -0.432   4.107  -0.289  1.00  0.00     0.032 A 
HETATM   29  C16 UNL     1      -1.451   3.149  -0.345  1.00  0.00     0.035 A 
BRANCH  25  30
HETATM   30  O3  UNL     1       0.413   0.051  -0.163  1.00  0.00    -0.347 OA
BRANCH  30  31
HETATM   31  C6  UNL     1       1.789  -0.349  -0.059  1.00  0.00     0.201 C 
BRANCH  31  32
HETATM   32  C5  UNL     1       1.776  -1.849  -0.034  1.00  0.00     0.194 C 
BRANCH  32  33
HETATM   33  O2  UNL     1       3.033  -2.350   0.071  1.00  0.00    -0.387 OA
BRANCH  33  34
HETATM   34  C4  UNL     1       3.864  -1.999  -0.971  1.00  0.00     0.193 C 
BRANCH  34  35
HETATM   35  C3  UNL     1       5.207  -2.695  -0.669  1.00  0.00     0.193 C 
BRANCH  35  36
HETATM   36  O1  UNL     1       4.935  -4.058  -0.626  1.00  0.00    -0.389 OA
BRANCH  36  37
HETATM   37  C2  UNL     1       6.111  -4.737  -0.357  1.00  0.00     0.163 C 
HETATM   38  C1  UNL     1       5.809  -6.210  -0.310  1.00  0.00     0.033 C 
ENDBRANCH  36  37
ENDBRANCH  35  36
ENDBRANCH  34  35
ENDBRANCH  33  34
ENDBRANCH  32  33
ENDBRANCH  31  32
ENDBRANCH  30  31
ENDBRANCH  25  30
BRANCH  27  39
HETATM   39  N1  UNL     1       1.972   4.634  -0.127  1.00  0.00    -0.377 N 
HETATM   40  C10 UNL     1       3.325   4.127   0.033  1.00  0.00     0.153 C 
HETATM   41  C11 UNL     1       4.293   5.261   0.175  1.00  0.00     0.291 C 
HETATM   42  N2  UNL     1       4.173   6.109  -0.970  1.00  0.00     0.087 N 
HETATM   43  C12 UNL     1       5.223   7.081  -0.961  1.00  0.00     0.310 C 
HETATM   44  C13 UNL     1       2.862   6.622  -1.190  1.00  0.00     0.291 C 
HETATM   45  C14 UNL     1       1.818   6.065  -0.214  1.00  0.00     0.153 C 
ENDBRANCH  27  39
ENDBRANCH  22  24
ENDBRANCH   1  22
TORSDOF 13
