REMARK  13 active torsions:
REMARK  status: ('A' for Active; 'I' for Inactive)
REMARK    1  A    between atoms: C2_2  and  C3_4 
REMARK    2  A    between atoms: C3_4  and  C4_5 
REMARK    3  A    between atoms: C3_4  and  N6_39 
REMARK    4  A    between atoms: C4_5  and  C5_6 
REMARK    5  A    between atoms: C5_6  and  C6_7 
REMARK       I    between atoms: C6_7  and  N1_9 
REMARK       I    between atoms: N1_9  and  C7_11 
REMARK    6  A    between atoms: C7_11  and  C8_13 
REMARK    7  A    between atoms: C12_19  and  N3_20 
REMARK    8  A    between atoms: N3_20  and  C13_22 
REMARK    9  A    between atoms: C13_22  and  C14_23 
REMARK   10  A    between atoms: N5_30  and  C19_31 
REMARK   11  A    between atoms: N6_39  and  C26_42 
REMARK   12  A    between atoms: C26_42  and  C27_43 
REMARK   13  A    between atoms: C27_43  and  N7_44 
ROOT
HETATM    1  C8  UNL     1      -0.217  -0.610   0.951  1.00  0.00     0.101 A 
HETATM    2  C9  UNL     1      -0.597   0.609   1.545  1.00  0.00     0.039 A 
HETATM    3  C10 UNL     1      -1.894   1.036   1.471  1.00  0.00     0.026 A 
HETATM    4  C11 UNL     1      -2.304   2.241   2.036  1.00  0.00     0.121 A 
HETATM    5  N2  UNL     1      -3.585   2.609   1.919  1.00  0.00    -0.201 N 
ATOM      6  H2  UNL     1      -3.886   3.492   2.332  1.00  0.00     0.183 HD
HETATM    7  C12 UNL     1      -4.494   1.844   1.269  1.00  0.00     0.679 A 
HETATM    8  N4  UNL     1      -4.115   0.686   0.723  1.00  0.00    -0.176 N 
ATOM      9  H4  UNL     1      -4.798   0.109   0.233  1.00  0.00     0.186 HD
HETATM   10  C18 UNL     1      -2.850   0.281   0.815  1.00  0.00     0.138 A 
HETATM   11  N5  UNL     1      -2.516  -0.890   0.238  1.00  0.00    -0.293 N 
HETATM   12  C25 UNL     1      -1.197  -1.304   0.324  1.00  0.00     0.265 A 
HETATM   13  O4  UNL     1      -0.874  -2.409  -0.216  1.00  0.00    -0.267 OA
ENDROOT
BRANCH   1  14
HETATM   14  C7  UNL     1       1.198  -0.947   1.033  1.00  0.00     0.264 C 
HETATM   15  N1  UNL     1       1.877  -1.668   0.057  1.00  0.00    -0.290 N 
HETATM   16  C6  UNL     1       3.228  -2.073   0.003  1.00  0.00     0.244 C 
ATOM     17  H1  UNL     1       1.311  -1.948  -0.744  1.00  0.00     0.172 HD
HETATM   18  O2  UNL     1       3.562  -2.725  -1.034  1.00  0.00    -0.269 OA
HETATM   19  O3  UNL     1       1.836  -0.542   2.064  1.00  0.00    -0.267 OA
BRANCH  16  20
HETATM   20  C5  UNL     1       4.198  -1.793   1.031  1.00  0.00     0.050 C 
BRANCH  20  21
HETATM   21  C4  UNL     1       5.638  -1.980   0.815  1.00  0.00     0.073 C 
BRANCH  21  22
HETATM   22  C3  UNL     1       6.403  -1.105  -0.103  1.00  0.00     0.258 C 
BRANCH  22  23
HETATM   23  C2  UNL     1       6.087  -1.036  -1.517  1.00  0.00     0.153 C 
HETATM   24  C1  UNL     1       6.629  -2.080  -2.477  1.00  0.00     0.093 C 
HETATM   25  O1  UNL     1       5.400  -0.171  -2.013  1.00  0.00    -0.296 OA
ENDBRANCH  22  23
BRANCH  22  26
HETATM   26  N6  UNL     1       6.370   0.289   0.423  1.00  0.00    -0.062 N 
ATOM     27  H62 UNL     1       5.443   0.701   0.315  1.00  0.00     0.278 HD
ATOM     28  H61 UNL     1       6.436   0.300   1.441  1.00  0.00     0.278 HD
BRANCH  26  29
HETATM   29  C26 UNL     1       7.370   1.113  -0.165  1.00  0.00     0.263 C 
BRANCH  29  30
HETATM   30  C27 UNL     1       8.756   0.733   0.277  1.00  0.00     0.298 C 
BRANCH  30  31
HETATM   31  N7  UNL     1       9.763   1.613  -0.311  1.00  0.00     0.081 N 
HETATM   32  C28 UNL     1       9.651   2.944   0.233  1.00  0.00     0.309 C 
HETATM   33  C29 UNL     1       9.617   1.562  -1.752  1.00  0.00     0.309 C 
ENDBRANCH  30  31
ENDBRANCH  29  30
ENDBRANCH  26  29
ENDBRANCH  22  26
ENDBRANCH  21  22
ENDBRANCH  20  21
ENDBRANCH  16  20
ENDBRANCH   1  14
BRANCH  11  34
HETATM   34  C19 UNL     1      -3.382  -1.774  -0.439  1.00  0.00     0.095 C 
HETATM   35  C20 UNL     1      -3.529  -3.018   0.453  1.00  0.00     0.026 C 
HETATM   36  C21 UNL     1      -4.899  -3.643   0.255  1.00  0.00     0.002 C 
HETATM   37  C22 UNL     1      -5.044  -3.802  -1.258  1.00  0.00     0.000 C 
HETATM   38  C23 UNL     1      -5.409  -2.427  -1.740  1.00  0.00     0.002 C 
HETATM   39  C24 UNL     1      -4.673  -1.333  -0.972  1.00  0.00     0.026 C 
ENDBRANCH  11  34
BRANCH   7  40
HETATM   40  N3  UNL     1      -5.711   2.288   1.209  1.00  0.00    -0.225 N 
ATOM     41  H3  UNL     1      -5.917   3.184   1.652  1.00  0.00     0.177 HD
BRANCH  40  42
HETATM   42  C13 UNL     1      -6.791   1.592   0.554  1.00  0.00     0.146 C 
BRANCH  42  43
HETATM   43  C14 UNL     1      -7.929   2.561   0.324  1.00  0.00    -0.035 C 
HETATM   44  C15 UNL     1      -9.064   1.804  -0.371  1.00  0.00     0.016 C 
HETATM   45  C16 UNL     1      -8.488   3.016   1.652  1.00  0.00     0.016 C 
HETATM   46  C17 UNL     1      -7.462   3.741  -0.512  1.00  0.00     0.016 C 
ENDBRANCH  42  43
ENDBRANCH  40  42
ENDBRANCH   7  40
TORSDOF 13
