REMARK  18 active torsions:
REMARK  status: ('A' for Active; 'I' for Inactive)
REMARK    1  A    between atoms: C2_2  and  C4_4 
REMARK    2  A    between atoms: C4_4  and  C5_5 
REMARK    3  A    between atoms: C5_5  and  N1_6 
REMARK    4  A    between atoms: C5_5  and  C26_36 
REMARK       I    between atoms: N1_6  and  C6_8 
REMARK    5  A    between atoms: C6_8  and  C7_10 
REMARK    6  A    between atoms: C7_10  and  C8_11 
REMARK    7  A    between atoms: C8_11  and  C9_12 
REMARK    8  A    between atoms: C9_12  and  C10_13 
REMARK    9  A    between atoms: C10_13  and  C11_14 
REMARK   10  A    between atoms: C11_14  and  C12_15 
REMARK   11  A    between atoms: C12_15  and  C13_16 
REMARK       I    between atoms: C13_16  and  N2_18 
REMARK   12  A    between atoms: N2_18  and  C14_20 
REMARK   13  A    between atoms: C14_20  and  C15_21 
REMARK   14  A    between atoms: C15_21  and  C16_22 
REMARK       I    between atoms: N3_25  and  C19_26 
REMARK       I    between atoms: C19_26  and  N4_28 
REMARK   15  A    between atoms: N4_28  and  C20_30 
REMARK   16  A    between atoms: C26_36  and  O4_37 
REMARK   17  A    between atoms: C26_36  and  N5_39 
REMARK   18  A    between atoms: C29_42  and  O5_43 
ROOT
HETATM    1  C10 UNL     1      -1.632  -1.514  -1.214  1.00  0.00     0.000 C 
ENDROOT
BRANCH   1   2
HETATM    2  C9  UNL     1      -2.801  -2.077  -2.041  1.00  0.00     0.000 C 
BRANCH   2   3
HETATM    3  C8  UNL     1      -3.524  -3.147  -1.308  1.00  0.00     0.009 C 
BRANCH   3   4
HETATM    4  C7  UNL     1      -4.139  -2.785  -0.011  1.00  0.00     0.103 C 
BRANCH   4   5
HETATM    5  C6  UNL     1      -5.198  -1.731  -0.099  1.00  0.00     0.218 C 
HETATM    6  N1  UNL     1      -5.815  -1.224   1.069  1.00  0.00    -0.352 N 
ATOM      7  H1  UNL     1      -5.507  -1.595   1.968  1.00  0.00     0.163 HD
HETATM    8  O1  UNL     1      -5.467  -1.365  -1.268  1.00  0.00    -0.274 OA
BRANCH   6   9
HETATM    9  C5  UNL     1      -6.869  -0.199   1.077  1.00  0.00     0.144 C 
BRANCH   9  10
HETATM   10  C4  UNL     1      -6.288   1.087   0.634  1.00  0.00     0.033 C 
BRANCH  10  11
HETATM   11  C2  UNL     1      -5.191   1.662   1.465  1.00  0.00    -0.021 C 
HETATM   12  C1  UNL     1      -5.564   1.938   2.890  1.00  0.00     0.009 C 
HETATM   13  C3  UNL     1      -3.882   0.943   1.411  1.00  0.00     0.009 C 
ENDBRANCH  10  11
ENDBRANCH   9  10
BRANCH   9  14
HETATM   14  C26 UNL     1      -7.985  -0.773   0.251  1.00  0.00     0.379 C 
BRANCH  14  15
HETATM   15  O4  UNL     1      -8.223  -2.060   0.906  1.00  0.00    -0.366 OA
ATOM     16  H4  UNL     1      -8.929  -2.423   0.384  1.00  0.00     0.212 HD
ENDBRANCH  14  15
BRANCH  14  17
HETATM   17  N5  UNL     1      -9.280  -0.166   0.400  1.00  0.00     0.121 N 
HETATM   18  C27 UNL     1      -9.499   1.156   0.044  1.00  0.00     0.278 C 
HETATM   19  C28 UNL     1     -10.992   1.291  -0.196  1.00  0.00     0.064 C 
HETATM   20  C29 UNL     1     -11.459  -0.133  -0.288  1.00  0.00     0.148 C 
HETATM   21  C30 UNL     1     -10.206  -0.950  -0.435  1.00  0.00     0.307 C 
BRANCH  20  22
HETATM   22  O5  UNL     1     -12.322  -0.252  -1.364  1.00  0.00    -0.394 OA
ATOM     23  H5  UNL     1     -12.617  -1.153  -1.422  1.00  0.00     0.210 HD
ENDBRANCH  20  22
ENDBRANCH  14  17
ENDBRANCH   9  14
ENDBRANCH   6   9
ENDBRANCH   4   5
ENDBRANCH   3   4
ENDBRANCH   2   3
ENDBRANCH   1   2
BRANCH   1  24
HETATM   24  C11 UNL     1      -0.952  -0.454  -2.020  1.00  0.00     0.009 C 
BRANCH  24  25
HETATM   25  C12 UNL     1       0.199   0.169  -1.306  1.00  0.00     0.103 C 
BRANCH  25  26
HETATM   26  C13 UNL     1       1.293  -0.744  -0.972  1.00  0.00     0.217 C 
HETATM   27  O2  UNL     1       1.314  -1.934  -1.351  1.00  0.00    -0.274 OA
HETATM   28  N2  UNL     1       2.377  -0.236  -0.177  1.00  0.00    -0.361 N 
ATOM     29  H2  UNL     1       2.391   0.731   0.147  1.00  0.00     0.162 HD
BRANCH  28  30
HETATM   30  C14 UNL     1       3.452  -1.159   0.146  1.00  0.00     0.123 C 
BRANCH  30  31
HETATM   31  C15 UNL     1       4.469  -0.440   0.975  1.00  0.00     0.024 C 
BRANCH  31  32
HETATM   32  C16 UNL     1       5.068   0.726   0.263  1.00  0.00    -0.010 C 
HETATM   33  C17 UNL     1       6.078   1.470   1.089  1.00  0.00     0.024 C 
HETATM   34  C18 UNL     1       7.304   0.608   1.282  1.00  0.00     0.128 C 
HETATM   35  N3  UNL     1       7.829   0.246   0.006  1.00  0.00    -0.334 N 
HETATM   36  C19 UNL     1       9.175   0.454  -0.345  1.00  0.00     0.318 C 
HETATM   37  C24 UNL     1       6.945  -0.371  -0.966  1.00  0.00     0.128 C 
HETATM   38  O3  UNL     1       9.597   0.119  -1.504  1.00  0.00    -0.247 OA
HETATM   39  N4  UNL     1      10.131   1.027   0.520  1.00  0.00    -0.335 N 
ATOM     40  H4  UNL     1       9.842   1.312   1.456  1.00  0.00     0.165 HD
HETATM   41  C25 UNL     1       5.655   0.379  -1.085  1.00  0.00     0.024 C 
BRANCH  39  42
HETATM   42  C20 UNL     1      11.515   1.225   0.121  1.00  0.00     0.023 C 
HETATM   43  C21 UNL     1      12.108  -0.124  -0.219  1.00  0.00     0.037 C 
HETATM   44  C22 UNL     1      11.629   2.120  -1.082  1.00  0.00     0.037 C 
HETATM   45  C23 UNL     1      12.310   1.754   1.300  1.00  0.00     0.037 C 
ENDBRANCH  39  42
ENDBRANCH  31  32
ENDBRANCH  30  31
ENDBRANCH  28  30
ENDBRANCH  25  26
ENDBRANCH  24  25
ENDBRANCH   1  24
TORSDOF 18
