REMARK  18 active torsions:
REMARK  status: ('A' for Active; 'I' for Inactive)
REMARK    1  A    between atoms: N1_2  and  C2_4 
REMARK    2  A    between atoms: C2_4  and  C3_5 
REMARK    3  A    between atoms: C2_4  and  C23_37 
REMARK       I    between atoms: C3_5  and  N2_7 
REMARK    4  A    between atoms: N2_7  and  C4_8 
REMARK    5  A    between atoms: C4_8  and  C5_9 
REMARK    6  A    between atoms: C5_9  and  N3_10 
REMARK    7  A    between atoms: N3_10  and  C6_12 
REMARK    8  A    between atoms: C6_12  and  C7_13 
REMARK    9  A    between atoms: C6_12  and  C13_23 
REMARK   10  A    between atoms: C7_13  and  C8_15 
REMARK       I    between atoms: C8_15  and  N4_17 
REMARK   11  A    between atoms: N4_17  and  C9_19 
REMARK   12  A    between atoms: C9_19  and  C10_20 
REMARK   13  A    between atoms: C13_23  and  C14_24 
REMARK   14  A    between atoms: C13_23  and  N5_28 
REMARK   15  A    between atoms: C14_24  and  C15_25 
REMARK       I    between atoms: N5_28  and  C18_30 
REMARK   16  A    between atoms: C18_30  and  O5_32 
REMARK   17  A    between atoms: O5_32  and  C19_33 
REMARK   18  A    between atoms: C23_37  and  C25_39 
ROOT
HETATM    1  C6  UNL     1      -1.435   0.514   0.468  1.00  0.00     0.180 C 
ENDROOT
BRANCH   1   2
HETATM    2  N3  UNL     1      -0.256   0.129  -0.160  1.00  0.00    -0.406 N 
ATOM      3  H3  UNL     1       0.574   0.570   0.236  1.00  0.00     0.154 HD
BRANCH   2   4
HETATM    4  C5  UNL     1       0.022  -0.705  -1.183  1.00  0.00     0.148 C 
BRANCH   4   5
HETATM    5  C4  UNL     1       1.585  -0.570  -1.536  1.00  0.00     0.240 C 
BRANCH   5   6
HETATM    6  N2  UNL     1       2.325  -0.692  -0.408  1.00  0.00    -0.412 NA
HETATM    7  C3  UNL     1       3.085  -0.829   0.757  1.00  0.00     0.309 C 
HETATM    8  O1  UNL     1       3.039  -1.851   1.485  1.00  0.00    -0.255 OA
BRANCH   7   9
HETATM    9  C2  UNL     1       3.977   0.322   1.145  1.00  0.00     0.188 C 
BRANCH   9  10
HETATM   10  N1  UNL     1       3.731   0.701   2.528  1.00  0.00    -0.412 N 
HETATM   11  C1  UNL     1       3.941  -0.177   3.573  1.00  0.00     0.141 C 
ATOM     12  H1  UNL     1       3.394   1.642   2.731  1.00  0.00     0.153 HD
ENDBRANCH   9  10
BRANCH   9  13
HETATM   13  C23 UNL     1       5.408   0.233   0.862  1.00  0.00     0.018 C 
HETATM   14  C24 UNL     1       6.172  -0.770   1.738  1.00  0.00     0.013 C 
BRANCH  13  15
HETATM   15  C25 UNL     1       5.919   0.106  -0.528  1.00  0.00    -0.008 C 
HETATM   16  C26 UNL     1       5.517  -1.091  -1.322  1.00  0.00     0.005 C 
HETATM   17  C27 UNL     1       6.765  -1.429  -2.190  1.00  0.00     0.000 C 
HETATM   18  C28 UNL     1       7.542  -0.188  -2.500  1.00  0.00     0.000 C 
HETATM   19  C29 UNL     1       6.693   1.050  -2.627  1.00  0.00     0.000 C 
HETATM   20  C30 UNL     1       5.797   1.296  -1.418  1.00  0.00     0.005 C 
ENDBRANCH  13  15
ENDBRANCH   9  13
ENDBRANCH   7   9
ENDBRANCH   5   6
ENDBRANCH   4   5
ENDBRANCH   2   4
ENDBRANCH   1   2
BRANCH   1  21
HETATM   21  C7  UNL     1      -2.216   1.402  -0.506  1.00  0.00     0.240 C 
HETATM   22  O2  UNL     1      -2.173   1.086  -1.755  1.00  0.00    -0.285 OA
BRANCH  21  23
HETATM   23  C8  UNL     1      -2.976   2.540  -0.136  1.00  0.00     0.289 C 
HETATM   24  O3  UNL     1      -3.077   2.981   1.035  1.00  0.00    -0.264 OA
HETATM   25  N4  UNL     1      -3.695   3.259  -1.133  1.00  0.00    -0.354 N 
ATOM     26  H4  UNL     1      -3.632   2.929  -2.096  1.00  0.00     0.162 HD
BRANCH  25  27
HETATM   27  C9  UNL     1      -4.505   4.421  -0.873  1.00  0.00     0.126 C 
BRANCH  27  28
HETATM   28  C10 UNL     1      -3.740   5.574  -0.246  1.00  0.00    -0.005 C 
HETATM   29  C11 UNL     1      -4.694   6.762  -0.034  1.00  0.00     0.011 C 
HETATM   30  C12 UNL     1      -2.663   6.037  -1.190  1.00  0.00     0.011 C 
ENDBRANCH  27  28
ENDBRANCH  25  27
ENDBRANCH  21  23
ENDBRANCH   1  21
BRANCH   1  31
HETATM   31  C13 UNL     1      -2.281  -0.676   0.841  1.00  0.00     0.117 C 
BRANCH  31  32
HETATM   32  C14 UNL     1      -3.474  -0.278   1.751  1.00  0.00     0.031 C 
BRANCH  32  33
HETATM   33  C15 UNL     1      -3.055   0.255   3.082  1.00  0.00    -0.021 C 
HETATM   34  C16 UNL     1      -4.378   0.609   3.791  1.00  0.00     0.009 C 
HETATM   35  C17 UNL     1      -2.458  -0.882   3.922  1.00  0.00     0.009 C 
ENDBRANCH  32  33
ENDBRANCH  31  32
BRANCH  31  36
HETATM   36  N5  UNL     1      -2.977  -1.340  -0.258  1.00  0.00    -0.330 N 
HETATM   37  C18 UNL     1      -3.113  -2.746  -0.313  1.00  0.00     0.361 C 
HETATM   38  O4  UNL     1      -2.623  -3.538   0.540  1.00  0.00    -0.238 OA
ATOM     39  H5  UNL     1      -3.376  -0.774  -1.007  1.00  0.00     0.165 HD
BRANCH  37  40
HETATM   40  O5  UNL     1      -3.842  -3.294  -1.358  1.00  0.00    -0.294 OA
BRANCH  40  41
HETATM   41  C19 UNL     1      -4.141  -4.620  -1.618  1.00  0.00     0.061 C 
HETATM   42  C20 UNL     1      -3.013  -5.543  -1.907  1.00  0.00     0.046 C 
HETATM   43  C21 UNL     1      -5.181  -4.758  -2.709  1.00  0.00     0.046 C 
HETATM   44  C22 UNL     1      -4.844  -5.156  -0.356  1.00  0.00     0.046 C 
ENDBRANCH  40  41
ENDBRANCH  37  40
ENDBRANCH  31  36
ENDBRANCH   1  31
TORSDOF 18
