REMARK  15 active torsions:
REMARK  status: ('A' for Active; 'I' for Inactive)
REMARK    1  A    between atoms: C2_2  and  C3_3 
REMARK    2  A    between atoms: C3_3  and  C4_4 
REMARK    3  A    between atoms: C4_4  and  C5_5 
REMARK    4  A    between atoms: C5_5  and  C6_6 
REMARK    5  A    between atoms: C6_6  and  C7_7 
REMARK    6  A    between atoms: C7_7  and  C8_8 
REMARK    7  A    between atoms: C10_12  and  C11_13 
REMARK    8  A    between atoms: C11_13  and  C12_14 
REMARK    9  A    between atoms: C12_14  and  C13_15 
REMARK   10  A    between atoms: C13_15  and  N1_16 
REMARK   11  A    between atoms: C24_34  and  C25_35 
REMARK   12  A    between atoms: C25_35  and  C26_36 
REMARK   13  A    between atoms: C26_36  and  C27_37 
REMARK   14  A    between atoms: C27_37  and  C28_38 
REMARK   15  A    between atoms: C28_38  and  N5_39 
ROOT
HETATM    1  C8  UNL     1       1.789  -0.613   0.415  1.00  0.00     0.223 C 
HETATM    2  O1  UNL     1       1.423  -0.136   1.675  1.00  0.00    -0.305 OA
HETATM    3  C9  UNL     1       0.825   1.001   2.076  1.00  0.00     0.273 C 
HETATM    4  O2  UNL     1       1.415   1.715   2.973  1.00  0.00    -0.264 OA
HETATM    5  C10 UNL     1      -0.461   1.586   1.630  1.00  0.00     0.147 C 
HETATM    6  S1  UNL     1      -1.158   0.913   0.153  1.00  0.00    -0.154 SA
HETATM    7  C15 UNL     1      -0.697   1.700  -1.380  1.00  0.00     0.075 C 
HETATM    8  C16 UNL     1      -1.820   1.709  -2.403  1.00  0.00     0.010 C 
HETATM    9  C17 UNL     1      -2.631   0.458  -2.370  1.00  0.00     0.001 C 
HETATM   10  C18 UNL     1      -2.393  -0.465  -3.551  1.00  0.00     0.000 C 
HETATM   11  C19 UNL     1      -1.077  -1.166  -3.321  1.00  0.00     0.000 C 
HETATM   12  C20 UNL     1      -1.013  -2.545  -3.861  1.00  0.00     0.002 C 
HETATM   13  C21 UNL     1      -1.001  -3.645  -2.839  1.00  0.00     0.020 C 
HETATM   14  C22 UNL     1      -0.180  -3.331  -1.612  1.00  0.00     0.122 C 
HETATM   15  N4  UNL     1      -1.015  -3.034  -0.465  1.00  0.00    -0.359 N 
ATOM     16  H4  UNL     1      -1.998  -2.832  -0.649  1.00  0.00     0.162 HD
HETATM   17  C23 UNL     1      -0.596  -2.998   0.885  1.00  0.00     0.240 C 
HETATM   18  O3  UNL     1      -1.378  -2.432   1.700  1.00  0.00    -0.271 OA
HETATM   19  C24 UNL     1       0.659  -3.553   1.438  1.00  0.00     0.176 C 
HETATM   20  N6  UNL     1       1.839  -3.189   0.670  1.00  0.00    -0.346 N 
ATOM     21  H6  UNL     1       2.249  -3.923   0.092  1.00  0.00     0.163 HD
HETATM   22  C29 UNL     1       2.478  -1.934   0.636  1.00  0.00     0.248 C 
HETATM   23  O4  UNL     1       3.727  -1.851   0.797  1.00  0.00    -0.271 OA
ENDROOT
BRANCH   5  24
HETATM   24  C11 UNL     1      -0.329   3.096   1.614  1.00  0.00     0.027 C 
BRANCH  24  25
HETATM   25  C12 UNL     1      -1.577   3.802   1.186  1.00  0.00     0.021 C 
BRANCH  25  26
HETATM   26  C13 UNL     1      -2.703   3.443   2.158  1.00  0.00     0.122 C 
BRANCH  26  27
HETATM   27  N1  UNL     1      -3.921   4.113   1.771  1.00  0.00    -0.367 N 
HETATM   28  C14 UNL     1      -4.534   4.868   2.613  1.00  0.00     0.196 C 
HETATM   29  N2  UNL     1      -5.733   5.536   2.253  1.00  0.00    -0.067 NA
HETATM   30  N3  UNL     1      -4.017   5.044   3.921  1.00  0.00    -0.067 NA
ATOM     31  H1  UNL     1      -4.296   3.988   0.831  1.00  0.00     0.161 HD
ENDBRANCH  26  27
ENDBRANCH  25  26
ENDBRANCH  24  25
ENDBRANCH   5  24
BRANCH   1  32
HETATM   32  C7  UNL     1       2.768   0.355  -0.268  1.00  0.00     0.042 C 
BRANCH  32  33
HETATM   33  C6  UNL     1       3.178  -0.111  -1.620  1.00  0.00     0.003 C 
BRANCH  33  34
HETATM   34  C5  UNL     1       4.137   0.829  -2.288  1.00  0.00     0.000 C 
BRANCH  34  35
HETATM   35  C4  UNL     1       3.544   2.211  -2.467  1.00  0.00     0.000 C 
BRANCH  35  36
HETATM   36  C3  UNL     1       4.547   3.108  -3.139  1.00  0.00    -0.000 C 
BRANCH  36  37
HETATM   37  C2  UNL     1       3.945   4.489  -3.312  1.00  0.00    -0.005 C 
HETATM   38  C1  UNL     1       3.567   5.107  -2.006  1.00  0.00     0.005 C 
ENDBRANCH  36  37
ENDBRANCH  35  36
ENDBRANCH  34  35
ENDBRANCH  33  34
ENDBRANCH  32  33
ENDBRANCH   1  32
BRANCH  19  39
HETATM   39  C25 UNL     1       0.578  -5.080   1.572  1.00  0.00     0.035 C 
BRANCH  39  40
HETATM   40  C26 UNL     1      -0.517  -5.545   2.464  1.00  0.00     0.004 C 
BRANCH  40  41
HETATM   41  C27 UNL     1      -0.406  -5.047   3.893  1.00  0.00     0.027 C 
BRANCH  41  42
HETATM   42  C28 UNL     1      -1.565  -5.582   4.733  1.00  0.00     0.229 C 
BRANCH  42  43
HETATM   43  N5  UNL     1      -1.358  -5.046   6.070  1.00  0.00    -0.079 N 
ATOM     44  H53 UNL     1      -0.439  -5.257   6.458  1.00  0.00     0.274 HD
ATOM     45  H52 UNL     1      -1.269  -4.030   6.095  1.00  0.00     0.274 HD
ATOM     46  H51 UNL     1      -2.132  -5.403   6.631  1.00  0.00     0.274 HD
ENDBRANCH  42  43
ENDBRANCH  41  42
ENDBRANCH  40  41
ENDBRANCH  39  40
ENDBRANCH  19  39
TORSDOF 15
