REMARK  16 active torsions:
REMARK  status: ('A' for Active; 'I' for Inactive)
REMARK    1  A    between atoms: C2_2  and  C3_3 
REMARK    2  A    between atoms: C3_3  and  C5_5 
REMARK    3  A    between atoms: C5_5  and  N1_6 
REMARK    4  A    between atoms: C5_5  and  C13_16 
REMARK       I    between atoms: N1_6  and  C6_8 
REMARK    5  A    between atoms: C6_8  and  C7_10 
REMARK       I    between atoms: C13_16  and  N2_18 
REMARK    6  A    between atoms: N2_18  and  C14_20 
REMARK    7  A    between atoms: C14_20  and  C15_21 
REMARK    8  A    between atoms: C15_21  and  O3_22 
REMARK    9  A    between atoms: C15_21  and  C16_24 
REMARK   10  A    between atoms: C16_24  and  C17_25 
REMARK   11  A    between atoms: C16_24  and  N3_29 
REMARK   12  A    between atoms: C17_25  and  C18_26 
REMARK   13  A    between atoms: N3_29  and  C21_31 
REMARK   14  A    between atoms: C21_31  and  C23_33 
REMARK   15  A    between atoms: C26_36  and  C27_37 
REMARK   16  A    between atoms: C27_37  and  C28_38 
ROOT
HETATM    1  C15 UNL     1       0.577  -1.334  -0.717  1.00  0.00     0.201 C 
ENDROOT
BRANCH   1   2
HETATM    2  C14 UNL     1       0.068  -0.343   0.209  1.00  0.00     0.101 C 
BRANCH   2   3
HETATM    3  N2  UNL     1      -1.254  -0.529   0.675  1.00  0.00    -0.333 N 
HETATM    4  C13 UNL     1      -2.506  -0.426  -0.008  1.00  0.00     0.268 C 
HETATM    5  O2  UNL     1      -2.499  -0.119  -1.220  1.00  0.00    -0.266 OA
ATOM      6  H2  UNL     1      -1.327  -0.778   1.662  1.00  0.00     0.168 HD
BRANCH   4   7
HETATM    7  C5  UNL     1      -3.759  -0.681   0.774  1.00  0.00     0.084 C 
BRANCH   7   8
HETATM    8  C3  UNL     1      -4.212  -2.112   0.800  1.00  0.00     0.037 C 
HETATM    9  C4  UNL     1      -3.008  -3.028   1.067  1.00  0.00     0.016 C 
BRANCH   8  10
HETATM   10  C2  UNL     1      -4.983  -2.579  -0.373  1.00  0.00     0.006 C 
HETATM   11  C1  UNL     1      -4.375  -2.668  -1.704  1.00  0.00     0.006 C 
ENDBRANCH   8  10
ENDBRANCH   7   8
BRANCH   7  12
HETATM   12  N1  UNL     1      -4.798   0.286   0.585  1.00  0.00    -0.325 N 
HETATM   13  C6  UNL     1      -4.970   1.440   1.372  1.00  0.00     0.226 C 
HETATM   14  O1  UNL     1      -4.166   1.666   2.317  1.00  0.00    -0.273 OA
ATOM     15  H1  UNL     1      -5.461   0.127  -0.174  1.00  0.00     0.168 HD
BRANCH  13  16
HETATM   16  C7  UNL     1      -6.048   2.399   1.145  1.00  0.00     0.078 C 
HETATM   17  C8  UNL     1      -7.375   1.684   1.398  1.00  0.00     0.014 C 
HETATM   18  C9  UNL     1      -8.516   2.663   1.456  1.00  0.00     0.001 C 
HETATM   19  C10 UNL     1      -8.181   3.920   0.695  1.00  0.00     0.000 C 
HETATM   20  C11 UNL     1      -7.408   3.524  -0.538  1.00  0.00     0.001 C 
HETATM   21  C12 UNL     1      -6.043   2.983  -0.235  1.00  0.00     0.014 C 
ENDBRANCH  13  16
ENDBRANCH   7  12
ENDBRANCH   4   7
ENDBRANCH   2   3
ENDBRANCH   1   2
BRANCH   1  22
HETATM   22  O3  UNL     1      -0.211  -1.483  -1.854  1.00  0.00    -0.385 OA
ATOM     23  H3  UNL     1       0.123  -2.133  -2.461  1.00  0.00     0.211 HD
ENDBRANCH   1  22
BRANCH   1  24
HETATM   24  C16 UNL     1       2.022  -1.288  -1.130  1.00  0.00     0.017 C 
BRANCH  24  25
HETATM   25  C17 UNL     1       2.221  -2.462  -2.057  1.00  0.00     0.059 C 
BRANCH  25  26
HETATM   26  C18 UNL     1       1.928  -3.809  -1.582  1.00  0.00    -0.017 C 
HETATM   27  C19 UNL     1       2.219  -4.833  -2.693  1.00  0.00     0.010 C 
HETATM   28  C20 UNL     1       2.548  -4.344  -0.350  1.00  0.00     0.010 C 
ENDBRANCH  25  26
ENDBRANCH  24  25
BRANCH  24  29
HETATM   29  N3  UNL     1       3.068  -1.019  -0.254  1.00  0.00    -0.388 N 
ATOM     30  H3  UNL     1       3.715  -1.766  -0.001  1.00  0.00     0.159 HD
BRANCH  29  31
HETATM   31  C21 UNL     1       3.250   0.274   0.292  1.00  0.00     0.100 C 
HETATM   32  C22 UNL     1       3.476   0.138   1.797  1.00  0.00     0.034 C 
BRANCH  31  33
HETATM   33  C23 UNL     1       4.386   1.106  -0.252  1.00  0.00     0.108 C 
HETATM   34  C24 UNL     1       4.377   2.458   0.385  1.00  0.00     0.028 C 
HETATM   35  C25 UNL     1       5.310   2.767   1.480  1.00  0.00     0.017 C 
HETATM   36  C26 UNL     1       6.732   2.437   1.144  1.00  0.00     0.088 C 
HETATM   37  C29 UNL     1       6.811   1.195   0.379  1.00  0.00     0.224 C 
HETATM   38  O6  UNL     1       7.944   0.751   0.098  1.00  0.00    -0.273 OA
HETATM   39  N4  UNL     1       5.649   0.469  -0.057  1.00  0.00    -0.349 N 
HETATM   40  C30 UNL     1       5.842  -0.936  -0.303  1.00  0.00     0.153 C 
BRANCH  36  41
HETATM   41  C27 UNL     1       7.323   3.606   0.391  1.00  0.00     0.127 C 
BRANCH  41  42
HETATM   42  C28 UNL     1       8.736   3.389   0.019  1.00  0.00     0.173 C 
HETATM   43  O4  UNL     1       8.995   3.044  -1.164  1.00  0.00    -0.648 OA
HETATM   44  O5  UNL     1       9.802   3.546   0.896  1.00  0.00    -0.648 OA
ENDBRANCH  41  42
ENDBRANCH  36  41
ENDBRANCH  31  33
ENDBRANCH  29  31
ENDBRANCH  24  29
ENDBRANCH   1  24
TORSDOF 16
