REMARK  16 active torsions:
REMARK  status: ('A' for Active; 'I' for Inactive)
REMARK    1  A    between atoms: C3_3  and  N1_4 
REMARK       I    between atoms: N1_4  and  C4_6 
REMARK    2  A    between atoms: C4_6  and  C5_8 
REMARK    3  A    between atoms: C5_8  and  N2_9 
REMARK    4  A    between atoms: C5_8  and  C19_38 
REMARK    5  A    between atoms: N2_9  and  S1_11 
REMARK    6  A    between atoms: S1_11  and  C6_14 
REMARK    7  A    between atoms: C6_14  and  C7_15 
REMARK    8  A    between atoms: C7_15  and  C8_16 
REMARK    9  A    between atoms: C8_16  and  C9_17 
REMARK   10  A    between atoms: C10_20  and  C11_21 
REMARK   11  A    between atoms: C11_21  and  C12_22 
REMARK   12  A    between atoms: C11_21  and  N5_30 
REMARK   13  A    between atoms: C12_22  and  C13_23 
REMARK   14  A    between atoms: C13_23  and  C14_24 
REMARK   15  A    between atoms: C14_24  and  C15_25 
REMARK   16  A    between atoms: C15_25  and  N4_26 
REMARK       I    between atoms: N5_30  and  C16_32 
ROOT
HETATM    1  C1  UNL     1       6.175   2.705  -3.322  1.00  0.00     0.015 C 
HETATM    2  C2  UNL     1       6.511   2.141  -2.319  1.00  0.00    -0.086 C 
HETATM    3  C3  UNL     1       6.892   1.449  -1.103  1.00  0.00     0.096 C 
HETATM    4  C25 UNL     1       8.081   0.536  -1.283  1.00  0.00     0.044 C 
HETATM    5  C26 UNL     1       9.214   1.523  -1.466  1.00  0.00     0.004 C 
HETATM    6  C27 UNL     1       8.782   2.800  -0.788  1.00  0.00     0.004 C 
HETATM    7  C28 UNL     1       7.455   2.457  -0.099  1.00  0.00     0.044 C 
ENDROOT
BRANCH   3   8
HETATM    8  N1  UNL     1       5.781   0.711  -0.541  1.00  0.00    -0.336 N 
HETATM    9  C4  UNL     1       4.587   1.297  -0.132  1.00  0.00     0.266 C 
HETATM   10  O1  UNL     1       4.483   2.583  -0.257  1.00  0.00    -0.266 OA
ATOM     11  H1  UNL     1       5.879  -0.299  -0.439  1.00  0.00     0.164 HD
BRANCH   9  12
HETATM   12  C5  UNL     1       3.395   0.669   0.440  1.00  0.00     0.091 C 
BRANCH  12  13
HETATM   13  N2  UNL     1       2.844   1.419   1.540  1.00  0.00    -0.282 N 
ATOM     14  H2  UNL     1       3.278   1.409   2.463  1.00  0.00     0.178 HD
BRANCH  13  15
HETATM   15  S1  UNL     1       1.454   2.310   1.231  1.00  0.00     0.230 S 
HETATM   16  O2  UNL     1       1.091   3.165   2.427  1.00  0.00    -0.206 OA
HETATM   17  O3  UNL     1       1.724   3.240   0.046  1.00  0.00    -0.206 OA
BRANCH  15  18
HETATM   18  C6  UNL     1       0.098   1.273   0.771  1.00  0.00     0.164 C 
BRANCH  18  19
HETATM   19  C7  UNL     1      -0.258   0.386   1.943  1.00  0.00     0.024 C 
BRANCH  19  20
HETATM   20  C8  UNL     1      -1.391  -0.542   1.681  1.00  0.00     0.077 C 
BRANCH  20  21
HETATM   21  C9  UNL     1      -2.681   0.113   1.405  1.00  0.00     0.081 A 
HETATM   22  N3  UNL     1      -3.764  -0.606   0.986  1.00  0.00    -0.346 N 
HETATM   23  C10 UNL     1      -4.797   0.227   0.837  1.00  0.00     0.049 A 
ATOM     24  H3  UNL     1      -3.781  -1.611   0.815  1.00  0.00     0.167 HD
HETATM   25  C18 UNL     1      -4.335   1.466   1.169  1.00  0.00     0.116 A 
HETATM   26  N6  UNL     1      -3.017   1.407   1.525  1.00  0.00    -0.354 N 
ATOM     27  H6  UNL     1      -2.418   2.179   1.818  1.00  0.00     0.166 HD
BRANCH  23  28
HETATM   28  C11 UNL     1      -6.192  -0.126   0.385  1.00  0.00     0.136 C 
BRANCH  28  29
HETATM   29  C12 UNL     1      -6.166  -0.335  -1.097  1.00  0.00     0.031 C 
BRANCH  29  30
HETATM   30  C13 UNL     1      -7.517  -0.689  -1.640  1.00  0.00     0.004 C 
BRANCH  30  31
HETATM   31  C14 UNL     1      -8.565   0.363  -1.411  1.00  0.00     0.027 C 
BRANCH  31  32
HETATM   32  C15 UNL     1      -9.867  -0.151  -2.026  1.00  0.00     0.229 C 
BRANCH  32  33
HETATM   33  N4  UNL     1      -9.552  -0.348  -3.449  1.00  0.00    -0.079 N 
ATOM     34  H43 UNL     1      -9.173   0.480  -3.909  1.00  0.00     0.274 HD
ATOM     35  H42 UNL     1      -8.747  -0.951  -3.617  1.00  0.00     0.274 HD
ATOM     36  H41 UNL     1     -10.421  -0.691  -3.859  1.00  0.00     0.274 HD
ENDBRANCH  32  33
ENDBRANCH  31  32
ENDBRANCH  30  31
ENDBRANCH  29  30
ENDBRANCH  28  29
BRANCH  28  37
HETATM   37  N5  UNL     1      -6.596  -1.313   1.104  1.00  0.00    -0.351 N 
HETATM   38  C16 UNL     1      -7.627  -1.295   2.071  1.00  0.00     0.214 C 
HETATM   39  C17 UNL     1      -8.026  -2.541   2.801  1.00  0.00     0.117 C 
HETATM   40  O4  UNL     1      -8.207  -0.206   2.308  1.00  0.00    -0.274 OA
ATOM     41  H5  UNL     1      -6.121  -2.194   0.907  1.00  0.00     0.163 HD
ENDBRANCH  28  37
ENDBRANCH  23  28
ENDBRANCH  20  21
ENDBRANCH  19  20
ENDBRANCH  18  19
ENDBRANCH  15  18
ENDBRANCH  13  15
ENDBRANCH  12  13
BRANCH  12  42
HETATM   42  C19 UNL     1       3.342  -0.780   0.605  1.00  0.00     0.042 C 
HETATM   43  C20 UNL     1       3.426  -1.545  -0.694  1.00  0.00     0.011 C 
HETATM   44  C21 UNL     1       2.914  -2.957  -0.346  1.00  0.00     0.001 C 
HETATM   45  C22 UNL     1       3.972  -3.601   0.500  1.00  0.00     0.000 C 
HETATM   46  C23 UNL     1       4.849  -2.677   1.265  1.00  0.00     0.001 C 
HETATM   47  C24 UNL     1       4.274  -1.360   1.645  1.00  0.00     0.011 C 
ENDBRANCH  12  42
ENDBRANCH   9  12
ENDBRANCH   3   8
TORSDOF 16
