REMARK  16 active torsions:
REMARK  status: ('A' for Active; 'I' for Inactive)
REMARK    1  A    between atoms: C2_2  and  C4_4 
REMARK    2  A    between atoms: C4_4  and  C5_5 
REMARK    3  A    between atoms: C5_5  and  N1_6 
REMARK    4  A    between atoms: C5_5  and  C12_23 
REMARK       I    between atoms: N1_6  and  C6_8 
REMARK    5  A    between atoms: C6_8  and  C7_10 
REMARK    6  A    between atoms: C7_10  and  N2_11 
REMARK    7  A    between atoms: C7_10  and  C8_15 
REMARK    8  A    between atoms: C8_15  and  C9_16 
REMARK    9  A    between atoms: C9_16  and  C10_17 
REMARK   10  A    between atoms: C10_17  and  C11_18 
REMARK   11  A    between atoms: C11_18  and  N3_19 
REMARK       I    between atoms: C12_23  and  N4_25 
REMARK   12  A    between atoms: N4_25  and  C13_27 
REMARK   13  A    between atoms: N5_31  and  C17_32 
REMARK   14  A    between atoms: C17_32  and  C18_33 
REMARK   15  A    between atoms: C21_36  and  C22_37 
REMARK       I    between atoms: C22_37  and  N6_39 
REMARK   16  A    between atoms: N6_39  and  C23_41 
ROOT
HETATM    1  C12 UNL     1      -2.719   1.055   0.358  1.00  0.00     0.240 C 
HETATM    2  O2  UNL     1      -2.242  -0.096   0.429  1.00  0.00    -0.271 OA
HETATM    3  N4  UNL     1      -1.932   2.201   0.652  1.00  0.00    -0.353 N 
ATOM      4  H4  UNL     1      -2.335   3.136   0.591  1.00  0.00     0.163 HD
ENDROOT
BRANCH   3   5
HETATM    5  C13 UNL     1      -0.552   2.020   1.039  1.00  0.00     0.107 C 
HETATM    6  C14 UNL     1      -0.134   2.761   2.260  1.00  0.00     0.029 C 
HETATM    7  C15 UNL     1       1.012   3.676   1.976  1.00  0.00     0.022 C 
HETATM    8  C16 UNL     1       2.172   2.946   1.300  1.00  0.00     0.122 C 
HETATM    9  N5  UNL     1       1.683   2.058   0.277  1.00  0.00    -0.387 N 
HETATM   10  C30 UNL     1       0.379   2.453  -0.107  1.00  0.00     0.102 C 
HETATM   11  C31 UNL     1      -0.111   1.898  -1.423  1.00  0.00     0.034 C 
BRANCH   9  12
HETATM   12  C17 UNL     1       1.962   0.697   0.456  1.00  0.00     0.063 C 
BRANCH  12  13
HETATM   13  C18 UNL     1       3.412   0.317   0.324  1.00  0.00     0.024 C 
HETATM   14  C19 UNL     1       3.931   0.657  -1.055  1.00  0.00     0.010 C 
HETATM   15  C20 UNL     1       5.421   0.444  -1.077  1.00  0.00     0.015 C 
HETATM   16  C21 UNL     1       5.874  -0.583  -0.049  1.00  0.00     0.078 C 
HETATM   17  C28 UNL     1       4.881  -1.699   0.106  1.00  0.00     0.015 C 
HETATM   18  C29 UNL     1       3.524  -1.177   0.517  1.00  0.00     0.010 C 
BRANCH  16  19
HETATM   19  C22 UNL     1       7.169  -1.135  -0.490  1.00  0.00     0.222 C 
HETATM   20  O3  UNL     1       7.218  -1.723  -1.606  1.00  0.00    -0.273 OA
HETATM   21  N6  UNL     1       8.346  -1.036   0.270  1.00  0.00    -0.356 N 
ATOM     22  H6  UNL     1       8.312  -0.562   1.173  1.00  0.00     0.162 HD
BRANCH  21  23
HETATM   23  C23 UNL     1       9.592  -1.579  -0.181  1.00  0.00     0.084 C 
HETATM   24  C24 UNL     1      10.302  -2.432   0.845  1.00  0.00     0.025 C 
HETATM   25  C25 UNL     1      11.771  -2.129   0.684  1.00  0.00     0.002 C 
HETATM   26  C26 UNL     1      11.892  -1.066  -0.379  1.00  0.00     0.002 C 
HETATM   27  C27 UNL     1      10.548  -0.393  -0.360  1.00  0.00     0.025 C 
ENDBRANCH  21  23
ENDBRANCH  16  19
ENDBRANCH  12  13
ENDBRANCH   9  12
ENDBRANCH   3   5
BRANCH   1  28
HETATM   28  C5  UNL     1      -4.157   1.183  -0.054  1.00  0.00     0.177 C 
BRANCH  28  29
HETATM   29  C4  UNL     1      -4.943   1.868   1.016  1.00  0.00     0.038 C 
BRANCH  29  30
HETATM   30  C2  UNL     1      -6.402   2.039   0.730  1.00  0.00    -0.020 C 
HETATM   31  C1  UNL     1      -6.611   2.860  -0.500  1.00  0.00     0.009 C 
HETATM   32  C3  UNL     1      -7.029   2.758   1.930  1.00  0.00     0.009 C 
ENDBRANCH  29  30
ENDBRANCH  28  29
BRANCH  28  33
HETATM   33  N1  UNL     1      -4.640  -0.156  -0.321  1.00  0.00    -0.346 N 
HETATM   34  C6  UNL     1      -4.924  -0.497  -1.663  1.00  0.00     0.248 C 
HETATM   35  O1  UNL     1      -4.763   0.336  -2.608  1.00  0.00    -0.271 OA
ATOM     36  H1  UNL     1      -4.771  -0.830   0.433  1.00  0.00     0.163 HD
BRANCH  34  37
HETATM   37  C7  UNL     1      -5.417  -1.843  -1.983  1.00  0.00     0.274 C 
BRANCH  37  38
HETATM   38  N2  UNL     1      -5.481  -1.982  -3.427  1.00  0.00    -0.067 N 
ATOM     39  H23 UNL     1      -6.036  -1.248  -3.866  1.00  0.00     0.275 HD
ATOM     40  H22 UNL     1      -4.591  -1.774  -3.879  1.00  0.00     0.275 HD
ATOM     41  H21 UNL     1      -5.823  -2.917  -3.649  1.00  0.00     0.275 HD
ENDBRANCH  37  38
BRANCH  37  42
HETATM   42  C8  UNL     1      -6.800  -1.984  -1.364  1.00  0.00     0.042 C 
BRANCH  42  43
HETATM   43  C9  UNL     1      -7.381  -3.351  -1.649  1.00  0.00     0.004 C 
BRANCH  43  44
HETATM   44  C10 UNL     1      -8.754  -3.510  -1.050  1.00  0.00     0.027 C 
BRANCH  44  45
HETATM   45  C11 UNL     1      -8.716  -3.342   0.435  1.00  0.00     0.229 C 
BRANCH  45  46
HETATM   46  N3  UNL     1     -10.048  -3.503   1.030  1.00  0.00    -0.079 N 
ATOM     47  H33 UNL     1     -10.727  -2.874   0.601  1.00  0.00     0.274 HD
ATOM     48  H32 UNL     1     -10.469  -4.394   0.766  1.00  0.00     0.274 HD
ATOM     49  H31 UNL     1     -10.022  -3.388   2.043  1.00  0.00     0.274 HD
ENDBRANCH  45  46
ENDBRANCH  44  45
ENDBRANCH  43  44
ENDBRANCH  42  43
ENDBRANCH  37  42
ENDBRANCH  34  37
ENDBRANCH  28  33
ENDBRANCH   1  28
TORSDOF 16
