REMARK  16 active torsions:
REMARK  status: ('A' for Active; 'I' for Inactive)
REMARK    1  A    between atoms: C2_2  and  C4_4 
REMARK    2  A    between atoms: C4_4  and  C5_5 
REMARK    3  A    between atoms: C5_5  and  N1_6 
REMARK    4  A    between atoms: C5_5  and  C6_10 
REMARK       I    between atoms: C6_10  and  N2_12 
REMARK    5  A    between atoms: N2_12  and  C7_14 
REMARK    6  A    between atoms: C7_14  and  C8_15 
REMARK    7  A    between atoms: C7_14  and  C23_37 
REMARK    8  A    between atoms: C8_15  and  C9_16 
REMARK       I    between atoms: C9_16  and  N3_18 
REMARK    9  A    between atoms: N3_18  and  C10_20 
REMARK   10  A    between atoms: C10_20  and  C11_21 
REMARK   11  A    between atoms: C10_20  and  C18_28 
REMARK   12  A    between atoms: C11_21  and  C12_22 
REMARK   13  A    between atoms: C18_28  and  N4_29 
REMARK   14  A    between atoms: C18_28  and  C19_33 
REMARK   15  A    between atoms: C19_33  and  C20_34 
REMARK       I    between atoms: C23_37  and  N5_39 
REMARK   16  A    between atoms: N5_39  and  C24_41 
ROOT
HETATM    1  C7  UNL     1      -2.019  -0.516  -0.515  1.00  0.00     0.185 C 
ENDROOT
BRANCH   1   2
HETATM    2  N2  UNL     1      -1.954   0.855  -0.950  1.00  0.00    -0.346 N 
HETATM    3  C6  UNL     1      -1.771   1.276  -2.291  1.00  0.00     0.249 C 
HETATM    4  O1  UNL     1      -1.660   0.397  -3.179  1.00  0.00    -0.271 OA
ATOM      5  H2  UNL     1      -2.047   1.579  -0.238  1.00  0.00     0.163 HD
BRANCH   3   6
HETATM    6  C5  UNL     1      -1.709   2.710  -2.655  1.00  0.00     0.275 C 
BRANCH   6   7
HETATM    7  C4  UNL     1      -0.671   3.451  -1.852  1.00  0.00     0.046 C 
BRANCH   7   8
HETATM    8  C2  UNL     1      -0.617   4.914  -2.146  1.00  0.00    -0.020 C 
HETATM    9  C1  UNL     1      -1.912   5.641  -1.878  1.00  0.00     0.009 C 
HETATM   10  C3  UNL     1      -0.135   5.270  -3.518  1.00  0.00     0.009 C 
ENDBRANCH   7   8
ENDBRANCH   6   7
BRANCH   6  11
HETATM   11  N1  UNL     1      -1.475   2.824  -4.067  1.00  0.00    -0.066 N 
ATOM     12  H13 UNL     1      -1.411   3.801  -4.355  1.00  0.00     0.275 HD
ATOM     13  H12 UNL     1      -0.532   2.523  -4.312  1.00  0.00     0.275 HD
ATOM     14  H11 UNL     1      -2.178   2.322  -4.610  1.00  0.00     0.275 HD
ENDBRANCH   6  11
ENDBRANCH   3   6
ENDBRANCH   1   2
BRANCH   1  15
HETATM   15  C8  UNL     1      -1.162  -0.695   0.695  1.00  0.00     0.137 C 
BRANCH  15  16
HETATM   16  C9  UNL     1       0.243  -0.388   0.468  1.00  0.00     0.220 C 
HETATM   17  O2  UNL     1       0.567  -0.101  -0.743  1.00  0.00    -0.274 OA
HETATM   18  N3  UNL     1       1.258  -0.372   1.407  1.00  0.00    -0.354 N 
ATOM     19  H3  UNL     1       1.058  -0.585   2.384  1.00  0.00     0.162 HD
BRANCH  18  20
HETATM   20  C10 UNL     1       2.718  -0.023   0.956  1.00  0.00     0.115 C 
BRANCH  20  21
HETATM   21  C11 UNL     1       2.896   1.283   1.585  1.00  0.00     0.032 C 
BRANCH  21  22
HETATM   22  C12 UNL     1       3.974   2.218   1.549  1.00  0.00    -0.013 C 
HETATM   23  C13 UNL     1       5.301   1.758   2.059  1.00  0.00     0.005 C 
HETATM   24  C14 UNL     1       6.130   2.985   2.490  1.00  0.00     0.000 C 
HETATM   25  C15 UNL     1       6.165   3.979   1.361  1.00  0.00     0.000 C 
HETATM   26  C16 UNL     1       5.660   3.317   0.092  1.00  0.00     0.000 C 
HETATM   27  C17 UNL     1       4.196   2.983   0.268  1.00  0.00     0.005 C 
ENDBRANCH  21  22
ENDBRANCH  20  21
BRANCH  20  28
HETATM   28  C18 UNL     1       3.378  -1.246   1.475  1.00  0.00     0.206 C 
BRANCH  28  29
HETATM   29  N4  UNL     1       2.549  -2.349   0.767  1.00  0.00    -0.073 N 
ATOM     30  H43 UNL     1       1.540  -2.300   0.910  1.00  0.00     0.274 HD
ATOM     31  H42 UNL     1       2.497  -2.275  -0.249  1.00  0.00     0.274 HD
ATOM     32  H41 UNL     1       3.003  -3.190   1.124  1.00  0.00     0.274 HD
ENDBRANCH  28  29
BRANCH  28  33
HETATM   33  C19 UNL     1       4.731  -1.676   1.116  1.00  0.00     0.038 C 
BRANCH  33  34
HETATM   34  C20 UNL     1       5.033  -1.985  -0.313  1.00  0.00    -0.021 C 
HETATM   35  C21 UNL     1       6.513  -2.430  -0.387  1.00  0.00     0.009 C 
HETATM   36  C22 UNL     1       4.959  -0.773  -1.198  1.00  0.00     0.009 C 
ENDBRANCH  33  34
ENDBRANCH  28  33
ENDBRANCH  20  28
ENDBRANCH  18  20
ENDBRANCH  15  16
ENDBRANCH   1  15
BRANCH   1  37
HETATM   37  C23 UNL     1      -3.450  -0.889  -0.209  1.00  0.00     0.242 C 
HETATM   38  O3  UNL     1      -4.299   0.017  -0.341  1.00  0.00    -0.271 OA
HETATM   39  N5  UNL     1      -3.778  -2.202   0.203  1.00  0.00    -0.333 N 
ATOM     40  H5  UNL     1      -3.043  -2.903   0.293  1.00  0.00     0.165 HD
BRANCH  39  41
HETATM   41  C24 UNL     1      -5.150  -2.558   0.498  1.00  0.00     0.224 C 
HETATM   42  C25 UNL     1      -5.746  -3.448  -0.558  1.00  0.00     0.059 C 
HETATM   43  C26 UNL     1      -6.247  -4.727   0.014  1.00  0.00     0.002 C 
HETATM   44  C27 UNL     1      -5.185  -5.267   0.983  1.00  0.00     0.038 C 
HETATM   45  C29 UNL     1      -7.075  -4.422   1.269  1.00  0.00    -0.018 C 
HETATM   46  C28 UNL     1      -5.736  -4.259   1.975  1.00  0.00     0.132 C 
HETATM   47  O4  UNL     1      -5.268  -2.994   1.783  1.00  0.00    -0.361 OA
HETATM   48  C30 UNL     1      -7.832  -5.639   1.757  1.00  0.00     0.018 C 
HETATM   49  C31 UNL     1      -7.916  -3.186   1.167  1.00  0.00     0.018 C 
ENDBRANCH  39  41
ENDBRANCH   1  37
TORSDOF 16
