REMARK  10 active torsions:
REMARK  status: ('A' for Active; 'I' for Inactive)
REMARK    1  A    between atoms: C2_2  and  C3_3 
REMARK    2  A    between atoms: C3_3  and  C4_4 
REMARK    3  A    between atoms: C4_4  and  C5_5 
REMARK    4  A    between atoms: C5_5  and  C6_6 
REMARK    5  A    between atoms: C6_6  and  C7_7 
REMARK    6  A    between atoms: C7_7  and  C8_8 
REMARK    7  A    between atoms: C8_8  and  C9_9 
REMARK    8  A    between atoms: C9_9  and  C10_10 
REMARK    9  A    between atoms: C10_10  and  N1_11 
REMARK   10  A    between atoms: C19_24  and  N3_25 
ROOT
HETATM    1  C10 UNL     1      -1.743   0.151  -0.099  1.00  0.00     0.227 C 
HETATM    2  C15 UNL     1      -1.634   0.452  -1.535  1.00  0.00     0.137 C 
HETATM    3  C16 UNL     1      -2.459   1.678  -1.776  1.00  0.00     0.170 C 
HETATM    4  O2  UNL     1      -2.487   2.385  -2.821  1.00  0.00    -0.292 OA
HETATM    5  C17 UNL     1      -3.235   1.917  -0.579  1.00  0.00     0.104 A 
HETATM    6  C18 UNL     1      -2.844   1.052   0.409  1.00  0.00     0.089 A 
HETATM    7  N2  UNL     1      -3.459   1.130   1.601  1.00  0.00    -0.192 N 
ATOM      8  H2  UNL     1      -3.174   0.491   2.343  1.00  0.00     0.184 HD
HETATM    9  C19 UNL     1      -4.434   2.018   1.852  1.00  0.00     0.679 A 
HETATM   10  N4  UNL     1      -4.800   2.851   0.877  1.00  0.00    -0.155 N 
ATOM     11  H4  UNL     1      -5.540   3.528   1.062  1.00  0.00     0.187 HD
HETATM   12  C20 UNL     1      -4.236   2.832  -0.329  1.00  0.00     0.275 A 
HETATM   13  O3  UNL     1      -4.613   3.631  -1.209  1.00  0.00    -0.267 OA
ENDROOT
BRANCH   1  14
HETATM   14  C9  UNL     1      -0.529   0.276   0.696  1.00  0.00     0.017 C 
BRANCH  14  15
HETATM   15  C8  UNL     1       0.275   1.494   0.766  1.00  0.00    -0.028 C 
BRANCH  15  16
HETATM   16  C7  UNL     1       1.013   2.037  -0.384  1.00  0.00     0.027 C 
BRANCH  16  17
HETATM   17  C6  UNL     1       2.097   1.129  -0.939  1.00  0.00     0.004 C 
BRANCH  17  18
HETATM   18  C5  UNL     1       3.128   0.840   0.126  1.00  0.00     0.000 C 
BRANCH  18  19
HETATM   19  C4  UNL     1       4.218  -0.062  -0.405  1.00  0.00     0.000 C 
BRANCH  19  20
HETATM   20  C3  UNL     1       5.237  -0.339   0.673  1.00  0.00    -0.000 C 
BRANCH  20  21
HETATM   21  C2  UNL     1       6.295  -1.248   0.065  1.00  0.00    -0.005 C 
HETATM   22  C1  UNL     1       7.367  -1.584   1.073  1.00  0.00     0.005 C 
ENDBRANCH  20  21
ENDBRANCH  19  20
ENDBRANCH  18  19
ENDBRANCH  17  18
ENDBRANCH  16  17
ENDBRANCH  15  16
ENDBRANCH  14  15
ENDBRANCH   1  14
BRANCH   1  23
HETATM   23  N1  UNL     1      -2.309  -1.203   0.087  1.00  0.00     0.112 N 
HETATM   24  C11 UNL     1      -3.627  -1.302  -0.403  1.00  0.00     0.300 C 
HETATM   25  C12 UNL     1      -4.043  -2.669  -0.855  1.00  0.00     0.198 C 
HETATM   26  O1  UNL     1      -3.264  -3.652  -0.229  1.00  0.00    -0.388 OA
HETATM   27  C13 UNL     1      -1.988  -3.507  -0.771  1.00  0.00     0.198 C 
HETATM   28  C14 UNL     1      -1.394  -2.232  -0.232  1.00  0.00     0.300 C 
ENDBRANCH   1  23
BRANCH   9  29
HETATM   29  N3  UNL     1      -4.982   2.045   3.006  1.00  0.00    -0.234 N 
ATOM     30  H32 UNL     1      -4.702   1.408   3.752  1.00  0.00     0.174 HD
ATOM     31  H31 UNL     1      -5.723   2.720   3.197  1.00  0.00     0.174 HD
ENDBRANCH   9  29
TORSDOF 10
