REMARK  10 active torsions:
REMARK  status: ('A' for Active; 'I' for Inactive)
REMARK    1  A    between atoms: C13_13  and  C14_14 
REMARK    2  A    between atoms: C13_13  and  C20_24 
REMARK    3  A    between atoms: C15_15  and  C16_16 
REMARK    4  A    between atoms: C16_16  and  O1_17 
REMARK    5  A    between atoms: C16_16  and  C17_19 
REMARK    6  A    between atoms: C17_19  and  C18_20 
REMARK    7  A    between atoms: C18_20  and  O2_22 
REMARK    8  A    between atoms: C20_24  and  O3_25 
REMARK    9  A    between atoms: O3_25  and  C21_26 
REMARK   10  A    between atoms: C21_26  and  C22_27 
ROOT
HETATM    1  C1  UNL     1      -1.434   1.608   1.954  1.00  0.00     0.016 C 
HETATM    2  C2  UNL     1      -1.361   0.653   1.044  1.00  0.00    -0.065 C 
HETATM    3  C3  UNL     1      -2.437  -0.253   0.654  1.00  0.00    -0.016 C 
HETATM    4  C4  UNL     1      -3.457   0.331  -0.273  1.00  0.00     0.020 C 
HETATM    5  C5  UNL     1      -3.168  -0.916   1.801  1.00  0.00     0.014 C 
HETATM    6  C6  UNL     1      -4.156  -1.899   1.256  1.00  0.00     0.001 C 
HETATM    7  C7  UNL     1      -3.792  -2.696   0.084  1.00  0.00     0.000 C 
HETATM    8  C8  UNL     1      -2.516  -2.391  -0.626  1.00  0.00     0.006 C 
HETATM    9  C9  UNL     1      -1.652  -1.403   0.040  1.00  0.00     0.007 C 
HETATM   10  C10 UNL     1      -0.555  -0.770  -0.705  1.00  0.00    -0.026 C 
HETATM   11  C11 UNL     1      -0.832  -0.328  -2.086  1.00  0.00     0.016 C 
HETATM   12  C12 UNL     1       0.543  -1.851  -0.826  1.00  0.00     0.016 C 
HETATM   13  C13 UNL     1      -0.135   0.317   0.229  1.00  0.00     0.029 C 
ENDROOT
BRANCH  13  14
HETATM   14  C14 UNL     1       0.914  -0.280   1.118  1.00  0.00    -0.011 C 
HETATM   15  C15 UNL     1       2.060   0.339   1.335  1.00  0.00     0.002 C 
BRANCH  15  16
HETATM   16  C16 UNL     1       3.100  -0.258   2.218  1.00  0.00     0.143 C 
BRANCH  16  17
HETATM   17  O1  UNL     1       3.762   0.734   2.954  1.00  0.00    -0.392 OA
ATOM     18  H1  UNL     1       4.425   0.353   3.517  1.00  0.00     0.210 HD
ENDBRANCH  16  17
BRANCH  16  19
HETATM   19  C17 UNL     1       4.090  -1.085   1.430  1.00  0.00     0.067 C 
BRANCH  19  20
HETATM   20  C18 UNL     1       4.806  -0.244   0.388  1.00  0.00     0.116 C 
HETATM   21  C19 UNL     1       5.782  -1.117  -0.370  1.00  0.00     0.039 C 
BRANCH  20  22
HETATM   22  O2  UNL     1       5.557   0.741   1.033  1.00  0.00    -0.396 OA
ATOM     23  H2  UNL     1       6.005   1.267   0.381  1.00  0.00     0.210 HD
ENDBRANCH  20  22
ENDBRANCH  19  20
ENDBRANCH  16  19
ENDBRANCH  15  16
ENDBRANCH  13  14
BRANCH  13  24
HETATM   24  C20 UNL     1       0.399   1.561  -0.363  1.00  0.00     0.187 C 
BRANCH  24  25
HETATM   25  O3  UNL     1      -0.520   2.202  -1.194  1.00  0.00    -0.381 OA
BRANCH  25  26
HETATM   26  C21 UNL     1      -0.016   3.361  -1.743  1.00  0.00     0.267 C 
BRANCH  26  27
HETATM   27  C22 UNL     1      -1.039   3.971  -2.599  1.00  0.00     0.254 C 
HETATM   28  N1  UNL     1      -2.330   3.408  -2.792  1.00  0.00    -0.060 NA
HETATM   29  O4  UNL     1      -0.791   5.046  -3.205  1.00  0.00    -0.275 OA
ENDBRANCH  26  27
ENDBRANCH  25  26
ENDBRANCH  24  25
ENDBRANCH  13  24
TORSDOF 10
