REMARK  13 active torsions:
REMARK  status: ('A' for Active; 'I' for Inactive)
REMARK    1  A    between atoms: C2_2  and  C3_3 
REMARK    2  A    between atoms: C3_3  and  C4_4 
REMARK    3  A    between atoms: C4_4  and  C5_5 
REMARK    4  A    between atoms: C5_5  and  O1_6 
REMARK    5  A    between atoms: O1_6  and  C6_7 
REMARK       I    between atoms: C6_7  and  N1_9 
REMARK       I    between atoms: N2_12  and  C9_13 
REMARK    6  A    between atoms: C9_13  and  C10_15 
REMARK    7  A    between atoms: C10_15  and  C11_16 
REMARK    8  A    between atoms: C10_15  and  N3_21 
REMARK    9  A    between atoms: C11_16  and  C12_17 
REMARK   10  A    between atoms: C12_17  and  C13_18 
REMARK       I    between atoms: N3_21  and  C14_23 
REMARK   11  A    between atoms: C14_23  and  C15_25 
REMARK   12  A    between atoms: C16_28  and  C17_29 
REMARK   13  A    between atoms: C21_33  and  S1_34 
ROOT
HETATM    1  C10 UNL     1      -0.650  -1.185  -0.571  1.00  0.00     0.177 C 
ENDROOT
BRANCH   1   2
HETATM    2  C9  UNL     1       0.207  -1.141   0.622  1.00  0.00     0.242 C 
HETATM    3  N2  UNL     1       1.558  -0.827   0.597  1.00  0.00    -0.347 N 
HETATM    4  C8  UNL     1       2.270  -0.499  -0.594  1.00  0.00     0.146 C 
HETATM    5  C24 UNL     1       2.327  -0.823   1.849  1.00  0.00     0.146 C 
HETATM    6  C7  UNL     1       3.382   0.510  -0.220  1.00  0.00     0.148 C 
HETATM    7  N1  UNL     1       4.284  -0.231   0.653  1.00  0.00    -0.325 N 
HETATM    8  C6  UNL     1       5.655   0.036   0.620  1.00  0.00     0.362 C 
HETATM    9  C25 UNL     1       3.730  -1.231   1.530  1.00  0.00     0.148 C 
HETATM   10  O2  UNL     1       6.407  -0.635   1.391  1.00  0.00    -0.238 OA
HETATM   11  O3  UNL     1      -0.300  -1.402   1.772  1.00  0.00    -0.271 OA
BRANCH   8  12
HETATM   12  O1  UNL     1       6.224   0.975  -0.194  1.00  0.00    -0.304 OA
BRANCH  12  13
HETATM   13  C5  UNL     1       7.587   1.266  -0.250  1.00  0.00     0.180 C 
BRANCH  13  14
HETATM   14  C4  UNL     1       8.190   1.773   1.024  1.00  0.00     0.027 C 
BRANCH  14  15
HETATM   15  C3  UNL     1       9.637   2.077   0.828  1.00  0.00     0.002 C 
BRANCH  15  16
HETATM   16  C2  UNL     1      10.438   0.892   0.413  1.00  0.00    -0.004 C 
HETATM   17  C1  UNL     1      11.901   1.303   0.262  1.00  0.00     0.005 C 
ENDBRANCH  15  16
ENDBRANCH  14  15
ENDBRANCH  13  14
ENDBRANCH  12  13
ENDBRANCH   8  12
ENDBRANCH   1   2
BRANCH   1  18
HETATM   18  C11 UNL     1      -0.294  -2.260  -1.551  1.00  0.00     0.045 C 
BRANCH  18  19
HETATM   19  C12 UNL     1      -1.188  -2.311  -2.750  1.00  0.00     0.116 C 
BRANCH  19  20
HETATM   20  C13 UNL     1      -1.144  -1.108  -3.579  1.00  0.00     0.172 C 
HETATM   21  O4  UNL     1      -0.366  -0.168  -3.359  1.00  0.00    -0.648 OA
HETATM   22  O5  UNL     1      -1.997  -0.976  -4.672  1.00  0.00    -0.648 OA
ENDBRANCH  19  20
ENDBRANCH  18  19
ENDBRANCH   1  18
BRANCH   1  23
HETATM   23  N3  UNL     1      -2.030  -1.487  -0.078  1.00  0.00    -0.342 N 
HETATM   24  C14 UNL     1      -3.028  -0.528  -0.214  1.00  0.00     0.274 C 
HETATM   25  O6  UNL     1      -2.690   0.586  -0.766  1.00  0.00    -0.266 OA
ATOM     26  H3  UNL     1      -2.237  -2.388   0.354  1.00  0.00     0.163 HD
BRANCH  24  27
HETATM   27  C15 UNL     1      -4.405  -0.616   0.184  1.00  0.00     0.169 A 
HETATM   28  N4  UNL     1      -5.270   0.414  -0.054  1.00  0.00    -0.348 N 
HETATM   29  C16 UNL     1      -6.566   0.376   0.300  1.00  0.00     0.051 A 
ATOM     30  H4  UNL     1      -4.917   1.249  -0.521  1.00  0.00     0.166 HD
HETATM   31  C21 UNL     1      -7.081  -0.730   0.931  1.00  0.00     0.096 A 
HETATM   32  N5  UNL     1      -6.239  -1.744   1.169  1.00  0.00    -0.314 N 
HETATM   33  C23 UNL     1      -4.948  -1.708   0.817  1.00  0.00     0.278 A 
ATOM     34  H5  UNL     1      -6.596  -2.577   1.637  1.00  0.00     0.170 HD
HETATM   35  O7  UNL     1      -4.229  -2.732   1.091  1.00  0.00    -0.265 OA
BRANCH  29  36
HETATM   36  C17 UNL     1      -7.406   1.565   0.003  1.00  0.00    -0.006 C 
HETATM   37  C18 UNL     1      -8.576   1.290  -0.901  1.00  0.00     0.021 C 
HETATM   38  C19 UNL     1      -7.862   2.246   1.285  1.00  0.00     0.021 C 
HETATM   39  C20 UNL     1      -6.518   2.587  -0.695  1.00  0.00     0.021 C 
ENDBRANCH  29  36
BRANCH  31  40
HETATM   40  S1  UNL     1      -8.787  -0.790   1.445  1.00  0.00    -0.115 SA
HETATM   41  C22 UNL     1      -9.789  -1.711   0.221  1.00  0.00     0.097 C 
ENDBRANCH  31  40
ENDBRANCH  24  27
ENDBRANCH   1  23
TORSDOF 13
