REMARK  12 active torsions:
REMARK  status: ('A' for Active; 'I' for Inactive)
REMARK    1  A    between atoms: C7_8  and  C8_9 
REMARK    2  A    between atoms: C11_12  and  N2_13 
REMARK    3  A    between atoms: N2_13  and  C12_14 
REMARK       I    between atoms: N2_13  and  C27_42 
REMARK    4  A    between atoms: C12_14  and  C13_15 
REMARK    5  A    between atoms: C13_15  and  N3_16 
REMARK    6  A    between atoms: N3_16  and  C14_18 
REMARK    7  A    between atoms: C16_20  and  N4_21 
REMARK    8  A    between atoms: N7_32  and  C22_34 
REMARK    9  A    between atoms: C22_34  and  C23_35 
REMARK   10  A    between atoms: C23_35  and  C24_36 
REMARK   11  A    between atoms: C24_36  and  N8_37 
REMARK   12  A    between atoms: C27_42  and  C28_44 
ROOT
HETATM    1  C1  UNL     1      -2.264   4.132   1.971  1.00  0.00     0.050 C 
HETATM    2  C2  UNL     1      -2.952   2.936   2.484  1.00  0.00    -0.033 A 
HETATM    3  C3  UNL     1      -3.274   2.871   3.815  1.00  0.00     0.031 A 
HETATM    4  C4  UNL     1      -3.960   1.777   4.286  1.00  0.00     0.045 A 
HETATM    5  C5  UNL     1      -4.334   1.640   5.676  1.00  0.00     0.099 C 
HETATM    6  N1  UNL     1      -4.633   1.511   6.799  1.00  0.00    -0.191 NA
HETATM    7  C6  UNL     1      -4.299   0.786   3.404  1.00  0.00     0.032 A 
HETATM    8  C7  UNL     1      -3.993   0.804   2.034  1.00  0.00    -0.025 A 
HETATM    9  C11 UNL     1      -3.303   1.912   1.575  1.00  0.00     0.054 A 
ENDROOT
BRANCH   8  10
HETATM   10  C8  UNL     1      -4.334  -0.303   1.158  1.00  0.00     0.013 C 
HETATM   11  C9  UNL     1      -5.584  -0.945   1.830  1.00  0.00     0.015 C 
HETATM   12  C10 UNL     1      -3.386  -1.500   1.308  1.00  0.00     0.015 C 
ENDBRANCH   8  10
BRANCH   9  13
HETATM   13  N2  UNL     1      -3.006   2.133   0.211  1.00  0.00    -0.290 N 
HETATM   14  C27 UNL     1      -4.060   2.426  -0.709  1.00  0.00     0.232 C 
HETATM   15  O1  UNL     1      -5.198   2.580  -0.119  1.00  0.00    -0.272 OA
BRANCH  13  16
HETATM   16  C12 UNL     1      -1.729   2.225  -0.363  1.00  0.00     0.117 C 
BRANCH  16  17
HETATM   17  C13 UNL     1      -0.992   1.167  -1.033  1.00  0.00     0.107 C 
BRANCH  17  18
HETATM   18  N3  UNL     1      -0.576  -0.007  -0.439  1.00  0.00    -0.350 N 
ATOM     19  H3  UNL     1      -1.286  -0.425   0.162  1.00  0.00     0.166 HD
BRANCH  18  20
HETATM   20  C14 UNL     1       0.500  -0.679  -0.479  1.00  0.00     0.124 A 
HETATM   21  C15 UNL     1       0.647  -1.869   0.247  1.00  0.00     0.098 A 
HETATM   22  C16 UNL     1       1.790  -2.612   0.228  1.00  0.00     0.122 A 
HETATM   23  N6  UNL     1       2.804  -2.186  -0.510  1.00  0.00    -0.177 N 
HETATM   24  C21 UNL     1       2.700  -1.034  -1.230  1.00  0.00     0.681 A 
ATOM     25  H6  UNL     1       3.670  -2.725  -0.540  1.00  0.00     0.185 HD
HETATM   26  N7  UNL     1       3.721  -0.678  -1.920  1.00  0.00    -0.226 N 
HETATM   27  N9  UNL     1       1.550  -0.294  -1.207  1.00  0.00    -0.177 N 
ATOM     28  H7  UNL     1       4.565  -1.251  -1.913  1.00  0.00     0.177 HD
ATOM     29  H9  UNL     1       1.494   0.565  -1.754  1.00  0.00     0.186 HD
BRANCH  22  30
HETATM   30  N4  UNL     1       1.869  -3.815   0.989  1.00  0.00    -0.364 N 
HETATM   31  C17 UNL     1       0.703  -4.239   1.781  1.00  0.00     0.152 C 
HETATM   32  C18 UNL     1       0.891  -5.705   2.136  1.00  0.00     0.252 C 
HETATM   33  N5  UNL     1       1.296  -6.432   0.945  1.00  0.00    -0.072 N 
HETATM   34  C19 UNL     1       2.608  -6.041   0.489  1.00  0.00     0.252 C 
ATOM     35  H52 UNL     1       1.241  -7.440   1.091  1.00  0.00     0.277 HD
ATOM     36  H51 UNL     1       0.604  -6.338   0.202  1.00  0.00     0.277 HD
HETATM   37  C20 UNL     1       3.003  -4.676   1.066  1.00  0.00     0.152 C 
ENDBRANCH  22  30
BRANCH  26  38
HETATM   38  C22 UNL     1       3.678   0.528  -2.704  1.00  0.00     0.140 C 
BRANCH  38  39
HETATM   39  C23 UNL     1       5.051   0.865  -3.277  1.00  0.00     0.050 C 
BRANCH  39  40
HETATM   40  C24 UNL     1       5.987   1.055  -2.116  1.00  0.00     0.273 C 
BRANCH  40  41
HETATM   41  N8  UNL     1       7.333   1.378  -2.559  1.00  0.00     0.080 N 
HETATM   42  C25 UNL     1       7.374   2.702  -3.173  1.00  0.00     0.309 C 
HETATM   43  C26 UNL     1       8.249   1.337  -1.430  1.00  0.00     0.309 C 
ENDBRANCH  40  41
ENDBRANCH  39  40
ENDBRANCH  38  39
ENDBRANCH  26  38
ENDBRANCH  18  20
ENDBRANCH  17  18
ENDBRANCH  16  17
ENDBRANCH  13  16
BRANCH  14  44
HETATM   44  C28 UNL     1      -4.090   2.572  -2.132  1.00  0.00     0.070 C 
HETATM   45  C29 UNL     1      -5.350   3.397  -2.503  1.00  0.00     0.019 C 
HETATM   46  C30 UNL     1      -4.288   1.305  -2.930  1.00  0.00     0.019 C 
ENDBRANCH  14  44
ENDBRANCH   9  13
TORSDOF 12
