REMARK  12 active torsions:
REMARK  status: ('A' for Active; 'I' for Inactive)
REMARK    1  A    between atoms: O1_2  and  C2_3 
REMARK    2  A    between atoms: C5_6  and  N1_7 
REMARK    3  A    between atoms: N1_7  and  C6_8 
REMARK    4  A    between atoms: C9_11  and  O2_12 
REMARK    5  A    between atoms: O2_12  and  C10_13 
REMARK    6  A    between atoms: C10_13  and  C11_14 
REMARK    7  A    between atoms: C11_14  and  N2_15 
REMARK    8  A    between atoms: C17_21  and  C18_22 
REMARK    9  A    between atoms: C23_33  and  O4_34 
REMARK   10  A    between atoms: O4_34  and  C24_35 
REMARK   11  A    between atoms: C24_35  and  C25_36 
REMARK   12  A    between atoms: C25_36  and  N6_37 
ROOT
HETATM    1  C2  UNL     1       2.909  -1.007  -0.217  1.00  0.00     0.102 A 
HETATM    2  C3  UNL     1       1.730  -1.559  -0.730  1.00  0.00     0.058 A 
HETATM    3  C4  UNL     1       1.755  -2.527  -1.727  1.00  0.00     0.052 A 
HETATM    4  C5  UNL     1       0.564  -3.072  -2.236  1.00  0.00     0.193 A 
HETATM    5  N4  UNL     1       0.695  -4.028  -3.232  1.00  0.00    -0.327 N 
ATOM      6  H4  UNL     1      -0.137  -4.457  -3.638  1.00  0.00     0.169 HD
HETATM    7  C20 UNL     1       1.892  -4.384  -3.655  1.00  0.00     0.183 A 
HETATM    8  N5  UNL     1       3.028  -3.880  -3.185  1.00  0.00    -0.351 N 
ATOM      9  H5  UNL     1       3.928  -4.193  -3.550  1.00  0.00     0.166 HD
HETATM   10  C21 UNL     1       2.965  -2.950  -2.219  1.00  0.00     0.051 A 
HETATM   11  C22 UNL     1       4.125  -2.393  -1.700  1.00  0.00     0.070 A 
HETATM   12  C23 UNL     1       4.124  -1.429  -0.707  1.00  0.00     0.104 A 
ENDROOT
BRANCH   4  13
HETATM   13  N1  UNL     1      -0.484  -2.740  -1.816  1.00  0.00    -0.387 NA
BRANCH  13  14
HETATM   14  C6  UNL     1      -1.606  -2.300  -1.275  1.00  0.00     0.110 A 
HETATM   15  C7  UNL     1      -1.911  -2.536   0.089  1.00  0.00     0.047 A 
HETATM   16  C8  UNL     1      -3.075  -2.087   0.607  1.00  0.00     0.041 A 
HETATM   17  C9  UNL     1      -4.013  -1.393  -0.135  1.00  0.00     0.084 A 
HETATM   18  C17 UNL     1      -3.725  -1.160  -1.460  1.00  0.00     0.065 A 
HETATM   19  C19 UNL     1      -2.567  -1.586  -2.042  1.00  0.00     0.064 A 
BRANCH  17  20
HETATM   20  O2  UNL     1      -5.194  -0.939   0.382  1.00  0.00    -0.345 OA
BRANCH  20  21
HETATM   21  C10 UNL     1      -5.552  -1.141   1.752  1.00  0.00     0.220 C 
BRANCH  21  22
HETATM   22  C11 UNL     1      -6.882  -0.591   2.102  1.00  0.00     0.084 C 
BRANCH  22  23
HETATM   23  N2  UNL     1      -7.088   0.778   1.917  1.00  0.00    -0.391 N 
HETATM   24  C12 UNL     1      -8.358   1.325   2.274  1.00  0.00     0.122 C 
HETATM   25  C13 UNL     1      -8.269   2.819   2.545  1.00  0.00     0.020 C 
HETATM   26  C14 UNL     1      -7.660   3.473   1.336  1.00  0.00     0.003 C 
HETATM   27  C15 UNL     1      -6.324   2.836   1.052  1.00  0.00     0.020 C 
HETATM   28  C16 UNL     1      -6.047   1.704   2.059  1.00  0.00     0.122 C 
ENDBRANCH  22  23
ENDBRANCH  21  22
ENDBRANCH  20  21
ENDBRANCH  17  20
BRANCH  18  29
HETATM   29  C18 UNL     1      -4.699  -0.427  -2.287  1.00  0.00     0.267 C 
HETATM   30  N3  UNL     1      -4.436  -0.156  -3.645  1.00  0.00    -0.057 NA
HETATM   31  O3  UNL     1      -5.759  -0.051  -1.762  1.00  0.00    -0.271 OA
ENDBRANCH  18  29
ENDBRANCH  13  14
ENDBRANCH   4  13
BRANCH   1  32
HETATM   32  O1  UNL     1       2.832  -0.047   0.773  1.00  0.00    -0.353 OA
HETATM   33  C1  UNL     1       1.616   0.411   1.304  1.00  0.00     0.210 C 
ENDBRANCH   1  32
BRANCH  12  34
HETATM   34  O4  UNL     1       5.281  -0.888  -0.200  1.00  0.00    -0.343 OA
BRANCH  34  35
HETATM   35  C24 UNL     1       6.574  -1.255  -0.629  1.00  0.00     0.220 C 
BRANCH  35  36
HETATM   36  C25 UNL     1       7.666  -0.531   0.073  1.00  0.00     0.094 C 
BRANCH  36  37
HETATM   37  N6  UNL     1       7.691   0.873  -0.046  1.00  0.00    -0.349 N 
HETATM   38  C26 UNL     1       8.733   1.522   0.622  1.00  0.00     0.095 C 
HETATM   39  C27 UNL     1       8.735   3.018   0.563  1.00  0.00     0.277 C 
HETATM   40  N7  UNL     1       7.381   3.552   0.671  1.00  0.00    -0.066 N 
HETATM   41  C28 UNL     1       6.685   3.061  -0.510  1.00  0.00     0.277 C 
ATOM     42  H72 UNL     1       6.916   3.323   1.549  1.00  0.00     0.277 HD
ATOM     43  H71 UNL     1       7.345   4.566   0.780  1.00  0.00     0.277 HD
HETATM   44  C29 UNL     1       6.527   1.567  -0.374  1.00  0.00     0.095 C 
ENDBRANCH  36  37
ENDBRANCH  35  36
ENDBRANCH  34  35
ENDBRANCH  12  34
TORSDOF 12
