REMARK  12 active torsions:
REMARK  status: ('A' for Active; 'I' for Inactive)
REMARK    1  A    between atoms: C2_2  and  C3_3 
REMARK    2  A    between atoms: C3_3  and  N1_4 
REMARK    3  A    between atoms: N1_4  and  C4_6 
REMARK    4  A    between atoms: N3_10  and  C6_12 
REMARK    5  A    between atoms: C6_12  and  C7_13 
REMARK    6  A    between atoms: C7_13  and  N4_14 
REMARK    7  A    between atoms: N5_17  and  C10_18 
REMARK    8  A    between atoms: C10_18  and  C11_19 
REMARK    9  A    between atoms: N7_32  and  C22_33 
REMARK   10  A    between atoms: C22_33  and  C23_34 
REMARK   11  A    between atoms: C23_34  and  N8_35 
REMARK       I    between atoms: N8_35  and  C24_37 
REMARK   12  A    between atoms: C24_37  and  C25_39 
ROOT
HETATM    1  C4  UNL     1       3.748  -2.526   0.084  1.00  0.00     0.681 A 
HETATM    2  N2  UNL     1       2.570  -1.898   0.201  1.00  0.00    -0.175 N 
ATOM      3  H2  UNL     1       1.822  -2.389   0.691  1.00  0.00     0.186 HD
HETATM    4  C5  UNL     1       2.299  -0.677  -0.275  1.00  0.00     0.147 A 
HETATM    5  N3  UNL     1       1.215  -0.035  -0.188  1.00  0.00    -0.372 N 
ATOM      6  H3  UNL     1       1.219   0.887  -0.624  1.00  0.00     0.161 HD
HETATM    7  C20 UNL     1       3.349  -0.027  -0.944  1.00  0.00     0.123 A 
HETATM    8  N6  UNL     1       3.466   1.175  -1.533  1.00  0.00    -0.346 N 
ATOM      9  H6  UNL     1       2.718   1.866  -1.593  1.00  0.00     0.167 HD
HETATM   10  C21 UNL     1       4.708   1.344  -2.034  1.00  0.00     0.185 A 
HETATM   11  N7  UNL     1       5.383   0.225  -1.755  1.00  0.00    -0.325 N 
HETATM   12  C29 UNL     1       4.578  -0.634  -1.087  1.00  0.00     0.155 A 
HETATM   13  N9  UNL     1       4.747  -1.862  -0.574  1.00  0.00    -0.174 N 
ATOM     14  H9  UNL     1       5.654  -2.317  -0.678  1.00  0.00     0.186 HD
ENDROOT
BRANCH   5  15
HETATM   15  C6  UNL     1      -0.020  -0.412   0.433  1.00  0.00     0.140 C 
BRANCH  15  16
HETATM   16  C7  UNL     1      -1.046  -0.643  -0.637  1.00  0.00     0.137 C 
BRANCH  16  17
HETATM   17  N4  UNL     1      -2.335  -1.016  -0.123  1.00  0.00    -0.405 N 
HETATM   18  C8  UNL     1      -2.985   0.072   0.585  1.00  0.00     0.137 C 
HETATM   19  C9  UNL     1      -3.926   0.689  -0.468  1.00  0.00     0.146 C 
HETATM   20  N5  UNL     1      -4.966  -0.214  -0.787  1.00  0.00    -0.370 N 
HETATM   21  C18 UNL     1      -4.647  -1.575  -0.820  1.00  0.00     0.082 C 
HETATM   22  C19 UNL     1      -3.162  -1.763  -0.991  1.00  0.00     0.161 C 
BRANCH  20  23
HETATM   23  C10 UNL     1      -6.166   0.271  -1.310  1.00  0.00     0.068 C 
BRANCH  23  24
HETATM   24  C11 UNL     1      -6.987   1.093  -0.340  1.00  0.00     0.024 C 
HETATM   25  C12 UNL     1      -8.260   1.572  -1.017  1.00  0.00     0.010 C 
HETATM   26  C13 UNL     1      -8.833   2.743  -0.231  1.00  0.00     0.001 C 
HETATM   27  C14 UNL     1      -9.202   2.357   1.178  1.00  0.00     0.000 C 
HETATM   28  C15 UNL     1      -7.957   2.345   2.016  1.00  0.00     0.000 C 
HETATM   29  C16 UNL     1      -7.322   0.984   2.148  1.00  0.00     0.001 C 
HETATM   30  C17 UNL     1      -7.311   0.220   0.860  1.00  0.00     0.010 C 
ENDBRANCH  23  24
ENDBRANCH  20  23
ENDBRANCH  16  17
ENDBRANCH  15  16
ENDBRANCH   5  15
BRANCH   1  31
HETATM   31  N1  UNL     1       3.970  -3.704   0.565  1.00  0.00    -0.226 N 
ATOM     32  H1  UNL     1       4.906  -4.080   0.415  1.00  0.00     0.177 HD
BRANCH  31  33
HETATM   33  C3  UNL     1       3.073  -4.537   1.275  1.00  0.00     0.137 C 
BRANCH  33  34
HETATM   34  C2  UNL     1       3.261  -6.004   0.852  1.00  0.00     0.016 C 
HETATM   35  C1  UNL     1       4.650  -6.486   1.115  1.00  0.00     0.006 C 
ENDBRANCH  33  34
ENDBRANCH  31  33
ENDBRANCH   1  31
BRANCH  11  36
HETATM   36  C22 UNL     1       6.747  -0.051  -2.105  1.00  0.00     0.151 C 
BRANCH  36  37
HETATM   37  C23 UNL     1       7.689   0.343  -0.993  1.00  0.00     0.143 C 
BRANCH  37  38
HETATM   38  N8  UNL     1       7.633   1.734  -0.659  1.00  0.00    -0.354 N 
HETATM   39  C24 UNL     1       8.459   2.229   0.378  1.00  0.00     0.275 C 
HETATM   40  O1  UNL     1       9.235   1.469   1.004  1.00  0.00    -0.265 OA
ATOM     41  H8  UNL     1       7.005   2.361  -1.162  1.00  0.00     0.162 HD
BRANCH  39  42
HETATM   42  C25 UNL     1       8.396   3.646   0.714  1.00  0.00     0.142 A 
HETATM   43  C26 UNL     1       9.092   4.279   1.717  1.00  0.00     0.045 A 
HETATM   44  C27 UNL     1       8.728   5.594   1.665  1.00  0.00     0.027 A 
HETATM   45  C28 UNL     1       7.826   5.716   0.636  1.00  0.00     0.143 A 
HETATM   46  O2  UNL     1       7.661   4.543   0.104  1.00  0.00    -0.317 OA
ENDBRANCH  39  42
ENDBRANCH  37  38
ENDBRANCH  36  37
ENDBRANCH  11  36
TORSDOF 12
