REMARK  11 active torsions:
REMARK  status: ('A' for Active; 'I' for Inactive)
REMARK    1  A    between atoms: N2_5  and  C4_6 
REMARK    2  A    between atoms: C4_6  and  C5_7 
REMARK    3  A    between atoms: C8_10  and  C9_11 
REMARK    4  A    between atoms: C9_11  and  N3_12 
REMARK    5  A    between atoms: N5_23  and  C17_24 
REMARK    6  A    between atoms: C17_24  and  C18_25 
REMARK    7  A    between atoms: C19_26  and  C20_27 
REMARK    8  A    between atoms: C20_27  and  C21_28 
REMARK    9  A    between atoms: C21_28  and  C22_29 
REMARK   10  A    between atoms: C22_29  and  N6_30 
REMARK   11  A    between atoms: C24_34  and  N8_35 
ROOT
HETATM    1  N3  UNL     1      -1.946   0.057   2.568  1.00  0.00    -0.298 N 
HETATM    2  C10 UNL     1      -0.949   0.838   2.133  1.00  0.00     0.113 A 
HETATM    3  C11 UNL     1       0.393   0.584   2.403  1.00  0.00     0.050 A 
HETATM    4  C12 UNL     1       0.738  -0.531   3.160  1.00  0.00     0.063 A 
HETATM    5  C13 UNL     1      -0.311  -1.311   3.592  1.00  0.00     0.053 A 
HETATM    6  N4  UNL     1      -1.610  -0.992   3.282  1.00  0.00    -0.300 N 
ATOM      7  H4  UNL     1      -2.353  -1.602   3.624  1.00  0.00     0.187 HD
HETATM    8  C14 UNL     1      -0.036  -2.509   4.419  1.00  0.00     0.070 C 
HETATM    9  C15 UNL     1       1.329  -3.077   4.288  1.00  0.00     0.109 C 
HETATM   10  C16 UNL     1       2.379  -2.041   4.205  1.00  0.00     0.225 C 
HETATM   11  O1  UNL     1       3.459  -2.200   4.779  1.00  0.00    -0.273 OA
HETATM   12  N5  UNL     1       2.110  -0.852   3.443  1.00  0.00    -0.305 N 
ENDROOT
BRANCH  12  13
HETATM   13  C17 UNL     1       3.162  -0.016   2.977  1.00  0.00     0.226 C 
BRANCH  13  14
HETATM   14  C18 UNL     1       3.654  -0.364   1.650  1.00  0.00    -0.086 C 
HETATM   15  C19 UNL     1       4.075  -0.665   0.562  1.00  0.00    -0.105 C 
BRANCH  15  16
HETATM   16  C20 UNL     1       4.602  -1.050  -0.750  1.00  0.00     0.095 C 
BRANCH  16  17
HETATM   17  C21 UNL     1       6.099  -1.082  -0.774  1.00  0.00     0.034 C 
BRANCH  17  18
HETATM   18  C22 UNL     1       6.762   0.223  -0.469  1.00  0.00     0.151 C 
BRANCH  18  19
HETATM   19  N6  UNL     1       6.410   1.268  -1.422  1.00  0.00    -0.273 N 
HETATM   20  C23 UNL     1       5.397   2.141  -1.354  1.00  0.00     0.218 A 
HETATM   21  N7  UNL     1       5.442   2.933  -2.456  1.00  0.00    -0.185 N 
HETATM   22  C24 UNL     1       6.486   2.547  -3.206  1.00  0.00     0.691 A 
ATOM     23  H7  UNL     1       4.795   3.690  -2.676  1.00  0.00     0.185 HD
HETATM   24  N9  UNL     1       7.063   1.528  -2.554  1.00  0.00    -0.129 N 
ATOM     25  H9  UNL     1       7.887   1.022  -2.879  1.00  0.00     0.206 HD
BRANCH  22  26
HETATM   26  N8  UNL     1       6.842   3.072  -4.331  1.00  0.00    -0.233 N 
ATOM     27  H82 UNL     1       6.403   3.847  -4.827  1.00  0.00     0.174 HD
ATOM     28  H81 UNL     1       7.635   2.779  -4.901  1.00  0.00     0.174 HD
ENDBRANCH  22  26
ENDBRANCH  18  19
ENDBRANCH  17  18
ENDBRANCH  16  17
ENDBRANCH  15  16
ENDBRANCH  13  14
ENDBRANCH  12  13
BRANCH   1  29
HETATM   29  C9  UNL     1      -3.344   0.330   2.282  1.00  0.00     0.205 C 
BRANCH  29  30
HETATM   30  C8  UNL     1      -3.762  -0.339   1.004  1.00  0.00     0.029 A 
HETATM   31  C7  UNL     1      -4.281  -1.612   0.897  1.00  0.00     0.029 A 
HETATM   32  C6  UNL     1      -4.551  -1.894  -0.424  1.00  0.00     0.028 A 
HETATM   33  C5  UNL     1      -4.186  -0.762  -1.131  1.00  0.00     0.028 A 
HETATM   34  N10 UNL     1      -3.720   0.141  -0.238  1.00  0.00    -0.360 N 
ATOM     35  H10 UNL     1      -3.380   1.071  -0.484  1.00  0.00     0.165 HD
BRANCH  33  36
HETATM   36  C4  UNL     1      -4.300  -0.604  -2.612  1.00  0.00     0.186 C 
BRANCH  36  37
HETATM   37  N2  UNL     1      -5.570  -0.059  -2.994  1.00  0.00    -0.346 N 
HETATM   38  C3  UNL     1      -6.727  -0.669  -3.296  1.00  0.00     0.109 A 
HETATM   39  C2  UNL     1      -7.678   0.273  -3.603  1.00  0.00     0.108 A 
HETATM   40  N1  UNL     1      -7.087   1.480  -3.485  1.00  0.00    -0.356 N 
HETATM   41  C1  UNL     1      -7.716   2.768  -3.715  1.00  0.00     0.156 C 
HETATM   42  C25 UNL     1      -5.817   1.259  -3.117  1.00  0.00     0.185 A 
ENDBRANCH  36  37
ENDBRANCH  33  36
ENDBRANCH  29  30
ENDBRANCH   1  29
TORSDOF 11
