REMARK  11 active torsions:
REMARK  status: ('A' for Active; 'I' for Inactive)
REMARK    1  A    between atoms: N1_2  and  C2_4 
REMARK    2  A    between atoms: C3_7  and  C4_8 
REMARK    3  A    between atoms: C4_8  and  N3_9 
REMARK    4  A    between atoms: N4_12  and  C7_13 
REMARK    5  A    between atoms: C7_13  and  C8_14 
REMARK    6  A    between atoms: C8_14  and  N5_15 
REMARK    7  A    between atoms: N5_15  and  C9_16 
REMARK    8  A    between atoms: C9_16  and  C10_17 
REMARK       I    between atoms: C10_17  and  N6_19 
REMARK    9  A    between atoms: N6_19  and  C11_21 
REMARK   10  A    between atoms: C14_24  and  C16_26 
REMARK   11  A    between atoms: C16_26  and  O2_27 
ROOT
HETATM    1  C7  UNL     1       0.748   1.339  -0.987  1.00  0.00     0.265 C 
ENDROOT
BRANCH   1   2
HETATM    2  N4  UNL     1       1.596   0.424  -0.273  1.00  0.00    -0.061 N 
HETATM    3  C6  UNL     1       1.237   0.296   1.129  1.00  0.00     0.265 C 
HETATM    4  C5  UNL     1       2.471  -0.232   1.840  1.00  0.00     0.266 C 
HETATM    5  N3  UNL     1       3.265  -1.040   0.894  1.00  0.00    -0.057 N 
HETATM    6  C22 UNL     1       3.905  -0.168  -0.042  1.00  0.00     0.266 C 
HETATM    7  C24 UNL     1       2.281  -1.819   0.143  1.00  0.00     0.266 C 
HETATM    8  C21 UNL     1       2.941   0.969  -0.317  1.00  0.00     0.265 C 
HETATM    9  C23 UNL     1       1.615  -0.888  -0.846  1.00  0.00     0.265 C 
BRANCH   5  10
HETATM   10  C4  UNL     1       4.114  -1.950   1.585  1.00  0.00     0.294 C 
BRANCH  10  11
HETATM   11  C3  UNL     1       5.525  -1.402   1.770  1.00  0.00     0.044 A 
HETATM   12  N2  UNL     1       6.542  -1.755   1.041  1.00  0.00    -0.338 N 
HETATM   13  C2  UNL     1       7.737  -1.214   1.284  1.00  0.00     0.144 A 
ATOM     14  H2  UNL     1       6.428  -2.438   0.292  1.00  0.00     0.168 HD
HETATM   15  S1  UNL     1       7.413  -0.162   2.595  1.00  0.00    -0.064 SA
HETATM   16  C25 UNL     1       5.744  -0.477   2.763  1.00  0.00     0.080 A 
BRANCH  13  17
HETATM   17  N1  UNL     1       8.881  -1.437   0.671  1.00  0.00    -0.375 N 
HETATM   18  C1  UNL     1       8.851  -2.393  -0.412  1.00  0.00     0.148 C 
ATOM     19  H1  UNL     1       9.741  -0.961   0.945  1.00  0.00     0.161 HD
ENDBRANCH  13  17
ENDBRANCH  10  11
ENDBRANCH   5  10
ENDBRANCH   1   2
BRANCH   1  20
HETATM   20  C8  UNL     1      -0.719   0.984  -0.936  1.00  0.00     0.266 C 
BRANCH  20  21
HETATM   21  N5  UNL     1      -1.546   1.911  -1.644  1.00  0.00    -0.051 N 
HETATM   22  C17 UNL     1      -1.736   1.630  -3.038  1.00  0.00     0.265 C 
HETATM   23  C18 UNL     1      -2.266   2.950  -3.520  1.00  0.00    -0.002 C 
HETATM   24  C19 UNL     1      -1.752   3.903  -2.743  1.00  0.00    -0.002 C 
HETATM   25  C20 UNL     1      -0.881   3.226  -1.745  1.00  0.00     0.265 C 
BRANCH  21  26
HETATM   26  C9  UNL     1      -2.746   2.161  -0.912  1.00  0.00     0.340 C 
BRANCH  26  27
HETATM   27  C10 UNL     1      -3.670   1.054  -0.759  1.00  0.00     0.244 C 
HETATM   28  O1  UNL     1      -3.414  -0.063  -1.256  1.00  0.00    -0.272 OA
HETATM   29  N6  UNL     1      -4.882   1.214  -0.045  1.00  0.00    -0.350 N 
ATOM     30  H6  UNL     1      -5.074   2.132   0.355  1.00  0.00     0.163 HD
BRANCH  29  31
HETATM   31  C11 UNL     1      -5.861   0.187   0.160  1.00  0.00     0.039 A 
HETATM   32  C12 UNL     1      -6.506  -0.424  -1.070  1.00  0.00     0.039 C 
HETATM   33  C13 UNL     1      -6.721   0.289   1.440  1.00  0.00     0.045 A 
HETATM   34  C14 UNL     1      -5.706  -0.789   1.293  1.00  0.00     0.005 A 
HETATM   35  C15 UNL     1      -6.323  -2.181   1.148  1.00  0.00     0.020 C 
BRANCH  34  36
HETATM   36  C16 UNL     1      -4.436  -0.796   2.071  1.00  0.00     0.175 C 
BRANCH  36  37
HETATM   37  O2  UNL     1      -4.552  -1.796   3.064  1.00  0.00    -0.400 OA
ATOM     38  H2  UNL     1      -3.742  -1.800   3.560  1.00  0.00     0.209 HD
ENDBRANCH  36  37
ENDBRANCH  34  36
ENDBRANCH  29  31
ENDBRANCH  26  27
ENDBRANCH  21  26
ENDBRANCH  20  21
ENDBRANCH   1  20
TORSDOF 11
