REMARK  9 active torsions:
REMARK  status: ('A' for Active; 'I' for Inactive)
REMARK    1  A    between atoms: C2_2  and  C3_3 
REMARK    2  A    between atoms: C3_3  and  C4_4 
REMARK    3  A    between atoms: C10_17  and  O3_18 
REMARK    4  A    between atoms: S1_22  and  C12_23 
REMARK    5  A    between atoms: C12_23  and  C13_24 
REMARK    6  A    between atoms: C13_24  and  C14_25 
REMARK    7  A    between atoms: C14_25  and  C15_26 
REMARK    8  A    between atoms: C15_26  and  N5_27 
REMARK    9  A    between atoms: N5_27  and  C16_28 
ROOT
HETATM    1  C4  UNL     1      -6.448   0.760   0.243  1.00  0.00     0.177 C 
HETATM    2  N1  UNL     1      -5.884  -0.503   0.625  1.00  0.00    -0.346 N 
ATOM      3  H1  UNL     1      -6.058  -0.786   1.590  1.00  0.00     0.163 HD
HETATM    4  C5  UNL     1      -5.129  -1.403  -0.137  1.00  0.00     0.244 C 
HETATM    5  O1  UNL     1      -5.453  -2.633   0.062  1.00  0.00    -0.272 OA
HETATM    6  C6  UNL     1      -4.062  -1.074  -1.087  1.00  0.00     0.344 C 
HETATM    7  N2  UNL     1      -2.963  -0.354  -0.573  1.00  0.00    -0.013 N 
HETATM    8  C7  UNL     1      -3.185   0.775   0.243  1.00  0.00     0.287 C 
HETATM    9  C8  UNL     1      -3.827   1.969  -0.358  1.00  0.00     0.091 C 
HETATM   10  N3  UNL     1      -4.822   1.780  -1.338  1.00  0.00    -0.337 N 
ATOM     11  H3  UNL     1      -4.602   2.064  -2.293  1.00  0.00     0.167 HD
HETATM   12  C9  UNL     1      -6.126   1.216  -1.095  1.00  0.00     0.244 C 
HETATM   13  O2  UNL     1      -6.981   1.122  -2.040  1.00  0.00    -0.271 OA
HETATM   14  C10 UNL     1      -2.013  -0.035  -1.631  1.00  0.00     0.348 C 
HETATM   15  C11 UNL     1      -1.238  -1.263  -1.302  1.00  0.00     0.184 C 
HETATM   16  N4  UNL     1       0.165  -1.163  -1.182  1.00  0.00    -0.171 NA
HETATM   17  S1  UNL     1       0.503  -0.615   0.435  1.00  0.00    -0.060 SA
HETATM   18  C23 UNL     1      -1.132  -0.778   1.071  1.00  0.00     0.224 C 
HETATM   19  O4  UNL     1      -1.482  -0.534   2.184  1.00  0.00    -0.283 OA
HETATM   20  C24 UNL     1      -1.940  -1.264  -0.029  1.00  0.00     0.299 C 
ENDROOT
BRANCH  14  21
HETATM   21  O3  UNL     1      -2.604  -0.062  -2.888  1.00  0.00    -0.368 OA
ATOM     22  H3  UNL     1      -1.985   0.146  -3.578  1.00  0.00     0.212 HD
ENDBRANCH  14  21
BRANCH  17  23
HETATM   23  C12 UNL     1       1.496  -1.874   1.247  1.00  0.00     0.089 C 
BRANCH  23  24
HETATM   24  C13 UNL     1       2.798  -2.098   0.500  1.00  0.00     0.013 C 
BRANCH  24  25
HETATM   25  C14 UNL     1       3.609  -0.795   0.455  1.00  0.00     0.029 C 
BRANCH  25  26
HETATM   26  C15 UNL     1       4.846  -1.088  -0.281  1.00  0.00     0.237 C 
BRANCH  26  27
HETATM   27  N5  UNL     1       5.782   0.008  -0.457  1.00  0.00    -0.067 N 
HETATM   28  C18 UNL     1       7.077  -0.594  -0.664  1.00  0.00     0.237 C 
HETATM   29  C19 UNL     1       8.201   0.006   0.095  1.00  0.00     0.028 C 
HETATM   30  C20 UNL     1       7.916   0.199   1.571  1.00  0.00     0.003 C 
HETATM   31  C21 UNL     1       6.505   0.633   1.821  1.00  0.00     0.028 C 
HETATM   32  C22 UNL     1       5.737   0.969   0.590  1.00  0.00     0.237 C 
BRANCH  27  33
HETATM   33  C16 UNL     1       5.297   0.608  -1.715  1.00  0.00     0.233 C 
HETATM   34  C17 UNL     1       6.274   1.532  -2.343  1.00  0.00     0.035 C 
ENDBRANCH  27  33
ENDBRANCH  26  27
ENDBRANCH  25  26
ENDBRANCH  24  25
ENDBRANCH  23  24
ENDBRANCH  17  23
BRANCH   1  35
HETATM   35  C3  UNL     1      -7.961   0.627   0.359  1.00  0.00     0.034 C 
BRANCH  35  36
HETATM   36  C2  UNL     1      -8.386   0.286   1.776  1.00  0.00    -0.002 C 
HETATM   37  C1  UNL     1      -7.964   1.331   2.756  1.00  0.00     0.005 C 
ENDBRANCH  35  36
ENDBRANCH   1  35
TORSDOF 9
