REMARK  11 active torsions:
REMARK  status: ('A' for Active; 'I' for Inactive)
REMARK    1  A    between atoms: N1_2  and  C2_5 
REMARK    2  A    between atoms: C2_5  and  C3_6 
REMARK    3  A    between atoms: C3_6  and  C4_7 
REMARK       I    between atoms: N2_10  and  C7_11 
REMARK    4  A    between atoms: C7_11  and  C8_13 
REMARK    5  A    between atoms: C8_13  and  C9_14 
REMARK    6  A    between atoms: C8_13  and  N3_21 
REMARK    7  A    between atoms: C9_14  and  C10_15 
REMARK       I    between atoms: N3_21  and  C16_23 
REMARK    8  A    between atoms: C16_23  and  C17_25 
REMARK    9  A    between atoms: C17_25  and  N4_26 
REMARK   10  A    between atoms: C17_25  and  C21_31 
REMARK   11  A    between atoms: N4_26  and  C18_28 
ROOT
HETATM    1  C8  UNL     1      -0.152   0.460   0.740  1.00  0.00     0.177 C 
ENDROOT
BRANCH   1   2
HETATM    2  C7  UNL     1       0.675  -0.666   1.319  1.00  0.00     0.242 C 
HETATM    3  N2  UNL     1       2.065  -0.758   1.269  1.00  0.00    -0.350 N 
HETATM    4  C6  UNL     1       2.778  -1.886   1.877  1.00  0.00     0.126 C 
HETATM    5  C24 UNL     1       2.915   0.206   0.621  1.00  0.00     0.126 C 
HETATM    6  C5  UNL     1       4.144  -1.476   2.320  1.00  0.00     0.024 C 
HETATM    7  C4  UNL     1       4.995  -1.057   1.131  1.00  0.00    -0.010 C 
HETATM    8  C25 UNL     1       4.125  -0.552   0.029  1.00  0.00     0.024 C 
HETATM    9  O1  UNL     1       0.046  -1.593   1.888  1.00  0.00    -0.271 OA
BRANCH   7  10
HETATM   10  C3  UNL     1       5.850  -2.210   0.740  1.00  0.00     0.032 C 
BRANCH  10  11
HETATM   11  C2  UNL     1       6.775  -1.981  -0.414  1.00  0.00     0.232 C 
BRANCH  11  12
HETATM   12  N1  UNL     1       6.100  -1.650  -1.635  1.00  0.00    -0.079 N 
HETATM   13  C1  UNL     1       7.111  -1.447  -2.677  1.00  0.00     0.266 C 
ATOM     14  H12 UNL     1       5.474  -0.851  -1.534  1.00  0.00     0.276 HD
ATOM     15  H11 UNL     1       5.399  -2.343  -1.897  1.00  0.00     0.276 HD
ENDBRANCH  11  12
ENDBRANCH  10  11
ENDBRANCH   7  10
ENDBRANCH   1   2
BRANCH   1  16
HETATM   16  C9  UNL     1       0.103   1.732   1.456  1.00  0.00     0.039 C 
BRANCH  16  17
HETATM   17  C10 UNL     1      -0.621   2.943   1.019  1.00  0.00    -0.012 C 
HETATM   18  C11 UNL     1      -0.396   3.358  -0.415  1.00  0.00     0.005 C 
HETATM   19  C12 UNL     1      -0.805   4.789  -0.573  1.00  0.00     0.000 C 
HETATM   20  C13 UNL     1      -2.130   5.148   0.005  1.00  0.00     0.000 C 
HETATM   21  C14 UNL     1      -2.388   4.547   1.371  1.00  0.00     0.000 C 
HETATM   22  C15 UNL     1      -2.071   3.035   1.334  1.00  0.00     0.005 C 
ENDBRANCH  16  17
ENDBRANCH   1  16
BRANCH   1  23
HETATM   23  N3  UNL     1      -1.569   0.112   0.885  1.00  0.00    -0.346 N 
HETATM   24  C16 UNL     1      -2.368  -0.341  -0.202  1.00  0.00     0.241 C 
HETATM   25  O2  UNL     1      -1.789  -0.426  -1.313  1.00  0.00    -0.271 OA
ATOM     26  H3  UNL     1      -2.001   0.198   1.805  1.00  0.00     0.163 HD
BRANCH  24  27
HETATM   27  C17 UNL     1      -3.776  -0.703  -0.099  1.00  0.00     0.173 C 
BRANCH  27  28
HETATM   28  N4  UNL     1      -4.249  -1.801  -0.871  1.00  0.00    -0.406 N 
ATOM     29  H4  UNL     1      -4.910  -1.651  -1.634  1.00  0.00     0.154 HD
BRANCH  28  30
HETATM   30  C18 UNL     1      -3.789  -3.105  -0.565  1.00  0.00     0.069 C 
HETATM   31  C19 UNL     1      -2.346  -3.416  -0.724  1.00  0.00     0.031 C 
HETATM   32  C20 UNL     1      -4.548  -4.058  -1.515  1.00  0.00     0.031 C 
ENDBRANCH  28  30
ENDBRANCH  27  28
BRANCH  27  33
HETATM   33  C21 UNL     1      -4.706   0.468  -0.394  1.00  0.00     0.009 C 
HETATM   34  C22 UNL     1      -4.500   1.005  -1.775  1.00  0.00     0.012 C 
HETATM   35  C23 UNL     1      -6.121  -0.075  -0.312  1.00  0.00     0.012 C 
ENDBRANCH  27  33
ENDBRANCH  24  27
ENDBRANCH   1  23
TORSDOF 11
