REMARK  14 active torsions:
REMARK  status: ('A' for Active; 'I' for Inactive)
REMARK    1  A    between atoms: C2_2  and  C4_4 
REMARK    2  A    between atoms: C4_4  and  O1_5 
REMARK    3  A    between atoms: C7_9  and  C8_10 
REMARK    4  A    between atoms: C9_11  and  C10_12 
REMARK    5  A    between atoms: C10_12  and  O2_13 
REMARK    6  A    between atoms: O2_13  and  C11_14 
REMARK    7  A    between atoms: C11_14  and  C12_16 
REMARK    8  A    between atoms: C12_16  and  C14_18 
REMARK    9  A    between atoms: C15_19  and  C16_20 
REMARK   10  A    between atoms: C19_24  and  C20_25 
REMARK   11  A    between atoms: C20_25  and  C21_27 
REMARK   12  A    between atoms: C21_27  and  O6_28 
REMARK   13  A    between atoms: C21_27  and  C22_30 
REMARK   14  A    between atoms: C29_37  and  O7_38 
ROOT
HETATM    1  C11 UNL     1       0.564   2.558   0.275  1.00  0.00     0.266 C 
HETATM    2  O3  UNL     1       1.341   1.655   0.657  1.00  0.00    -0.265 OA
ENDROOT
BRANCH   1   3
HETATM    3  O2  UNL     1       1.062   3.651  -0.383  1.00  0.00    -0.317 OA
BRANCH   3   4
HETATM    4  C10 UNL     1       2.457   3.852  -0.682  1.00  0.00     0.206 C 
BRANCH   4   5
HETATM    5  C9  UNL     1       3.270   3.873   0.514  1.00  0.00     0.000 C 
HETATM    6  C8  UNL     1       4.246   3.164   0.942  1.00  0.00     0.005 C 
BRANCH   6   7
HETATM    7  C7  UNL     1       4.960   2.036   0.424  1.00  0.00    -0.056 C 
HETATM    8  C6  UNL     1       5.965   1.568   1.188  1.00  0.00    -0.016 C 
HETATM    9  C5  UNL     1       6.746   0.423   0.741  1.00  0.00     0.073 C 
HETATM   10  C4  UNL     1       5.871  -0.655   0.134  1.00  0.00     0.110 C 
HETATM   11  C29 UNL     1       4.962  -0.117  -0.903  1.00  0.00     0.165 C 
HETATM   12  C27 UNL     1       4.685   1.369  -0.830  1.00  0.00     0.046 C 
HETATM   13  C28 UNL     1       5.533   2.057  -1.902  1.00  0.00     0.017 C 
BRANCH  10  14
HETATM   14  C2  UNL     1       6.743  -1.687  -0.438  1.00  0.00    -0.056 C 
HETATM   15  C1  UNL     1       6.657  -2.933  -0.008  1.00  0.00     0.017 C 
HETATM   16  C3  UNL     1       7.717  -1.349  -1.493  1.00  0.00     0.046 C 
ENDBRANCH  10  14
BRANCH  10  17
HETATM   17  O1  UNL     1       5.110  -1.208   1.190  1.00  0.00    -0.382 OA
ATOM     18  H1  UNL     1       4.545  -0.540   1.560  1.00  0.00     0.211 HD
ENDBRANCH  10  17
BRANCH  11  19
HETATM   19  O7  UNL     1       3.744  -0.781  -0.786  1.00  0.00    -0.392 OA
ATOM     20  H7  UNL     1       3.161  -0.436  -1.452  1.00  0.00     0.210 HD
ENDBRANCH  11  19
ENDBRANCH   6   7
ENDBRANCH   4   5
ENDBRANCH   3   4
ENDBRANCH   1   3
BRANCH   1  21
HETATM   21  C12 UNL     1      -0.893   2.386   0.567  1.00  0.00     0.104 C 
HETATM   22  C13 UNL     1      -1.302   3.526   1.473  1.00  0.00     0.025 C 
BRANCH  21  23
HETATM   23  C14 UNL     1      -1.150   1.102   1.251  1.00  0.00    -0.016 C 
HETATM   24  C15 UNL     1      -1.980   0.233   0.712  1.00  0.00    -0.017 C 
BRANCH  24  25
HETATM   25  C16 UNL     1      -2.290  -1.081   1.338  1.00  0.00     0.082 C 
HETATM   26  C17 UNL     1      -2.114  -2.104   0.272  1.00  0.00     0.135 C 
HETATM   27  O4  UNL     1      -1.042  -2.563  -0.061  1.00  0.00    -0.297 OA
HETATM   28  C18 UNL     1      -3.443  -2.454  -0.294  1.00  0.00     0.091 C 
HETATM   29  C19 UNL     1      -4.346  -1.386   0.225  1.00  0.00     0.070 C 
HETATM   30  C25 UNL     1      -3.796  -1.102   1.606  1.00  0.00     0.008 C 
HETATM   31  C26 UNL     1      -4.104  -2.266   2.509  1.00  0.00     0.012 C 
BRANCH  29  32
HETATM   32  C20 UNL     1      -5.777  -1.760   0.270  1.00  0.00     0.160 C 
HETATM   33  O5  UNL     1      -6.353  -1.760   1.334  1.00  0.00    -0.295 OA
BRANCH  32  34
HETATM   34  C21 UNL     1      -6.513  -2.131  -0.955  1.00  0.00     0.191 C 
BRANCH  34  35
HETATM   35  O6  UNL     1      -5.734  -2.086  -2.089  1.00  0.00    -0.388 OA
ATOM     36  H6  UNL     1      -6.208  -2.325  -2.877  1.00  0.00     0.210 HD
ENDBRANCH  34  35
BRANCH  34  37
HETATM   37  C22 UNL     1      -7.780  -1.299  -1.115  1.00  0.00     0.014 C 
HETATM   38  C23 UNL     1      -8.699  -1.509   0.064  1.00  0.00     0.012 C 
HETATM   39  C24 UNL     1      -8.515  -1.641  -2.370  1.00  0.00     0.012 C 
ENDBRANCH  34  37
ENDBRANCH  32  34
ENDBRANCH  29  32
ENDBRANCH  24  25
ENDBRANCH  21  23
ENDBRANCH   1  21
TORSDOF 14
