REMARK  2 active torsions:
REMARK  status: ('A' for Active; 'I' for Inactive)
REMARK    1  A    between atoms: C2_2  and  C4_4 
REMARK    2  A    between atoms: C6_6  and  N1_7 
ROOT
HETATM    1  C4  UNL     1       0.058  -0.020  -0.927  1.00  0.00     0.191 C 
HETATM    2  C5  UNL     1      -0.545   0.921   0.048  1.00  0.00     0.067 C 
HETATM    3  C6  UNL     1      -1.597   0.093   0.749  1.00  0.00     0.211 C 
HETATM    4  C7  UNL     1      -2.025  -0.859  -0.348  1.00  0.00     0.265 C 
HETATM    5  N2  UNL     1      -0.771  -1.193  -0.997  1.00  0.00    -0.069 N 
ATOM      6  H21 UNL     1      -0.326  -2.024  -0.608  1.00  0.00     0.277 HD
ATOM      7  H22 UNL     1      -0.891  -1.544  -1.947  1.00  0.00     0.277 HD
ENDROOT
BRANCH   3   8
HETATM    8  N1  UNL     1      -2.696   0.893   1.237  1.00  0.00    -0.073 N 
ATOM      9  H13 UNL     1      -2.363   1.647   1.837  1.00  0.00     0.274 HD
ATOM     10  H12 UNL     1      -3.106   1.449   0.487  1.00  0.00     0.274 HD
ATOM     11  H11 UNL     1      -3.406   0.334   1.710  1.00  0.00     0.274 HD
ENDBRANCH   3   8
BRANCH   1  12
HETATM   12  C2  UNL     1       1.505  -0.350  -0.651  1.00  0.00     0.008 C 
HETATM   13  C1  UNL     1       1.729  -0.986   0.680  1.00  0.00     0.011 C 
HETATM   14  C3  UNL     1       2.360   0.895  -0.726  1.00  0.00     0.011 C 
ENDBRANCH   1  12
TORSDOF 2
