REMARK  4 active torsions:
REMARK  status: ('A' for Active; 'I' for Inactive)
REMARK    1  A    between atoms: C1_2  and  C2_3 
REMARK    2  A    between atoms: C2_3  and  C3_4 
REMARK    3  A    between atoms: C3_4  and  N1_5 
REMARK    4  A    between atoms: N1_5  and  C4_7 
ROOT
HETATM    1  C4  UNL     1       0.842  -0.121  -0.118  1.00  0.00     0.100 A 
HETATM    2  C5  UNL     1       1.808  -0.905   0.494  1.00  0.00     0.048 A 
HETATM    3  C6  UNL     1       3.004  -0.350   0.902  1.00  0.00     0.005 A 
HETATM    4  C7  UNL     1       3.279   0.990   0.718  1.00  0.00     0.017 A 
HETATM    5  C8  UNL     1       2.293   1.737   0.106  1.00  0.00     0.089 A 
HETATM    6  N2  UNL     1       1.132   1.182  -0.287  1.00  0.00    -0.353 N 
ATOM      7  H2  UNL     1       0.437   1.779  -0.735  1.00  0.00     0.166 HD
ENDROOT
BRANCH   1   8
HETATM    8  N1  UNL     1      -0.253  -0.672  -0.481  1.00  0.00    -0.376 N 
ATOM      9  H1  UNL     1      -0.352  -1.670  -0.296  1.00  0.00     0.161 HD
BRANCH   8  10
HETATM   10  C3  UNL     1      -1.346  -0.024  -1.119  1.00  0.00     0.123 C 
BRANCH  10  11
HETATM   11  C2  UNL     1      -2.660  -0.754  -0.839  1.00  0.00     0.051 C 
BRANCH  11  12
HETATM   12  C1  UNL     1      -2.913  -0.777   0.652  1.00  0.00     0.224 C 
HETATM   13  F1  UNL     1      -1.899  -1.427   1.329  1.00  0.00    -0.255 F 
ENDBRANCH  11  12
ENDBRANCH  10  11
ENDBRANCH   8  10
ENDBRANCH   1   8
TORSDOF 4
