REMARK  3 active torsions:
REMARK  status: ('A' for Active; 'I' for Inactive)
REMARK    1  A    between atoms: C1_2  and  C2_3 
REMARK    2  A    between atoms: C2_3  and  C3_4 
REMARK    3  A    between atoms: C3_4  and  C4_5 
ROOT
HETATM    1  C4  UNL     1       0.161  -0.525  -0.696  1.00  0.00     0.177 C 
HETATM    2  C5  UNL     1      -0.431  -0.762   0.554  1.00  0.00    -0.002 C 
HETATM    3  O1  UNL     1      -1.109  -0.901   1.658  1.00  0.00    -0.309 OA
HETATM    4  C6  UNL     1      -2.365  -0.213   1.524  1.00  0.00     0.215 C 
HETATM    5  C7  UNL     1      -2.735   0.116   0.114  1.00  0.00     0.017 C 
HETATM    6  C8  UNL     1      -1.869   0.829  -0.796  1.00  0.00     0.082 C 
HETATM    7  N1  UNL     1      -0.829   0.182  -1.561  1.00  0.00    -0.383 N 
ATOM      8  H1  UNL     1      -0.777   0.206  -2.579  1.00  0.00     0.160 HD
ENDROOT
BRANCH   1   9
HETATM    9  C3  UNL     1       1.451   0.319  -0.657  1.00  0.00     0.042 C 
BRANCH   9  10
HETATM   10  C2  UNL     1       2.467  -0.414   0.192  1.00  0.00     0.034 C 
BRANCH  10  11
HETATM   11  C1  UNL     1       3.771   0.344   0.286  1.00  0.00     0.222 C 
HETATM   12  F1  UNL     1       4.647  -0.378   1.072  1.00  0.00    -0.255 F 
ENDBRANCH  10  11
ENDBRANCH   9  10
ENDBRANCH   1   9
TORSDOF 3
