REMARK  4 active torsions:
REMARK  status: ('A' for Active; 'I' for Inactive)
REMARK    1  A    between atoms: N1_1  and  C1_5 
REMARK    2  A    between atoms: C1_5  and  C2_6 
REMARK    3  A    between atoms: C2_6  and  C3_7 
REMARK    4  A    between atoms: C3_7  and  C4_8 
ROOT
HETATM    1  C4  UNL     1      -1.057  -0.023  -0.405  1.00  0.00    -0.043 A 
HETATM    2  C5  UNL     1      -1.753  -0.969   0.317  1.00  0.00     0.010 A 
HETATM    3  C6  UNL     1      -3.031  -0.746   0.783  1.00  0.00     0.018 A 
HETATM    4  C7  UNL     1      -3.622   0.471   0.511  1.00  0.00     0.087 A 
HETATM    5  N2  UNL     1      -2.953   1.404  -0.194  1.00  0.00    -0.375 N 
ATOM      6  H2  UNL     1      -3.399   2.300  -0.391  1.00  0.00     0.164 HD
HETATM    7  C8  UNL     1      -1.704   1.172  -0.643  1.00  0.00     0.094 A 
ENDROOT
BRANCH   1   8
HETATM    8  C3  UNL     1       0.315  -0.296  -0.890  1.00  0.00     0.041 C 
BRANCH   8   9
HETATM    9  C2  UNL     1       1.357   0.130   0.133  1.00  0.00     0.032 C 
BRANCH   9  10
HETATM   10  C1  UNL     1       2.758  -0.159  -0.384  1.00  0.00     0.230 C 
BRANCH  10  11
HETATM   11  N1  UNL     1       3.772   0.226   0.545  1.00  0.00    -0.079 N 
ATOM     12  H13 UNL     1       3.673   1.206   0.812  1.00  0.00     0.274 HD
ATOM     13  H12 UNL     1       3.620  -0.207   1.456  1.00  0.00     0.274 HD
ATOM     14  H11 UNL     1       4.711   0.032   0.198  1.00  0.00     0.274 HD
ENDBRANCH  10  11
ENDBRANCH   9  10
ENDBRANCH   8   9
ENDBRANCH   1   8
TORSDOF 4
