REMARK  3 active torsions:
REMARK  status: ('A' for Active; 'I' for Inactive)
REMARK    1  A    between atoms: C4_5  and  C5_6 
REMARK    2  A    between atoms: C5_6  and  N1_7 
REMARK    3  A    between atoms: N1_7  and  C6_10 
ROOT
HETATM    1  C5  UNL     1       0.488   0.010   0.425  1.00  0.00     0.266 C 
ENDROOT
BRANCH   1   2
HETATM    2  C4  UNL     1      -0.982  -0.231   0.339  1.00  0.00    -0.056 C 
HETATM    3  C3  UNL     1      -1.776  -0.875   1.181  1.00  0.00    -0.020 C 
HETATM    4  C2  UNL     1      -3.171  -0.863   0.680  1.00  0.00     0.065 C 
HETATM    5  C1  UNL     1      -3.163   0.406  -0.155  1.00  0.00     0.177 C 
HETATM    6  F1  UNL     1      -3.212   1.463   0.716  1.00  0.00    -0.249 F 
HETATM    7  C9  UNL     1      -1.810   0.272  -0.821  1.00  0.00     0.073 C 
ENDBRANCH   1   2
BRANCH   1   8
HETATM    8  N1  UNL     1       1.191  -0.565  -0.698  1.00  0.00    -0.067 N 
ATOM      9  H12 UNL     1       0.975  -1.558  -0.781  1.00  0.00     0.277 HD
ATOM     10  H11 UNL     1       0.797  -0.226  -1.575  1.00  0.00     0.277 HD
BRANCH   8  11
HETATM   11  C6  UNL     1       2.597  -0.365  -0.678  1.00  0.00     0.186 A 
HETATM   12  C7  UNL     1       3.253   0.944  -0.736  1.00  0.00     0.035 A 
HETATM   13  C8  UNL     1       3.244   0.215   0.546  1.00  0.00     0.035 A 
ENDBRANCH   8  11
ENDBRANCH   1   8
TORSDOF 3
