REMARK  3 active torsions:
REMARK  status: ('A' for Active; 'I' for Inactive)
REMARK    1  A    between atoms: C1_2  and  C2_3 
REMARK    2  A    between atoms: C2_3  and  C3_4 
REMARK    3  A    between atoms: C5_8  and  C6_9 
ROOT
HETATM    1  C3  UNL     1      -1.292  -0.263   0.543  1.00  0.00     0.028 A 
HETATM    2  C4  UNL     1      -0.694  -1.333  -0.089  1.00  0.00     0.114 A 
HETATM    3  N1  UNL     1       0.616  -1.046  -0.325  1.00  0.00    -0.353 N 
ATOM      4  H1  UNL     1       1.299  -1.653  -0.778  1.00  0.00     0.166 HD
HETATM    5  C5  UNL     1       0.836   0.190   0.154  1.00  0.00     0.085 A 
HETATM    6  N2  UNL     1      -0.313   0.655   0.673  1.00  0.00    -0.348 N 
ATOM      7  H2  UNL     1      -0.428   1.572   1.104  1.00  0.00     0.167 HD
ENDROOT
BRANCH   1   8
HETATM    8  C2  UNL     1      -2.702  -0.201   0.958  1.00  0.00     0.089 C 
BRANCH   8   9
HETATM    9  C1  UNL     1      -3.605   0.363  -0.115  1.00  0.00     0.228 C 
HETATM   10  F1  UNL     1      -3.275   1.630  -0.483  1.00  0.00    -0.255 F 
ENDBRANCH   8   9
ENDBRANCH   1   8
BRANCH   5  11
HETATM   11  C6  UNL     1       2.138   0.906   0.107  1.00  0.00     0.053 A 
HETATM   12  C7  UNL     1       3.415   0.077   0.236  1.00  0.00     0.013 A 
HETATM   13  C8  UNL     1       2.992   0.656  -1.112  1.00  0.00     0.013 A 
ENDBRANCH   5  11
TORSDOF 3
