REMARK  4 active torsions:
REMARK  status: ('A' for Active; 'I' for Inactive)
REMARK    1  A    between atoms: N1_1  and  C1_5 
REMARK    2  A    between atoms: C1_5  and  C2_6 
REMARK    3  A    between atoms: C5_9  and  C6_10 
REMARK    4  A    between atoms: C6_10  and  C7_11 
ROOT
HETATM    1  C2  UNL     1       1.248   0.359  -0.535  1.00  0.00     0.011 C 
HETATM    2  C3  UNL     1       0.621  -1.006  -0.636  1.00  0.00     0.007 C 
HETATM    3  C4  UNL     1      -0.874  -0.778  -0.370  1.00  0.00     0.005 C 
HETATM    4  C5  UNL     1      -0.922   0.408   0.559  1.00  0.00    -0.012 C 
HETATM    5  C8  UNL     1       0.358   1.155   0.394  1.00  0.00     0.011 C 
ENDROOT
BRANCH   1   6
HETATM    6  C1  UNL     1       2.635   0.308   0.063  1.00  0.00     0.234 C 
BRANCH   6   7
HETATM    7  N1  UNL     1       3.536  -0.498  -0.712  1.00  0.00    -0.079 N 
ATOM      8  H13 UNL     1       3.162  -1.436  -0.853  1.00  0.00     0.274 HD
ATOM      9  H12 UNL     1       3.565  -0.187  -1.683  1.00  0.00     0.274 HD
ATOM     10  H11 UNL     1       4.472  -0.532  -0.308  1.00  0.00     0.274 HD
ENDBRANCH   6   7
ENDBRANCH   1   6
BRANCH   4  11
HETATM   11  C6  UNL     1      -2.084   1.318   0.320  1.00  0.00     0.036 C 
BRANCH  11  12
HETATM   12  C7  UNL     1      -3.422   0.661   0.479  1.00  0.00     0.222 C 
HETATM   13  F1  UNL     1      -3.641  -0.388  -0.363  1.00  0.00    -0.255 F 
ENDBRANCH  11  12
ENDBRANCH   4  11
TORSDOF 4
