REMARK  9 active torsions:
REMARK  status: ('A' for Active; 'I' for Inactive)
REMARK    1  A    between atoms: C2_2  and  N1_3 
REMARK    2  A    between atoms: N1_3  and  C3_5 
REMARK    3  A    between atoms: C7_9  and  C8_10 
REMARK    4  A    between atoms: C8_10  and  C9_11 
REMARK    5  A    between atoms: C9_11  and  N2_12 
REMARK    6  A    between atoms: N2_12  and  C11_14 
REMARK    7  A    between atoms: N2_12  and  C13_20 
REMARK    8  A    between atoms: C11_14  and  C12_15 
REMARK    9  A    between atoms: C12_15  and  N3_16 
ROOT
HETATM    1  N2  UNL     1      -1.777  -0.561   0.923  1.00  0.00    -0.009 N 
HETATM    2  C10 UNL     1      -1.903  -0.263   2.396  1.00  0.00     0.283 C 
ENDROOT
BRANCH   1   3
HETATM    3  C9  UNL     1      -0.395  -0.824   0.666  1.00  0.00     0.247 C 
BRANCH   3   4
HETATM    4  C8  UNL     1       0.222  -0.039  -0.439  1.00  0.00     0.035 C 
BRANCH   4   5
HETATM    5  C7  UNL     1       1.664  -0.280  -0.719  1.00  0.00     0.010 C 
HETATM    6  C3  UNL     1       2.610   0.036   0.413  1.00  0.00     0.084 C 
HETATM    7  C4  UNL     1       3.656  -1.053   0.401  1.00  0.00     0.025 C 
HETATM    8  C5  UNL     1       2.782  -2.279   0.026  1.00  0.00     0.002 C 
HETATM    9  C6  UNL     1       1.987  -1.704  -1.130  1.00  0.00     0.007 C 
BRANCH   6  10
HETATM   10  N1  UNL     1       3.059   1.366   0.444  1.00  0.00    -0.398 N 
ATOM     11  H1  UNL     1       2.811   1.953   1.241  1.00  0.00     0.159 HD
BRANCH  10  12
HETATM   12  C2  UNL     1       3.837   1.913  -0.586  1.00  0.00     0.051 C 
HETATM   13  C1  UNL     1       5.263   1.418  -0.694  1.00  0.00     0.054 C 
ENDBRANCH  10  12
ENDBRANCH   6  10
ENDBRANCH   4   5
ENDBRANCH   3   4
ENDBRANCH   1   3
BRANCH   1  14
HETATM   14  C11 UNL     1      -2.730  -1.562   0.680  1.00  0.00     0.274 C 
BRANCH  14  15
HETATM   15  C12 UNL     1      -2.339  -2.874   0.123  1.00  0.00     0.258 C 
BRANCH  15  16
HETATM   16  N3  UNL     1      -1.780  -2.778  -1.184  1.00  0.00    -0.078 N 
ATOM     17  H33 UNL     1      -2.413  -2.288  -1.816  1.00  0.00     0.274 HD
ATOM     18  H32 UNL     1      -0.994  -2.128  -1.198  1.00  0.00     0.274 HD
ATOM     19  H31 UNL     1      -1.510  -3.683  -1.568  1.00  0.00     0.274 HD
ENDBRANCH  15  16
ENDBRANCH  14  15
ENDBRANCH   1  14
BRANCH   1  20
HETATM   20  C13 UNL     1      -2.207   0.697   0.343  1.00  0.00     0.275 C 
HETATM   21  N4  UNL     1      -1.976   1.819   0.960  1.00  0.00    -0.353 N 
HETATM   22  C14 UNL     1      -2.411   3.062   0.365  1.00  0.00     0.161 C 
ATOM     23  H4  UNL     1      -1.491   1.821   1.857  1.00  0.00     0.162 HD
HETATM   24  C15 UNL     1      -3.838   2.892  -0.108  1.00  0.00     0.205 C 
HETATM   25  F1  UNL     1      -4.580   2.492   0.987  1.00  0.00    -0.246 F 
HETATM   26  C16 UNL     1      -3.848   1.847  -1.200  1.00  0.00     0.161 C 
HETATM   27  N5  UNL     1      -2.892   0.776  -0.892  1.00  0.00    -0.353 N 
ATOM     28  H5  UNL     1      -2.715   0.060  -1.597  1.00  0.00     0.162 HD
ENDBRANCH   1  20
TORSDOF 9
