REMARK  7 active torsions:
REMARK  status: ('A' for Active; 'I' for Inactive)
REMARK    1  A    between atoms: C2_2  and  C4_4 
REMARK    2  A    between atoms: C8_8  and  O1_9 
REMARK    3  A    between atoms: C17_19  and  C18_20 
REMARK    4  A    between atoms: C18_20  and  O2_21 
REMARK    5  A    between atoms: O2_21  and  C19_22 
REMARK    6  A    between atoms: C19_22  and  C20_24 
REMARK    7  A    between atoms: C20_24  and  O4_25 
ROOT
HETATM    1  C4  UNL     1      -0.756   2.115  -0.072  1.00  0.00    -0.077 C 
HETATM    2  C5  UNL     1      -1.591   1.337  -0.688  1.00  0.00    -0.011 C 
HETATM    3  C6  UNL     1      -2.118  -0.012  -0.394  1.00  0.00     0.004 C 
HETATM    4  C7  UNL     1      -3.288  -0.242  -1.409  1.00  0.00     0.022 C 
HETATM    5  C8  UNL     1      -2.817  -0.144   0.911  1.00  0.00     0.130 C 
HETATM    6  C9  UNL     1      -2.614  -1.459   1.606  1.00  0.00     0.033 C 
HETATM    7  C10 UNL     1      -2.496  -2.611   0.673  1.00  0.00     0.012 C 
HETATM    8  C11 UNL     1      -1.453  -2.450  -0.398  1.00  0.00    -0.043 C 
HETATM    9  C12 UNL     1      -0.272  -3.293   0.042  1.00  0.00     0.015 C 
HETATM   10  C13 UNL     1      -2.039  -3.242  -1.588  1.00  0.00     0.015 C 
HETATM   11  C14 UNL     1      -1.109  -1.036  -0.767  1.00  0.00     0.008 C 
HETATM   12  C15 UNL     1       0.332  -0.691  -0.680  1.00  0.00     0.009 C 
HETATM   13  C16 UNL     1       1.038  -0.694   0.602  1.00  0.00     0.043 C 
HETATM   14  C17 UNL     1       2.032   0.452   0.769  1.00  0.00     0.110 A 
HETATM   15  O5  UNL     1       1.964   1.354  -0.270  1.00  0.00    -0.367 OA
HETATM   16  C21 UNL     1       1.480   1.752   0.981  1.00  0.00     0.163 A 
HETATM   17  C22 UNL     1      -0.004   1.866   1.193  1.00  0.00     0.069 C 
ENDROOT
BRANCH  14  18
HETATM   18  C18 UNL     1       3.379   0.154   1.409  1.00  0.00     0.219 C 
BRANCH  18  19
HETATM   19  O2  UNL     1       4.300  -0.371   0.477  1.00  0.00    -0.317 OA
BRANCH  19  20
HETATM   20  C19 UNL     1       5.580  -0.699   0.896  1.00  0.00     0.282 C 
HETATM   21  O3  UNL     1       5.861  -0.509   2.105  1.00  0.00    -0.263 OA
BRANCH  20  22
HETATM   22  C20 UNL     1       6.612  -1.257  -0.018  1.00  0.00     0.275 C 
BRANCH  22  23
HETATM   23  O4  UNL     1       6.155  -1.407  -1.304  1.00  0.00    -0.391 OA
ATOM     24  H4  UNL     1       6.814  -1.763  -1.888  1.00  0.00     0.210 HD
ENDBRANCH  22  23
ENDBRANCH  20  22
ENDBRANCH  19  20
ENDBRANCH  18  19
ENDBRANCH  14  18
BRANCH   1  25
HETATM   25  C2  UNL     1      -0.440   3.477  -0.685  1.00  0.00     0.006 C 
HETATM   26  C1  UNL     1      -0.725   4.527   0.366  1.00  0.00     0.014 C 
HETATM   27  C3  UNL     1      -1.177   3.710  -1.957  1.00  0.00     0.014 C 
ENDBRANCH   1  25
BRANCH   5  28
HETATM   28  O1  UNL     1      -4.236  -0.061   0.770  1.00  0.00    -0.394 OA
ATOM     29  H1  UNL     1      -4.683  -0.145   1.604  1.00  0.00     0.210 HD
ENDBRANCH   5  28
TORSDOF 7
