REMARK  6 active torsions:
REMARK  status: ('A' for Active; 'I' for Inactive)
REMARK    1  A    between atoms: C9_11  and  O3_12 
REMARK    2  A    between atoms: C10_14  and  O4_15 
REMARK    3  A    between atoms: O4_15  and  C11_16 
REMARK    4  A    between atoms: C11_16  and  C12_17 
REMARK    5  A    between atoms: C12_17  and  C13_18 
REMARK    6  A    between atoms: C18_23  and  O5_24 
ROOT
HETATM    1  C1  UNL     1      -4.421  -2.467   1.496  1.00  0.00     0.025 C 
HETATM    2  C2  UNL     1      -4.363  -1.414   0.746  1.00  0.00     0.013 C 
HETATM    3  C3  UNL     1      -5.605  -0.742   0.410  1.00  0.00     0.288 C 
HETATM    4  O1  UNL     1      -6.690  -1.216   0.793  1.00  0.00    -0.260 OA
HETATM    5  O2  UNL     1      -5.563   0.417  -0.332  1.00  0.00    -0.317 OA
HETATM    6  C4  UNL     1      -4.342   1.134  -0.571  1.00  0.00     0.189 C 
HETATM    7  C5  UNL     1      -3.240   0.654   0.392  1.00  0.00    -0.010 C 
HETATM    8  C6  UNL     1      -3.840   0.832   1.795  1.00  0.00     0.018 C 
HETATM    9  C7  UNL     1      -2.097   1.574   0.306  1.00  0.00     0.002 C 
HETATM   10  C8  UNL     1      -1.629   2.266  -0.887  1.00  0.00     0.040 C 
HETATM   11  C9  UNL     1      -0.186   2.105  -1.293  1.00  0.00     0.150 C 
HETATM   12  C10 UNL     1       0.519   0.778  -0.961  1.00  0.00     0.184 C 
HETATM   13  C18 UNL     1      -0.538  -0.043  -0.389  1.00  0.00     0.086 C 
HETATM   14  C19 UNL     1      -0.605  -1.407   0.020  1.00  0.00     0.041 C 
HETATM   15  C20 UNL     1      -2.004  -1.608   0.624  1.00  0.00     0.013 C 
HETATM   16  C21 UNL     1      -3.119  -0.799   0.162  1.00  0.00     0.034 C 
HETATM   17  C22 UNL     1      -0.939   0.745   0.795  1.00  0.00     0.046 C 
ENDROOT
BRANCH  12  18
HETATM   18  O4  UNL     1       1.185   0.272  -2.041  1.00  0.00    -0.380 OA
BRANCH  18  19
HETATM   19  C11 UNL     1       2.553   0.194  -1.835  1.00  0.00     0.168 C 
BRANCH  19  20
HETATM   20  C12 UNL     1       2.971  -0.695  -0.708  1.00  0.00     0.031 C 
BRANCH  20  21
HETATM   21  C13 UNL     1       4.471  -0.742  -0.533  1.00  0.00    -0.013 C 
HETATM   22  C14 UNL     1       5.077   0.592  -0.243  1.00  0.00     0.005 C 
HETATM   23  C15 UNL     1       6.338   0.217   0.519  1.00  0.00     0.000 C 
HETATM   24  C16 UNL     1       5.847  -0.853   1.451  1.00  0.00     0.000 C 
HETATM   25  C17 UNL     1       4.825  -1.606   0.642  1.00  0.00     0.005 C 
ENDBRANCH  20  21
ENDBRANCH  19  20
ENDBRANCH  18  19
ENDBRANCH  12  18
BRANCH  11  26
HETATM   26  O3  UNL     1      -0.159   2.196  -2.696  1.00  0.00    -0.393 OA
ATOM     27  H3  UNL     1       0.750   2.095  -2.952  1.00  0.00     0.210 HD
ENDBRANCH  11  26
BRANCH  13  28
HETATM   28  O5  UNL     1      -1.365  -0.068  -1.539  1.00  0.00    -0.387 OA
ATOM     29  H5  UNL     1      -2.055  -0.604  -1.166  1.00  0.00     0.210 HD
ENDBRANCH  13  28
TORSDOF 6
