REMARK  3 active torsions:
REMARK  status: ('A' for Active; 'I' for Inactive)
REMARK    1  A    between atoms: N3_7  and  C3_8 
REMARK    2  A    between atoms: C5_12  and  N5_13 
REMARK    3  A    between atoms: C6_18  and  N7_19 
ROOT
HETATM    1  C3  UNL     1      -0.461   0.862   0.120  1.00  0.00     0.180 A 
HETATM    2  N4  UNL     1      -1.265  -0.071   0.574  1.00  0.00    -0.329 N 
ATOM      3  H4  UNL     1      -0.885  -0.832   1.137  1.00  0.00     0.168 HD
HETATM    4  C4  UNL     1      -2.536  -0.038   0.316  1.00  0.00     0.113 A 
HETATM    5  C5  UNL     1      -3.501  -0.969   0.740  1.00  0.00     0.144 A 
HETATM    6  N6  UNL     1      -4.765  -0.789   0.388  1.00  0.00    -0.175 N 
ATOM      7  H6  UNL     1      -5.438  -1.484   0.712  1.00  0.00     0.186 HD
HETATM    8  C6  UNL     1      -5.241   0.215  -0.350  1.00  0.00     0.678 A 
HETATM    9  N8  UNL     1      -4.329   1.123  -0.768  1.00  0.00    -0.183 N 
ATOM     10  H8  UNL     1      -4.634   1.914  -1.336  1.00  0.00     0.185 HD
HETATM   11  C7  UNL     1      -3.005   1.000  -0.443  1.00  0.00     0.124 A 
HETATM   12  S2  UNL     1      -1.565   1.874  -0.740  1.00  0.00    -0.031 SA
ENDROOT
BRANCH   1  13
HETATM   13  N3  UNL     1       0.965   1.015   0.286  1.00  0.00    -0.186 N 
HETATM   14  S1  UNL     1       1.767   2.292   1.031  1.00  0.00     0.054 SA
HETATM   15  C2  UNL     1       2.973   1.219   0.514  1.00  0.00     0.207 A 
HETATM   16  N2  UNL     1       4.280   1.024   0.483  1.00  0.00    -0.272 N 
HETATM   17  N9  UNL     1       2.063   0.361  -0.008  1.00  0.00    -0.174 N 
HETATM   18  N1  UNL     1       4.793  -0.052  -0.075  1.00  0.00    -0.255 N 
ATOM     19  H2  UNL     1       4.901   1.719   0.898  1.00  0.00     0.189 HD
HETATM   20  C1  UNL     1       6.222  -0.308  -0.133  1.00  0.00     0.181 C 
HETATM   21  C9  UNL     1       3.933  -0.945  -0.614  1.00  0.00     0.332 A 
HETATM   22  C8  UNL     1       2.567  -0.753  -0.587  1.00  0.00     0.339 A 
HETATM   23  O2  UNL     1       4.414  -1.986  -1.155  1.00  0.00    -0.260 OA
HETATM   24  O1  UNL     1       1.799  -1.623  -1.108  1.00  0.00    -0.260 OA
ENDBRANCH   1  13
BRANCH   5  25
HETATM   25  N5  UNL     1      -3.190  -1.993   1.460  1.00  0.00    -0.383 N 
ATOM     26  H52 UNL     1      -2.217  -2.132   1.731  1.00  0.00     0.157 HD
ATOM     27  H51 UNL     1      -3.890  -2.668   1.768  1.00  0.00     0.157 HD
ENDBRANCH   5  25
BRANCH   8  28
HETATM   28  N7  UNL     1      -6.487   0.313  -0.645  1.00  0.00    -0.234 N 
ATOM     29  H72 UNL     1      -7.174  -0.371  -0.330  1.00  0.00     0.174 HD
ATOM     30  H71 UNL     1      -6.851   1.081  -1.209  1.00  0.00     0.174 HD
ENDBRANCH   8  28
TORSDOF 3
