REMARK  5 active torsions:
REMARK  status: ('A' for Active; 'I' for Inactive)
REMARK    1  A    between atoms: N1_2  and  C2_5 
REMARK    2  A    between atoms: C3_10  and  N4_11 
REMARK    3  A    between atoms: N4_11  and  N5_13 
REMARK    4  A    between atoms: C4_18  and  N7_19 
REMARK    5  A    between atoms: N7_19  and  C5_21 
ROOT
HETATM    1  C5  UNL     1       2.114  -0.065  -0.310  1.00  0.00     0.153 A 
HETATM    2  N8  UNL     1       1.901   1.026  -1.057  1.00  0.00    -0.224 N 
ATOM      3  H8  UNL     1       0.952   1.384  -1.163  1.00  0.00     0.198 HD
HETATM    4  O3  UNL     1       2.890   1.639  -1.653  1.00  0.00    -0.154 OA
HETATM    5  N9  UNL     1       4.127   1.251  -1.571  1.00  0.00    -0.230 N 
ATOM      6  H9  UNL     1       4.857   1.770  -2.059  1.00  0.00     0.197 HD
HETATM    7  C6  UNL     1       4.444   0.168  -0.845  1.00  0.00     0.161 A 
HETATM    8  C7  UNL     1       5.816  -0.297  -0.729  1.00  0.00     0.121 C 
HETATM    9  N10 UNL     1       6.913  -0.649  -0.645  1.00  0.00    -0.190 NA
HETATM   10  C8  UNL     1       3.429  -0.502  -0.205  1.00  0.00     0.116 A 
HETATM   11  S1  UNL     1       3.762  -1.831   0.694  1.00  0.00    -0.073 SA
ENDROOT
BRANCH   1  12
HETATM   12  N7  UNL     1       1.149  -0.661   0.271  1.00  0.00    -0.326 N 
ATOM     13  H7  UNL     1       1.354  -1.489   0.831  1.00  0.00     0.169 HD
BRANCH  12  14
HETATM   14  C4  UNL     1      -0.201  -0.225   0.175  1.00  0.00     0.151 A 
HETATM   15  C2  UNL     1      -1.091  -0.965  -0.699  1.00  0.00     0.367 A 
HETATM   16  N2  UNL     1      -2.416  -0.432  -0.692  1.00  0.00    -0.285 N 
HETATM   17  N3  UNL     1      -2.743   0.671   0.069  1.00  0.00    -0.133 N 
ATOM     18  H2  UNL     1      -3.136  -0.876  -1.262  1.00  0.00     0.183 HD
HETATM   19  C3  UNL     1      -1.924   1.303   0.833  1.00  0.00     0.717 A 
ATOM     20  H3  UNL     1      -3.704   1.010   0.022  1.00  0.00     0.205 HD
HETATM   21  N6  UNL     1      -0.590   0.783   0.850  1.00  0.00    -0.174 N 
ATOM     22  H6  UNL     1       0.095   1.251   1.443  1.00  0.00     0.185 HD
BRANCH  15  23
HETATM   23  N1  UNL     1      -1.069  -2.402  -0.449  1.00  0.00    -0.050 N 
HETATM   24  C1  UNL     1      -1.531  -2.707   0.891  1.00  0.00     0.270 C 
ATOM     25  H12 UNL     1      -0.147  -2.800  -0.628  1.00  0.00     0.279 HD
ATOM     26  H11 UNL     1      -1.599  -2.914  -1.154  1.00  0.00     0.279 HD
ENDBRANCH  15  23
BRANCH  19  27
HETATM   27  N4  UNL     1      -2.298   2.434   1.600  1.00  0.00    -0.070 N 
ATOM     28  H4  UNL     1      -1.808   2.653   2.467  1.00  0.00     0.212 HD
BRANCH  27  29
HETATM   29  N5  UNL     1      -3.338   3.240   1.160  1.00  0.00    -0.024 N 
HETATM   30  O1  UNL     1      -3.176   4.431   0.803  1.00  0.00    -0.516 OA
HETATM   31  O2  UNL     1      -4.649   2.766   1.086  1.00  0.00    -0.516 OA
ENDBRANCH  27  29
ENDBRANCH  19  27
ENDBRANCH  12  14
ENDBRANCH   1  12
TORSDOF 5
