REMARK  4 active torsions:
REMARK  status: ('A' for Active; 'I' for Inactive)
REMARK    1  A    between atoms: C3_7  and  N3_8 
REMARK    2  A    between atoms: N3_8  and  C4_10 
REMARK       I    between atoms: N7_19  and  C6_20 
REMARK    3  A    between atoms: C6_20  and  O2_22 
REMARK    4  A    between atoms: O2_22  and  C7_23 
ROOT
HETATM    1  C4  UNL     1       0.457   1.793   1.364  1.00  0.00     0.738 A 
HETATM    2  N4  UNL     1       0.891   3.085   1.461  1.00  0.00    -0.019 N 
ATOM      3  H4  UNL     1       1.694   3.429   1.987  1.00  0.00     0.203 HD
HETATM    4  C5  UNL     1       0.027   3.814   0.709  1.00  0.00     0.706 A 
HETATM    5  N5  UNL     1       0.028   5.084   0.495  1.00  0.00    -0.233 N 
ATOM      6  H51 UNL     1      -0.621   5.632  -0.070  1.00  0.00     0.174 HD
ATOM      7  H52 UNL     1       0.709   5.738   0.880  1.00  0.00     0.174 HD
HETATM    8  N6  UNL     1      -0.867   2.955   0.203  1.00  0.00    -0.106 N 
ATOM      9  H6  UNL     1      -1.640   3.224  -0.406  1.00  0.00     0.207 HD
HETATM   10  N7  UNL     1      -0.625   1.719   0.589  1.00  0.00    -0.009 N 
HETATM   11  C6  UNL     1      -1.346   0.527   0.266  1.00  0.00     0.402 C 
HETATM   12  O1  UNL     1      -0.988  -0.591   0.717  1.00  0.00    -0.235 OA
ENDROOT
BRANCH   1  13
HETATM   13  N3  UNL     1       1.069   0.687   2.003  1.00  0.00    -0.016 N 
ATOM     14  H3  UNL     1       0.730   0.437   2.932  1.00  0.00     0.203 HD
BRANCH  13  15
HETATM   15  C3  UNL     1       2.016  -0.028   1.509  1.00  0.00     0.735 A 
HETATM   16  N2  UNL     1       2.530  -1.069   2.211  1.00  0.00    -0.129 N 
HETATM   17  N1  UNL     1       3.503  -1.836   1.752  1.00  0.00    -0.287 N 
ATOM     18  H2  UNL     1       2.148  -1.269   3.135  1.00  0.00     0.205 HD
HETATM   19  C2  UNL     1       4.054  -1.630   0.543  1.00  0.00     0.070 A 
ATOM     20  H1  UNL     1       3.845  -2.604   2.330  1.00  0.00     0.187 HD
HETATM   21  C1  UNL     1       5.148  -2.499   0.039  1.00  0.00     0.074 C 
HETATM   22  C11 UNL     1       3.550  -0.578  -0.191  1.00  0.00     0.183 A 
HETATM   23  N8  UNL     1       2.543   0.208   0.294  1.00  0.00    -0.052 N 
HETATM   24  N11 UNL     1       3.888  -0.132  -1.409  1.00  0.00    -0.264 N 
HETATM   25  N9  UNL     1       2.299   1.097  -0.625  1.00  0.00    -0.203 N 
HETATM   26  N10 UNL     1       3.103   0.902  -1.654  1.00  0.00    -0.004 NA
ATOM     27  H9  UNL     1       1.595   1.832  -0.560  1.00  0.00     0.207 HD
ATOM     28  H11 UNL     1       4.607  -0.514  -2.023  1.00  0.00     0.186 HD
ENDBRANCH  13  15
ENDBRANCH   1  13
BRANCH  11  29
HETATM   29  O2  UNL     1      -2.459   0.526  -0.544  1.00  0.00    -0.292 OA
BRANCH  29  30
HETATM   30  C7  UNL     1      -3.206  -0.593  -0.897  1.00  0.00     0.061 C 
HETATM   31  C8  UNL     1      -4.339  -0.132  -1.799  1.00  0.00     0.046 C 
HETATM   32  C9  UNL     1      -3.844  -1.160   0.365  1.00  0.00     0.046 C 
HETATM   33  C10 UNL     1      -2.432  -1.689  -1.551  1.00  0.00     0.046 C 
ENDBRANCH  29  30
ENDBRANCH  11  29
TORSDOF 4
