REMARK  5 active torsions:
REMARK  status: ('A' for Active; 'I' for Inactive)
REMARK    1  A    between atoms: O1_2  and  C2_3 
REMARK    2  A    between atoms: C2_3  and  C3_5 
REMARK    3  A    between atoms: N4_16  and  N5_17 
REMARK    4  A    between atoms: C9_20  and  N6_21 
REMARK    5  A    between atoms: N8_28  and  N9_30 
ROOT
HETATM    1  C3  UNL     1       2.217  -0.345   1.329  1.00  0.00     0.141 A 
HETATM    2  N1  UNL     1       2.493   0.920   1.791  1.00  0.00    -0.291 N 
ATOM      3  H1  UNL     1       3.307   1.150   2.362  1.00  0.00     0.187 HD
HETATM    4  N2  UNL     1       1.607   1.785   1.422  1.00  0.00    -0.280 N 
HETATM    5  C4  UNL     1       1.562   3.195   1.712  1.00  0.00     0.179 C 
HETATM    6  C5  UNL     1       0.672   1.128   0.680  1.00  0.00     0.140 A 
HETATM    7  N3  UNL     1      -0.438   1.589   0.079  1.00  0.00    -0.324 N 
ATOM      8  H3  UNL     1      -0.696   2.574   0.138  1.00  0.00     0.169 HD
HETATM    9  C6  UNL     1      -1.196   0.719  -0.599  1.00  0.00     0.142 A 
HETATM   10  C7  UNL     1      -2.345   1.219  -1.217  1.00  0.00     0.076 A 
HETATM   11  C8  UNL     1      -2.676   2.669  -1.100  1.00  0.00     0.074 C 
HETATM   12  N4  UNL     1      -3.164   0.431  -1.915  1.00  0.00    -0.243 N 
HETATM   13  C9  UNL     1      -2.866  -0.867  -2.019  1.00  0.00     0.190 A 
HETATM   14  C10 UNL     1      -1.718  -1.352  -1.399  1.00  0.00     0.300 A 
HETATM   15  O3  UNL     1      -1.505  -2.552  -1.534  1.00  0.00    -0.263 OA
HETATM   16  N7  UNL     1      -0.872  -0.584  -0.688  1.00  0.00    -0.242 N 
HETATM   17  C11 UNL     1       0.239  -1.126  -0.104  1.00  0.00     0.147 A 
HETATM   18  N8  UNL     1       0.557  -2.277  -0.162  1.00  0.00    -0.291 N 
ATOM     19  H8  UNL     1       1.414  -2.253   0.390  1.00  0.00     0.188 HD
HETATM   20  C12 UNL     1       1.039  -0.199   0.613  1.00  0.00     0.090 A 
ENDROOT
BRANCH  18  21
HETATM   21  N9  UNL     1       0.520  -3.555  -0.475  1.00  0.00    -0.344 N 
ATOM     22  H92 UNL     1      -0.343  -3.523  -1.018  1.00  0.00     0.176 HD
ATOM     23  H91 UNL     1       0.791  -4.537  -0.524  1.00  0.00     0.176 HD
ENDBRANCH  18  21
BRANCH   1  24
HETATM   24  C2  UNL     1       3.027  -1.507   1.581  1.00  0.00     0.312 C 
HETATM   25  O2  UNL     1       2.940  -2.669   1.263  1.00  0.00    -0.258 OA
BRANCH  24  26
HETATM   26  O1  UNL     1       4.179  -1.242   2.373  1.00  0.00    -0.321 OA
HETATM   27  C1  UNL     1       5.056  -2.290   2.694  1.00  0.00     0.213 C 
ENDBRANCH  24  26
ENDBRANCH   1  24
BRANCH  13  28
HETATM   28  N6  UNL     1      -3.637  -1.669  -2.690  1.00  0.00    -0.379 N 
ATOM     29  H62 UNL     1      -4.478  -1.314  -3.144  1.00  0.00     0.158 HD
ATOM     30  H61 UNL     1      -3.409  -2.660  -2.769  1.00  0.00     0.158 HD
ENDBRANCH  13  28
BRANCH  12  31
HETATM   31  N5  UNL     1      -4.302   0.952  -2.520  1.00  0.00    -0.337 N 
ATOM     32  H52 UNL     1      -4.530   1.943  -2.441  1.00  0.00     0.177 HD
ATOM     33  H51 UNL     1      -4.928   0.349  -3.054  1.00  0.00     0.177 HD
ENDBRANCH  12  31
TORSDOF 5
