REMARK  14 active torsions:
REMARK  status: ('A' for Active; 'I' for Inactive)
REMARK    1  A    between atoms: C4_7  and  C5_8 
REMARK    2  A    between atoms: C5_8  and  C6_9 
REMARK    3  A    between atoms: C6_9  and  C7_10 
REMARK    4  A    between atoms: C7_10  and  C8_11 
REMARK    5  A    between atoms: C8_11  and  C9_12 
REMARK    6  A    between atoms: C9_12  and  C10_13 
REMARK    7  A    between atoms: C10_13  and  C11_14 
REMARK    8  A    between atoms: C11_14  and  C12_15 
REMARK    9  A    between atoms: C12_15  and  C13_16 
REMARK   10  A    between atoms: C13_16  and  C14_17 
REMARK   11  A    between atoms: C14_17  and  C15_18 
REMARK   12  A    between atoms: C15_18  and  C16_19 
REMARK   13  A    between atoms: C16_19  and  C17_20 
REMARK   14  A    between atoms: C17_20  and  N2_21 
ROOT
HETATM    1  C8  UNL     1      -2.819   0.802  -0.717  1.00  0.00     0.000 C 
ENDROOT
BRANCH   1   2
HETATM    2  C7  UNL     1      -3.984   0.145  -1.365  1.00  0.00     0.000 C 
BRANCH   2   3
HETATM    3  C6  UNL     1      -5.078   1.093  -1.737  1.00  0.00     0.006 C 
BRANCH   3   4
HETATM    4  C5  UNL     1      -5.706   1.864  -0.638  1.00  0.00     0.057 C 
BRANCH   4   5
HETATM    5  C4  UNL     1      -6.379   1.061   0.406  1.00  0.00     0.007 A 
HETATM    6  C3  UNL     1      -7.693   1.096   0.635  1.00  0.00     0.006 A 
HETATM    7  C2  UNL     1      -8.101   0.207   1.723  1.00  0.00     0.105 A 
HETATM    8  C1  UNL     1      -6.837  -0.394   2.198  1.00  0.00     0.078 A 
HETATM    9  N1  UNL     1      -6.676  -1.231   3.166  1.00  0.00    -0.389 N 
HETATM   10  N3  UNL     1      -5.815   0.158   1.344  1.00  0.00    -0.350 N 
ATOM     11  H12 UNL     1      -7.399  -1.622   3.770  1.00  0.00     0.157 HD
ATOM     12  H11 UNL     1      -5.804  -1.646   3.494  1.00  0.00     0.157 HD
ATOM     13  H3  UNL     1      -4.823  -0.069   1.406  1.00  0.00     0.167 HD
ENDBRANCH   4   5
ENDBRANCH   3   4
ENDBRANCH   2   3
ENDBRANCH   1   2
BRANCH   1  14
HETATM   14  C9  UNL     1      -1.758  -0.200  -0.334  1.00  0.00     0.000 C 
BRANCH  14  15
HETATM   15  C10 UNL     1      -1.261  -0.910  -1.539  1.00  0.00     0.000 C 
BRANCH  15  16
HETATM   16  C11 UNL     1      -0.207  -1.908  -1.204  1.00  0.00     0.000 C 
BRANCH  16  17
HETATM   17  C12 UNL     1       0.979  -1.234  -0.569  1.00  0.00     0.000 C 
BRANCH  17  18
HETATM   18  C13 UNL     1       1.995  -2.337  -0.294  1.00  0.00     0.000 C 
BRANCH  18  19
HETATM   19  C14 UNL     1       3.245  -1.794   0.349  1.00  0.00     0.000 C 
BRANCH  19  20
HETATM   20  C15 UNL     1       3.918  -0.762  -0.556  1.00  0.00     0.002 C 
BRANCH  20  21
HETATM   21  C16 UNL     1       5.167  -0.273   0.176  1.00  0.00     0.030 C 
BRANCH  21  22
HETATM   22  C17 UNL     1       5.896   0.745  -0.637  1.00  0.00     0.272 C 
BRANCH  22  23
HETATM   23  N2  UNL     1       7.072   1.222  -0.002  1.00  0.00     0.088 N 
HETATM   24  C18 UNL     1       8.183   0.332   0.166  1.00  0.00     0.274 C 
HETATM   25  C19 UNL     1       8.571   1.194   1.379  1.00  0.00     0.060 C 
HETATM   26  C20 UNL     1       7.042   1.358   1.438  1.00  0.00     0.274 C 
ENDBRANCH  22  23
ENDBRANCH  21  22
ENDBRANCH  20  21
ENDBRANCH  19  20
ENDBRANCH  18  19
ENDBRANCH  17  18
ENDBRANCH  16  17
ENDBRANCH  15  16
ENDBRANCH  14  15
ENDBRANCH   1  14
TORSDOF 14
