REMARK  14 active torsions:
REMARK  status: ('A' for Active; 'I' for Inactive)
REMARK    1  A    between atoms: N1_1  and  C1_5 
REMARK    2  A    between atoms: C1_5  and  C2_6 
REMARK    3  A    between atoms: C2_6  and  C3_7 
REMARK    4  A    between atoms: C3_7  and  C4_8 
REMARK    5  A    between atoms: C4_8  and  C5_9 
REMARK    6  A    between atoms: C5_9  and  C6_10 
REMARK    7  A    between atoms: C6_10  and  C7_11 
REMARK    8  A    between atoms: C7_11  and  C8_12 
REMARK    9  A    between atoms: C8_12  and  C9_13 
REMARK   10  A    between atoms: C9_13  and  C10_14 
REMARK   11  A    between atoms: C10_14  and  C11_15 
REMARK   12  A    between atoms: C11_15  and  C12_16 
REMARK   13  A    between atoms: C12_16  and  C13_17 
REMARK   14  A    between atoms: C13_17  and  C14_18 
ROOT
HETATM    1  C9  UNL     1       0.718  -0.717   0.363  1.00  0.00     0.000 C 
ENDROOT
BRANCH   1   2
HETATM    2  C8  UNL     1       2.197  -0.305   0.303  1.00  0.00     0.000 C 
BRANCH   2   3
HETATM    3  C7  UNL     1       2.466   0.857   1.212  1.00  0.00     0.000 C 
BRANCH   3   4
HETATM    4  C6  UNL     1       3.918   1.282   1.182  1.00  0.00     0.000 C 
BRANCH   4   5
HETATM    5  C5  UNL     1       4.362   1.700  -0.190  1.00  0.00     0.000 C 
BRANCH   5   6
HETATM    6  C4  UNL     1       5.813   2.106  -0.130  1.00  0.00     0.000 C 
BRANCH   6   7
HETATM    7  C3  UNL     1       6.709   1.000   0.330  1.00  0.00     0.002 C 
BRANCH   7   8
HETATM    8  C2  UNL     1       6.649  -0.208  -0.580  1.00  0.00     0.027 C 
BRANCH   8   9
HETATM    9  C1  UNL     1       7.592  -1.248  -0.012  1.00  0.00     0.229 C 
BRANCH   9  10
HETATM   10  N1  UNL     1       8.959  -0.720   0.038  1.00  0.00    -0.079 N 
ATOM     11  H13 UNL     1       9.270  -0.381  -0.872  1.00  0.00     0.274 HD
ATOM     12  H12 UNL     1       9.009   0.160   0.551  1.00  0.00     0.274 HD
ATOM     13  H11 UNL     1       9.594  -1.420   0.421  1.00  0.00     0.274 HD
ENDBRANCH   9  10
ENDBRANCH   8   9
ENDBRANCH   7   8
ENDBRANCH   6   7
ENDBRANCH   5   6
ENDBRANCH   4   5
ENDBRANCH   3   4
ENDBRANCH   2   3
ENDBRANCH   1   2
BRANCH   1  14
HETATM   14  C10 UNL     1      -0.187   0.383  -0.051  1.00  0.00     0.000 C 
BRANCH  14  15
HETATM   15  C11 UNL     1      -1.633  -0.070   0.044  1.00  0.00     0.000 C 
BRANCH  15  16
HETATM   16  C12 UNL     1      -1.878  -1.235  -0.840  1.00  0.00     0.002 C 
BRANCH  16  17
HETATM   17  C13 UNL     1      -3.254  -1.806  -0.834  1.00  0.00     0.036 C 
BRANCH  17  18
HETATM   18  C14 UNL     1      -4.376  -0.936  -1.248  1.00  0.00     0.223 C 
HETATM   19  C15 UNL     1      -5.712  -1.686  -1.214  1.00  0.00     0.036 C 
HETATM   20  C16 UNL     1      -5.917  -2.142   0.188  1.00  0.00     0.004 C 
HETATM   21  C17 UNL     1      -5.697  -1.099   1.234  1.00  0.00     0.036 C 
HETATM   22  C18 UNL     1      -5.150   0.184   0.769  1.00  0.00     0.223 C 
HETATM   23  C19 UNL     1      -6.225   1.279   0.833  1.00  0.00     0.037 C 
HETATM   24  N2  UNL     1      -4.577   0.250  -0.508  1.00  0.00     0.097 N 
HETATM   25  C20 UNL     1      -5.702   2.262  -0.190  1.00  0.00     0.032 C 
HETATM   26  C21 UNL     1      -5.171   1.334  -1.258  1.00  0.00     0.273 C 
ENDBRANCH  17  18
ENDBRANCH  16  17
ENDBRANCH  15  16
ENDBRANCH  14  15
ENDBRANCH   1  14
TORSDOF 14
