REMARK  2 active torsions:
REMARK  status: ('A' for Active; 'I' for Inactive)
REMARK    1  A    between atoms: C2_2  and  O2_4 
REMARK    2  A    between atoms: O2_4  and  C3_5 
ROOT
HETATM    1  C3  UNL     1       1.813   0.331  -0.709  1.00  0.00     0.143 C 
HETATM    2  C4  UNL     1       2.395   1.723  -0.568  1.00  0.00     0.037 C 
HETATM    3  C5  UNL     1       1.590   2.601   0.347  1.00  0.00     0.036 C 
HETATM    4  C6  UNL     1       0.163   2.486  -0.062  1.00  0.00    -0.081 C 
HETATM    5  C7  UNL     1      -0.694   3.665  -0.359  1.00  0.00     0.043 C 
HETATM    6  C8  UNL     1      -0.340   1.269  -0.158  1.00  0.00    -0.065 C 
HETATM    7  C9  UNL     1      -1.741   1.077  -0.555  1.00  0.00     0.090 C 
HETATM    8  C10 UNL     1      -2.153  -0.365  -0.548  1.00  0.00     0.144 C 
HETATM    9 CL1  UNL     1      -3.460  -0.537  -1.772  1.00  0.00    -0.087 Cl
HETATM   10  O3  UNL     1      -1.104  -1.132  -0.975  1.00  0.00    -0.358 OA
HETATM   11  C11 UNL     1      -0.034  -1.190  -0.097  1.00  0.00     0.134 C 
HETATM   12  C12 UNL     1      -0.511  -1.876   1.157  1.00  0.00     0.033 C 
HETATM   13  C13 UNL     1      -1.728  -1.280   1.755  1.00  0.00     0.011 C 
HETATM   14  C14 UNL     1      -2.741  -0.781   0.768  1.00  0.00     0.032 C 
HETATM   15  C15 UNL     1      -3.883  -1.760   0.571  1.00  0.00     0.014 C 
HETATM   16  C16 UNL     1       0.597   0.135   0.161  1.00  0.00     0.073 C 
ENDROOT
BRANCH   1  17
HETATM   17  O2  UNL     1       2.783  -0.668  -0.558  1.00  0.00    -0.316 OA
BRANCH  17  18
HETATM   18  C2  UNL     1       3.190  -1.542  -1.537  1.00  0.00     0.255 C 
HETATM   19  C1  UNL     1       4.230  -2.546  -1.217  1.00  0.00     0.126 C 
HETATM   20  O1  UNL     1       2.663  -1.458  -2.670  1.00  0.00    -0.266 OA
ENDBRANCH  17  18
ENDBRANCH   1  17
TORSDOF 2
