REMARK  1 active torsions:
REMARK  status: ('A' for Active; 'I' for Inactive)
REMARK    1  A    between atoms: C2_2  and  C3_3 
ROOT
HETATM    1  C3  UNL     1      -1.048  -0.188   0.265  1.00  0.00     0.163 C 
HETATM    2  O1  UNL     1       0.001  -0.388  -0.586  1.00  0.00    -0.320 OA
HETATM    3  C4  UNL     1       1.175   0.253  -0.247  1.00  0.00     0.322 A 
HETATM    4  O2  UNL     1       0.933   1.574   0.233  1.00  0.00    -0.280 OA
HETATM    5  C5  UNL     1      -0.360   2.119   0.253  1.00  0.00     0.126 A 
HETATM    6  S1  UNL     1      -1.071   3.672   0.264  1.00  0.00    -0.057 SA
HETATM    7  C6  UNL     1      -2.717   3.224   0.291  1.00  0.00     0.054 A 
HETATM    8 BR1  UNL     1      -4.250   4.371   0.316  1.00  0.00    -0.043 Br
HETATM    9  C7  UNL     1      -2.661   1.865   0.291  1.00  0.00     0.039 A 
HETATM   10  C8  UNL     1      -1.443   1.284   0.271  1.00  0.00     0.013 A 
HETATM   11  O3  UNL     1       2.016   0.291  -1.477  1.00  0.00    -0.311 OA
HETATM   12  C9  UNL     1       2.486  -0.258  -0.282  1.00  0.00     0.144 A 
HETATM   13  C10 UNL     1       3.605   0.558   0.329  1.00  0.00     0.054 C 
HETATM   14  C11 UNL     1       2.755  -1.754  -0.246  1.00  0.00     0.054 C 
ENDROOT
BRANCH   1  15
HETATM   15  C2  UNL     1      -2.223  -0.971  -0.327  1.00  0.00     0.033 C 
HETATM   16  C1  UNL     1      -1.891  -2.424  -0.424  1.00  0.00     0.008 C 
ENDBRANCH   1  15
TORSDOF 1
