REMARK  1 active torsions:
REMARK  status: ('A' for Active; 'I' for Inactive)
REMARK    1  A    between atoms: C3_5  and  N1_6 
ROOT
HETATM    1  O1  UNL     1       1.500  -1.877  -1.021  1.00  0.00    -0.290 OA
HETATM    2  C1  UNL     1       0.991  -0.868  -0.436  1.00  0.00     0.192 C 
HETATM    3  C2  UNL     1      -0.409  -0.553  -0.678  1.00  0.00     0.110 C 
HETATM    4 CL1  UNL     1      -1.065  -0.787  -2.314  1.00  0.00    -0.078 Cl
HETATM    5  C3  UNL     1      -1.250  -0.099   0.237  1.00  0.00     0.084 C 
HETATM    6  C8  UNL     1      -0.747   0.102   1.591  1.00  0.00     0.097 C 
HETATM    7  S1  UNL     1      -1.779  -0.026   2.847  1.00  0.00    -0.070 SA
HETATM    8  S2  UNL     1       0.980   0.487   1.889  1.00  0.00    -0.098 SA
HETATM    9  C9  UNL     1       1.898  -0.100   0.451  1.00  0.00     0.080 C 
HETATM   10  C10 UNL     1       2.471   1.039  -0.367  1.00  0.00     0.029 C 
HETATM   11  C11 UNL     1       3.807   0.574  -0.961  1.00  0.00     0.002 C 
HETATM   12  C12 UNL     1       4.825   0.576   0.153  1.00  0.00     0.000 C 
HETATM   13  C13 UNL     1       4.178  -0.031   1.375  1.00  0.00     0.002 C 
HETATM   14  C14 UNL     1       3.034  -0.964   0.964  1.00  0.00     0.029 C 
ENDROOT
BRANCH   5  15
HETATM   15  N1  UNL     1      -2.624   0.189  -0.081  1.00  0.00    -0.374 N 
HETATM   16  C4  UNL     1      -3.577  -0.865  -0.320  1.00  0.00     0.149 C 
HETATM   17  C5  UNL     1      -4.993  -0.459  -0.058  1.00  0.00     0.187 C 
HETATM   18  O2  UNL     1      -5.329   0.794  -0.508  1.00  0.00    -0.388 OA
HETATM   19  C6  UNL     1      -4.302   1.473  -1.139  1.00  0.00     0.187 C 
HETATM   20  C7  UNL     1      -3.130   1.545  -0.181  1.00  0.00     0.149 C 
ENDBRANCH   5  15
TORSDOF 1
