REMARK  2 active torsions:
REMARK  status: ('A' for Active; 'I' for Inactive)
REMARK    1  A    between atoms: O1_2  and  C2_3 
REMARK    2  A    between atoms: C2_3  and  C3_6 
ROOT
HETATM    1  C3  UNL     1       2.084  -0.124  -0.059  1.00  0.00     0.050 A 
HETATM    2  C4  UNL     1       2.894  -1.117  -0.577  1.00  0.00     0.018 A 
HETATM    3  C5  UNL     1       2.420  -2.396  -0.698  1.00  0.00     0.024 A 
HETATM    4  C6  UNL     1       1.109  -2.712  -0.299  1.00  0.00     0.053 A 
HETATM    5  C7  UNL     1       0.624  -4.048  -0.460  1.00  0.00     0.100 C 
HETATM    6  N1  UNL     1       0.246  -5.154  -0.619  1.00  0.00    -0.191 NA
HETATM    7  C8  UNL     1       0.291  -1.739   0.219  1.00  0.00    -0.005 A 
HETATM    8  C9  UNL     1       0.798  -0.436   0.332  1.00  0.00    -0.029 A 
HETATM    9  C10 UNL     1      -0.273   0.456   0.906  1.00  0.00     0.025 C 
HETATM   10  C11 UNL     1      -1.008   1.080  -0.220  1.00  0.00     0.046 C 
HETATM   11  C12 UNL     1      -2.503   0.868  -0.223  1.00  0.00     0.054 C 
HETATM   12  C13 UNL     1      -2.981   1.162  -1.648  1.00  0.00     0.045 C 
HETATM   13  C14 UNL     1      -3.167   1.935   0.651  1.00  0.00     0.045 C 
HETATM   14  O2  UNL     1      -2.919  -0.391   0.100  1.00  0.00    -0.379 OA
HETATM   15  C15 UNL     1      -2.094  -1.400  -0.320  1.00  0.00     0.198 C 
HETATM   16  C16 UNL     1      -1.060  -1.735   0.724  1.00  0.00     0.100 C 
HETATM   17  C17 UNL     1      -1.406  -2.925   1.491  1.00  0.00     0.076 C 
HETATM   18  N2  UNL     1      -1.696  -3.849   2.120  1.00  0.00    -0.196 NA
HETATM   19  C18 UNL     1      -1.041  -0.538   1.697  1.00  0.00     0.041 C 
ENDROOT
BRANCH   1  20
HETATM   20  C2  UNL     1       2.638   1.267   0.064  1.00  0.00     0.384 C 
HETATM   21  F1  UNL     1       1.922   2.180  -0.658  1.00  0.00    -0.170 F 
HETATM   22  F2  UNL     1       2.678   1.652   1.382  1.00  0.00    -0.170 F 
BRANCH  20  23
HETATM   23  O1  UNL     1       3.956   1.235  -0.409  1.00  0.00    -0.327 OA
HETATM   24  C1  UNL     1       4.584   2.450  -0.299  1.00  0.00     0.209 C 
ENDBRANCH  20  23
ENDBRANCH   1  20
TORSDOF 2
