REMARK  13 active torsions:
REMARK  status: ('A' for Active; 'I' for Inactive)
REMARK    1  A    between atoms: C3_3  and  C4_4 
REMARK    2  A    between atoms: C4_4  and  C5_5 
REMARK    3  A    between atoms: C5_5  and  O2_7 
REMARK    4  A    between atoms: C16_19  and  C17_20 
REMARK    5  A    between atoms: C17_20  and  C18_22 
REMARK    6  A    between atoms: C18_22  and  O4_25 
REMARK    7  A    between atoms: C21_27  and  C22_28 
REMARK    8  A    between atoms: C22_28  and  C23_29 
REMARK    9  A    between atoms: C23_29  and  C25_31 
REMARK   10  A    between atoms: C25_31  and  C26_32 
REMARK   11  A    between atoms: C26_32  and  O5_33 
REMARK   12  A    between atoms: C28_36  and  O6_37 
REMARK   13  A    between atoms: O6_37  and  C29_38 
ROOT
HETATM    1  C1  UNL     1       3.036  -1.046   1.637  1.00  0.00     0.020 C 
HETATM    2  C2  UNL     1       2.704  -0.562   0.511  1.00  0.00    -0.027 C 
HETATM    3  C3  UNL     1       3.210   0.605  -0.195  1.00  0.00     0.163 C 
HETATM    4  O3  UNL     1       2.309   1.030  -1.156  1.00  0.00    -0.366 OA
HETATM    5  C7  UNL     1       0.970   1.084  -0.913  1.00  0.00     0.085 C 
HETATM    6  C8  UNL     1       0.225   1.239  -2.267  1.00  0.00     0.051 C 
HETATM    7  C9  UNL     1       0.804   2.409  -0.261  1.00  0.00     0.046 C 
HETATM    8  C10 UNL     1       0.887   2.492   1.216  1.00  0.00     0.030 C 
HETATM    9  C11 UNL     1      -0.243   3.342   1.678  1.00  0.00    -0.024 C 
HETATM   10  C12 UNL     1      -1.312   2.818   2.201  1.00  0.00    -0.087 C 
HETATM   11  C13 UNL     1      -2.417   3.751   2.647  1.00  0.00     0.043 C 
HETATM   12  C14 UNL     1      -1.503   1.376   2.375  1.00  0.00     0.038 C 
HETATM   13  C15 UNL     1      -2.543   0.842   1.396  1.00  0.00     0.042 C 
HETATM   14  C16 UNL     1      -1.982   0.428   0.089  1.00  0.00    -0.033 C 
HETATM   15  C21 UNL     1      -0.790  -0.467   0.155  1.00  0.00    -0.022 C 
HETATM   16  C27 UNL     1       0.446  -0.131  -0.296  1.00  0.00    -0.002 C 
HETATM   17  C28 UNL     1       1.515  -1.205  -0.241  1.00  0.00     0.195 C 
ENDROOT
BRANCH  14  18
HETATM   18  C17 UNL     1      -3.037   0.108  -0.888  1.00  0.00     0.233 C 
HETATM   19  F1  UNL     1      -3.870  -0.928  -0.423  1.00  0.00    -0.241 F 
BRANCH  18  20
HETATM   20  C18 UNL     1      -4.000   1.142  -1.333  1.00  0.00     0.085 C 
HETATM   21  C19 UNL     1      -3.478   2.376  -1.965  1.00  0.00     0.049 C 
HETATM   22  C20 UNL     1      -5.124   1.477  -0.404  1.00  0.00     0.049 C 
BRANCH  20  23
HETATM   23  O4  UNL     1      -4.697   0.501  -2.449  1.00  0.00    -0.387 OA
ATOM     24  H4  UNL     1      -5.315   1.164  -2.734  1.00  0.00     0.210 HD
ENDBRANCH  20  23
ENDBRANCH  18  20
ENDBRANCH  14  18
BRANCH  15  25
HETATM   25  C22 UNL     1      -0.844  -1.767   0.881  1.00  0.00     0.018 C 
BRANCH  25  26
HETATM   26  C23 UNL     1      -1.541  -2.921   0.411  1.00  0.00    -0.063 C 
HETATM   27  C24 UNL     1      -1.346  -3.536  -0.949  1.00  0.00     0.048 C 
BRANCH  26  28
HETATM   28  C25 UNL     1      -2.447  -3.581   1.093  1.00  0.00     0.005 C 
BRANCH  28  29
HETATM   29  C26 UNL     1      -2.952  -3.312   2.456  1.00  0.00     0.192 C 
BRANCH  29  30
HETATM   30  O5  UNL     1      -2.675  -4.452   3.238  1.00  0.00    -0.397 OA
ATOM     31  H5  UNL     1      -3.000  -4.279   4.114  1.00  0.00     0.209 HD
ENDBRANCH  29  30
ENDBRANCH  28  29
ENDBRANCH  26  28
ENDBRANCH  25  26
ENDBRANCH  15  25
BRANCH  17  32
HETATM   32  O6  UNL     1       2.078  -1.398  -1.555  1.00  0.00    -0.307 OA
BRANCH  32  33
HETATM   33  C29 UNL     1       2.383  -2.652  -2.026  1.00  0.00     0.255 C 
HETATM   34  C30 UNL     1       2.963  -2.868  -3.400  1.00  0.00     0.126 C 
HETATM   35  O7  UNL     1       2.201  -3.691  -1.351  1.00  0.00    -0.266 OA
ENDBRANCH  32  33
ENDBRANCH  17  32
BRANCH   3  36
HETATM   36  C4  UNL     1       4.527   0.434  -0.877  1.00  0.00     0.147 C 
BRANCH  36  37
HETATM   37  C5  UNL     1       5.719   0.136  -0.136  1.00  0.00     0.261 C 
HETATM   38  O1  UNL     1       5.890   0.134   1.097  1.00  0.00    -0.265 OA
BRANCH  37  39
HETATM   39  O2  UNL     1       6.857  -0.201  -0.915  1.00  0.00    -0.326 OA
HETATM   40  C6  UNL     1       8.067  -0.507  -0.253  1.00  0.00     0.213 C 
ENDBRANCH  37  39
ENDBRANCH  36  37
ENDBRANCH   3  36
TORSDOF 13
