REMARK  8 active torsions:
REMARK  status: ('A' for Active; 'I' for Inactive)
REMARK    1  A    between atoms: C2_3  and  C3_4 
REMARK    2  A    between atoms: C3_4  and  C4_5 
REMARK    3  A    between atoms: C4_5  and  C5_6 
REMARK    4  A    between atoms: N2_9  and  C8_10 
REMARK    5  A    between atoms: C8_10  and  C9_11 
REMARK    6  A    between atoms: N5_19  and  C13_21 
REMARK    7  A    between atoms: C16_24  and  O1_25 
REMARK    8  A    between atoms: N7_33  and  C20_34 
ROOT
HETATM    1  N1  UNL     1      11.016   0.301  -0.659  1.00  0.00    -0.197 NA
HETATM    2  C1  UNL     1      10.155  -0.397  -0.338  1.00  0.00     0.059 C 
HETATM    3  C2  UNL     1       9.066  -1.263   0.095  1.00  0.00     0.124 C 
ENDROOT
BRANCH   3   4
HETATM    4  C3  UNL     1       7.785  -0.573  -0.386  1.00  0.00     0.014 C 
BRANCH   4   5
HETATM    5  C4  UNL     1       6.571  -1.347   0.005  1.00  0.00     0.005 C 
BRANCH   5   6
HETATM    6  C5  UNL     1       5.375  -0.711  -0.634  1.00  0.00    -0.012 C 
HETATM    7  C6  UNL     1       4.095  -1.431  -0.251  1.00  0.00     0.024 C 
HETATM    8  C7  UNL     1       2.988  -0.474  -0.699  1.00  0.00     0.122 C 
HETATM    9  N2  UNL     1       2.997   0.704   0.016  1.00  0.00    -0.388 N 
HETATM   10  C27 UNL     1       4.253   1.301   0.334  1.00  0.00     0.122 C 
HETATM   11  C28 UNL     1       5.343   0.754  -0.579  1.00  0.00     0.024 C 
BRANCH   9  12
HETATM   12  C8  UNL     1       2.011   1.096   0.941  1.00  0.00     0.121 C 
BRANCH  12  13
HETATM   13  C9  UNL     1       0.711   0.454   0.594  1.00  0.00     0.117 A 
HETATM   14  N3  UNL     1       0.541  -0.871   0.697  1.00  0.00    -0.347 N 
HETATM   15  C10 UNL     1      -0.648  -1.399   0.544  1.00  0.00     0.094 A 
ATOM     16  H3  UNL     1       1.341  -1.471   0.896  1.00  0.00     0.166 HD
HETATM   17  C11 UNL     1      -0.867  -2.750   0.666  1.00  0.00     0.139 A 
HETATM   18  C19 UNL     1      -1.759  -0.584   0.264  1.00  0.00     0.154 A 
HETATM   19  N4  UNL     1      -2.058  -3.290   0.538  1.00  0.00    -0.199 N 
HETATM   20  C12 UNL     1      -3.180  -2.488   0.262  1.00  0.00     0.684 A 
ATOM     21  H4  UNL     1      -2.170  -4.299   0.640  1.00  0.00     0.183 HD
HETATM   22  N5  UNL     1      -4.241  -3.123   0.189  1.00  0.00    -0.192 N 
HETATM   23  N6  UNL     1      -2.920  -1.172   0.141  1.00  0.00    -0.174 N 
ATOM     24  H5  UNL     1      -4.083  -4.122   0.321  1.00  0.00     0.184 HD
ATOM     25  H6  UNL     1      -3.715  -0.569  -0.069  1.00  0.00     0.186 HD
HETATM   26  N7  UNL     1      -1.608   0.786   0.159  1.00  0.00    -0.291 N 
HETATM   27  C26 UNL     1      -0.364   1.211   0.331  1.00  0.00     0.277 A 
HETATM   28  O2  UNL     1      -0.136   2.473   0.249  1.00  0.00    -0.265 OA
BRANCH  22  29
HETATM   29  C13 UNL     1      -5.625  -2.842  -0.029  1.00  0.00     0.051 A 
HETATM   30  C14 UNL     1      -6.480  -3.890   0.094  1.00  0.00     0.033 A 
HETATM   31  C15 UNL     1      -7.903  -3.658   0.115  1.00  0.00     0.040 A 
HETATM   32  C16 UNL     1      -8.353  -2.373   0.030  1.00  0.00     0.087 A 
HETATM   33  C17 UNL     1      -7.407  -1.300  -0.090  1.00  0.00     0.069 A 
HETATM   34 CL1  UNL     1      -8.056   0.311  -0.160  1.00  0.00    -0.081 Cl
HETATM   35  C18 UNL     1      -6.068  -1.568  -0.122  1.00  0.00     0.056 A 
BRANCH  32  36
HETATM   36  O1  UNL     1      -9.691  -2.085   0.084  1.00  0.00    -0.359 OA
ATOM     37  H1  UNL     1     -10.004  -1.190   0.025  1.00  0.00     0.217 HD
ENDBRANCH  32  36
ENDBRANCH  22  29
BRANCH  26  38
HETATM   38  C20 UNL     1      -2.651   1.686  -0.186  1.00  0.00     0.095 C 
HETATM   39  C21 UNL     1      -2.415   2.506  -1.434  1.00  0.00     0.026 C 
HETATM   40  C22 UNL     1      -2.518   3.979  -1.252  1.00  0.00     0.002 C 
HETATM   41  C23 UNL     1      -3.680   4.466  -0.442  1.00  0.00     0.000 C 
HETATM   42  C24 UNL     1      -4.052   3.510   0.668  1.00  0.00     0.002 C 
HETATM   43  C25 UNL     1      -2.892   2.637   1.011  1.00  0.00     0.026 C 
ENDBRANCH  26  38
ENDBRANCH  12  13
ENDBRANCH   9  12
ENDBRANCH   5   6
ENDBRANCH   4   5
ENDBRANCH   3   4
TORSDOF 8
