REMARK  9 active torsions:
REMARK  status: ('A' for Active; 'I' for Inactive)
REMARK    1  A    between atoms: C4_5  and  C5_6 
REMARK    2  A    between atoms: C6_8  and  C7_9 
REMARK    3  A    between atoms: C12_18  and  C13_19 
REMARK    4  A    between atoms: C13_19  and  N3_20 
REMARK    5  A    between atoms: N3_20  and  C14_22 
REMARK    6  A    between atoms: N5_32  and  O1_34 
REMARK    7  A    between atoms: O1_34  and  C22_35 
REMARK    8  A    between atoms: C22_35  and  C23_36 
REMARK    9  A    between atoms: C23_36  and  N6_37 
ROOT
HETATM    1  N3  UNL     1      -2.537  -0.647  -0.079  1.00  0.00    -0.407 N 
ATOM      2  H3  UNL     1      -2.763  -0.868   0.891  1.00  0.00     0.154 HD
ENDROOT
BRANCH   1   3
HETATM    3  C13 UNL     1      -3.674  -0.523  -0.853  1.00  0.00     0.173 C 
BRANCH   3   4
HETATM    4  C12 UNL     1      -4.916   0.064  -0.086  1.00  0.00     0.045 A 
HETATM    5  C5  UNL     1      -6.060  -0.684   0.135  1.00  0.00     0.041 A 
HETATM    6  S1  UNL     1      -7.182   0.546   0.395  1.00  0.00    -0.069 SA
HETATM    7  C6  UNL     1      -6.186   1.928   0.222  1.00  0.00     0.086 A 
HETATM    8  N2  UNL     1      -5.010   1.362  -0.031  1.00  0.00    -0.351 N 
ATOM      9  H2  UNL     1      -4.185   1.942  -0.181  1.00  0.00     0.166 HD
BRANCH   5  10
HETATM   10  C4  UNL     1      -6.199  -2.142   0.075  1.00  0.00    -0.017 A 
HETATM   11  C3  UNL     1      -7.236  -2.782  -0.488  1.00  0.00     0.016 A 
HETATM   12  C2  UNL     1      -7.444  -4.157  -0.518  1.00  0.00     0.043 A 
HETATM   13  C1  UNL     1      -6.450  -4.950   0.098  1.00  0.00     0.116 A 
HETATM   14  F1  UNL     1      -6.589  -6.287   0.127  1.00  0.00    -0.206 F 
HETATM   15  C30 UNL     1      -5.375  -4.319   0.670  1.00  0.00     0.043 A 
HETATM   16  C29 UNL     1      -5.210  -2.998   0.709  1.00  0.00     0.016 A 
ENDBRANCH   5  10
BRANCH   7  17
HETATM   17  C7  UNL     1      -6.595   3.344   0.330  1.00  0.00     0.013 A 
HETATM   18  C8  UNL     1      -7.855   3.684   0.742  1.00  0.00     0.017 A 
HETATM   19  C9  UNL     1      -8.251   5.062   0.836  1.00  0.00     0.018 A 
HETATM   20  C10 UNL     1      -7.334   6.018   0.487  1.00  0.00     0.087 A 
HETATM   21  N1  UNL     1      -6.087   5.645   0.065  1.00  0.00    -0.374 N 
HETATM   22  C11 UNL     1      -5.747   4.339  -0.000  1.00  0.00     0.101 A 
ATOM     23  H1  UNL     1      -5.409   6.358  -0.203  1.00  0.00     0.164 HD
ENDBRANCH   7  17
ENDBRANCH   3   4
ENDBRANCH   1   3
BRANCH   1  24
HETATM   24  C14 UNL     1      -1.153  -0.548  -0.280  1.00  0.00     0.115 C 
HETATM   25  C15 UNL     1      -0.627  -1.349   0.910  1.00  0.00     0.081 C 
HETATM   26  N4  UNL     1       0.727  -1.178   1.221  1.00  0.00    -0.385 N 
HETATM   27  C16 UNL     1       1.693  -1.491   0.189  1.00  0.00     0.075 A 
ATOM     28  H4  UNL     1       1.022  -0.846   2.139  1.00  0.00     0.159 HD
HETATM   29  C17 UNL     1       2.387  -2.746   0.018  1.00  0.00     0.045 A 
HETATM   30  C18 UNL     1       1.201  -2.536  -0.836  1.00  0.00     0.032 A 
HETATM   31  C21 UNL     1       1.766  -0.431  -0.792  1.00  0.00     0.043 C 
HETATM   32  C19 UNL     1       0.848  -1.274  -1.610  1.00  0.00     0.045 C 
HETATM   33  C20 UNL     1      -0.609  -1.014  -1.544  1.00  0.00     0.041 C 
HETATM   34  N5  UNL     1       2.525   0.586  -0.924  1.00  0.00    -0.272 N 
ATOM     35  H5  UNL     1       2.467   1.262  -1.686  1.00  0.00     0.193 HD
BRANCH  34  36
HETATM   36  O1  UNL     1       3.503   0.644   0.189  1.00  0.00    -0.279 OA
BRANCH  36  37
HETATM   37  C22 UNL     1       4.790   0.976  -0.221  1.00  0.00     0.231 C 
BRANCH  37  38
HETATM   38  C23 UNL     1       5.847   0.535   0.794  1.00  0.00     0.301 C 
BRANCH  38  39
HETATM   39  N6  UNL     1       7.176   0.866   0.228  1.00  0.00     0.090 N 
HETATM   40  C24 UNL     1       8.112  -0.212   0.541  1.00  0.00     0.272 C 
HETATM   41  C25 UNL     1       9.528   0.296   0.605  1.00  0.00     0.030 C 
HETATM   42  C26 UNL     1       9.701   1.565  -0.245  1.00  0.00     0.003 C 
HETATM   43  C27 UNL     1       8.802   2.644   0.339  1.00  0.00     0.030 C 
HETATM   44  C28 UNL     1       7.652   1.999   1.042  1.00  0.00     0.272 C 
ENDBRANCH  38  39
ENDBRANCH  37  38
ENDBRANCH  36  37
ENDBRANCH  34  36
ENDBRANCH   1  24
TORSDOF 9
