REMARK  9 active torsions:
REMARK  status: ('A' for Active; 'I' for Inactive)
REMARK    1  A    between atoms: C2_2  and  C3_3 
REMARK    2  A    between atoms: C3_3  and  C4_4 
REMARK    3  A    between atoms: C6_10  and  N3_11 
REMARK    4  A    between atoms: C11_18  and  N5_19 
REMARK    5  A    between atoms: N6_23  and  C13_24 
REMARK    6  A    between atoms: C13_24  and  C14_25 
REMARK    7  A    between atoms: C18_29  and  N7_30 
REMARK    8  A    between atoms: N7_30  and  C20_32 
REMARK    9  A    between atoms: C23_35  and  C24_37 
ROOT
HETATM    1  C24 UNL     1       5.362   1.987   1.587  1.00  0.00     0.167 C 
HETATM    2  C25 UNL     1       4.944   3.406   1.559  1.00  0.00     0.062 C 
HETATM    3  N8  UNL     1       4.635   4.522   1.553  1.00  0.00    -0.197 NA
ENDROOT
BRANCH   1   4
HETATM    4  C23 UNL     1       6.054   1.653   0.285  1.00  0.00     0.115 C 
HETATM    5  C22 UNL     1       5.193   1.833  -0.922  1.00  0.00     0.046 C 
HETATM    6  C21 UNL     1       4.087   0.782  -0.997  1.00  0.00     0.028 C 
HETATM    7  C20 UNL     1       4.763  -0.551  -1.082  1.00  0.00     0.084 C 
HETATM    8  C27 UNL     1       5.671  -0.793   0.117  1.00  0.00     0.028 C 
HETATM    9  C26 UNL     1       6.668   0.299   0.296  1.00  0.00     0.046 C 
HETATM   10  F1  UNL     1       7.112   2.571   0.133  1.00  0.00    -0.242 F 
BRANCH   7  11
HETATM   11  N7  UNL     1       3.844  -1.612  -1.175  1.00  0.00    -0.378 N 
HETATM   12  C19 UNL     1       4.376  -2.991  -1.334  1.00  0.00     0.150 C 
BRANCH  11  13
HETATM   13  C18 UNL     1       2.430  -1.522  -1.139  1.00  0.00     0.065 A 
HETATM   14  C17 UNL     1       1.735  -1.879  -2.304  1.00  0.00     0.101 A 
HETATM   15  C16 UNL     1       0.362  -1.851  -2.320  1.00  0.00    -0.020 A 
HETATM   16  O1  UNL     1       2.178  -2.293  -3.563  1.00  0.00    -0.348 OA
HETATM   17  C15 UNL     1      -0.343  -1.476  -1.206  1.00  0.00     0.023 A 
HETATM   18  C30 UNL     1      -0.078  -2.277  -3.690  1.00  0.00     0.068 C 
HETATM   19  C14 UNL     1       0.276  -1.120  -0.049  1.00  0.00    -0.017 A 
HETATM   20  C28 UNL     1       1.677  -1.162  -0.074  1.00  0.00     0.045 A 
HETATM   21  C29 UNL     1       1.171  -2.050  -4.512  1.00  0.00     0.180 C 
BRANCH  19  22
HETATM   22  C13 UNL     1      -0.399  -0.745   1.154  1.00  0.00     0.110 C 
BRANCH  22  23
HETATM   23  N6  UNL     1      -1.487   0.139   1.173  1.00  0.00    -0.304 N 
HETATM   24  C4  UNL     1      -1.442   1.494   1.191  1.00  0.00     0.089 A 
HETATM   25  N1  UNL     1      -2.698   1.933   1.260  1.00  0.00    -0.329 N 
HETATM   26  C5  UNL     1      -3.561   0.912   1.286  1.00  0.00     0.153 A 
ATOM     27  H1  UNL     1      -2.966   2.917   1.289  1.00  0.00     0.168 HD
HETATM   28  N2  UNL     1      -4.901   0.823   1.360  1.00  0.00    -0.174 N 
HETATM   29  C12 UNL     1      -2.787  -0.246   1.231  1.00  0.00     0.129 A 
HETATM   30  C6  UNL     1      -5.572  -0.333   1.385  1.00  0.00     0.683 A 
ATOM     31  H2  UNL     1      -5.438   1.690   1.399  1.00  0.00     0.186 HD
HETATM   32  N4  UNL     1      -4.840  -1.449   1.334  1.00  0.00    -0.175 N 
HETATM   33  C11 UNL     1      -3.485  -1.437   1.259  1.00  0.00     0.146 A 
ATOM     34  H4  UNL     1      -5.320  -2.349   1.352  1.00  0.00     0.186 HD
BRANCH  24  35
HETATM   35  C3  UNL     1      -0.250   2.311   1.151  1.00  0.00     0.076 C 
BRANCH  35  36
HETATM   36  C2  UNL     1       0.149   2.734  -0.274  1.00  0.00     0.003 C 
HETATM   37  C1  UNL     1       1.394   3.576  -0.142  1.00  0.00     0.005 C 
ENDBRANCH  35  36
ENDBRANCH  24  35
BRANCH  30  38
HETATM   38  N3  UNL     1      -7.009  -0.371   1.470  1.00  0.00    -0.217 N 
HETATM   39  C7  UNL     1      -7.883  -0.348   0.319  1.00  0.00     0.141 C 
HETATM   40  C8  UNL     1      -9.262  -0.595   0.833  1.00  0.00     0.022 C 
HETATM   41  C9  UNL     1      -9.183  -0.438   2.315  1.00  0.00     0.022 C 
HETATM   42  C10 UNL     1      -7.735  -0.439   2.696  1.00  0.00     0.141 C 
ENDBRANCH  30  38
BRANCH  33  43
HETATM   43  N5  UNL     1      -2.836  -2.554   1.229  1.00  0.00    -0.383 N 
ATOM     44  H52 UNL     1      -3.352  -3.434   1.250  1.00  0.00     0.157 HD
ATOM     45  H51 UNL     1      -1.818  -2.545   1.173  1.00  0.00     0.157 HD
ENDBRANCH  33  43
ENDBRANCH  22  23
ENDBRANCH  19  22
ENDBRANCH  11  13
ENDBRANCH   7  11
ENDBRANCH   1   4
TORSDOF 9
