REMARK  2 active torsions:
REMARK  status: ('A' for Active; 'I' for Inactive)
REMARK    1  A    between atoms: C2_2  and  C3_3 
REMARK    2  A    between atoms: C3_3  and  C4_4 
ROOT
HETATM    1  C4  UNL     1      -0.517  -0.367  -0.272  1.00  0.00     0.084 A 
HETATM    2  N1  UNL     1      -1.476   0.022  -1.129  1.00  0.00    -0.354 N 
ATOM      3  H1  UNL     1      -1.343   0.171  -2.129  1.00  0.00     0.166 HD
HETATM    4  C5  UNL     1      -2.645   0.187  -0.466  1.00  0.00     0.106 A 
HETATM    5  C6  UNL     1      -2.403  -0.112   0.860  1.00  0.00     0.106 A 
HETATM    6  N2  UNL     1      -1.081  -0.446   0.921  1.00  0.00    -0.354 N 
ATOM      7  H2  UNL     1      -0.593  -0.720   1.774  1.00  0.00     0.166 HD
ENDROOT
BRANCH   1   8
HETATM    8  C3  UNL     1       0.898  -0.645  -0.641  1.00  0.00     0.102 C 
BRANCH   8   9
HETATM    9  C2  UNL     1       1.714   0.588  -0.528  1.00  0.00    -0.029 C 
HETATM   10  C1  UNL     1       2.757   0.687   0.282  1.00  0.00     0.007 C 
ENDBRANCH   8   9
ENDBRANCH   1   8
TORSDOF 2
