REMARK  2 active torsions:
REMARK  status: ('A' for Active; 'I' for Inactive)
REMARK    1  A    between atoms: C2_4  and  C3_5 
REMARK    2  A    between atoms: C3_5  and  N2_6 
ROOT
HETATM    1  N2  UNL     1      -0.523  -0.324   0.251  1.00  0.00    -0.349 N 
HETATM    2  C4  UNL     1      -1.428   0.480   0.822  1.00  0.00     0.108 A 
HETATM    3  C5  UNL     1      -2.546   0.571   0.032  1.00  0.00     0.106 A 
HETATM    4  N3  UNL     1      -2.279  -0.205  -1.033  1.00  0.00    -0.361 N 
ATOM      5  H3  UNL     1      -2.909  -0.359  -1.820  1.00  0.00     0.166 HD
HETATM    6  C6  UNL     1      -1.058  -0.747  -0.903  1.00  0.00     0.182 A 
ENDROOT
BRANCH   1   7
HETATM    7  C3  UNL     1       0.807  -0.683   0.776  1.00  0.00     0.159 C 
BRANCH   7   8
HETATM    8  C2  UNL     1       1.855   0.308   0.291  1.00  0.00     0.137 A 
HETATM    9  C1  UNL     1       2.050   0.437  -1.177  1.00  0.00     0.083 A 
HETATM   10  N1  UNL     1       2.927  -0.202  -0.509  1.00  0.00    -0.390 N 
ATOM     11  H1  UNL     1       3.803  -0.725  -0.530  1.00  0.00     0.159 HD
ENDBRANCH   7   8
ENDBRANCH   1   7
TORSDOF 2
