REMARK  3 active torsions:
REMARK  status: ('A' for Active; 'I' for Inactive)
REMARK    1  A    between atoms: N1_1  and  C1_5 
REMARK    2  A    between atoms: C1_5  and  C2_6 
REMARK    3  A    between atoms: C2_6  and  C3_7 
ROOT
HETATM    1  C3  UNL     1       0.422   0.049  -0.246  1.00  0.00    -0.054 A 
HETATM    2  C4  UNL     1       1.139   1.122   0.247  1.00  0.00     0.024 A 
HETATM    3  C5  UNL     1       2.519   1.142   0.239  1.00  0.00     0.088 A 
HETATM    4  N2  UNL     1       3.141   0.058  -0.276  1.00  0.00    -0.375 N 
ATOM      5  H2  UNL     1       4.161   0.041  -0.296  1.00  0.00     0.164 HD
HETATM    6  C6  UNL     1       2.476  -0.985  -0.756  1.00  0.00     0.088 A 
HETATM    7  C7  UNL     1       1.096  -1.015  -0.753  1.00  0.00     0.024 A 
ENDROOT
BRANCH   1   8
HETATM    8  C2  UNL     1      -1.057   0.143  -0.183  1.00  0.00     0.066 C 
BRANCH   8   9
HETATM    9  C1  UNL     1      -1.621  -0.408   1.097  1.00  0.00     0.234 C 
BRANCH   9  10
HETATM   10  N1  UNL     1      -3.063  -0.260   1.037  1.00  0.00    -0.079 N 
ATOM     11  H13 UNL     1      -3.357   0.699   0.853  1.00  0.00     0.274 HD
ATOM     12  H12 UNL     1      -3.472  -0.686   0.206  1.00  0.00     0.274 HD
ATOM     13  H11 UNL     1      -3.446  -0.634   1.905  1.00  0.00     0.274 HD
ENDBRANCH   9  10
ENDBRANCH   8   9
ENDBRANCH   1   8
TORSDOF 3
