REMARK  3 active torsions:
REMARK  status: ('A' for Active; 'I' for Inactive)
REMARK    1  A    between atoms: N1_1  and  C1_5 
REMARK    2  A    between atoms: C1_5  and  C2_6 
REMARK    3  A    between atoms: C2_6  and  C3_7 
ROOT
HETATM    1  C2  UNL     1      -1.094   0.759   1.092  1.00  0.00     0.059 C 
ENDROOT
BRANCH   1   2
HETATM    2  C1  UNL     1      -1.942  -0.441   0.747  1.00  0.00     0.232 C 
BRANCH   2   3
HETATM    3  N1  UNL     1      -2.145  -0.505  -0.683  1.00  0.00    -0.079 N 
ATOM      4  H13 UNL     1      -2.538   0.361  -1.053  1.00  0.00     0.274 HD
ATOM      5  H12 UNL     1      -1.263  -0.499  -1.196  1.00  0.00     0.274 HD
ATOM      6  H11 UNL     1      -2.718  -1.316  -0.916  1.00  0.00     0.274 HD
ENDBRANCH   2   3
ENDBRANCH   1   2
BRANCH   1   7
HETATM    7  C3  UNL     1       0.251   0.733   0.456  1.00  0.00     0.123 C 
HETATM    8  C4  UNL     1       1.071  -0.477   0.861  1.00  0.00     0.034 C 
HETATM    9  C5  UNL     1       2.239  -0.304  -0.122  1.00  0.00     0.029 C 
HETATM   10  C6  UNL     1       1.546   0.357  -1.275  1.00  0.00     0.168 C 
HETATM   11  O1  UNL     1       0.246   0.620  -0.910  1.00  0.00    -0.386 OA
ENDBRANCH   1   7
TORSDOF 3
