REMARK  9 active torsions:
REMARK  status: ('A' for Active; 'I' for Inactive)
REMARK    1  A    between atoms: N1_1  and  C1_4 
REMARK    2  A    between atoms: C5_13  and  N4_14 
REMARK    3  A    between atoms: C6_17  and  C7_18 
REMARK    4  A    between atoms: C7_18  and  N5_19 
REMARK    5  A    between atoms: N7_27  and  C12_28 
REMARK    6  A    between atoms: C12_28  and  O5_29 
REMARK    7  A    between atoms: O5_29  and  C13_30 
REMARK    8  A    between atoms: C13_30  and  C14_31 
REMARK    9  A    between atoms: C14_31  and  O6_32 
ROOT
HETATM    1  C1  UNL     1       2.294   4.025  -0.146  1.00  0.00     0.679 A 
HETATM    2  N2  UNL     1       2.698   3.341   0.901  1.00  0.00    -0.154 N 
ATOM      3  H2  UNL     1       3.398   3.772   1.505  1.00  0.00     0.187 HD
HETATM    4  C2  UNL     1       2.266   2.137   1.230  1.00  0.00     0.289 A 
HETATM    5  O1  UNL     1       2.728   1.579   2.266  1.00  0.00    -0.265 OA
HETATM    6  C3  UNL     1       1.338   1.508   0.450  1.00  0.00     0.140 A 
HETATM    7  C4  UNL     1       0.897   2.215  -0.689  1.00  0.00     0.117 A 
HETATM    8  N3  UNL     1       1.373   3.456  -0.964  1.00  0.00    -0.187 N 
ATOM      9  H3  UNL     1       1.039   3.961  -1.785  1.00  0.00     0.184 HD
HETATM   10  C5  UNL     1      -0.020   1.426  -1.317  1.00  0.00     0.161 A 
HETATM   11  C6  UNL     1      -0.095   0.274  -0.551  1.00  0.00     0.092 A 
HETATM   12  N7  UNL     1       0.688   0.291   0.476  1.00  0.00    -0.292 N 
ENDROOT
BRANCH  11  13
HETATM   13  C7  UNL     1      -1.034  -0.810  -1.016  1.00  0.00     0.123 C 
BRANCH  13  14
HETATM   14  N5  UNL     1      -2.169  -1.028  -0.276  1.00  0.00    -0.358 N 
HETATM   15  C8  UNL     1      -3.132  -1.900  -0.924  1.00  0.00     0.147 C 
HETATM   16  C9  UNL     1      -4.151  -2.428   0.073  1.00  0.00     0.143 C 
HETATM   17  N6  UNL     1      -4.911  -1.228   0.481  1.00  0.00    -0.355 N 
HETATM   18  C10 UNL     1      -4.135  -0.080   0.768  1.00  0.00     0.256 C 
ATOM     19  H6  UNL     1      -5.929  -1.227   0.551  1.00  0.00     0.162 HD
HETATM   20  O4  UNL     1      -4.673   1.014   1.046  1.00  0.00    -0.267 OA
HETATM   21  C11 UNL     1      -2.652  -0.198   0.740  1.00  0.00     0.164 C 
ENDBRANCH  13  14
ENDBRANCH  11  13
BRANCH  10  22
HETATM   22  N4  UNL     1      -0.719   1.768  -2.498  1.00  0.00    -0.111 N 
HETATM   23  O2  UNL     1      -1.649   1.034  -2.944  1.00  0.00    -0.532 OA
HETATM   24  O3  UNL     1      -0.561   2.937  -3.172  1.00  0.00    -0.532 OA
ENDBRANCH  10  22
BRANCH  12  25
HETATM   25  C12 UNL     1       0.900  -0.669   1.508  1.00  0.00     0.234 C 
BRANCH  25  26
HETATM   26  O5  UNL     1       2.087  -1.302   1.473  1.00  0.00    -0.344 OA
BRANCH  26  27
HETATM   27  C13 UNL     1       2.564  -1.884   0.361  1.00  0.00     0.202 C 
BRANCH  27  28
HETATM   28  C14 UNL     1       3.872  -2.630   0.776  1.00  0.00     0.191 C 
BRANCH  28  29
HETATM   29  O6  UNL     1       4.483  -3.247  -0.272  1.00  0.00    -0.399 OA
ATOM     30  H6  UNL     1       5.279  -3.701  -0.020  1.00  0.00     0.209 HD
ENDBRANCH  28  29
ENDBRANCH  27  28
ENDBRANCH  26  27
ENDBRANCH  25  26
ENDBRANCH  12  25
BRANCH   1  31
HETATM   31  N1  UNL     1       2.706   5.244  -0.386  1.00  0.00    -0.234 N 
ATOM     32  H12 UNL     1       3.398   5.672   0.229  1.00  0.00     0.174 HD
ATOM     33  H11 UNL     1       2.392   5.775  -1.199  1.00  0.00     0.174 HD
ENDBRANCH   1  31
TORSDOF 9
