REMARK  8 active torsions:
REMARK  status: ('A' for Active; 'I' for Inactive)
REMARK    1  A    between atoms: N1_2  and  C3_4 
REMARK    2  A    between atoms: C4_5  and  C5_6 
REMARK    3  A    between atoms: N2_11  and  O3_12 
REMARK    4  A    between atoms: O3_12  and  C7_13 
REMARK    5  A    between atoms: C7_13  and  O4_14 
REMARK    6  A    between atoms: O4_14  and  C8_15 
REMARK       I    between atoms: C8_15  and  N3_17 
REMARK    7  A    between atoms: N3_17  and  S2_19 
REMARK    8  A    between atoms: S2_19  and  N4_22 
REMARK       I    between atoms: N4_22  and  C9_24 
ROOT
HETATM    1  O4  UNL     1       0.595  -1.030   0.176  1.00  0.00    -0.276 OA
ENDROOT
BRANCH   1   2
HETATM    2  C7  UNL     1      -0.530  -1.821   0.567  1.00  0.00     0.375 C 
BRANCH   2   3
HETATM    3  O3  UNL     1      -1.516  -1.600  -0.393  1.00  0.00    -0.274 OA
BRANCH   3   4
HETATM    4  N2  UNL     1      -1.799  -0.294  -0.393  1.00  0.00    -0.150 NA
HETATM    5  C3  UNL     1      -3.153   0.052  -0.160  1.00  0.00     0.346 C 
HETATM    6  C4  UNL     1      -3.918  -0.211  -1.462  1.00  0.00     0.199 C 
HETATM    7  S1  UNL     1      -2.713   0.523  -2.626  1.00  0.00    -0.133 SA
HETATM    8  C6  UNL     1      -1.272   0.441  -1.489  1.00  0.00     0.198 C 
BRANCH   5   9
HETATM    9  N1  UNL     1      -3.222   1.436   0.200  1.00  0.00     0.101 N 
HETATM   10  C1  UNL     1      -2.530   1.654   1.441  1.00  0.00     0.311 C 
HETATM   11  C2  UNL     1      -4.532   1.996   0.244  1.00  0.00     0.311 C 
ENDBRANCH   5   9
BRANCH   6  12
HETATM   12  C5  UNL     1      -3.980  -1.656  -1.732  1.00  0.00     0.190 C 
HETATM   13  O1  UNL     1      -3.503  -2.149  -2.793  1.00  0.00    -0.647 OA
HETATM   14  O2  UNL     1      -4.559  -2.576  -0.859  1.00  0.00    -0.647 OA
ENDBRANCH   6  12
ENDBRANCH   3   4
ENDBRANCH   2   3
ENDBRANCH   1   2
BRANCH   1  15
HETATM   15  C8  UNL     1       1.755  -1.039   0.941  1.00  0.00     0.377 C 
HETATM   16  O5  UNL     1       1.799  -1.742   1.961  1.00  0.00    -0.237 OA
HETATM   17  N3  UNL     1       2.860  -0.237   0.529  1.00  0.00    -0.212 N 
ATOM     18  H3  UNL     1       2.804   0.337  -0.313  1.00  0.00     0.185 HD
BRANCH  17  19
HETATM   19  S2  UNL     1       4.284  -0.261   1.483  1.00  0.00     0.329 S 
HETATM   20  O6  UNL     1       4.449   1.072   2.184  1.00  0.00    -0.182 OA
HETATM   21  O7  UNL     1       4.177  -1.327   2.542  1.00  0.00    -0.182 OA
BRANCH  19  22
HETATM   22  N4  UNL     1       5.702  -0.604   0.574  1.00  0.00    -0.241 N 
HETATM   23  C9  UNL     1       6.476   0.450   0.027  1.00  0.00     0.196 C 
HETATM   24  N5  UNL     1       7.662   0.664   0.461  1.00  0.00    -0.373 N 
HETATM   25  N6  UNL     1       5.913   1.250  -0.998  1.00  0.00    -0.063 NA
ATOM     26  H52 UNL     1       8.067   0.088   1.199  1.00  0.00     0.158 HD
ATOM     27  H51 UNL     1       8.219   1.422   0.067  1.00  0.00     0.158 HD
ATOM     28  H4  UNL     1       5.988  -1.572   0.427  1.00  0.00     0.183 HD
ENDBRANCH  19  22
ENDBRANCH  17  19
ENDBRANCH   1  15
TORSDOF 8
