REMARK  3 active torsions:
REMARK  status: ('A' for Active; 'I' for Inactive)
REMARK    1  A    between atoms: C2_2  and  C3_3 
REMARK    2  A    between atoms: C2_2  and  O3_13 
REMARK    3  A    between atoms: C4_4  and  C5_5 
ROOT
HETATM    1  C5  UNL     1      -1.943   0.030   0.125  1.00  0.00     0.181 C 
HETATM    2  C6  UNL     1      -2.491  -1.327  -0.285  1.00  0.00     0.050 C 
HETATM    3  C7  UNL     1      -2.627   0.646   1.265  1.00  0.00     0.254 C 
HETATM    4  O1  UNL     1      -2.489   0.677   2.507  1.00  0.00    -0.271 OA
HETATM    5  N1  UNL     1      -3.575   1.236   0.363  1.00  0.00    -0.294 N 
ATOM      6  H1  UNL     1      -4.526   1.599   0.427  1.00  0.00     0.171 HD
HETATM    7  C8  UNL     1      -2.602   1.090  -0.655  1.00  0.00     0.254 C 
HETATM    8  O2  UNL     1      -2.404   1.644  -1.753  1.00  0.00    -0.271 OA
ENDROOT
BRANCH   1   9
HETATM    9  C4  UNL     1      -0.492   0.093   0.192  1.00  0.00    -0.070 C 
HETATM   10  C3  UNL     1       0.715   0.150   0.234  1.00  0.00    -0.041 C 
BRANCH  10  11
HETATM   11  C2  UNL     1       2.146   0.221   0.262  1.00  0.00     0.112 C 
HETATM   12  C1  UNL     1       2.784   1.352   0.178  1.00  0.00     0.061 C 
BRANCH  11  13
HETATM   13  O3  UNL     1       2.839  -0.966   0.383  1.00  0.00    -0.348 OA
HETATM   14  C9  UNL     1       3.959  -1.290  -0.439  1.00  0.00     0.211 C 
ENDBRANCH  11  13
ENDBRANCH  10  11
ENDBRANCH   1   9
TORSDOF 3
