REMARK  2 active torsions:
REMARK  status: ('A' for Active; 'I' for Inactive)
REMARK    1  A    between atoms: C3_3  and  C4_4 
REMARK       I    between atoms: C4_4  and  N1_6 
REMARK    2  A    between atoms: N1_6  and  N2_8 
ROOT
HETATM    1  C1  UNL     1      -0.848  -2.180   0.511  1.00  0.00     0.015 C 
HETATM    2  C2  UNL     1      -0.286  -0.799   0.767  1.00  0.00     0.058 C 
HETATM    3  C3  UNL     1       0.847  -0.474  -0.180  1.00  0.00     0.289 C 
HETATM    4  N3  UNL     1       0.337   0.841  -0.307  1.00  0.00    -0.053 N 
HETATM    5  C5  UNL     1       0.689   1.812   0.679  1.00  0.00     0.274 C 
HETATM    6  C6  UNL     1       0.479   1.390  -1.639  1.00  0.00     0.274 C 
HETATM    7  C7  UNL     1      -0.991   0.306  -0.025  1.00  0.00     0.128 C 
HETATM    8  C8  UNL     1      -1.753  -0.175  -1.218  1.00  0.00     0.047 C 
HETATM    9  C9  UNL     1      -1.843   1.206   0.838  1.00  0.00     0.047 C 
ENDROOT
BRANCH   3  10
HETATM   10  C4  UNL     1       2.204  -0.640   0.367  1.00  0.00     0.267 C 
HETATM   11  O1  UNL     1       2.918   0.329   0.721  1.00  0.00    -0.269 OA
HETATM   12  N1  UNL     1       2.739  -1.939   0.506  1.00  0.00    -0.275 N 
ATOM     13  H1  UNL     1       2.184  -2.748   0.228  1.00  0.00     0.189 HD
BRANCH  12  14
HETATM   14  N2  UNL     1       4.017  -2.121   1.019  1.00  0.00    -0.343 N 
ATOM     15  H22 UNL     1       4.559  -1.301   1.292  1.00  0.00     0.176 HD
ATOM     16  H21 UNL     1       4.404  -3.060   1.119  1.00  0.00     0.176 HD
ENDBRANCH  12  14
ENDBRANCH   3  10
TORSDOF 2
