REMARK  1 active torsions:
REMARK  status: ('A' for Active; 'I' for Inactive)
REMARK    1  A    between atoms: C3_3  and  C4_4 
ROOT
HETATM    1  C1  UNL     1       2.224  -0.017   0.495  1.00  0.00     0.030 C 
HETATM    2  C2  UNL     1       1.023   0.473  -0.234  1.00  0.00     0.149 A 
HETATM    3  C3  UNL     1      -0.282   0.445   0.569  1.00  0.00     0.193 A 
HETATM    4  N1  UNL     1      -0.902  -0.491  -0.304  1.00  0.00    -0.198 NA
HETATM    5  C5  UNL     1      -1.514  -1.640   0.290  1.00  0.00     0.130 C 
HETATM    6  S1  UNL     1       0.400  -0.747  -1.366  1.00  0.00     0.218 S 
HETATM    7  O3  UNL     1       1.067  -2.064  -1.322  1.00  0.00    -0.211 OA
HETATM    8  O4  UNL     1       0.088  -0.207  -2.735  1.00  0.00    -0.211 OA
ENDROOT
BRANCH   3   9
HETATM    9  C4  UNL     1      -0.975   1.752   0.522  1.00  0.00     0.193 C 
HETATM   10  O1  UNL     1      -0.551   2.685   1.234  1.00  0.00    -0.647 OA
HETATM   11  O2  UNL     1      -2.073   1.971  -0.285  1.00  0.00    -0.647 OA
ENDBRANCH   3   9
TORSDOF 1
