REMARK  3 active torsions:
REMARK  status: ('A' for Active; 'I' for Inactive)
REMARK    1  A    between atoms: C2_2  and  N1_3 
REMARK       I    between atoms: N1_3  and  C4_5 
REMARK    2  A    between atoms: C4_5  and  C5_7 
REMARK    3  A    between atoms: C8_15  and  C9_16 
ROOT
HETATM    1  C5  UNL     1      -0.035  -0.703  -0.800  1.00  0.00     0.149 A 
HETATM    2  C6  UNL     1       0.164   0.168  -2.040  1.00  0.00     0.056 C 
HETATM    3  N2  UNL     1       0.206  -2.077  -1.075  1.00  0.00    -0.345 N 
ATOM      4  H2  UNL     1       1.079  -2.464  -1.432  1.00  0.00     0.163 HD
HETATM    5  C7  UNL     1      -0.959  -2.822  -0.774  1.00  0.00     0.173 A 
HETATM    6  S1  UNL     1      -1.159  -4.448  -0.953  1.00  0.00    -0.041 SA
HETATM    7  N3  UNL     1      -1.870  -1.871  -0.325  1.00  0.00    -0.337 N 
ATOM      8  H3  UNL     1      -2.817  -2.113  -0.033  1.00  0.00     0.168 HD
HETATM    9  C8  UNL     1      -1.424  -0.653  -0.306  1.00  0.00     0.034 A 
ENDROOT
BRANCH   1  10
HETATM   10  C4  UNL     1       0.940  -0.224   0.204  1.00  0.00     0.253 C 
HETATM   11  N1  UNL     1       2.341  -0.273   0.078  1.00  0.00    -0.354 N 
HETATM   12  C3  UNL     1       3.176  -1.070  -0.755  1.00  0.00     0.152 C 
HETATM   13  O1  UNL     1       0.486   0.277   1.304  1.00  0.00    -0.270 OA
BRANCH  11  14
HETATM   14  C2  UNL     1       3.068   0.583   1.063  1.00  0.00     0.120 C 
HETATM   15  C1  UNL     1       3.437   1.904   0.434  1.00  0.00     0.026 C 
ENDBRANCH  11  14
ENDBRANCH   1  10
BRANCH   9  16
HETATM   16  C9  UNL     1      -2.360   0.348   0.238  1.00  0.00    -0.010 C 
HETATM   17  C10 UNL     1      -2.353   1.682  -0.386  1.00  0.00     0.021 C 
HETATM   18  C11 UNL     1      -2.416   0.398   1.724  1.00  0.00     0.021 C 
HETATM   19  C12 UNL     1      -3.838  -0.149  -0.115  1.00  0.00     0.021 C 
ENDBRANCH   9  16
TORSDOF 3
