REMARK  2 active torsions:
REMARK  status: ('A' for Active; 'I' for Inactive)
REMARK    1  A    between atoms: C2_2  and  C3_3 
REMARK    2  A    between atoms: N1_7  and  C6_8 
ROOT
HETATM    1  C3  UNL     1       1.718  -0.661  -0.220  1.00  0.00     0.049 C 
HETATM    2  C4  UNL     1       0.758  -1.101  -1.305  1.00  0.00     0.094 C 
HETATM    3  C5  UNL     1      -0.594  -1.482  -0.742  1.00  0.00     0.233 C 
HETATM    4  O1  UNL     1      -1.022  -2.619  -1.067  1.00  0.00    -0.272 OA
HETATM    5  N1  UNL     1      -1.423  -0.682   0.115  1.00  0.00    -0.266 N 
HETATM    6  C9  UNL     1      -1.012   0.578   0.688  1.00  0.00     0.328 C 
HETATM    7  O2  UNL     1      -1.853   1.207   1.377  1.00  0.00    -0.247 OA
HETATM    8  N2  UNL     1       0.286   1.212   0.556  1.00  0.00    -0.328 N 
HETATM    9  C10 UNL     1       0.592   2.343   1.361  1.00  0.00     0.155 C 
HETATM   10  C11 UNL     1       1.340   0.774  -0.362  1.00  0.00     0.044 C 
HETATM   11  C12 UNL     1       2.426   1.763  -0.570  1.00  0.00     0.039 C 
HETATM   12  C13 UNL     1       0.740   0.372  -1.719  1.00  0.00     0.024 C 
HETATM   13  C14 UNL     1       1.649   0.701  -2.870  1.00  0.00     0.013 C 
ENDROOT
BRANCH   5  14
HETATM   14  C6  UNL     1      -2.757  -1.152   0.436  1.00  0.00     0.089 C 
HETATM   15  C7  UNL     1      -3.758  -0.197  -0.231  1.00  0.00     0.032 C 
HETATM   16  C8  UNL     1      -3.017  -1.221   1.904  1.00  0.00     0.032 C 
ENDBRANCH   5  14
BRANCH   1  17
HETATM   17  C2  UNL     1       1.585  -1.298   1.082  1.00  0.00    -0.029 C 
HETATM   18  C1  UNL     1       2.629  -1.815   1.693  1.00  0.00     0.007 C 
ENDBRANCH   1  17
TORSDOF 2
