REMARK  3 active torsions:
REMARK  status: ('A' for Active; 'I' for Inactive)
REMARK    1  A    between atoms: C2_2  and  N1_4 
REMARK    2  A    between atoms: C8_10  and  C10_12 
REMARK       I    between atoms: C10_12  and  N2_14 
REMARK    3  A    between atoms: N2_14  and  S1_16 
ROOT
HETATM    1  N1  UNL     1      -0.863   0.663   0.215  1.00  0.00    -0.379 N 
HETATM    2  C3  UNL     1      -1.739   0.077   1.204  1.00  0.00     0.124 C 
HETATM    3  C4  UNL     1      -2.506  -1.121   0.736  1.00  0.00     0.008 A 
HETATM    4  C5  UNL     1      -2.148  -2.403   1.448  1.00  0.00     0.011 A 
HETATM    5  C6  UNL     1      -1.664  -2.139   0.062  1.00  0.00    -0.006 A 
HETATM    6  C7  UNL     1      -0.288  -1.600  -0.094  1.00  0.00     0.045 C 
HETATM    7  C8  UNL     1      -0.316  -0.181  -0.752  1.00  0.00     0.108 C 
HETATM    8  C9  UNL     1      -1.015  -0.350  -2.048  1.00  0.00     0.049 C 
ENDROOT
BRANCH   7   9
HETATM    9  C10 UNL     1       1.160   0.079  -0.874  1.00  0.00     0.258 C 
HETATM   10  O1  UNL     1       1.710  -0.122  -1.967  1.00  0.00    -0.270 OA
HETATM   11  N2  UNL     1       1.850   0.527   0.251  1.00  0.00    -0.253 N 
ATOM     12  H2  UNL     1       1.323   0.674   1.112  1.00  0.00     0.181 HD
BRANCH  11  13
HETATM   13  S1  UNL     1       3.549   0.848   0.270  1.00  0.00     0.229 S 
HETATM   14  C11 UNL     1       4.392  -0.406   1.243  1.00  0.00     0.186 C 
HETATM   15  O2  UNL     1       4.038   0.807  -1.121  1.00  0.00    -0.206 OA
HETATM   16  O3  UNL     1       3.802   2.167   0.966  1.00  0.00    -0.206 OA
ENDBRANCH  11  13
ENDBRANCH   7   9
BRANCH   1  17
HETATM   17  C2  UNL     1      -1.420   1.902  -0.176  1.00  0.00     0.173 C 
HETATM   18  C1  UNL     1      -0.821   2.659  -1.283  1.00  0.00     0.049 C 
HETATM   19 CL1  UNL     1      -1.355   2.973   1.275  1.00  0.00    -0.103 Cl
ENDBRANCH   1  17
TORSDOF 3
