REMARK  5 active torsions:
REMARK  status: ('A' for Active; 'I' for Inactive)
REMARK    1  A    between atoms: C4_5  and  C5_6 
REMARK       I    between atoms: C5_6  and  N2_8 
REMARK    2  A    between atoms: N2_8  and  N3_10 
REMARK    3  A    between atoms: N3_10  and  C6_11 
REMARK    4  A    between atoms: C6_11  and  C7_12 
REMARK    5  A    between atoms: C13_19  and  N4_20 
ROOT
HETATM    1  C5  UNL     1       0.477   0.000   0.871  1.00  0.00     0.282 C 
HETATM    2  O1  UNL     1      -0.029   0.351   1.878  1.00  0.00    -0.265 OA
HETATM    3  N2  UNL     1      -0.074  -0.584  -0.295  1.00  0.00    -0.199 N 
ATOM      4  H2  UNL     1       0.587  -0.800  -1.041  1.00  0.00     0.205 HD
ENDROOT
BRANCH   1   5
HETATM    5  C4  UNL     1       1.989   0.121   0.680  1.00  0.00     0.070 A 
HETATM    6  C3  UNL     1       2.728  -0.921   1.190  1.00  0.00     0.037 A 
HETATM    7  C2  UNL     1       4.039  -1.038   0.846  1.00  0.00     0.091 A 
HETATM    8  N1  UNL     1       4.656  -0.160   0.022  1.00  0.00    -0.368 N 
HETATM    9  C1  UNL     1       6.024  -0.349  -0.395  1.00  0.00     0.154 C 
HETATM   10  C14 UNL     1       3.918   0.869  -0.469  1.00  0.00     0.127 A 
HETATM   11  C13 UNL     1       2.559   1.026  -0.145  1.00  0.00     0.134 A 
BRANCH  11  12
HETATM   12  N4  UNL     1       1.847   2.137  -0.640  1.00  0.00    -0.113 N 
HETATM   13  O2  UNL     1       2.477   3.169  -0.891  1.00  0.00    -0.532 OA
HETATM   14  O3  UNL     1       0.497   2.196  -0.868  1.00  0.00    -0.532 OA
ENDBRANCH  11  12
ENDBRANCH   1   5
BRANCH   3  15
HETATM   15  N3  UNL     1      -1.325  -0.881  -0.535  1.00  0.00    -0.335 NA
BRANCH  15  16
HETATM   16  C6  UNL     1      -2.426  -1.128  -0.736  1.00  0.00     0.223 C 
BRANCH  16  17
HETATM   17  C7  UNL     1      -3.674  -0.488  -0.321  1.00  0.00     0.033 A 
HETATM   18  C8  UNL     1      -3.662   0.633   0.449  1.00  0.00     0.017 A 
HETATM   19  C9  UNL     1      -4.897   1.158   0.801  1.00  0.00     0.001 A 
HETATM   20  C10 UNL     1      -6.086   0.589   0.403  1.00  0.00     0.003 A 
HETATM   21  C11 UNL     1      -6.094  -0.565  -0.382  1.00  0.00     0.043 A 
HETATM   22  C12 UNL     1      -4.877  -1.079  -0.727  1.00  0.00     0.129 A 
HETATM   23  F1  UNL     1      -4.909  -2.192  -1.513  1.00  0.00    -0.205 F 
ENDBRANCH  16  17
ENDBRANCH  15  16
ENDBRANCH   3  15
TORSDOF 5
