REMARK  6 active torsions:
REMARK  status: ('A' for Active; 'I' for Inactive)
REMARK    1  A    between atoms: C4_4  and  C5_5 
REMARK    2  A    between atoms: C4_4  and  N1_8 
REMARK    3  A    between atoms: C12_15  and  C13_16 
REMARK    4  A    between atoms: C13_16  and  N2_17 
REMARK    5  A    between atoms: C13_16  and  O3_21 
REMARK    6  A    between atoms: N2_17  and  N3_18 
ROOT
HETATM    1  C1  UNL     1      -3.414   1.484   3.615  1.00  0.00     0.017 C 
HETATM    2  C2  UNL     1      -2.830   0.952   2.703  1.00  0.00    -0.087 C 
HETATM    3  C3  UNL     1      -2.155   0.300   1.651  1.00  0.00     0.100 C 
HETATM    4  C4  UNL     1      -1.518   0.848   0.633  1.00  0.00     0.116 C 
ENDROOT
BRANCH   4   5
HETATM    5  C5  UNL     1      -1.482   2.294   0.545  1.00  0.00     0.227 C 
HETATM    6  O1  UNL     1      -2.031   2.999   1.398  1.00  0.00    -0.643 OA
HETATM    7  O2  UNL     1      -0.826   2.909  -0.506  1.00  0.00    -0.643 OA
ENDBRANCH   4   5
BRANCH   4   8
HETATM    8  N1  UNL     1      -0.880   0.030  -0.360  1.00  0.00    -0.364 N 
HETATM    9  C6  UNL     1      -1.095  -1.322  -0.793  1.00  0.00     0.087 C 
HETATM   10  C7  UNL     1      -2.476  -1.604  -1.364  1.00  0.00     0.033 C 
HETATM   11  C8  UNL     1      -0.124  -1.155  -1.956  1.00  0.00     0.036 C 
HETATM   12  C9  UNL     1       1.037  -2.056  -1.768  1.00  0.00    -0.001 A 
HETATM   13  C15 UNL     1       0.165   0.171  -1.293  1.00  0.00     0.105 C 
HETATM   14  C10 UNL     1       2.366  -1.831  -2.337  1.00  0.00     0.011 A 
HETATM   15  C11 UNL     1       2.029  -1.336  -0.982  1.00  0.00     0.005 A 
HETATM   16  C12 UNL     1       1.578   0.103  -0.888  1.00  0.00     0.105 C 
BRANCH  16  17
HETATM   17  C13 UNL     1       1.940   0.708   0.391  1.00  0.00     0.222 C 
BRANCH  17  18
HETATM   18  N2  UNL     1       2.680   1.737   0.494  1.00  0.00    -0.311 NA
BRANCH  18  19
HETATM   19  N3  UNL     1       3.687   2.474   0.494  1.00  0.00    -0.278 N 
ATOM     20  H32 UNL     1       4.351   1.744   0.237  1.00  0.00     0.191 HD
ATOM     21  H31 UNL     1       4.281   3.299   0.577  1.00  0.00     0.191 HD
ENDBRANCH  18  19
ENDBRANCH  17  18
BRANCH  17  22
HETATM   22  O3  UNL     1       1.486   0.185   1.593  1.00  0.00    -0.332 OA
HETATM   23  C14 UNL     1       1.905   0.719   2.854  1.00  0.00     0.212 C 
ENDBRANCH  17  22
ENDBRANCH  16  17
ENDBRANCH   4   8
TORSDOF 6
