REMARK  4 active torsions:
REMARK  status: ('A' for Active; 'I' for Inactive)
REMARK    1  A    between atoms: C4_8  and  C5_9 
REMARK    2  A    between atoms: C5_9  and  C6_10 
REMARK    3  A    between atoms: C6_10  and  C7_11 
REMARK    4  A    between atoms: C7_11  and  C8_12 
ROOT
HETATM    1  F1  UNL     1       3.730  -1.865   0.796  1.00  0.00    -0.170 F 
HETATM    2  C1  UNL     1       4.020  -1.183  -0.393  1.00  0.00     0.391 C 
HETATM    3  F2  UNL     1       3.901  -2.055  -1.459  1.00  0.00    -0.170 F 
HETATM    4  O1  UNL     1       5.321  -0.722  -0.409  1.00  0.00    -0.311 OA
HETATM    5  C2  UNL     1       5.505   0.205   0.612  1.00  0.00     0.254 C 
HETATM    6  S1  UNL     1       3.999   1.245   0.340  1.00  0.00    -0.100 SA
HETATM    7  C3  UNL     1       3.098  -0.042  -0.499  1.00  0.00     0.077 C 
HETATM    8  C4  UNL     1       1.932   0.015  -1.056  1.00  0.00    -0.004 C 
ENDROOT
BRANCH   8   9
HETATM    9  C5  UNL     1       1.080   1.231  -1.103  1.00  0.00     0.028 C 
BRANCH   9  10
HETATM   10  C6  UNL     1      -0.212   0.976  -0.379  1.00  0.00     0.004 C 
BRANCH  10  11
HETATM   11  C7  UNL     1      -0.937  -0.149  -1.031  1.00  0.00     0.005 C 
BRANCH  11  12
HETATM   12  C8  UNL     1      -2.263  -0.454  -0.363  1.00  0.00    -0.014 C 
HETATM   13  C9  UNL     1      -2.143  -0.839   1.074  1.00  0.00     0.004 C 
HETATM   14  C10 UNL     1      -3.583  -0.780   1.542  1.00  0.00     0.000 C 
HETATM   15  C11 UNL     1      -4.171   0.383   0.794  1.00  0.00     0.000 C 
HETATM   16  C12 UNL     1      -3.216   0.691  -0.356  1.00  0.00     0.004 C 
ENDBRANCH  11  12
ENDBRANCH  10  11
ENDBRANCH   9  10
ENDBRANCH   8   9
TORSDOF 4
