REMARK  7 active torsions:
REMARK  status: ('A' for Active; 'I' for Inactive)
REMARK    1  A    between atoms: C4_4  and  C5_5 
REMARK    2  A    between atoms: C5_5  and  C6_6 
REMARK    3  A    between atoms: C6_6  and  C7_7 
REMARK    4  A    between atoms: C7_7  and  C8_8 
REMARK    5  A    between atoms: C8_8  and  C9_9 
REMARK    6  A    between atoms: C9_9  and  O1_10 
REMARK    7  A    between atoms: C9_9  and  S1_12 
ROOT
HETATM    1  C5  UNL     1       0.587   0.313   0.702  1.00  0.00     0.005 C 
ENDROOT
BRANCH   1   2
HETATM    2  C4  UNL     1      -0.886   0.671   0.698  1.00  0.00    -0.014 C 
HETATM    3  C3  UNL     1      -1.445   0.776  -0.707  1.00  0.00     0.009 C 
HETATM    4  C2  UNL     1      -2.911   0.411  -0.435  1.00  0.00    -0.015 C 
HETATM    5  C1  UNL     1      -3.664   0.156  -1.711  1.00  0.00     0.010 C 
HETATM    6  C11 UNL     1      -2.724  -0.852   0.378  1.00  0.00    -0.015 C 
HETATM    7  C10 UNL     1      -1.691  -0.401   1.391  1.00  0.00     0.009 C 
HETATM    8  C12 UNL     1      -4.006  -1.290   1.046  1.00  0.00     0.010 C 
ENDBRANCH   1   2
BRANCH   1   9
HETATM    9  C6  UNL     1       1.403   1.345  -0.019  1.00  0.00     0.000 C 
BRANCH   9  10
HETATM   10  C7  UNL     1       2.869   1.059  -0.054  1.00  0.00     0.004 C 
BRANCH  10  11
HETATM   11  C8  UNL     1       3.170  -0.232  -0.738  1.00  0.00     0.045 C 
BRANCH  11  12
HETATM   12  C9  UNL     1       4.661  -0.515  -0.773  1.00  0.00     0.212 C 
BRANCH  12  13
HETATM   13  O1  UNL     1       5.221  -0.598   0.489  1.00  0.00    -0.383 OA
ATOM     14  H1  UNL     1       6.154  -0.775   0.467  1.00  0.00     0.211 HD
ENDBRANCH  12  13
BRANCH  12  15
HETATM   15  S1  UNL     1       4.907  -2.109  -1.602  1.00  0.00     0.073 SA
HETATM   16  F1  UNL     1       4.441  -1.976  -3.245  1.00  0.00    -0.162 F 
ENDBRANCH  12  15
ENDBRANCH  11  12
ENDBRANCH  10  11
ENDBRANCH   9  10
ENDBRANCH   1   9
TORSDOF 7
