REMARK  5 active torsions:
REMARK  status: ('A' for Active; 'I' for Inactive)
REMARK    1  A    between atoms: C3_3  and  C4_4 
REMARK    2  A    between atoms: C4_4  and  C5_5 
REMARK    3  A    between atoms: C5_5  and  C6_6 
REMARK    4  A    between atoms: C6_6  and  C7_7 
REMARK    5  A    between atoms: C10_13  and  N2_14 
ROOT
HETATM    1  C1  UNL     1       6.142   0.576  -0.046  1.00  0.00     0.012 C 
HETATM    2  C2  UNL     1       4.948   0.668   0.098  1.00  0.00    -0.117 C 
HETATM    3  C3  UNL     1       3.482   0.804   0.280  1.00  0.00     0.093 C 
ENDROOT
BRANCH   3   4
HETATM    4  C4  UNL     1       2.849   0.111  -0.878  1.00  0.00     0.012 C 
BRANCH   4   5
HETATM    5  C5  UNL     1       1.326   0.154  -0.854  1.00  0.00     0.006 C 
BRANCH   5   6
HETATM    6  C6  UNL     1       0.872  -0.511   0.394  1.00  0.00     0.040 C 
BRANCH   6   7
HETATM    7  C7  UNL     1      -0.595  -0.559   0.565  1.00  0.00    -0.038 A 
HETATM    8  C8  UNL     1      -1.721  -0.229   0.005  1.00  0.00     0.066 A 
HETATM    9  C9  UNL     1      -2.376   0.348  -1.048  1.00  0.00     0.272 A 
HETATM   10  C11 UNL     1      -2.474  -0.749   1.022  1.00  0.00     0.066 A 
HETATM   11  O1  UNL     1      -1.713   0.828  -1.986  1.00  0.00    -0.267 OA
HETATM   12  N1  UNL     1      -3.739   0.394  -1.062  1.00  0.00    -0.156 N 
HETATM   13  C10 UNL     1      -4.485  -0.112  -0.069  1.00  0.00     0.679 A 
ATOM     14  H1  UNL     1      -4.208   0.829  -1.856  1.00  0.00     0.187 HD
HETATM   15  N3  UNL     1      -3.837  -0.678   0.961  1.00  0.00    -0.191 N 
ATOM     16  H3  UNL     1      -4.383  -1.070   1.728  1.00  0.00     0.184 HD
HETATM   17  C12 UNL     1      -1.393  -1.109   1.641  1.00  0.00     0.039 A 
BRANCH  13  18
HETATM   18  N2  UNL     1      -5.780  -0.075  -0.071  1.00  0.00    -0.234 N 
ATOM     19  H22 UNL     1      -6.272   0.355  -0.854  1.00  0.00     0.174 HD
ATOM     20  H21 UNL     1      -6.347  -0.460   0.684  1.00  0.00     0.174 HD
ENDBRANCH  13  18
ENDBRANCH   6   7
ENDBRANCH   5   6
ENDBRANCH   4   5
ENDBRANCH   3   4
TORSDOF 5
