REMARK  6 active torsions:
REMARK  status: ('A' for Active; 'I' for Inactive)
REMARK    1  A    between atoms: O1_1  and  C1_3 
REMARK    2  A    between atoms: N2_8  and  C4_9 
REMARK    3  A    between atoms: C4_9  and  C5_10 
REMARK    4  A    between atoms: C7_14  and  C8_15 
REMARK    5  A    between atoms: C8_15  and  C9_16 
REMARK    6  A    between atoms: C9_16  and  O2_17 
ROOT
HETATM    1  C5  UNL     1      -0.389  -0.689  -0.772  1.00  0.00    -0.023 A 
HETATM    2  C6  UNL     1       0.341  -1.577  -0.012  1.00  0.00     0.097 A 
HETATM    3  N3  UNL     1       1.578  -1.088   0.122  1.00  0.00    -0.368 N 
ATOM      4  H3  UNL     1       2.330  -1.544   0.639  1.00  0.00     0.165 HD
HETATM    5  C7  UNL     1       1.694   0.095  -0.522  1.00  0.00     0.011 A 
HETATM    6  C10 UNL     1       0.462   0.374  -1.099  1.00  0.00     0.035 A 
ENDROOT
BRANCH   1   7
HETATM    7  C4  UNL     1      -1.815  -0.865  -1.151  1.00  0.00     0.172 C 
BRANCH   7   8
HETATM    8  N2  UNL     1      -2.670  -0.262  -0.130  1.00  0.00    -0.318 N 
HETATM    9  C1  UNL     1      -3.157  -0.880   0.957  1.00  0.00     0.223 A 
HETATM   10  N1  UNL     1      -3.908  -0.040   1.691  1.00  0.00    -0.331 N 
HETATM   11  C2  UNL     1      -3.883   1.125   1.039  1.00  0.00     0.109 A 
ATOM     12  H1  UNL     1      -4.395  -0.249   2.563  1.00  0.00     0.168 HD
HETATM   13  C3  UNL     1      -3.120   1.003  -0.091  1.00  0.00     0.112 A 
BRANCH   9  14
HETATM   14  O1  UNL     1      -2.913  -2.230   1.286  1.00  0.00    -0.332 OA
ATOM     15  H1  UNL     1      -2.382  -2.823   0.767  1.00  0.00     0.221 HD
ENDBRANCH   9  14
ENDBRANCH   7   8
ENDBRANCH   1   7
BRANCH   5  16
HETATM   16  C8  UNL     1       2.886   0.977  -0.630  1.00  0.00     0.083 C 
BRANCH  16  17
HETATM   17  C9  UNL     1       4.015   0.297   0.144  1.00  0.00     0.170 C 
BRANCH  17  18
HETATM   18  O2  UNL     1       5.171   1.075   0.084  1.00  0.00    -0.400 OA
ATOM     19  H2  UNL     1       5.873   0.652   0.565  1.00  0.00     0.209 HD
ENDBRANCH  17  18
ENDBRANCH  16  17
ENDBRANCH   5  16
TORSDOF 6
