REMARK  8 active torsions:
REMARK  status: ('A' for Active; 'I' for Inactive)
REMARK    1  A    between atoms: C2_2  and  C3_3 
REMARK    2  A    between atoms: C3_3  and  C4_4 
REMARK    3  A    between atoms: C4_4  and  C5_5 
REMARK    4  A    between atoms: C5_5  and  C6_6 
REMARK    5  A    between atoms: C6_6  and  C7_7 
REMARK    6  A    between atoms: C7_7  and  N1_8 
REMARK    7  A    between atoms: N1_8  and  C8_10 
REMARK    8  A    between atoms: C10_12  and  C11_13 
ROOT
HETATM    1  C7  UNL     1      -0.425  -0.417  -0.044  1.00  0.00     0.114 C 
ENDROOT
BRANCH   1   2
HETATM    2  C6  UNL     1       0.930  -0.482   0.647  1.00  0.00     0.019 C 
BRANCH   2   3
HETATM    3  C5  UNL     1       1.908  -1.342  -0.074  1.00  0.00     0.002 C 
BRANCH   3   4
HETATM    4  C4  UNL     1       3.209  -1.344   0.688  1.00  0.00     0.004 C 
BRANCH   4   5
HETATM    5  C3  UNL     1       3.854  -0.010   0.829  1.00  0.00     0.026 C 
BRANCH   5   6
HETATM    6  C2  UNL     1       4.191   0.585  -0.483  1.00  0.00    -0.037 C 
HETATM    7  C1  UNL     1       3.686   1.750  -0.825  1.00  0.00     0.007 C 
ENDBRANCH   5   6
ENDBRANCH   4   5
ENDBRANCH   3   4
ENDBRANCH   2   3
ENDBRANCH   1   2
BRANCH   1   8
HETATM    8  N1  UNL     1      -1.247   0.422   0.739  1.00  0.00    -0.416 N 
ATOM      9  H1  UNL     1      -0.884   0.853   1.589  1.00  0.00     0.153 HD
BRANCH   8  10
HETATM   10  C8  UNL     1      -2.569   0.656   0.333  1.00  0.00     0.084 A 
HETATM   11  C9  UNL     1      -2.769   1.349  -0.986  1.00  0.00     0.036 A 
HETATM   12  C10 UNL     1      -3.244  -0.069  -0.757  1.00  0.00     0.032 A 
BRANCH  12  13
HETATM   13  C11 UNL     1      -4.730  -0.208  -0.692  1.00  0.00    -0.030 C 
HETATM   14  C12 UNL     1      -5.357  -0.676   0.367  1.00  0.00     0.007 C 
ENDBRANCH  12  13
ENDBRANCH   8  10
ENDBRANCH   1   8
TORSDOF 8
