REMARK  7 active torsions:
REMARK  status: ('A' for Active; 'I' for Inactive)
REMARK    1  A    between atoms: N1_2  and  C2_5 
REMARK    2  A    between atoms: C2_5  and  C3_6 
REMARK    3  A    between atoms: C4_7  and  C5_8 
REMARK    4  A    between atoms: C5_8  and  C6_9 
REMARK    5  A    between atoms: C6_9  and  C7_10 
REMARK    6  A    between atoms: C7_10  and  C8_11 
REMARK    7  A    between atoms: C8_11  and  C9_12 
ROOT
HETATM    1  C3  UNL     1      -2.942  -0.967  -0.351  1.00  0.00    -0.004 C 
HETATM    2  C4  UNL     1      -1.984  -0.197  -0.840  1.00  0.00    -0.029 C 
ENDROOT
BRANCH   2   3
HETATM    3  C5  UNL     1      -0.550  -0.463  -0.534  1.00  0.00     0.027 C 
BRANCH   3   4
HETATM    4  C6  UNL     1       0.086   0.705   0.159  1.00  0.00     0.004 C 
BRANCH   4   5
HETATM    5  C7  UNL     1       1.540   0.492   0.505  1.00  0.00     0.001 C 
BRANCH   5   6
HETATM    6  C8  UNL     1       2.309   0.233  -0.740  1.00  0.00     0.004 C 
BRANCH   6   7
HETATM    7  C9  UNL     1       3.782   0.014  -0.539  1.00  0.00    -0.023 C 
HETATM    8  C10 UNL     1       4.494   1.175   0.087  1.00  0.00     0.009 C 
HETATM    9  C11 UNL     1       4.044  -1.253   0.287  1.00  0.00     0.009 C 
ENDBRANCH   6   7
ENDBRANCH   5   6
ENDBRANCH   4   5
ENDBRANCH   3   4
ENDBRANCH   2   3
BRANCH   1  10
HETATM   10  C2  UNL     1      -4.365  -0.707  -0.653  1.00  0.00     0.259 C 
BRANCH  10  11
HETATM   11  N1  UNL     1      -5.154  -0.461   0.518  1.00  0.00    -0.076 N 
HETATM   12  C1  UNL     1      -4.838   0.776   1.189  1.00  0.00     0.267 C 
ATOM     13  H12 UNL     1      -5.089  -1.246   1.165  1.00  0.00     0.276 HD
ATOM     14  H11 UNL     1      -6.148  -0.504   0.295  1.00  0.00     0.276 HD
ENDBRANCH  10  11
ENDBRANCH   1  10
TORSDOF 7
