REMARK  7 active torsions:
REMARK  status: ('A' for Active; 'I' for Inactive)
REMARK    1  A    between atoms: C2_2  and  C3_3 
REMARK    2  A    between atoms: C3_3  and  C4_4 
REMARK    3  A    between atoms: C5_5  and  C6_6 
REMARK    4  A    between atoms: C6_6  and  N1_7 
REMARK    5  A    between atoms: N1_7  and  C7_10 
REMARK    6  A    between atoms: C7_10  and  C8_11 
REMARK    7  A    between atoms: C8_11  and  C9_12 
ROOT
HETATM    1  N1  UNL     1       0.512  -0.832   0.132  1.00  0.00    -0.072 N 
ATOM      2  H11 UNL     1       0.046  -1.168  -0.711  1.00  0.00     0.277 HD
ATOM      3  H12 UNL     1       0.749  -1.747   0.514  1.00  0.00     0.277 HD
ENDROOT
BRANCH   1   4
HETATM    4  C6  UNL     1      -0.360  -0.036   1.009  1.00  0.00     0.259 C 
BRANCH   4   5
HETATM    5  C5  UNL     1      -0.979   1.105   0.334  1.00  0.00    -0.004 C 
HETATM    6  C4  UNL     1      -2.260   1.266   0.223  1.00  0.00    -0.029 C 
BRANCH   6   7
HETATM    7  C3  UNL     1      -3.262   0.343   0.753  1.00  0.00     0.026 C 
BRANCH   7   8
HETATM    8  C2  UNL     1      -4.178  -0.246  -0.326  1.00  0.00    -0.001 C 
HETATM    9  C1  UNL     1      -5.133  -1.178   0.432  1.00  0.00     0.005 C 
ENDBRANCH   7   8
ENDBRANCH   6   7
ENDBRANCH   4   5
ENDBRANCH   1   4
BRANCH   1  10
HETATM   10  C7  UNL     1       1.658  -0.005  -0.135  1.00  0.00     0.233 C 
BRANCH  10  11
HETATM   11  C8  UNL     1       2.692  -0.717  -1.024  1.00  0.00     0.032 C 
BRANCH  11  12
HETATM   12  C9  UNL     1       3.814   0.313  -1.158  1.00  0.00    -0.013 A 
HETATM   13  C10 UNL     1       4.383   0.660   0.220  1.00  0.00     0.005 A 
HETATM   14  C11 UNL     1       5.209  -0.007  -0.873  1.00  0.00     0.005 A 
ENDBRANCH  11  12
ENDBRANCH  10  11
ENDBRANCH   1  10
TORSDOF 7
