REMARK  5 active torsions:
REMARK  status: ('A' for Active; 'I' for Inactive)
REMARK    1  A    between atoms: S1_2  and  C2_3 
REMARK    2  A    between atoms: C3_6  and  N2_7 
REMARK    3  A    between atoms: C5_13  and  C6_14 
REMARK    4  A    between atoms: C8_18  and  N5_19 
REMARK    5  A    between atoms: C11_24  and  C12_25 
ROOT
HETATM    1  C12 UNL     1      -4.297  -0.900   1.523  1.00  0.00     0.157 C 
HETATM    2  C13 UNL     1      -5.761  -1.257   1.353  1.00  0.00     0.034 C 
HETATM    3  C14 UNL     1      -3.926  -1.122   2.934  1.00  0.00     0.071 C 
HETATM    4  N7  UNL     1      -3.632  -1.307   4.037  1.00  0.00    -0.196 NA
ENDROOT
BRANCH   1   5
HETATM    5  C11 UNL     1      -3.437  -1.768   0.693  1.00  0.00     0.106 A 
HETATM    6  N5  UNL     1      -2.534  -1.363  -0.215  1.00  0.00    -0.293 N 
HETATM    7  C9  UNL     1      -1.984  -2.495  -0.730  1.00  0.00     0.117 A 
HETATM    8  C10 UNL     1      -2.566  -3.601  -0.122  1.00  0.00     0.107 A 
HETATM    9  N6  UNL     1      -3.449  -3.110   0.742  1.00  0.00    -0.353 N 
ATOM     10  H6  UNL     1      -4.046  -3.669   1.351  1.00  0.00     0.166 HD
BRANCH   6  11
HETATM   11  C8  UNL     1      -2.209  -0.028  -0.575  1.00  0.00     0.145 A 
HETATM   12  C7  UNL     1      -0.866   0.357  -0.488  1.00  0.00     0.123 A 
HETATM   13  N4  UNL     1       0.273  -0.255  -0.126  1.00  0.00    -0.334 N 
HETATM   14  C21 UNL     1      -0.567   1.639  -0.836  1.00  0.00     0.139 A 
HETATM   15  C6  UNL     1       1.306   0.628  -0.239  1.00  0.00     0.140 A 
ATOM     16  H4  UNL     1       0.353  -1.224   0.183  1.00  0.00     0.168 HD
HETATM   17  N11 UNL     1       0.764   1.760  -0.670  1.00  0.00    -0.325 N 
ATOM     18  H11 UNL     1       1.290   2.615  -0.853  1.00  0.00     0.169 HD
HETATM   19  N10 UNL     1      -1.516   2.476  -1.238  1.00  0.00    -0.325 N 
HETATM   20  C15 UNL     1      -2.816   2.117  -1.326  1.00  0.00     0.135 A 
ATOM     21  H10 UNL     1      -1.253   3.429  -1.491  1.00  0.00     0.169 HD
HETATM   22  N8  UNL     1      -3.129   0.860  -0.988  1.00  0.00    -0.324 N 
HETATM   23  C16 UNL     1      -3.757   3.118  -1.776  1.00  0.00     0.076 A 
ATOM     24  H8  UNL     1      -4.104   0.565  -1.046  1.00  0.00     0.169 HD
HETATM   25  C17 UNL     1      -5.094   2.826  -1.889  1.00  0.00     0.033 A 
HETATM   26  N9  UNL     1      -3.387   4.365  -2.102  1.00  0.00    -0.363 N 
HETATM   27  C18 UNL     1      -6.021   3.768  -2.319  1.00  0.00     0.004 A 
HETATM   28  C19 UNL     1      -5.586   5.036  -2.641  1.00  0.00     0.017 A 
HETATM   29  C20 UNL     1      -4.243   5.306  -2.521  1.00  0.00     0.088 A 
ATOM     30  H9  UNL     1      -2.400   4.610  -2.027  1.00  0.00     0.165 HD
BRANCH  15  31
HETATM   31  C5  UNL     1       2.684   0.278   0.078  1.00  0.00     0.146 A 
HETATM   32  N3  UNL     1       2.956  -0.981   0.507  1.00  0.00    -0.343 N 
HETATM   33  C4  UNL     1       4.230  -1.284   0.794  1.00  0.00     0.121 A 
ATOM     34  H3  UNL     1       2.215  -1.674   0.608  1.00  0.00     0.166 HD
HETATM   35  C3  UNL     1       4.494  -2.588   1.236  1.00  0.00     0.132 A 
HETATM   36  C23 UNL     1       5.245  -0.366   0.666  1.00  0.00     0.141 A 
HETATM   37  N1  UNL     1       5.770  -2.881   1.520  1.00  0.00    -0.321 N 
HETATM   38  C2  UNL     1       6.749  -1.972   1.389  1.00  0.00     0.147 A 
ATOM     39  H1  UNL     1       6.004  -3.819   1.844  1.00  0.00     0.169 HD
HETATM   40  N13 UNL     1       6.515  -0.725   0.969  1.00  0.00    -0.321 N 
ATOM     41  H13 UNL     1       7.279  -0.056   0.878  1.00  0.00     0.169 HD
HETATM   42  N12 UNL     1       4.968   0.874   0.242  1.00  0.00    -0.305 N 
HETATM   43  C22 UNL     1       3.692   1.197  -0.052  1.00  0.00     0.277 A 
ATOM     44  H12 UNL     1       5.712   1.565   0.143  1.00  0.00     0.170 HD
HETATM   45  O1  UNL     1       3.504   2.386  -0.446  1.00  0.00    -0.265 OA
BRANCH  35  46
HETATM   46  N2  UNL     1       3.540  -3.449   1.356  1.00  0.00    -0.383 N 
ATOM     47  H22 UNL     1       3.732  -4.398   1.678  1.00  0.00     0.157 HD
ATOM     48  H21 UNL     1       2.568  -3.226   1.140  1.00  0.00     0.157 HD
ENDBRANCH  35  46
BRANCH  38  49
HETATM   49  S1  UNL     1       8.457  -2.393   1.779  1.00  0.00    -0.098 SA
HETATM   50  C1  UNL     1       9.254  -3.032   0.272  1.00  0.00     0.099 C 
ENDBRANCH  38  49
ENDBRANCH  15  31
ENDBRANCH   6  11
ENDBRANCH   1   5
TORSDOF 5
