REMARK  4 active torsions:
REMARK  status: ('A' for Active; 'I' for Inactive)
REMARK    1  A    between atoms: O1_2  and  C2_3 
REMARK    2  A    between atoms: C3_5  and  C4_6 
REMARK    3  A    between atoms: C4_6  and  O3_7 
REMARK    4  A    between atoms: C7_12  and  O5_13 
ROOT
HETATM    1  C2  UNL     1      -0.124   0.867   0.179  1.00  0.00     0.298 C 
HETATM    2  O2  UNL     1       0.866   0.315   0.999  1.00  0.00    -0.348 OA
HETATM    3  C3  UNL     1       1.653  -0.562   0.268  1.00  0.00     0.179 C 
HETATM    4  C5  UNL     1       0.875  -1.523  -0.569  1.00  0.00     0.178 C 
HETATM    5  C6  UNL     1       0.243  -2.542   0.353  1.00  0.00     0.205 C 
HETATM    6  O4  UNL     1      -0.734  -1.996   1.162  1.00  0.00    -0.356 OA
HETATM    7  C7  UNL     1      -1.588  -1.136   0.545  1.00  0.00     0.295 C 
HETATM    8  C8  UNL     1      -0.951  -0.232  -0.476  1.00  0.00     0.156 C 
HETATM    9  C9  UNL     1      -2.056   0.450  -1.253  1.00  0.00     0.056 C 
HETATM   10  O6  UNL     1      -0.104  -0.912  -1.345  1.00  0.00    -0.360 OA
ENDROOT
BRANCH   3  11
HETATM   11  C4  UNL     1       2.710   0.181  -0.556  1.00  0.00     0.198 C 
BRANCH  11  12
HETATM   12  O3  UNL     1       3.545   0.911   0.280  1.00  0.00    -0.398 OA
ATOM     13  H3  UNL     1       4.200   1.372  -0.231  1.00  0.00     0.209 HD
ENDBRANCH  11  12
ENDBRANCH   3  11
BRANCH   1  14
HETATM   14  O1  UNL     1      -0.932   1.677   0.957  1.00  0.00    -0.363 OA
HETATM   15  C1  UNL     1      -0.898   2.966   0.451  1.00  0.00     0.204 C 
ENDBRANCH   1  14
BRANCH   7  16
HETATM   16  O5  UNL     1      -2.170  -0.321   1.516  1.00  0.00    -0.368 OA
ATOM     17  H5  UNL     1      -2.767   0.280   1.085  1.00  0.00     0.212 HD
ENDBRANCH   7  16
TORSDOF 4
