REMARK  4 active torsions:
REMARK  status: ('A' for Active; 'I' for Inactive)
REMARK    1  A    between atoms: S1_2  and  C2_3 
REMARK    2  A    between atoms: C3_5  and  C4_6 
REMARK    3  A    between atoms: C7_11  and  O3_12 
REMARK    4  A    between atoms: C8_14  and  O4_15 
ROOT
HETATM    1  C4  UNL     1      -2.090   0.441  -0.430  1.00  0.00     0.198 A 
HETATM    2  O2  UNL     1      -2.382   0.165   0.914  1.00  0.00    -0.357 OA
HETATM    3  C5  UNL     1      -2.177   1.573   0.529  1.00  0.00     0.260 A 
HETATM    4  C6  UNL     1      -3.394   2.336   0.650  1.00  0.00     0.094 C 
HETATM    5  N1  UNL     1      -4.358   2.956   0.748  1.00  0.00    -0.194 NA
ENDROOT
BRANCH   1   6
HETATM    6  C3  UNL     1      -0.711   0.112  -0.938  1.00  0.00     0.187 C 
HETATM    7  O1  UNL     1       0.213   0.833  -0.194  1.00  0.00    -0.362 OA
HETATM    8  C2  UNL     1       0.802  -0.044   0.710  1.00  0.00     0.214 C 
HETATM    9  C8  UNL     1       0.990  -1.290  -0.102  1.00  0.00     0.188 C 
HETATM   10  C7  UNL     1      -0.357  -1.351  -0.826  1.00  0.00     0.181 C 
BRANCH   8  11
HETATM   11  S1  UNL     1       2.305   0.680   1.346  1.00  0.00    -0.139 SA
HETATM   12  C1  UNL     1       3.549   0.851   0.053  1.00  0.00     0.092 C 
ENDBRANCH   8  11
BRANCH   9  13
HETATM   13  O4  UNL     1       1.108  -2.437   0.644  1.00  0.00    -0.389 OA
ATOM     14  H4  UNL     1       1.227  -3.227   0.129  1.00  0.00     0.210 HD
ENDBRANCH   9  13
BRANCH  10  15
HETATM   15  O3  UNL     1      -1.271  -2.087  -0.106  1.00  0.00    -0.390 OA
ATOM     16  H3  UNL     1      -1.048  -3.008  -0.036  1.00  0.00     0.210 HD
ENDBRANCH  10  15
ENDBRANCH   1   6
TORSDOF 4
