REMARK  4 active torsions:
REMARK  status: ('A' for Active; 'I' for Inactive)
REMARK    1  A    between atoms: C3_4  and  O1_5 
REMARK    2  A    between atoms: N2_8  and  C5_10 
REMARK    3  A    between atoms: C5_10  and  C6_11 
REMARK    4  A    between atoms: C6_11  and  O2_12 
ROOT
HETATM    1  N1  UNL     1      -4.253  -1.558  -0.341  1.00  0.00    -0.197 NA
HETATM    2  C1  UNL     1      -3.342  -0.842  -0.460  1.00  0.00     0.069 C 
HETATM    3  C2  UNL     1      -2.173   0.045  -0.609  1.00  0.00     0.164 C 
HETATM    4  C3  UNL     1      -1.011  -0.698  -1.201  1.00  0.00     0.183 C 
HETATM    5  C4  UNL     1       0.170  -0.032  -0.607  1.00  0.00     0.019 C 
HETATM    6  N2  UNL     1       1.245   0.198  -1.185  1.00  0.00    -0.372 N 
ATOM      7  H2  UNL     1       1.296  -0.109  -2.156  1.00  0.00     0.164 HD
HETATM    8  C7  UNL     1      -0.208   0.286   0.786  1.00  0.00     0.097 C 
HETATM    9  C8  UNL     1      -1.713   0.408   0.771  1.00  0.00     0.161 C 
HETATM   10  C9  UNL     1      -2.289  -0.437   1.802  1.00  0.00     0.086 C 
HETATM   11  N3  UNL     1      -2.751  -1.099   2.631  1.00  0.00    -0.195 NA
HETATM   12  C10 UNL     1      -2.075   1.824   0.986  1.00  0.00     0.086 C 
HETATM   13  N4  UNL     1      -2.380   2.933   1.157  1.00  0.00    -0.195 NA
ENDROOT
BRANCH   4  14
HETATM   14  O1  UNL     1      -0.986  -2.033  -0.774  1.00  0.00    -0.388 OA
ATOM     15  H1  UNL     1      -0.251  -2.503  -1.149  1.00  0.00     0.210 HD
ENDBRANCH   4  14
BRANCH   6  16
HETATM   16  C5  UNL     1       2.403   0.824  -0.684  1.00  0.00     0.086 C 
BRANCH  16  17
HETATM   17  C6  UNL     1       3.363  -0.189  -0.099  1.00  0.00     0.208 C 
BRANCH  17  18
HETATM   18  O2  UNL     1       4.497   0.447   0.389  1.00  0.00    -0.396 OA
ATOM     19  H2  UNL     1       5.100  -0.189   0.756  1.00  0.00     0.209 HD
ENDBRANCH  17  18
ENDBRANCH  16  17
ENDBRANCH   6  16
TORSDOF 4
