REMARK  4 active torsions:
REMARK  status: ('A' for Active; 'I' for Inactive)
REMARK    1  A    between atoms: C2_3  and  O1_6 
REMARK    2  A    between atoms: O1_6  and  C4_7 
REMARK    3  A    between atoms: C6_9  and  O2_10 
REMARK    4  A    between atoms: N3_16  and  N4_17 
ROOT
HETATM    1  N1  UNL     1       4.437  -0.202  -1.928  1.00  0.00    -0.193 NA
HETATM    2  C1  UNL     1       3.720   0.112  -1.058  1.00  0.00     0.106 C 
HETATM    3  C2  UNL     1       2.829   0.527   0.021  1.00  0.00     0.337 C 
HETATM    4  C3  UNL     1       3.367   1.774   0.570  1.00  0.00     0.106 C 
HETATM    5  N2  UNL     1       3.791   2.756   1.002  1.00  0.00    -0.193 NA
ENDROOT
BRANCH   3   6
HETATM    6  O1  UNL     1       1.519   0.676  -0.426  1.00  0.00    -0.332 OA
BRANCH   6   7
HETATM    7  C4  UNL     1       0.636  -0.118   0.295  1.00  0.00     0.252 C 
HETATM    8  C5  UNL     1      -0.439   0.681   0.948  1.00  0.00     0.072 A 
HETATM    9  C6  UNL     1      -1.014   1.912   0.469  1.00  0.00     0.131 A 
HETATM   10  C7  UNL     1      -1.607   0.729  -0.084  1.00  0.00     0.026 A 
HETATM   11  C8  UNL     1      -2.640  -0.154   0.498  1.00  0.00     0.013 C 
HETATM   12  C9  UNL     1      -1.944  -1.453   0.844  1.00  0.00     0.047 C 
HETATM   13  C10 UNL     1      -0.951  -1.907  -0.150  1.00  0.00     0.085 C 
HETATM   14  N3  UNL     1       0.057  -1.065  -0.579  1.00  0.00    -0.284 N 
BRANCH   9  15
HETATM   15  O2  UNL     1      -0.229   2.703  -0.374  1.00  0.00    -0.395 OA
ATOM     16  H2  UNL     1      -0.608   3.515  -0.690  1.00  0.00     0.210 HD
ENDBRANCH   9  15
BRANCH  14  17
HETATM   17  N4  UNL     1       0.574  -1.204  -1.812  1.00  0.00    -0.341 N 
ATOM     18  H42 UNL     1       1.318  -0.582  -2.129  1.00  0.00     0.177 HD
ATOM     19  H41 UNL     1       0.156  -1.888  -2.443  1.00  0.00     0.177 HD
ENDBRANCH  14  17
ENDBRANCH   6   7
ENDBRANCH   3   6
TORSDOF 4
