REMARK  1 active torsions:
REMARK  status: ('A' for Active; 'I' for Inactive)
REMARK    1  A    between atoms: C2_2  and  N1_4 
ROOT
HETATM    1  N1  UNL     1       0.412  -0.204  -0.123  1.00  0.00    -0.362 N 
HETATM    2  C4  UNL     1       0.986   1.003   0.142  1.00  0.00     0.091 A 
HETATM    3  C5  UNL     1       2.322   0.753   0.333  1.00  0.00     0.019 A 
HETATM    4  C6  UNL     1       2.571  -0.587   0.188  1.00  0.00     0.019 A 
HETATM    5  C7  UNL     1       1.345  -1.170  -0.100  1.00  0.00     0.091 A 
ENDROOT
BRANCH   1   6
HETATM    6  C2  UNL     1      -1.008  -0.381  -0.387  1.00  0.00     0.080 C 
HETATM    7  C1  UNL     1      -1.508   0.879  -1.049  1.00  0.00     0.032 C 
HETATM    8  C3  UNL     1      -1.671  -0.619   0.956  1.00  0.00     0.032 C 
ENDBRANCH   1   6
TORSDOF 1
