REMARK  0 active torsions:
REMARK  status: ('A' for Active; 'I' for Inactive)
ROOT
HETATM    1  C1  UNL     1      -1.499  -0.763   0.158  1.00  0.00     0.042 C 
HETATM    2  C2  UNL     1      -0.271   0.013  -0.241  1.00  0.00     0.040 A 
HETATM    3  C3  UNL     1      -0.577   1.379  -0.768  1.00  0.00     0.042 C 
HETATM    4  C4  UNL     1       0.536   0.201   1.015  1.00  0.00     0.004 A 
HETATM    5  C5  UNL     1       1.687  -0.365   0.798  1.00  0.00     0.015 A 
HETATM    6  C6  UNL     1       1.682  -0.915  -0.530  1.00  0.00     0.083 A 
HETATM    7  N1  UNL     1       0.568  -0.709  -1.143  1.00  0.00    -0.387 N 
ATOM      8  H1  UNL     1       0.331  -1.005  -2.090  1.00  0.00     0.160 HD
ENDROOT
TORSDOF 0
