REMARK  0 active torsions:
REMARK  status: ('A' for Active; 'I' for Inactive)
ROOT
HETATM    1  C1  UNL     1      -0.672  -1.451  -0.137  1.00  0.00     0.017 C 
HETATM    2  C2  UNL     1      -0.401  -0.218   0.682  1.00  0.00     0.035 C 
HETATM    3  C3  UNL     1      -1.539   0.712   0.439  1.00  0.00     0.004 C 
HETATM    4  C4  UNL     1      -1.190   1.481  -0.581  1.00  0.00     0.131 C 
HETATM    5  O1  UNL     1       0.090   1.129  -1.029  1.00  0.00    -0.358 OA
HETATM    6  C5  UNL     1       0.720   0.602   0.148  1.00  0.00     0.131 C 
HETATM    7  C6  UNL     1       1.968  -0.147  -0.172  1.00  0.00     0.040 C 
ENDROOT
TORSDOF 0
