REMARK  0 active torsions:
REMARK  status: ('A' for Active; 'I' for Inactive)
ROOT
HETATM    1  C1  UNL     1       1.540  -0.371  -0.275  1.00  0.00     0.025 C 
HETATM    2  C2  UNL     1       0.167   0.103   0.096  1.00  0.00     0.003 A 
HETATM    3  C3  UNL     1       0.003   1.583   0.087  1.00  0.00     0.025 C 
HETATM    4  C4  UNL     1      -0.779  -0.457  -0.925  1.00  0.00     0.004 A 
HETATM    5  C5  UNL     1      -1.616  -1.199  -0.248  1.00  0.00     0.084 A 
HETATM    6  N1  UNL     1      -1.331  -1.196   1.121  1.00  0.00    -0.378 N 
ATOM      7  H1  UNL     1      -1.860  -1.708   1.827  1.00  0.00     0.164 HD
HETATM    8  C6  UNL     1      -0.308  -0.457   1.365  1.00  0.00     0.073 A 
ENDROOT
TORSDOF 0
