REMARK  7 active torsions:
REMARK  status: ('A' for Active; 'I' for Inactive)
REMARK    1  A    between atoms: C2_2  and  C3_3 
REMARK    2  A    between atoms: C5_5  and  N1_6 
REMARK    3  A    between atoms: C9_12  and  N2_13 
REMARK    4  A    between atoms: C10_15  and  C11_16 
REMARK    5  A    between atoms: C12_17  and  N3_18 
REMARK    6  A    between atoms: C14_22  and  N4_23 
REMARK    7  A    between atoms: C16_27  and  N5_28 
ROOT
HETATM    1  C11 UNL     1       2.305   0.024  -0.143  1.00  0.00     0.045 A 
HETATM    2  C12 UNL     1       2.778  -1.265  -0.214  1.00  0.00     0.119 A 
HETATM    3  C13 UNL     1       4.131  -1.540  -0.502  1.00  0.00     0.073 A 
HETATM    4  C14 UNL     1       5.015  -0.532  -0.719  1.00  0.00     0.107 A 
HETATM    5  C15 UNL     1       4.554   0.745  -0.647  1.00  0.00     0.073 A 
HETATM    6  C16 UNL     1       3.222   1.056  -0.365  1.00  0.00     0.119 A 
ENDROOT
BRANCH   1   7
HETATM    7  C10 UNL     1       0.930   0.320   0.046  1.00  0.00     0.104 C 
HETATM    8  N2  UNL     1      -0.097  -0.432   0.174  1.00  0.00    -0.364 N 
ATOM      9  H2  UNL     1       0.045  -1.441   0.139  1.00  0.00     0.165 HD
BRANCH   8  10
HETATM   10  C9  UNL     1      -1.412   0.040   0.360  1.00  0.00     0.038 A 
HETATM   11  C3  UNL     1      -2.397  -0.172  -0.559  1.00  0.00    -0.029 A 
HETATM   12  C4  UNL     1      -3.699   0.287  -0.388  1.00  0.00     0.046 A 
HETATM   13  C5  UNL     1      -4.054   0.995   0.752  1.00  0.00     0.109 A 
HETATM   14  C6  UNL     1      -3.057   1.210   1.684  1.00  0.00    -0.027 A 
HETATM   15  C7  UNL     1      -3.408   1.965   2.920  1.00  0.00     0.050 C 
HETATM   16  C8  UNL     1      -1.768   0.755   1.513  1.00  0.00     0.039 A 
BRANCH  11  17
HETATM   17  C2  UNL     1      -2.090  -0.939  -1.805  1.00  0.00     0.036 C 
HETATM   18  C1  UNL     1      -2.056  -2.432  -1.444  1.00  0.00     0.010 C 
ENDBRANCH  11  17
BRANCH  13  19
HETATM   19  N1  UNL     1      -5.385   1.458   0.925  1.00  0.00    -0.115 N 
HETATM   20  O1  UNL     1      -5.716   2.493   1.527  1.00  0.00    -0.532 OA
HETATM   21  O2  UNL     1      -6.389   0.698   0.380  1.00  0.00    -0.532 OA
ENDBRANCH  13  19
ENDBRANCH   8  10
ENDBRANCH   1   7
BRANCH   2  22
HETATM   22  N3  UNL     1       2.003  -2.432  -0.004  1.00  0.00    -0.115 N 
HETATM   23  O3  UNL     1       1.155  -2.558   0.873  1.00  0.00    -0.532 OA
HETATM   24  O4  UNL     1       2.288  -3.554  -0.783  1.00  0.00    -0.532 OA
ENDBRANCH   2  22
BRANCH   6  25
HETATM   25  N5  UNL     1       2.894   2.432  -0.327  1.00  0.00    -0.115 N 
HETATM   26  O7  UNL     1       2.110   3.008   0.405  1.00  0.00    -0.532 OA
HETATM   27  O8  UNL     1       3.585   3.270  -1.212  1.00  0.00    -0.532 OA
ENDBRANCH   6  25
BRANCH   4  28
HETATM   28  N4  UNL     1       6.378  -0.843  -1.001  1.00  0.00    -0.116 N 
HETATM   29  O5  UNL     1       6.730  -2.026  -1.046  1.00  0.00    -0.532 OA
HETATM   30  O6  UNL     1       7.268   0.173  -1.215  1.00  0.00    -0.532 OA
ENDBRANCH   4  28
TORSDOF 7
