REMARK  8 active torsions:
REMARK  status: ('A' for Active; 'I' for Inactive)
REMARK    1  A    between atoms: C2_2  and  C3_3 
REMARK    2  A    between atoms: C3_3  and  C4_4 
REMARK    3  A    between atoms: C4_4  and  C5_5 
REMARK    4  A    between atoms: C4_4  and  S1_7 
REMARK    5  A    between atoms: S1_7  and  C7_8 
REMARK    6  A    between atoms: C8_12  and  C9_13 
REMARK    7  A    between atoms: C9_13  and  N3_14 
REMARK    8  A    between atoms: C13_18  and  N4_19 
ROOT
HETATM    1  C7  UNL     1       2.833  -1.998  -0.022  1.00  0.00     0.131 A 
HETATM    2  N1  UNL     1       1.605  -1.627   0.298  1.00  0.00    -0.278 N 
ATOM      3  H1  UNL     1       1.418  -1.234   1.220  1.00  0.00     0.189 HD
HETATM    4  N2  UNL     1       0.653  -1.758  -0.540  1.00  0.00    -0.215 N 
HETATM    5  C8  UNL     1      -0.695  -1.495  -0.564  1.00  0.00     0.149 A 
HETATM    6  N6  UNL     1      -1.172  -1.862  -1.766  1.00  0.00    -0.284 N 
ATOM      7  H6  UNL     1      -2.146  -1.777  -2.056  1.00  0.00     0.188 HD
HETATM    8  N7  UNL     1      -0.212  -2.343  -2.510  1.00  0.00    -0.277 N 
ATOM      9  H7  UNL     1      -0.289  -2.696  -3.464  1.00  0.00     0.189 HD
HETATM   10  C18 UNL     1       0.922  -2.275  -1.740  1.00  0.00     0.189 A 
HETATM   11  S2  UNL     1       2.606  -2.567  -1.618  1.00  0.00    -0.024 SA
ENDROOT
BRANCH   5  12
HETATM   12  C9  UNL     1      -1.530  -0.909   0.520  1.00  0.00     0.352 C 
BRANCH  12  13
HETATM   13  N3  UNL     1      -2.897  -0.711   0.090  1.00  0.00     0.097 N 
HETATM   14  C10 UNL     1      -3.579  -1.889  -0.308  1.00  0.00     0.273 C 
HETATM   15  C11 UNL     1      -4.968  -2.014   0.281  1.00  0.00     0.032 C 
HETATM   16  C12 UNL     1      -5.686  -0.710   0.029  1.00  0.00     0.029 C 
HETATM   17  C13 UNL     1      -4.980   0.418   0.745  1.00  0.00     0.118 C 
HETATM   18  C17 UNL     1      -3.561   0.071   1.103  1.00  0.00     0.298 C 
BRANCH  17  19
HETATM   19  N4  UNL     1      -5.077   1.619  -0.045  1.00  0.00    -0.345 N 
HETATM   20  C14 UNL     1      -6.064   2.532  -0.010  1.00  0.00     0.109 A 
HETATM   21  C15 UNL     1      -5.768   3.514  -0.918  1.00  0.00     0.106 A 
HETATM   22  N5  UNL     1      -4.585   3.195  -1.514  1.00  0.00    -0.361 N 
HETATM   23  C16 UNL     1      -4.183   2.049  -0.974  1.00  0.00     0.182 A 
ATOM     24  H5  UNL     1      -4.102   3.731  -2.235  1.00  0.00     0.166 HD
ENDBRANCH  17  19
ENDBRANCH  12  13
ENDBRANCH   5  12
BRANCH   1  25
HETATM   25  S1  UNL     1       4.321  -1.906   0.992  1.00  0.00    -0.099 SA
BRANCH  25  26
HETATM   26  C4  UNL     1       5.125  -0.292   0.731  1.00  0.00     0.054 C 
BRANCH  26  27
HETATM   27  C3  UNL     1       4.208   0.754   1.273  1.00  0.00     0.015 C 
BRANCH  27  28
HETATM   28  C2  UNL     1       4.726   2.153   1.167  1.00  0.00    -0.003 C 
HETATM   29  C1  UNL     1       6.014   2.374   1.896  1.00  0.00     0.005 C 
ENDBRANCH  27  28
ENDBRANCH  26  27
BRANCH  26  30
HETATM   30  C5  UNL     1       5.425  -0.090  -0.745  1.00  0.00     0.011 C 
HETATM   31  C6  UNL     1       6.358  -1.188  -1.211  1.00  0.00     0.006 C 
ENDBRANCH  26  30
ENDBRANCH  25  26
ENDBRANCH   1  25
TORSDOF 8
