REMARK  2 active torsions:
REMARK  status: ('A' for Active; 'I' for Inactive)
REMARK       I    between atoms: N1_2  and  C2_4 
REMARK    1  A    between atoms: N3_6  and  C3_8 
REMARK    2  A    between atoms: C3_8  and  N4_10 
ROOT
HETATM    1  C1  UNL     1      -3.936   1.348  -0.424  1.00  0.00     0.148 C 
HETATM    2  N1  UNL     1      -3.722  -0.050  -0.176  1.00  0.00    -0.369 N 
ATOM      3  H1  UNL     1      -4.531  -0.671  -0.203  1.00  0.00     0.161 HD
HETATM    4  C2  UNL     1      -2.457  -0.617   0.103  1.00  0.00     0.190 C 
HETATM    5  N2  UNL     1      -2.213  -2.008  -0.070  1.00  0.00    -0.063 NA
HETATM    6  N3  UNL     1      -1.469   0.110   0.528  1.00  0.00    -0.307 N 
ATOM      7  H3  UNL     1      -1.614   1.111   0.662  1.00  0.00     0.171 HD
ENDROOT
BRANCH   6   8
HETATM    8  C3  UNL     1      -0.192  -0.444   0.813  1.00  0.00     0.177 C 
HETATM    9  S1  UNL     1      -0.128  -1.765   1.806  1.00  0.00    -0.041 SA
BRANCH   8  10
HETATM   10  N4  UNL     1       1.024   0.073   0.296  1.00  0.00    -0.345 N 
HETATM   11  C4  UNL     1       1.545   1.172  -0.589  1.00  0.00     0.156 A 
HETATM   12  C5  UNL     1       2.445   0.166   0.077  1.00  0.00     0.043 A 
HETATM   13  C6  UNL     1       3.140  -0.851  -0.795  1.00  0.00     0.040 C 
HETATM   14  C7  UNL     1       3.327   0.739   1.161  1.00  0.00     0.040 C 
ENDBRANCH   8  10
ENDBRANCH   6   8
TORSDOF 2
