REMARK  1 active torsions:
REMARK  status: ('A' for Active; 'I' for Inactive)
REMARK    1  A    between atoms: C8_15  and  C9_16 
ROOT
HETATM    1  C1  UNL     1      -2.401   1.212  -0.933  1.00  0.00     0.273 C 
HETATM    2  N1  UNL     1      -1.697   0.320  -0.077  1.00  0.00    -0.063 N 
HETATM    3  C2  UNL     1      -2.515  -0.226   0.942  1.00  0.00     0.273 C 
HETATM    4  C3  UNL     1      -0.918  -0.726  -0.767  1.00  0.00     0.229 C 
HETATM    5  C4  UNL     1      -0.192  -1.513   0.313  1.00  0.00     0.224 C 
HETATM    6  N2  UNL     1       0.988  -2.124  -0.204  1.00  0.00    -0.062 N 
ATOM      7  H21 UNL     1       0.842  -2.640  -1.071  1.00  0.00     0.278 HD
ATOM      8  H22 UNL     1       1.321  -2.916   0.347  1.00  0.00     0.278 HD
HETATM    9  C5  UNL     1       1.930  -1.057  -0.315  1.00  0.00     0.223 C 
HETATM   10  C6  UNL     1       1.762  -0.358   1.042  1.00  0.00     0.052 C 
HETATM   11  C7  UNL     1       2.366   0.990   0.722  1.00  0.00     0.240 C 
HETATM   12  N3  UNL     1       2.249   1.193  -0.686  1.00  0.00    -0.068 N 
ATOM     13  H31 UNL     1       3.149   1.314  -1.150  1.00  0.00     0.277 HD
ATOM     14  H32 UNL     1       1.854   2.102  -0.929  1.00  0.00     0.277 HD
HETATM   15  C8  UNL     1       1.471   0.063  -1.219  1.00  0.00     0.225 C 
HETATM   16  C9  UNL     1       0.039   0.397  -1.079  1.00  0.00     0.083 C 
HETATM   17  C10 UNL     1      -0.362   0.777   0.346  1.00  0.00     0.205 C 
HETATM   18  C11 UNL     1       0.274  -0.313   1.162  1.00  0.00     0.058 C 
ENDROOT
TORSDOF 1
