REMARK  0 active torsions:
REMARK  status: ('A' for Active; 'I' for Inactive)
REMARK       I    between atoms: N1_2  and  C3_4 
REMARK       I    between atoms: C3_4  and  N6_15 
REMARK       I    between atoms: N2_5  and  C4_7 
REMARK       I    between atoms: C4_7  and  N4_11 
ROOT
HETATM    1  C1  UNL     1       0.467   1.935  -1.265  1.00  0.00     0.152 C 
HETATM    2  N1  UNL     1      -0.089   1.283  -0.079  1.00  0.00    -0.355 N 
HETATM    3  C2  UNL     1      -0.548   2.203   0.973  1.00  0.00     0.152 C 
HETATM    4  C3  UNL     1      -0.185  -0.113   0.060  1.00  0.00     0.294 C 
HETATM    5  N2  UNL     1       0.875  -0.840   0.185  1.00  0.00    -0.154 N 
ATOM      6  H2  UNL     1       0.762  -1.849   0.284  1.00  0.00     0.187 HD
HETATM    7  C4  UNL     1       2.194  -0.302   0.192  1.00  0.00     0.687 C 
HETATM    8  N3  UNL     1       2.533   0.711   0.895  1.00  0.00    -0.234 N 
ATOM      9  H31 UNL     1       3.477   1.096   0.900  1.00  0.00     0.174 HD
ATOM     10  H32 UNL     1       1.816   1.147   1.476  1.00  0.00     0.174 HD
HETATM   11  N4  UNL     1       3.191  -0.908  -0.616  1.00  0.00    -0.126 N 
ATOM     12  H4  UNL     1       2.999  -1.086  -1.602  1.00  0.00     0.197 HD
HETATM   13  C5  UNL     1       4.445  -1.268  -0.076  1.00  0.00     0.196 C 
HETATM   14  N5  UNL     1       5.480  -1.576   0.351  1.00  0.00    -0.171 NA
HETATM   15  N6  UNL     1      -1.424  -0.830   0.075  1.00  0.00    -0.018 N 
HETATM   16  C6  UNL     1      -1.502  -1.513   1.372  1.00  0.00     0.282 C 
HETATM   17  C7  UNL     1      -1.415  -1.878  -0.950  1.00  0.00     0.282 C 
HETATM   18  C8  UNL     1      -2.552   0.025  -0.132  1.00  0.00     0.282 C 
ENDROOT
TORSDOF 0
