REMARK  4 active torsions:
REMARK  status: ('A' for Active; 'I' for Inactive)
REMARK    1  A    between atoms: C2_2  and  N1_3 
REMARK    2  A    between atoms: N4_8  and  C4_10 
REMARK    3  A    between atoms: C4_10  and  N5_12 
REMARK    4  A    between atoms: N5_12  and  N6_14 
ROOT
HETATM    1  C1  UNL     1       0.103   0.020   1.302  1.00  0.00     0.089 C 
HETATM    2  C2  UNL     1       0.151  -0.425  -0.115  1.00  0.00     0.081 C 
HETATM    3  N4  UNL     1       1.271  -0.517  -0.731  1.00  0.00    -0.322 N 
ATOM      4  H4  UNL     1       1.296  -0.821  -1.704  1.00  0.00     0.169 HD
ENDROOT
BRANCH   3   5
HETATM    5  C4  UNL     1       2.476  -0.194  -0.055  1.00  0.00     0.193 C 
HETATM    6  S1  UNL     1       3.262  -1.387   0.734  1.00  0.00    -0.039 SA
BRANCH   5   7
HETATM    7  N5  UNL     1       2.938   1.144  -0.097  1.00  0.00    -0.262 N 
ATOM      8  H5  UNL     1       2.292   1.905  -0.305  1.00  0.00     0.191 HD
BRANCH   7   9
HETATM    9  N6  UNL     1       4.126   1.381   0.120  1.00  0.00    -0.247 N 
HETATM   10  N7  UNL     1       5.318   1.578  -0.170  1.00  0.00    -0.331 N 
ATOM     11  H72 UNL     1       5.256   1.485  -1.184  1.00  0.00     0.178 HD
ATOM     12  H71 UNL     1       6.303   1.774   0.010  1.00  0.00     0.178 HD
ATOM     13  H6  UNL     1       4.141   1.465   1.136  1.00  0.00     0.207 HD
ENDBRANCH   7   9
ENDBRANCH   5   7
ENDBRANCH   3   5
BRANCH   2  14
HETATM   14  N1  UNL     1      -1.023  -0.762  -0.843  1.00  0.00    -0.323 N 
HETATM   15  C3  UNL     1      -2.095  -0.059  -0.779  1.00  0.00     0.202 C 
HETATM   16  N2  UNL     1      -3.236  -0.438  -1.522  1.00  0.00    -0.066 NA
HETATM   17  N3  UNL     1      -2.092   1.089   0.049  1.00  0.00    -0.066 NA
ATOM     18  H1  UNL     1      -1.013  -1.591  -1.437  1.00  0.00     0.169 HD
ENDBRANCH   2  14
TORSDOF 4
