REMARK  9 active torsions:
REMARK  status: ('A' for Active; 'I' for Inactive)
REMARK    1  A    between atoms: C2_2  and  C3_3 
REMARK    2  A    between atoms: C3_3  and  C4_4 
REMARK    3  A    between atoms: C4_4  and  O1_5 
REMARK    4  A    between atoms: O1_5  and  C5_6 
REMARK    5  A    between atoms: C5_6  and  C6_7 
REMARK    6  A    between atoms: C10_11  and  C11_12 
REMARK    7  A    between atoms: C11_12  and  C12_13 
REMARK    8  A    between atoms: C12_13  and  C13_14 
REMARK    9  A    between atoms: C13_14  and  O2_15 
ROOT
HETATM    1  C6  UNL     1       0.040  -1.273   0.395  1.00  0.00    -0.034 A 
HETATM    2  C7  UNL     1       0.066  -1.984  -0.788  1.00  0.00     0.009 A 
HETATM    3  C8  UNL     1      -1.118  -2.335  -1.443  1.00  0.00     0.001 A 
HETATM    4  C9  UNL     1      -2.338  -1.989  -0.939  1.00  0.00     0.007 A 
HETATM    5  C10 UNL     1      -2.382  -1.278   0.242  1.00  0.00    -0.058 A 
HETATM    6  C14 UNL     1      -1.206  -0.936   0.881  1.00  0.00     0.016 A 
ENDROOT
BRANCH   1   7
HETATM    7  C5  UNL     1       1.301  -0.903   1.085  1.00  0.00     0.206 C 
BRANCH   7   8
HETATM    8  O1  UNL     1       1.800   0.319   0.683  1.00  0.00    -0.387 OA
BRANCH   8   9
HETATM    9  C4  UNL     1       2.969   0.555   1.390  1.00  0.00     0.168 C 
BRANCH   9  10
HETATM   10  C3  UNL     1       3.583   1.906   0.992  1.00  0.00     0.026 C 
BRANCH  10  11
HETATM   11  C2  UNL     1       3.912   1.942  -0.467  1.00  0.00    -0.002 C 
HETATM   12  C1  UNL     1       4.900   0.880  -0.871  1.00  0.00     0.005 C 
ENDBRANCH  10  11
ENDBRANCH   9  10
ENDBRANCH   8   9
ENDBRANCH   7   8
ENDBRANCH   1   7
BRANCH   5  13
HETATM   13  C11 UNL     1      -3.699  -0.897   0.797  1.00  0.00     0.041 C 
BRANCH  13  14
HETATM   14  C12 UNL     1      -4.184   0.449   0.314  1.00  0.00     0.030 C 
BRANCH  14  15
HETATM   15  C13 UNL     1      -4.342   0.515  -1.179  1.00  0.00     0.164 C 
BRANCH  15  16
HETATM   16  O2  UNL     1      -4.800   1.809  -1.516  1.00  0.00    -0.401 OA
ATOM     17  H2  UNL     1      -4.900   1.851  -2.460  1.00  0.00     0.209 HD
ENDBRANCH  15  16
ENDBRANCH  14  15
ENDBRANCH  13  14
ENDBRANCH   5  13
TORSDOF 9
