REMARK  5 active torsions:
REMARK  status: ('A' for Active; 'I' for Inactive)
REMARK    1  A    between atoms: C3_3  and  C4_4 
REMARK    2  A    between atoms: C4_4  and  C5_5 
REMARK    3  A    between atoms: C8_8  and  C9_9 
REMARK    4  A    between atoms: C9_9  and  O2_11 
REMARK    5  A    between atoms: O2_11  and  C10_12 
ROOT
HETATM    1  C5  UNL     1      -1.585  -1.285  -0.725  1.00  0.00    -0.011 C 
HETATM    2  C6  UNL     1      -0.906  -0.150  -1.371  1.00  0.00     0.006 C 
HETATM    3  C7  UNL     1       0.365   0.310  -0.738  1.00  0.00     0.015 C 
HETATM    4  C8  UNL     1       0.876  -0.637   0.329  1.00  0.00     0.085 C 
HETATM    5  C13 UNL     1      -0.248  -0.719   1.339  1.00  0.00     0.015 C 
HETATM    6  C14 UNL     1      -1.390  -1.444   0.742  1.00  0.00     0.006 C 
ENDROOT
BRANCH   4   7
HETATM    7  C9  UNL     1       2.098  -0.039   0.905  1.00  0.00     0.263 C 
HETATM    8  O1  UNL     1       2.128   0.226   2.125  1.00  0.00    -0.265 OA
BRANCH   7   9
HETATM    9  O2  UNL     1       3.171   0.211   0.094  1.00  0.00    -0.317 OA
BRANCH   9  10
HETATM   10  C10 UNL     1       4.387   0.782   0.550  1.00  0.00     0.123 C 
HETATM   11  C11 UNL     1       4.562   2.100  -0.174  1.00  0.00     0.040 C 
HETATM   12  C12 UNL     1       5.493  -0.197   0.207  1.00  0.00     0.040 C 
ENDBRANCH   9  10
ENDBRANCH   7   9
ENDBRANCH   4   7
BRANCH   1  13
HETATM   13  C4  UNL     1      -3.089  -1.310  -0.986  1.00  0.00     0.031 C 
BRANCH  13  14
HETATM   14  C3  UNL     1      -3.783  -0.106  -0.498  1.00  0.00    -0.031 C 
HETATM   15  C2  UNL     1      -4.755  -0.143   0.418  1.00  0.00    -0.035 C 
HETATM   16  C1  UNL     1      -5.410   1.108   0.862  1.00  0.00     0.036 C 
ENDBRANCH  13  14
ENDBRANCH   1  13
TORSDOF 5
