REMARK  7 active torsions:
REMARK  status: ('A' for Active; 'I' for Inactive)
REMARK    1  A    between atoms: C2_2  and  C3_3 
REMARK    2  A    between atoms: C3_3  and  C4_4 
REMARK    3  A    between atoms: C4_4  and  C5_5 
REMARK    4  A    between atoms: C10_11  and  C11_12 
REMARK    5  A    between atoms: C11_12  and  C12_14 
REMARK    6  A    between atoms: C12_14  and  C13_15 
REMARK    7  A    between atoms: C13_15  and  C15_17 
ROOT
HETATM    1  C5  UNL     1       1.415  -0.720  -0.419  1.00  0.00    -0.012 A 
HETATM    2  C6  UNL     1       2.153  -1.859  -0.347  1.00  0.00     0.056 A 
HETATM    3  C7  UNL     1       3.557  -1.994   0.092  1.00  0.00     0.077 C 
HETATM    4  O1  UNL     1       1.441  -2.924  -0.744  1.00  0.00    -0.319 OA
HETATM    5  C8  UNL     1       0.247  -2.546  -1.084  1.00  0.00     0.064 A 
HETATM    6  C9  UNL     1      -0.867  -3.432  -1.588  1.00  0.00     0.077 C 
HETATM    7  C10 UNL     1       0.158  -1.175  -0.906  1.00  0.00     0.048 A 
ENDROOT
BRANCH   7   8
HETATM    8  C11 UNL     1      -1.014  -0.366  -1.172  1.00  0.00     0.163 C 
HETATM    9  O2  UNL     1      -1.138   0.137  -2.301  1.00  0.00    -0.292 OA
BRANCH   8  10
HETATM   10  C12 UNL     1      -2.005  -0.175  -0.111  1.00  0.00     0.088 C 
BRANCH  10  11
HETATM   11  C13 UNL     1      -3.191   0.655  -0.520  1.00  0.00    -0.012 C 
HETATM   12  C14 UNL     1      -3.980   0.104  -1.657  1.00  0.00     0.010 C 
BRANCH  11  13
HETATM   13  C15 UNL     1      -2.852   2.123  -0.680  1.00  0.00     0.000 C 
HETATM   14  C16 UNL     1      -2.338   2.646   0.659  1.00  0.00     0.005 C 
ENDBRANCH  11  13
ENDBRANCH  10  11
ENDBRANCH   8  10
ENDBRANCH   7   8
BRANCH   1  15
HETATM   15  C4  UNL     1       1.662   0.679  -0.112  1.00  0.00     0.042 C 
BRANCH  15  16
HETATM   16  C3  UNL     1       1.543   1.180   1.255  1.00  0.00     0.004 C 
BRANCH  16  17
HETATM   17  C2  UNL     1       2.470   0.700   2.325  1.00  0.00    -0.004 C 
HETATM   18  C1  UNL     1       3.916   1.074   2.078  1.00  0.00     0.005 C 
ENDBRANCH  16  17
ENDBRANCH  15  16
ENDBRANCH   1  15
TORSDOF 7
