REMARK  9 active torsions:
REMARK  status: ('A' for Active; 'I' for Inactive)
REMARK    1  A    between atoms: C2_2  and  C3_3 
REMARK    2  A    between atoms: C3_3  and  C4_4 
REMARK    3  A    between atoms: C6_6  and  C7_7 
REMARK    4  A    between atoms: C7_7  and  O1_8 
REMARK    5  A    between atoms: C7_7  and  C8_10 
REMARK    6  A    between atoms: C11_13  and  O2_14 
REMARK    7  A    between atoms: O2_14  and  C12_15 
REMARK    8  A    between atoms: C14_17  and  C15_18 
REMARK    9  A    between atoms: C16_19  and  C17_20 
ROOT
HETATM    1  C4  UNL     1       1.493   0.063   0.793  1.00  0.00    -0.041 A 
HETATM    2  C5  UNL     1       2.081   1.097  -0.087  1.00  0.00     0.022 A 
HETATM    3  C6  UNL     1       1.382   1.397  -1.278  1.00  0.00     0.000 A 
HETATM    4  C10 UNL     1       0.222   0.738  -1.532  1.00  0.00     0.052 A 
HETATM    5  C11 UNL     1      -0.330  -0.237  -0.681  1.00  0.00     0.080 A 
HETATM    6  C14 UNL     1       0.370  -0.524   0.452  1.00  0.00     0.004 A 
ENDROOT
BRANCH   3   7
HETATM    7  C7  UNL     1       1.995   2.241  -2.152  1.00  0.00     0.075 C 
BRANCH   7   8
HETATM    8  O1  UNL     1       3.197   2.871  -1.771  1.00  0.00    -0.360 OA
ATOM      9  H1  UNL     1       3.625   3.460  -2.381  1.00  0.00     0.217 HD
ENDBRANCH   7   8
BRANCH   7  10
HETATM   10  C8  UNL     1       1.778   2.758  -3.540  1.00  0.00     0.027 C 
HETATM   11  C9  UNL     1       0.846   2.621  -4.362  1.00  0.00     0.014 C 
ENDBRANCH   7  10
ENDBRANCH   3   7
BRANCH   1  12
HETATM   12  C3  UNL     1       2.167  -0.024   2.098  1.00  0.00     0.066 C 
BRANCH  12  13
HETATM   13  C2  UNL     1       1.534   0.748   3.175  1.00  0.00    -0.032 C 
HETATM   14  C1  UNL     1       0.469   1.422   3.316  1.00  0.00     0.007 C 
ENDBRANCH  12  13
ENDBRANCH   1  12
BRANCH   5  15
HETATM   15  O2  UNL     1      -1.551  -0.868  -1.010  1.00  0.00    -0.351 OA
BRANCH  15  16
HETATM   16  C12 UNL     1      -2.171  -0.316  -2.199  1.00  0.00     0.171 C 
HETATM   17  C13 UNL     1      -2.695   1.094  -1.826  1.00  0.00     0.034 C 
ENDBRANCH  15  16
ENDBRANCH   5  15
BRANCH   6  18
HETATM   18  C15 UNL     1      -0.198  -1.686   1.248  1.00  0.00     0.011 C 
HETATM   19  C16 UNL     1      -0.016  -2.260   2.352  1.00  0.00    -0.026 C 
BRANCH  19  20
HETATM   20  C17 UNL     1      -0.925  -3.470   2.634  1.00  0.00     0.022 C 
HETATM   21  C18 UNL     1      -2.088  -3.493   1.678  1.00  0.00     0.009 C 
ENDBRANCH  19  20
ENDBRANCH   6  18
TORSDOF 9
