REMARK  7 active torsions:
REMARK  status: ('A' for Active; 'I' for Inactive)
REMARK    1  A    between atoms: C2_2  and  C3_3 
REMARK    2  A    between atoms: C3_3  and  C4_4 
REMARK    3  A    between atoms: C4_4  and  C5_5 
REMARK    4  A    between atoms: C6_7  and  C7_8 
REMARK    5  A    between atoms: C6_7  and  O2_10 
REMARK    6  A    between atoms: O2_10  and  C9_11 
REMARK    7  A    between atoms: C9_11  and  C10_12 
ROOT
HETATM    1  O2  UNL     1       0.255  -0.183  -0.193  1.00  0.00    -0.350 OA
ENDROOT
BRANCH   1   2
HETATM    2  C6  UNL     1       1.595  -0.259  -0.344  1.00  0.00     0.055 C 
HETATM    3  C4  UNL     1       2.477   0.426   0.397  1.00  0.00     0.009 C 
BRANCH   3   4
HETATM    4  C3  UNL     1       3.947   0.337   0.174  1.00  0.00     0.044 C 
BRANCH   4   5
HETATM    5  C2  UNL     1       4.584   1.673  -0.143  1.00  0.00     0.000 C 
HETATM    6  C1  UNL     1       6.065   1.439  -0.425  1.00  0.00     0.005 C 
ENDBRANCH   4   5
ENDBRANCH   3   4
BRANCH   3   7
HETATM    7  C5  UNL     1       2.003   1.233   1.513  1.00  0.00     0.268 C 
HETATM    8  O1  UNL     1       2.783   1.944   2.221  1.00  0.00    -0.302 OA
ENDBRANCH   3   7
BRANCH   2   9
HETATM    9  C7  UNL     1       2.062  -1.173  -1.442  1.00  0.00     0.061 C 
HETATM   10  C8  UNL     1       1.906  -2.623  -0.986  1.00  0.00     0.012 C 
ENDBRANCH   2   9
ENDBRANCH   1   2
BRANCH   1  11
HETATM   11  C9  UNL     1      -0.724  -0.710   0.573  1.00  0.00     0.215 C 
BRANCH  11  12
HETATM   12  C10 UNL     1      -2.124  -0.291   0.346  1.00  0.00    -0.022 A 
HETATM   13  C11 UNL     1      -2.547   1.001   0.344  1.00  0.00    -0.053 A 
HETATM   14  C12 UNL     1      -1.562   2.091   0.323  1.00  0.00     0.049 C 
HETATM   15  C13 UNL     1      -3.913   1.350   0.295  1.00  0.00     0.014 A 
HETATM   16  C14 UNL     1      -4.881   0.383   0.245  1.00  0.00    -0.061 A 
HETATM   17  C15 UNL     1      -6.325   0.758   0.212  1.00  0.00     0.048 C 
HETATM   18  C16 UNL     1      -4.464  -0.938   0.243  1.00  0.00     0.014 A 
HETATM   19  C17 UNL     1      -3.116  -1.276   0.292  1.00  0.00    -0.053 A 
HETATM   20  C18 UNL     1      -2.759  -2.722   0.277  1.00  0.00     0.049 C 
ENDBRANCH  11  12
ENDBRANCH   1  11
TORSDOF 7
