REMARK  12 active torsions:
REMARK  status: ('A' for Active; 'I' for Inactive)
REMARK       I    between atoms: C2_2  and  N1_4 
REMARK    1  A    between atoms: N1_4  and  C4_6 
REMARK    2  A    between atoms: C4_6  and  C5_7 
REMARK    3  A    between atoms: C5_7  and  N2_8 
REMARK    4  A    between atoms: N2_8  and  C7_10 
REMARK    5  A    between atoms: C7_10  and  O2_11 
REMARK    6  A    between atoms: C7_10  and  C8_13 
REMARK    7  A    between atoms: C9_14  and  C10_15 
REMARK    8  A    between atoms: C10_15  and  C11_17 
REMARK    9  A    between atoms: C17_23  and  O4_24 
REMARK   10  A    between atoms: C18_26  and  O5_27 
REMARK   11  A    between atoms: N3_29  and  C19_30 
REMARK   12  A    between atoms: C19_30  and  C20_31 
ROOT
HETATM    1  C8  UNL     1      -1.559  -1.239   0.529  1.00  0.00     0.105 A 
HETATM    2  C9  UNL     1      -2.816  -0.954   0.086  1.00  0.00     0.084 A 
HETATM    3  C17 UNL     1      -3.537  -2.181   0.200  1.00  0.00     0.133 A 
HETATM    4  C18 UNL     1      -2.706  -3.127   0.707  1.00  0.00     0.178 A 
HETATM    5  N3  UNL     1      -1.501  -2.585   0.919  1.00  0.00    -0.320 N 
ENDROOT
BRANCH   1   6
HETATM    6  C7  UNL     1      -0.306  -0.534   0.363  1.00  0.00     0.166 C 
BRANCH   6   7
HETATM    7  N2  UNL     1       0.133   0.283  -0.674  1.00  0.00    -0.363 N 
HETATM    8  C6  UNL     1      -0.495   0.370  -1.973  1.00  0.00     0.152 C 
BRANCH   7   9
HETATM    9  C5  UNL     1       1.441   0.997  -0.540  1.00  0.00     0.144 C 
BRANCH   9  10
HETATM   10  C4  UNL     1       2.541   0.134  -1.085  1.00  0.00     0.145 C 
BRANCH  10  11
HETATM   11  N1  UNL     1       3.850   0.734  -0.986  1.00  0.00    -0.355 N 
HETATM   12  C2  UNL     1       4.619   0.491   0.178  1.00  0.00     0.215 C 
HETATM   13  C1  UNL     1       5.982   1.050   0.397  1.00  0.00     0.117 C 
HETATM   14  O1  UNL     1       4.155  -0.236   1.104  1.00  0.00    -0.274 OA
HETATM   15  C3  UNL     1       4.398   1.560  -2.013  1.00  0.00     0.152 C 
ENDBRANCH  10  11
ENDBRANCH   9  10
ENDBRANCH   7   9
ENDBRANCH   6   7
BRANCH   6  16
HETATM   16  O2  UNL     1       0.580  -0.681   1.309  1.00  0.00    -0.344 OA
ATOM     17  H2  UNL     1       0.280  -1.239   2.017  1.00  0.00     0.219 HD
ENDBRANCH   6  16
ENDBRANCH   1   6
BRANCH   2  18
HETATM   18  C10 UNL     1      -3.471   0.256  -0.358  1.00  0.00     0.197 C 
HETATM   19  O3  UNL     1      -4.433   0.152  -1.199  1.00  0.00    -0.286 OA
BRANCH  18  20
HETATM   20  C11 UNL     1      -3.178   1.607   0.056  1.00  0.00     0.015 A 
HETATM   21  C12 UNL     1      -2.600   1.924   1.261  1.00  0.00     0.015 A 
HETATM   22  C13 UNL     1      -2.319   3.204   1.656  1.00  0.00     0.001 A 
HETATM   23  C14 UNL     1      -2.625   4.258   0.812  1.00  0.00     0.000 A 
HETATM   24  C15 UNL     1      -3.205   3.954  -0.396  1.00  0.00     0.001 A 
HETATM   25  C16 UNL     1      -3.487   2.677  -0.794  1.00  0.00     0.015 A 
ENDBRANCH  18  20
ENDBRANCH   2  18
BRANCH   5  26
HETATM   26  C19 UNL     1      -0.380  -3.290   1.455  1.00  0.00     0.146 C 
BRANCH  26  27
HETATM   27  C20 UNL     1       0.478  -3.887   0.326  1.00  0.00     0.135 C 
HETATM   28 CL1  UNL     1       1.840  -4.745   1.068  1.00  0.00    -0.129 Cl
ENDBRANCH  26  27
ENDBRANCH   5  26
BRANCH   3  29
HETATM   29  O4  UNL     1      -4.880  -2.296  -0.174  1.00  0.00    -0.356 OA
ATOM     30  H4  UNL     1      -5.360  -3.112  -0.098  1.00  0.00     0.218 HD
ENDBRANCH   3  29
BRANCH   4  31
HETATM   31  O5  UNL     1      -3.100  -4.458   0.952  1.00  0.00    -0.344 OA
ATOM     32  H5  UNL     1      -2.518  -5.120   1.307  1.00  0.00     0.219 HD
ENDBRANCH   4  31
TORSDOF 12
