REMARK  9 active torsions:
REMARK  status: ('A' for Active; 'I' for Inactive)
REMARK    1  A    between atoms: C2_2  and  N1_4 
REMARK    2  A    between atoms: N1_4  and  C4_6 
REMARK    3  A    between atoms: C5_9  and  N3_10 
REMARK    4  A    between atoms: C8_13  and  O1_14 
REMARK    5  A    between atoms: O1_14  and  C9_15 
REMARK    6  A    between atoms: C9_15  and  C10_16 
REMARK    7  A    between atoms: C10_16  and  C11_17 
REMARK    8  A    between atoms: C11_17  and  C12_18 
REMARK    9  A    between atoms: C16_24  and  N4_25 
ROOT
HETATM    1  C4  UNL     1      -1.131   2.162  -0.170  1.00  0.00     0.681 A 
HETATM    2  N2  UNL     1       0.072   1.558  -0.269  1.00  0.00    -0.177 N 
ATOM      3  H2  UNL     1       0.916   2.123  -0.359  1.00  0.00     0.185 HD
HETATM    4  C5  UNL     1       0.165   0.223  -0.250  1.00  0.00     0.122 A 
HETATM    5  C15 UNL     1      -0.999  -0.511  -0.126  1.00  0.00     0.097 A 
HETATM    6  C16 UNL     1      -2.241   0.080  -0.024  1.00  0.00     0.122 A 
HETATM    7  N6  UNL     1      -2.255   1.442  -0.051  1.00  0.00    -0.177 N 
ATOM      8  H6  UNL     1      -3.148   1.929   0.022  1.00  0.00     0.185 HD
ENDROOT
BRANCH   4   9
HETATM    9  N3  UNL     1       1.431  -0.412  -0.353  1.00  0.00    -0.367 N 
HETATM   10  C6  UNL     1       2.631   0.410  -0.313  1.00  0.00     0.127 C 
HETATM   11  C7  UNL     1       3.687  -0.480   0.360  1.00  0.00     0.051 C 
HETATM   12  C8  UNL     1       4.080  -1.524  -0.623  1.00  0.00     0.124 C 
HETATM   13  C13 UNL     1       2.835  -2.078  -1.345  1.00  0.00     0.051 C 
HETATM   14  C14 UNL     1       1.603  -1.819  -0.503  1.00  0.00     0.127 C 
BRANCH  12  15
HETATM   15  O1  UNL     1       4.902  -1.010  -1.614  1.00  0.00    -0.386 OA
BRANCH  15  16
HETATM   16  C9  UNL     1       6.070  -1.733  -1.692  1.00  0.00     0.168 C 
BRANCH  16  17
HETATM   17  C10 UNL     1       6.920  -1.560  -0.484  1.00  0.00     0.032 C 
BRANCH  17  18
HETATM   18  C11 UNL     1       7.377  -0.121  -0.330  1.00  0.00     0.073 C 
BRANCH  18  19
HETATM   19  C12 UNL     1       8.222   0.081   0.885  1.00  0.00     0.353 C 
HETATM   20  F1  UNL     1       7.458  -0.270   1.998  1.00  0.00    -0.214 F 
HETATM   21  F2  UNL     1       8.645   1.392   0.955  1.00  0.00    -0.214 F 
ENDBRANCH  18  19
ENDBRANCH  17  18
ENDBRANCH  16  17
ENDBRANCH  15  16
ENDBRANCH  12  15
ENDBRANCH   4   9
BRANCH   1  22
HETATM   22  N1  UNL     1      -1.174   3.425  -0.193  1.00  0.00    -0.222 N 
ATOM     23  H1  UNL     1      -0.297   3.938  -0.284  1.00  0.00     0.178 HD
BRANCH  22  24
HETATM   24  C2  UNL     1      -2.383   4.167  -0.098  1.00  0.00     0.091 C 
HETATM   25  C1  UNL     1      -2.000   5.604   0.256  1.00  0.00     0.032 C 
HETATM   26  C3  UNL     1      -3.184   4.164  -1.399  1.00  0.00     0.032 C 
ENDBRANCH  22  24
ENDBRANCH   1  22
BRANCH   6  27
HETATM   27  N4  UNL     1      -3.444  -0.667   0.078  1.00  0.00    -0.365 N 
HETATM   28  C17 UNL     1      -3.374  -2.096  -0.112  1.00  0.00     0.126 C 
HETATM   29  C18 UNL     1      -3.434  -2.760   1.250  1.00  0.00     0.039 C 
HETATM   30  C19 UNL     1      -4.868  -2.661   1.758  1.00  0.00     0.115 C 
HETATM   31  N5  UNL     1      -5.724  -2.006   0.842  1.00  0.00    -0.416 N 
HETATM   32  C20 UNL     1      -5.792  -0.596   0.875  1.00  0.00     0.090 C 
ATOM     33  H5  UNL     1      -6.279  -2.540   0.173  1.00  0.00     0.153 HD
HETATM   34  C21 UNL     1      -6.959  -0.199  -0.054  1.00  0.00     0.033 C 
HETATM   35  C22 UNL     1      -4.603   0.158   0.387  1.00  0.00     0.148 C 
ENDBRANCH   6  27
TORSDOF 9
