REMARK  5 active torsions:
REMARK  status: ('A' for Active; 'I' for Inactive)
REMARK    1  A    between atoms: C1_2  and  N2_4 
REMARK    2  A    between atoms: N2_4  and  C2_6 
REMARK    3  A    between atoms: C6_10  and  C7_11 
REMARK    4  A    between atoms: C7_11  and  O2_13 
REMARK    5  A    between atoms: O2_13  and  C8_14 
ROOT
HETATM    1  C2  UNL     1       3.735  -0.721   0.345  1.00  0.00     0.085 C 
HETATM    2  C3  UNL     1       3.667  -1.060  -1.100  1.00  0.00     0.029 C 
HETATM    3  C4  UNL     1       2.274  -1.090  -1.640  1.00  0.00    -0.010 C 
HETATM    4  C5  UNL     1       1.280  -1.819  -0.764  1.00  0.00     0.024 C 
HETATM    5  C6  UNL     1       1.249  -0.539   0.068  1.00  0.00     0.050 C 
HETATM    6  C15 UNL     1       1.592   0.205  -1.199  1.00  0.00     0.024 C 
HETATM    7  C16 UNL     1       2.392  -0.614   1.015  1.00  0.00     0.045 C 
ENDROOT
BRANCH   5   8
HETATM    8  C7  UNL     1      -0.026  -0.220   0.697  1.00  0.00     0.268 C 
HETATM    9  O1  UNL     1      -0.090  -0.126   1.960  1.00  0.00    -0.264 OA
BRANCH   8  10
HETATM   10  O2  UNL     1      -1.207  -0.005   0.008  1.00  0.00    -0.313 OA
BRANCH  10  11
HETATM   11  C8  UNL     1      -2.431   0.303   0.647  1.00  0.00     0.164 C 
HETATM   12  C9  UNL     1      -2.951   1.613   0.077  1.00  0.00     0.305 C 
HETATM   13  N3  UNL     1      -4.384   1.560  -0.116  1.00  0.00     0.090 N 
HETATM   14  C10 UNL     1      -4.638   0.714  -1.259  1.00  0.00     0.273 C 
HETATM   15  C14 UNL     1      -5.023   1.020   1.060  1.00  0.00     0.273 C 
HETATM   16  C11 UNL     1      -3.870  -0.576  -1.116  1.00  0.00     0.037 C 
HETATM   17  C12 UNL     1      -3.477  -0.749   0.334  1.00  0.00     0.020 C 
HETATM   18  C13 UNL     1      -4.683  -0.452   1.196  1.00  0.00     0.037 C 
ENDBRANCH  10  11
ENDBRANCH   8  10
ENDBRANCH   5   8
BRANCH   1  19
HETATM   19  N2  UNL     1       4.447   0.533   0.592  1.00  0.00    -0.365 N 
ATOM     20  H2  UNL     1       3.957   1.314   1.028  1.00  0.00     0.162 HD
BRANCH  19  21
HETATM   21  C1  UNL     1       5.801   0.672   0.234  1.00  0.00     0.181 C 
HETATM   22  N1  UNL     1       6.481   1.879   0.471  1.00  0.00    -0.070 NA
HETATM   23  S1  UNL     1       6.580  -0.569  -0.451  1.00  0.00    -0.044 SA
ENDBRANCH  19  21
ENDBRANCH   1  19
TORSDOF 5
