REMARK  5 active torsions:
REMARK  status: ('A' for Active; 'I' for Inactive)
REMARK    1  A    between atoms: C2_2  and  C3_4 
REMARK    2  A    between atoms: C6_7  and  C7_8 
REMARK       I    between atoms: C7_8  and  N1_10 
REMARK    3  A    between atoms: N1_10  and  C8_12 
REMARK    4  A    between atoms: C13_17  and  S1_18 
REMARK    5  A    between atoms: S1_18  and  N2_19 
ROOT
HETATM    1  C7  UNL     1      -0.287  -1.587  -0.912  1.00  0.00     0.239 C 
HETATM    2  O2  UNL     1      -0.009  -2.588  -1.593  1.00  0.00    -0.272 OA
HETATM    3  N1  UNL     1       0.655  -0.925  -0.123  1.00  0.00    -0.325 N 
ATOM      4  H1  UNL     1       0.309  -0.115   0.391  1.00  0.00     0.169 HD
ENDROOT
BRANCH   3   5
HETATM    5  C8  UNL     1       2.016  -1.224   0.059  1.00  0.00     0.058 A 
HETATM    6  C9  UNL     1       2.636  -2.282  -0.564  1.00  0.00     0.031 A 
HETATM    7  C10 UNL     1       3.981  -2.535  -0.348  1.00  0.00     0.002 A 
HETATM    8  C11 UNL     1       4.702  -1.712   0.502  1.00  0.00     0.002 A 
HETATM    9  C12 UNL     1       4.072  -0.657   1.120  1.00  0.00     0.027 A 
HETATM   10  C13 UNL     1       2.747  -0.386   0.925  1.00  0.00     0.105 A 
BRANCH  10  11
HETATM   11  S1  UNL     1       1.971   0.980   1.734  1.00  0.00     0.259 S 
HETATM   12  O3  UNL     1       1.486   1.983   0.754  1.00  0.00    -0.201 OA
HETATM   13  O4  UNL     1       0.892   0.564   2.660  1.00  0.00    -0.201 OA
BRANCH  11  14
HETATM   14  N2  UNL     1       3.210   1.744   2.711  1.00  0.00    -0.324 N 
ATOM     15  H22 UNL     1       4.183   1.447   2.787  1.00  0.00     0.169 HD
ATOM     16  H21 UNL     1       2.762   2.532   3.178  1.00  0.00     0.169 HD
ENDBRANCH  11  14
ENDBRANCH  10  11
ENDBRANCH   3   5
BRANCH   1  17
HETATM   17  C6  UNL     1      -1.718  -1.133  -0.997  1.00  0.00     0.084 A 
HETATM   18  C5  UNL     1      -2.445  -1.113   0.275  1.00  0.00    -0.006 A 
HETATM   19  C4  UNL     1      -3.118   0.016   0.436  1.00  0.00    -0.016 A 
HETATM   20  C3  UNL     1      -2.946   0.925  -0.704  1.00  0.00     0.086 A 
HETATM   21  C16 UNL     1      -1.953   0.207  -1.596  1.00  0.00     0.048 A 
HETATM   22  C15 UNL     1      -2.664  -0.456  -2.735  1.00  0.00    -0.022 A 
HETATM   23  C14 UNL     1      -2.439  -1.635  -2.175  1.00  0.00    -0.006 A 
BRANCH  20  24
HETATM   24  C2  UNL     1      -2.492   2.279  -0.342  1.00  0.00     0.131 C 
HETATM   25  C1  UNL     1      -3.302   3.120   0.558  1.00  0.00     0.091 C 
HETATM   26  O1  UNL     1      -1.453   2.703  -0.784  1.00  0.00    -0.298 OA
ENDBRANCH  20  24
ENDBRANCH   1  17
TORSDOF 5
