REMARK  4 active torsions:
REMARK  status: ('A' for Active; 'I' for Inactive)
REMARK    1  A    between atoms: C2_2  and  C3_3 
REMARK    2  A    between atoms: N1_4  and  C4_5 
REMARK    3  A    between atoms: C5_8  and  C6_9 
REMARK    4  A    between atoms: C14_18  and  C15_19 
ROOT
HETATM    1  C3  UNL     1      -1.463  -0.389  -0.693  1.00  0.00     0.352 C 
HETATM    2  N1  UNL     1      -0.336  -1.129  -0.112  1.00  0.00    -0.315 N 
HETATM    3  C5  UNL     1       0.454  -0.179   0.635  1.00  0.00     0.165 C 
HETATM    4  C12 UNL     1       0.029   1.088  -0.026  1.00  0.00     0.316 C 
HETATM    5  S2  UNL     1       0.000   2.543   1.041  1.00  0.00    -0.128 SA
HETATM    6  C13 UNL     1      -1.652   3.108   0.438  1.00  0.00     0.123 C 
HETATM    7  C14 UNL     1      -1.874   2.028  -0.648  1.00  0.00     0.336 C 
HETATM    8  N3  UNL     1      -1.440   0.864  -0.018  1.00  0.00     0.147 N 
ENDROOT
BRANCH   3   9
HETATM    9  C6  UNL     1       1.899  -0.315   0.481  1.00  0.00    -0.032 A 
HETATM   10  C7  UNL     1       2.513  -0.456  -0.726  1.00  0.00     0.009 A 
HETATM   11  C8  UNL     1       3.900  -0.584  -0.831  1.00  0.00     0.001 A 
HETATM   12  C9  UNL     1       4.669  -0.568   0.306  1.00  0.00     0.000 A 
HETATM   13  C10 UNL     1       4.075  -0.427   1.534  1.00  0.00     0.001 A 
HETATM   14  C11 UNL     1       2.683  -0.301   1.612  1.00  0.00     0.009 A 
ENDBRANCH   3   9
BRANCH   2  15
HETATM   15  C4  UNL     1      -0.038  -2.508  -0.227  1.00  0.00     0.185 C 
HETATM   16  N2  UNL     1       1.095  -3.096   0.396  1.00  0.00    -0.070 NA
HETATM   17  S1  UNL     1      -0.987  -3.534  -1.095  1.00  0.00    -0.044 SA
ENDBRANCH   2  15
BRANCH   1  18
HETATM   18  C2  UNL     1      -2.655  -1.194  -0.315  1.00  0.00     0.020 C 
HETATM   19  C1  UNL     1      -2.907  -1.543   0.925  1.00  0.00     0.011 C 
ENDBRANCH   1  18
BRANCH   7  20
HETATM   20  C15 UNL     1      -3.262   2.172  -1.052  1.00  0.00     0.208 C 
HETATM   21  O1  UNL     1      -4.205   1.369  -0.891  1.00  0.00    -0.646 OA
HETATM   22  O2  UNL     1      -3.604   3.368  -1.713  1.00  0.00    -0.646 OA
ENDBRANCH   7  20
TORSDOF 4
