REMARK  9 active torsions:
REMARK  status: ('A' for Active; 'I' for Inactive)
REMARK    1  A    between atoms: C2_2  and  C3_3 
REMARK    2  A    between atoms: C3_3  and  N1_4 
REMARK    3  A    between atoms: N1_4  and  C4_6 
REMARK    4  A    between atoms: C4_6  and  C5_7 
REMARK    5  A    between atoms: C5_7  and  C6_8 
REMARK    6  A    between atoms: C6_8  and  C7_9 
REMARK    7  A    between atoms: C7_9  and  C8_10 
REMARK    8  A    between atoms: C8_10  and  C9_11 
REMARK    9  A    between atoms: C9_11  and  C10_12 
ROOT
HETATM    1  C6  UNL     1      -0.193   0.157   0.538  1.00  0.00     0.002 C 
ENDROOT
BRANCH   1   2
HETATM    2  C5  UNL     1      -1.307  -0.792   0.897  1.00  0.00     0.019 C 
BRANCH   2   3
HETATM    3  C4  UNL     1      -2.563  -0.073   1.254  1.00  0.00     0.113 C 
BRANCH   3   4
HETATM    4  N1  UNL     1      -3.118   0.762   0.257  1.00  0.00    -0.421 N 
ATOM      5  H1  UNL     1      -3.133   1.776   0.368  1.00  0.00     0.153 HD
BRANCH   4   6
HETATM    6  C3  UNL     1      -3.653   0.144  -0.902  1.00  0.00     0.113 C 
BRANCH   6   7
HETATM    7  C2  UNL     1      -4.908  -0.665  -0.657  1.00  0.00     0.015 C 
HETATM    8  C1  UNL     1      -5.971   0.262  -0.102  1.00  0.00     0.006 C 
ENDBRANCH   6   7
ENDBRANCH   4   6
ENDBRANCH   3   4
ENDBRANCH   2   3
ENDBRANCH   1   2
BRANCH   1   9
HETATM    9  C7  UNL     1       1.083  -0.616   0.178  1.00  0.00     0.001 C 
BRANCH   9  10
HETATM   10  C8  UNL     1       2.128   0.390  -0.166  1.00  0.00     0.009 C 
BRANCH  10  11
HETATM   11  C9  UNL     1       3.461  -0.149  -0.547  1.00  0.00    -0.041 A 
HETATM   12  C12 UNL     1       3.432  -1.383  -1.433  1.00  0.00     0.010 A 
HETATM   13  C13 UNL     1       3.942  -1.433   0.017  1.00  0.00     0.010 A 
BRANCH  11  14
HETATM   14  C10 UNL     1       4.483   0.926  -0.886  1.00  0.00     0.005 C 
HETATM   15  C11 UNL     1       4.726   1.851   0.277  1.00  0.00     0.006 C 
ENDBRANCH  11  14
ENDBRANCH  10  11
ENDBRANCH   9  10
ENDBRANCH   1   9
TORSDOF 9
