REMARK  10 active torsions:
REMARK  status: ('A' for Active; 'I' for Inactive)
REMARK    1  A    between atoms: C2_2  and  C3_3 
REMARK    2  A    between atoms: C3_3  and  C4_4 
REMARK    3  A    between atoms: C4_4  and  N1_5 
REMARK    4  A    between atoms: N1_5  and  C5_8 
REMARK    5  A    between atoms: C5_8  and  C6_9 
REMARK    6  A    between atoms: C6_9  and  C7_10 
REMARK    7  A    between atoms: C7_10  and  C8_11 
REMARK    8  A    between atoms: C8_11  and  C9_12 
REMARK    9  A    between atoms: C9_12  and  C10_13 
REMARK   10  A    between atoms: C10_13  and  C11_14 
ROOT
HETATM    1  C6  UNL     1       1.028   0.816   0.569  1.00  0.00     0.027 C 
ENDROOT
BRANCH   1   2
HETATM    2  C5  UNL     1       1.450   0.311  -0.770  1.00  0.00     0.232 C 
BRANCH   2   3
HETATM    3  N1  UNL     1       2.457  -0.716  -0.736  1.00  0.00    -0.075 N 
ATOM      4  H12 UNL     1       2.556  -1.196  -1.630  1.00  0.00     0.277 HD
ATOM      5  H11 UNL     1       2.176  -1.520  -0.175  1.00  0.00     0.277 HD
BRANCH   3   6
HETATM    6  C4  UNL     1       3.704  -0.128  -0.280  1.00  0.00     0.236 C 
BRANCH   6   7
HETATM    7  C3  UNL     1       4.823  -1.142  -0.205  1.00  0.00     0.054 C 
BRANCH   7   8
HETATM    8  C2  UNL     1       6.049  -0.454   0.252  1.00  0.00    -0.035 C 
HETATM    9  C1  UNL     1       6.046   0.824   0.520  1.00  0.00     0.007 C 
ENDBRANCH   7   8
ENDBRANCH   6   7
ENDBRANCH   3   6
ENDBRANCH   2   3
ENDBRANCH   1   2
BRANCH   1  10
HETATM   10  C7  UNL     1       0.448  -0.274   1.440  1.00  0.00     0.002 C 
BRANCH  10  11
HETATM   11  C8  UNL     1      -0.758  -0.921   0.802  1.00  0.00     0.000 C 
BRANCH  11  12
HETATM   12  C9  UNL     1      -1.866   0.067   0.524  1.00  0.00     0.001 C 
BRANCH  12  13
HETATM   13  C10 UNL     1      -3.000  -0.710  -0.104  1.00  0.00     0.009 C 
BRANCH  13  14
HETATM   14  C11 UNL     1      -4.171   0.179  -0.452  1.00  0.00    -0.044 A 
HETATM   15  C12 UNL     1      -3.967   1.310  -1.415  1.00  0.00     0.015 C 
HETATM   16  C13 UNL     1      -5.531  -0.505  -0.446  1.00  0.00     0.010 A 
HETATM   17  C14 UNL     1      -5.206   0.442   0.645  1.00  0.00     0.010 A 
ENDBRANCH  13  14
ENDBRANCH  12  13
ENDBRANCH  11  12
ENDBRANCH  10  11
ENDBRANCH   1  10
TORSDOF 10
