REMARK  4 active torsions:
REMARK  status: ('A' for Active; 'I' for Inactive)
REMARK       I    between atoms: C1_4  and  N3_6 
REMARK    1  A    between atoms: N3_6  and  N4_8 
REMARK    2  A    between atoms: C2_10  and  C3_11 
REMARK    3  A    between atoms: C3_11  and  C4_12 
REMARK    4  A    between atoms: N5_15  and  O2_16 
ROOT
HETATM    1  N4  UNL     1       1.339  -0.517  -0.985  1.00  0.00    -0.313 N 
ATOM      2  H4  UNL     1       1.779  -0.340  -1.888  1.00  0.00     0.185 HD
HETATM    3  C2  UNL     1       0.108  -0.840  -0.981  1.00  0.00     0.085 C 
ENDROOT
BRANCH   1   4
HETATM    4  N3  UNL     1       2.130  -0.388   0.155  1.00  0.00    -0.275 N 
HETATM    5  C1  UNL     1       3.201   0.546   0.109  1.00  0.00     0.200 C 
HETATM    6  N1  UNL     1       4.407   0.129   0.257  1.00  0.00    -0.372 N 
HETATM    7  N2  UNL     1       2.877   1.912  -0.103  1.00  0.00    -0.062 NA
ATOM      8  H12 UNL     1       5.175   0.799   0.224  1.00  0.00     0.158 HD
ATOM      9  H11 UNL     1       4.640  -0.852   0.409  1.00  0.00     0.158 HD
ATOM     10  H3  UNL     1       1.947  -0.943   0.991  1.00  0.00     0.189 HD
ENDBRANCH   1   4
BRANCH   3  11
HETATM   11  C3  UNL     1      -0.600  -1.115   0.310  1.00  0.00     0.088 C 
BRANCH  11  12
HETATM   12  C4  UNL     1      -1.970  -0.529   0.249  1.00  0.00    -0.009 A 
HETATM   13  C5  UNL     1      -3.119  -1.142  -0.195  1.00  0.00     0.179 A 
HETATM   14  O1  UNL     1      -4.086  -0.263  -0.072  1.00  0.00    -0.222 OA
HETATM   15  N5  UNL     1      -3.637   0.852   0.413  1.00  0.00    -0.133 N 
HETATM   16  C6  UNL     1      -2.326   0.747   0.633  1.00  0.00     0.160 A 
BRANCH  15  17
HETATM   17  O2  UNL     1      -4.395   1.980   0.666  1.00  0.00    -0.263 OA
ATOM     18  H2  UNL     1      -4.066   2.797   1.021  1.00  0.00     0.247 HD
ENDBRANCH  15  17
ENDBRANCH  11  12
ENDBRANCH   3  11
TORSDOF 4
