REMARK  5 active torsions:
REMARK  status: ('A' for Active; 'I' for Inactive)
REMARK    1  A    between atoms: N1_1  and  C1_5 
REMARK    2  A    between atoms: C1_5  and  C2_6 
REMARK    3  A    between atoms: C1_5  and  C3_8 
REMARK    4  A    between atoms: C3_8  and  C4_9 
REMARK       I    between atoms: C4_9  and  N2_11 
REMARK    5  A    between atoms: N2_11  and  C5_12 
ROOT
HETATM    1  C4  UNL     1       0.127  -0.694   0.050  1.00  0.00     0.294 C 
HETATM    2  O2  UNL     1       0.256  -1.917   0.223  1.00  0.00    -0.257 OA
HETATM    3  N2  UNL     1       1.108   0.226  -0.314  1.00  0.00    -0.368 NA
ENDROOT
BRANCH   1   4
HETATM    4  C3  UNL     1      -1.294  -0.209   0.271  1.00  0.00     0.159 C 
BRANCH   4   5
HETATM    5  C1  UNL     1      -2.260  -1.350   0.328  1.00  0.00     0.254 C 
BRANCH   5   6
HETATM    6  N1  UNL     1      -1.976  -2.278   1.389  1.00  0.00    -0.068 N 
ATOM      7  H13 UNL     1      -2.121  -1.871   2.313  1.00  0.00     0.275 HD
ATOM      8  H12 UNL     1      -2.670  -3.023   1.453  1.00  0.00     0.275 HD
ATOM      9  H11 UNL     1      -1.029  -2.636   1.264  1.00  0.00     0.275 HD
ENDBRANCH   5   6
BRANCH   5  10
HETATM   10  C2  UNL     1      -3.643  -0.827   0.510  1.00  0.00     0.264 C 
HETATM   11  O1  UNL     1      -4.303  -1.294   1.423  1.00  0.00    -0.305 OA
ENDBRANCH   5  10
ENDBRANCH   4   5
ENDBRANCH   1   4
BRANCH   3  12
HETATM   12  C5  UNL     1       2.031   1.090  -0.656  1.00  0.00     0.144 A 
HETATM   13  C6  UNL     1       2.385   1.495  -1.967  1.00  0.00     0.153 A 
HETATM   14  N3  UNL     1       3.350   2.415  -1.918  1.00  0.00    -0.309 N 
HETATM   15  N4  UNL     1       3.660   2.649  -0.638  1.00  0.00    -0.309 N 
ATOM     16  H3  UNL     1       3.781   2.866  -2.725  1.00  0.00     0.186 HD
HETATM   17  C7  UNL     1       2.888   1.871   0.139  1.00  0.00     0.153 A 
ATOM     18  H4  UNL     1       4.365   3.308  -0.307  1.00  0.00     0.186 HD
ENDBRANCH   3  12
TORSDOF 5
