REMARK  5 active torsions:
REMARK  status: ('A' for Active; 'I' for Inactive)
REMARK    1  A    between atoms: C2_3  and  N2_4 
REMARK    2  A    between atoms: N2_4  and  C3_7 
REMARK    3  A    between atoms: C3_7  and  C4_8 
REMARK    4  A    between atoms: C4_8  and  N3_9 
REMARK    5  A    between atoms: C4_8  and  C5_13 
ROOT
HETATM    1  N1  UNL     1      -1.469   2.190   2.221  1.00  0.00    -0.195 NA
HETATM    2  C1  UNL     1      -1.464   1.316   1.454  1.00  0.00     0.099 C 
HETATM    3  C2  UNL     1      -1.480   0.236   0.490  1.00  0.00     0.212 C 
HETATM    4  C6  UNL     1      -2.604  -0.779   0.752  1.00  0.00     0.055 C 
HETATM    5  C7  UNL     1      -3.478   0.106  -0.116  1.00  0.00     0.007 C 
HETATM    6  C8  UNL     1      -2.193   0.586  -0.781  1.00  0.00     0.055 C 
ENDROOT
BRANCH   3   7
HETATM    7  N2  UNL     1      -0.245  -0.483   0.360  1.00  0.00    -0.051 N 
ATOM      8  H22 UNL     1      -0.006  -0.940   1.240  1.00  0.00     0.279 HD
ATOM      9  H21 UNL     1      -0.372  -1.302  -0.234  1.00  0.00     0.279 HD
BRANCH   7  10
HETATM   10  C3  UNL     1       0.864   0.310  -0.110  1.00  0.00     0.276 C 
BRANCH  10  11
HETATM   11  C4  UNL     1       2.062  -0.634  -0.175  1.00  0.00     0.297 C 
BRANCH  11  12
HETATM   12  N3  UNL     1       1.697  -1.681  -1.099  1.00  0.00    -0.065 N 
ATOM     13  H33 UNL     1       0.823  -2.149  -0.858  1.00  0.00     0.275 HD
ATOM     14  H32 UNL     1       1.404  -1.333  -2.012  1.00  0.00     0.275 HD
ATOM     15  H31 UNL     1       2.497  -2.312  -1.142  1.00  0.00     0.275 HD
ENDBRANCH  11  12
BRANCH  11  16
HETATM   16  C5  UNL     1       3.283   0.014  -0.641  1.00  0.00     0.263 C 
HETATM   17  N4  UNL     1       3.885   1.088   0.067  1.00  0.00    -0.060 NA
HETATM   18  O1  UNL     1       3.840  -0.368  -1.696  1.00  0.00    -0.275 OA
ENDBRANCH  11  16
ENDBRANCH  10  11
ENDBRANCH   7  10
ENDBRANCH   3   7
TORSDOF 5
