REMARK  4 active torsions:
REMARK  status: ('A' for Active; 'I' for Inactive)
REMARK    1  A    between atoms: N1_1  and  N2_4 
REMARK       I    between atoms: N2_4  and  C1_5 
REMARK    2  A    between atoms: C1_5  and  C2_7 
REMARK    3  A    between atoms: C6_13  and  N4_14 
REMARK    4  A    between atoms: N4_14  and  C7_16 
ROOT
HETATM    1  C2  UNL     1      -0.215  -0.207   0.118  1.00  0.00     0.144 A 
HETATM    2  N3  UNL     1      -0.052  -1.432   0.694  1.00  0.00    -0.359 N 
ATOM      3  H3  UNL     1      -0.883  -1.972   0.936  1.00  0.00     0.165 HD
HETATM    4  C3  UNL     1       1.148  -1.955   0.955  1.00  0.00     0.088 A 
HETATM    5  C4  UNL     1       2.292  -1.267   0.646  1.00  0.00     0.019 A 
HETATM    6  C5  UNL     1       2.178  -0.028   0.064  1.00  0.00     0.033 A 
HETATM    7  C6  UNL     1       0.909   0.499  -0.200  1.00  0.00     0.068 A 
ENDROOT
BRANCH   1   8
HETATM    8  C1  UNL     1      -1.607   0.265  -0.072  1.00  0.00     0.363 C 
HETATM    9  N2  UNL     1      -2.658  -0.610   0.257  1.00  0.00    -0.287 NA
HETATM   10  O1  UNL     1      -1.788   1.418  -0.522  1.00  0.00    -0.247 OA
BRANCH   9  11
HETATM   11  N1  UNL     1      -3.609  -1.401   0.553  1.00  0.00    -0.276 N 
ATOM     12  H12 UNL     1      -2.874  -0.759   0.255  1.00  0.00     0.191 HD
ATOM     13  H11 UNL     1      -4.371  -2.036   0.792  1.00  0.00     0.191 HD
ENDBRANCH   9  11
ENDBRANCH   1   8
BRANCH   7  14
HETATM   14  N4  UNL     1       0.779   1.725  -0.864  1.00  0.00    -0.332 N 
ATOM     15  H4  UNL     1      -0.102   1.944  -1.330  1.00  0.00     0.168 HD
BRANCH  14  16
HETATM   16  C7  UNL     1       1.827   2.664  -0.908  1.00  0.00     0.353 C 
HETATM   17  O2  UNL     1       2.954   2.686  -0.474  1.00  0.00    -0.283 OA
ENDBRANCH  14  16
ENDBRANCH   7  14
TORSDOF 4
