REMARK  3 active torsions:
REMARK  status: ('A' for Active; 'I' for Inactive)
REMARK    1  A    between atoms: C2_4  and  C3_5 
REMARK    2  A    between atoms: C3_5  and  N3_6 
REMARK       I    between atoms: N3_6  and  C4_8 
REMARK    3  A    between atoms: C4_8  and  C5_10 
ROOT
HETATM    1  N3  UNL     1       0.404  -0.749  -0.131  1.00  0.00    -0.335 N 
ATOM      2  H3  UNL     1       0.569   0.212  -0.429  1.00  0.00     0.168 HD
HETATM    3  C4  UNL     1      -0.920  -1.340  -0.252  1.00  0.00     0.250 C 
HETATM    4  O1  UNL     1      -1.026  -2.530   0.140  1.00  0.00    -0.270 OA
ENDROOT
BRANCH   1   5
HETATM    5  C3  UNL     1       1.460  -1.522   0.405  1.00  0.00     0.094 C 
BRANCH   5   6
HETATM    6  C2  UNL     1       2.787  -0.957   0.537  1.00  0.00     0.059 C 
HETATM    7  C1  UNL     1       3.275   0.210   0.247  1.00  0.00     0.129 C 
HETATM    8  N1  UNL     1       2.567   1.297  -0.313  1.00  0.00    -0.086 NA
HETATM    9  N2  UNL     1       4.678   0.526   0.485  1.00  0.00    -0.086 NA
ENDBRANCH   5   6
ENDBRANCH   1   5
BRANCH   3  10
HETATM   10  C5  UNL     1      -2.064  -0.588  -0.802  1.00  0.00     0.213 C 
HETATM   11  C6  UNL     1      -3.111  -0.450   0.256  1.00  0.00     0.044 C 
HETATM   12  C7  UNL     1      -3.207   1.051   0.435  1.00  0.00     0.029 C 
HETATM   13  C8  UNL     1      -2.712   1.544  -0.907  1.00  0.00     0.168 C 
HETATM   14  O2  UNL     1      -1.643   0.688  -1.146  1.00  0.00    -0.376 OA
ENDBRANCH   3  10
TORSDOF 3
