REMARK  5 active torsions:
REMARK  status: ('A' for Active; 'I' for Inactive)
REMARK    1  A    between atoms: C1_2  and  C2_3 
REMARK    2  A    between atoms: C2_3  and  N1_4 
REMARK    3  A    between atoms: C2_3  and  C8_12 
REMARK    4  A    between atoms: N1_4  and  N2_6 
REMARK    5  A    between atoms: N2_6  and  C3_7 
ROOT
HETATM    1  N1  UNL     1       0.711   0.280   0.595  1.00  0.00    -0.295 N 
ATOM      2  H1  UNL     1       0.203   0.418   1.469  1.00  0.00     0.182 HD
ENDROOT
BRANCH   1   3
HETATM    3  C2  UNL     1       2.080   0.633   0.353  1.00  0.00     0.159 C 
BRANCH   3   4
HETATM    4  C1  UNL     1       2.316   1.510  -0.785  1.00  0.00     0.296 C 
HETATM    5  O1  UNL     1       1.794   2.631  -0.978  1.00  0.00    -0.300 OA
ENDBRANCH   3   4
BRANCH   3   6
HETATM    6  C8  UNL     1       3.092  -0.306   0.748  1.00  0.00     0.231 C 
HETATM    7  O2  UNL     1       3.976   0.017   1.659  1.00  0.00    -0.643 OA
HETATM    8  O3  UNL     1       3.156  -1.597   0.197  1.00  0.00    -0.643 OA
ENDBRANCH   3   6
ENDBRANCH   1   3
BRANCH   1   9
HETATM    9  N2  UNL     1       0.177  -0.304  -0.611  1.00  0.00    -0.132 NA
BRANCH   9  10
HETATM   10  C3  UNL     1      -0.976  -1.063  -0.205  1.00  0.00     0.122 C 
HETATM   11  C4  UNL     1      -1.568  -0.506   1.026  1.00  0.00    -0.008 C 
HETATM   12  C5  UNL     1      -2.588   0.220   0.814  1.00  0.00    -0.029 C 
HETATM   13  C6  UNL     1      -2.905   0.332  -0.635  1.00  0.00     0.029 C 
HETATM   14  C7  UNL     1      -2.126  -0.821  -1.180  1.00  0.00     0.031 C 
ENDBRANCH   9  10
ENDBRANCH   1   9
TORSDOF 5
