REMARK  5 active torsions:
REMARK  status: ('A' for Active; 'I' for Inactive)
REMARK    1  A    between atoms: C1_2  and  C2_4 
REMARK    2  A    between atoms: C5_7  and  C6_8 
REMARK    3  A    between atoms: C6_8  and  C7_9 
REMARK    4  A    between atoms: C7_9  and  N2_10 
REMARK    5  A    between atoms: C7_9  and  C8_14 
ROOT
HETATM    1  C2  UNL     1       1.750   0.263  -0.148  1.00  0.00     0.140 A 
HETATM    2  C3  UNL     1       1.308   0.364  -1.451  1.00  0.00     0.045 A 
HETATM    3  C4  UNL     1      -0.026   0.681  -1.413  1.00  0.00     0.036 A 
HETATM    4  C5  UNL     1      -0.361   0.765  -0.070  1.00  0.00     0.056 A 
HETATM    5  O3  UNL     1       0.713   0.512   0.609  1.00  0.00    -0.310 OA
ENDROOT
BRANCH   4   6
HETATM    6  C6  UNL     1      -1.719   1.090   0.456  1.00  0.00     0.105 C 
BRANCH   6   7
HETATM    7  C7  UNL     1      -2.527  -0.179   0.646  1.00  0.00     0.250 C 
BRANCH   7   8
HETATM    8  N2  UNL     1      -1.882  -1.076   1.585  1.00  0.00    -0.069 N 
ATOM      9  H23 UNL     1      -0.922  -1.281   1.309  1.00  0.00     0.275 HD
ATOM     10  H22 UNL     1      -1.693  -0.615   2.475  1.00  0.00     0.275 HD
ATOM     11  H21 UNL     1      -2.426  -1.930   1.713  1.00  0.00     0.275 HD
ENDBRANCH   7   8
BRANCH   7  12
HETATM   12  C8  UNL     1      -2.695  -0.885  -0.648  1.00  0.00     0.264 C 
HETATM   13  O2  UNL     1      -2.308  -2.032  -0.767  1.00  0.00    -0.305 OA
ENDBRANCH   7  12
ENDBRANCH   6   7
ENDBRANCH   4   6
BRANCH   1  14
HETATM   14  C1  UNL     1       3.116  -0.061   0.242  1.00  0.00     0.288 C 
HETATM   15  N1  UNL     1       4.115  -0.302  -0.737  1.00  0.00    -0.055 NA
HETATM   16  O1  UNL     1       3.467  -0.141   1.446  1.00  0.00    -0.269 OA
ENDBRANCH   1  14
TORSDOF 5
