REMARK  4 active torsions:
REMARK  status: ('A' for Active; 'I' for Inactive)
REMARK    1  A    between atoms: C5_7  and  N2_8 
REMARK    2  A    between atoms: C6_10  and  N3_11 
REMARK    3  A    between atoms: N3_11  and  N4_13 
REMARK    4  A    between atoms: C7_16  and  C8_17 
ROOT
HETATM    1  C1  UNL     1      -2.852   0.812  -0.681  1.00  0.00     0.069 C 
HETATM    2  C2  UNL     1      -1.508   0.951  -0.075  1.00  0.00     0.022 A 
HETATM    3  N1  UNL     1      -0.995   2.198   0.119  1.00  0.00    -0.369 N 
ATOM      4  H1  UNL     1      -1.558   3.001  -0.162  1.00  0.00     0.165 HD
HETATM    5  C3  UNL     1       0.210   2.427   0.659  1.00  0.00     0.090 A 
HETATM    6  C4  UNL     1       1.016   1.382   1.058  1.00  0.00     0.047 A 
HETATM    7  C5  UNL     1       0.530   0.111   0.877  1.00  0.00     0.051 A 
HETATM    8  C7  UNL     1      -0.736  -0.112   0.309  1.00  0.00     0.078 A 
ENDROOT
BRANCH   7   9
HETATM    9  N2  UNL     1       1.344  -0.985   1.281  1.00  0.00    -0.350 N 
HETATM   10  C6  UNL     1       2.541  -1.144   0.789  1.00  0.00     0.197 C 
ATOM     11  H2  UNL     1       0.987  -1.654   1.963  1.00  0.00     0.166 HD
BRANCH  10  12
HETATM   12  N3  UNL     1       3.014  -0.198  -0.160  1.00  0.00    -0.303 N 
ATOM     13  H3  UNL     1       3.664   0.530   0.136  1.00  0.00     0.187 HD
BRANCH  12  14
HETATM   14  N4  UNL     1       2.598  -0.253  -1.496  1.00  0.00    -0.344 N 
ATOM     15  H42 UNL     1       1.947  -0.987  -1.775  1.00  0.00     0.176 HD
ATOM     16  H41 UNL     1       2.938   0.426  -2.177  1.00  0.00     0.176 HD
ENDBRANCH  12  14
ENDBRANCH  10  12
ENDBRANCH   7   9
BRANCH   8  17
HETATM   17  C8  UNL     1      -1.202  -1.481   0.142  1.00  0.00     0.269 C 
HETATM   18  N5  UNL     1      -2.434  -1.868  -0.404  1.00  0.00    -0.057 NA
HETATM   19  O1  UNL     1      -0.407  -2.402   0.529  1.00  0.00    -0.271 OA
ENDBRANCH   8  17
TORSDOF 4
