REMARK  7 active torsions:
REMARK  status: ('A' for Active; 'I' for Inactive)
REMARK    1  A    between atoms: C2_2  and  C3_3 
REMARK    2  A    between atoms: C3_3  and  N1_4 
REMARK    3  A    between atoms: C3_3  and  C4_8 
REMARK    4  A    between atoms: C4_8  and  C5_10 
REMARK    5  A    between atoms: C5_10  and  C6_11 
REMARK    6  A    between atoms: C6_11  and  N2_12 
REMARK    7  A    between atoms: C6_11  and  N3_16 
ROOT
HETATM    1  C5  UNL     1      -0.763  -0.179   0.446  1.00  0.00     0.076 C 
HETATM    2  C7  UNL     1      -0.571   1.269   0.821  1.00  0.00     0.021 C 
HETATM    3  C8  UNL     1      -0.567   0.791   2.283  1.00  0.00     0.002 C 
HETATM    4  C9  UNL     1      -1.521  -0.309   1.793  1.00  0.00     0.021 C 
ENDROOT
BRANCH   1   5
HETATM    5  C4  UNL     1       0.507  -0.914   0.436  1.00  0.00     0.173 C 
HETATM    6  O1  UNL     1       0.670  -1.713   1.377  1.00  0.00    -0.294 OA
BRANCH   5   7
HETATM    7  C3  UNL     1       1.566  -0.808  -0.538  1.00  0.00     0.275 C 
BRANCH   7   8
HETATM    8  C2  UNL     1       2.332   0.470  -0.553  1.00  0.00     0.003 C 
HETATM    9  C1  UNL     1       2.692   1.130  -1.626  1.00  0.00     0.009 C 
ENDBRANCH   7   8
BRANCH   7  10
HETATM   10  N1  UNL     1       2.575  -1.875  -0.306  1.00  0.00    -0.065 N 
ATOM     11  H13 UNL     1       3.343  -1.866  -0.977  1.00  0.00     0.275 HD
ATOM     12  H12 UNL     1       3.142  -1.728   0.529  1.00  0.00     0.275 HD
ATOM     13  H11 UNL     1       2.051  -2.750  -0.296  1.00  0.00     0.275 HD
ENDBRANCH   7  10
ENDBRANCH   5   7
ENDBRANCH   1   5
BRANCH   1  14
HETATM   14  C6  UNL     1      -1.701  -0.371  -0.721  1.00  0.00     0.393 C 
BRANCH  14  15
HETATM   15  N2  UNL     1      -1.150   0.014  -1.973  1.00  0.00    -0.049 N 
ATOM     16  H23 UNL     1      -0.816   0.977  -1.937  1.00  0.00     0.276 HD
ATOM     17  H22 UNL     1      -0.267  -0.469  -2.140  1.00  0.00     0.276 HD
ATOM     18  H21 UNL     1      -1.784  -0.116  -2.762  1.00  0.00     0.276 HD
ENDBRANCH  14  15
BRANCH  14  19
HETATM   19  N3  UNL     1      -2.863   0.481  -0.455  1.00  0.00    -0.049 N 
ATOM     20  H33 UNL     1      -3.299   0.302   0.450  1.00  0.00     0.276 HD
ATOM     21  H32 UNL     1      -2.620   1.457  -0.286  1.00  0.00     0.276 HD
ATOM     22  H31 UNL     1      -3.497   0.351  -1.244  1.00  0.00     0.276 HD
ENDBRANCH  14  19
ENDBRANCH   1  14
TORSDOF 7
