REMARK  4 active torsions:
REMARK  status: ('A' for Active; 'I' for Inactive)
REMARK    1  A    between atoms: C1_2  and  C2_4 
REMARK    2  A    between atoms: C2_4  and  C3_5 
REMARK    3  A    between atoms: C3_5  and  N2_6 
REMARK    4  A    between atoms: C3_5  and  C4_10 
ROOT
HETATM    1  C3  UNL     1      -0.748   0.045   0.924  1.00  0.00     0.214 C 
ENDROOT
BRANCH   1   2
HETATM    2  C2  UNL     1      -1.459   0.512  -0.311  1.00  0.00     0.134 C 
BRANCH   2   3
HETATM    3  C1  UNL     1      -2.831   0.922   0.095  1.00  0.00     0.233 C 
HETATM    4  N1  UNL     1      -3.968   0.117  -0.144  1.00  0.00    -0.062 NA
HETATM    5  O1  UNL     1      -2.942   2.033   0.670  1.00  0.00    -0.277 OA
ENDBRANCH   2   3
ENDBRANCH   1   2
BRANCH   1   6
HETATM    6  N2  UNL     1      -1.484  -1.074   1.477  1.00  0.00    -0.073 N 
ATOM      7  H23 UNL     1      -2.465  -0.853   1.648  1.00  0.00     0.274 HD
ATOM      8  H22 UNL     1      -1.628  -1.823   0.800  1.00  0.00     0.274 HD
ATOM      9  H21 UNL     1      -1.000  -1.392   2.317  1.00  0.00     0.274 HD
ENDBRANCH   1   6
BRANCH   1  10
HETATM   10  C4  UNL     1       0.711  -0.280   0.666  1.00  0.00     0.116 C 
HETATM   11  C5  UNL     1       0.896  -1.351  -0.344  1.00  0.00     0.100 C 
HETATM   12  S1  UNL     1       2.695  -1.709  -0.433  1.00  0.00    -0.165 SA
HETATM   13  C6  UNL     1       3.472  -0.054  -0.468  1.00  0.00     0.093 C 
HETATM   14  C7  UNL     1       2.346   0.943  -0.623  1.00  0.00     0.124 C 
HETATM   15  N3  UNL     1       1.400   0.934   0.425  1.00  0.00    -0.414 N 
ATOM     16  H3  UNL     1       1.220   1.767   0.985  1.00  0.00     0.153 HD
ENDBRANCH   1  10
TORSDOF 4
