REMARK  4 active torsions:
REMARK  status: ('A' for Active; 'I' for Inactive)
REMARK    1  A    between atoms: C1_2  and  C2_4 
REMARK    2  A    between atoms: C2_4  and  N2_5 
REMARK    3  A    between atoms: C2_4  and  C3_9 
REMARK    4  A    between atoms: C3_9  and  C4_10 
ROOT
HETATM    1  C3  UNL     1       0.515   0.417   0.067  1.00  0.00     0.082 C 
ENDROOT
BRANCH   1   2
HETATM    2  C2  UNL     1       1.510  -0.591  -0.440  1.00  0.00     0.276 C 
BRANCH   2   3
HETATM    3  C1  UNL     1       2.762   0.155  -0.691  1.00  0.00     0.262 C 
HETATM    4  N1  UNL     1       3.527   0.635   0.405  1.00  0.00    -0.060 NA
HETATM    5  O1  UNL     1       3.143   0.357  -1.856  1.00  0.00    -0.275 OA
ENDBRANCH   2   3
BRANCH   2   6
HETATM    6  N2  UNL     1       1.046  -1.085  -1.726  1.00  0.00    -0.067 N 
ATOM      7  H23 UNL     1       0.941  -0.349  -2.424  1.00  0.00     0.275 HD
ATOM      8  H22 UNL     1       1.748  -1.635  -2.221  1.00  0.00     0.275 HD
ATOM      9  H21 UNL     1       0.182  -1.600  -1.553  1.00  0.00     0.275 HD
ENDBRANCH   2   6
ENDBRANCH   1   2
BRANCH   1  10
HETATM   10  C4  UNL     1      -0.802  -0.118   0.395  1.00  0.00    -0.029 A 
HETATM   11  C5  UNL     1      -1.040  -1.411   0.797  1.00  0.00     0.026 A 
HETATM   12  C6  UNL     1      -2.275  -1.917   1.103  1.00  0.00     0.088 A 
HETATM   13  N3  UNL     1      -3.336  -1.067   0.993  1.00  0.00    -0.373 N 
HETATM   14  C7  UNL     1      -3.146   0.202   0.603  1.00  0.00     0.114 A 
ATOM     15  H3  UNL     1      -4.277  -1.397   1.208  1.00  0.00     0.164 HD
HETATM   16  C8  UNL     1      -1.896   0.724   0.294  1.00  0.00     0.068 A 
HETATM   17  N4  UNL     1      -1.758   2.082  -0.103  1.00  0.00    -0.100 NA
ENDBRANCH   1  10
TORSDOF 4
