REMARK  4 active torsions:
REMARK  status: ('A' for Active; 'I' for Inactive)
REMARK    1  A    between atoms: C1_2  and  N1_3 
REMARK    2  A    between atoms: N1_3  and  C2_5 
REMARK    3  A    between atoms: C2_5  and  C3_6 
REMARK    4  A    between atoms: C2_5  and  C4_9 
ROOT
HETATM    1  C2  UNL     1      -0.915  -0.253   0.182  1.00  0.00     0.216 C 
ENDROOT
BRANCH   1   2
HETATM    2  N1  UNL     1      -1.065   0.839  -0.742  1.00  0.00    -0.351 N 
ATOM      3  H1  UNL     1      -0.718   0.725  -1.694  1.00  0.00     0.162 HD
BRANCH   2   4
HETATM    4  C1  UNL     1      -1.681   2.078  -0.381  1.00  0.00     0.349 C 
HETATM    5  O1  UNL     1      -2.134   2.298   0.764  1.00  0.00    -0.284 OA
ENDBRANCH   2   4
ENDBRANCH   1   2
BRANCH   1   6
HETATM    6  C3  UNL     1      -1.741  -1.428  -0.210  1.00  0.00     0.199 C 
HETATM    7  O2  UNL     1      -2.470  -1.430  -1.231  1.00  0.00    -0.646 OA
HETATM    8  O3  UNL     1      -1.728  -2.579   0.561  1.00  0.00    -0.646 OA
ENDBRANCH   1   6
BRANCH   1   9
HETATM    9  C4  UNL     1       0.530  -0.607   0.342  1.00  0.00     0.184 C 
HETATM   10  C5  UNL     1       1.305   0.633   0.689  1.00  0.00     0.160 C 
HETATM   11  N2  UNL     1       2.620   0.413   0.121  1.00  0.00    -0.334 N 
HETATM   12  C6  UNL     1       2.476  -0.606  -0.850  1.00  0.00     0.361 C 
ATOM     13  H2  UNL     1       3.481   0.898   0.372  1.00  0.00     0.164 HD
HETATM   14  O4  UNL     1       3.397  -1.081  -1.559  1.00  0.00    -0.239 OA
HETATM   15  O5  UNL     1       1.125  -0.998  -0.888  1.00  0.00    -0.294 OA
ENDBRANCH   1   9
TORSDOF 4
