REMARK  4 active torsions:
REMARK  status: ('A' for Active; 'I' for Inactive)
REMARK    1  A    between atoms: C2_2  and  C4_4 
REMARK    2  A    between atoms: C4_4  and  C5_5 
REMARK    3  A    between atoms: C5_5  and  N1_6 
REMARK       I    between atoms: N1_6  and  C6_8 
REMARK       I    between atoms: C6_8  and  N2_10 
REMARK    4  A    between atoms: N2_10  and  C7_12 
ROOT
HETATM    1  C7  UNL     1      -1.490   0.431  -0.201  1.00  0.00     0.037 C 
HETATM    2  C8  UNL     1      -1.382  -1.024   0.080  1.00  0.00     0.035 C 
HETATM    3  C9  UNL     1      -2.752  -1.580   0.410  1.00  0.00    -0.010 C 
HETATM    4  C10 UNL     1      -3.273  -0.841   1.624  1.00  0.00     0.009 C 
HETATM    5  C11 UNL     1      -3.461   0.615   1.272  1.00  0.00    -0.010 C 
HETATM    6  C12 UNL     1      -4.360   0.815   0.079  1.00  0.00     0.030 C 
HETATM    7  C13 UNL     1      -3.795   0.039  -1.091  1.00  0.00     0.040 C 
HETATM    8 CL1  UNL     1      -4.853   0.306  -2.476  1.00  0.00    -0.119 Cl
HETATM    9  C14 UNL     1      -3.741  -1.421  -0.695  1.00  0.00     0.030 C 
HETATM   10  C15 UNL     1      -2.434   0.597  -1.388  1.00  0.00     0.056 C 
HETATM   11  C16 UNL     1      -2.100   1.185   0.967  1.00  0.00     0.035 C 
ENDROOT
BRANCH   1  12
HETATM   12  N2  UNL     1      -0.213   0.964  -0.557  1.00  0.00    -0.334 N 
HETATM   13  C6  UNL     1       0.947   0.969   0.268  1.00  0.00     0.316 C 
HETATM   14  N1  UNL     1       2.139   1.534  -0.240  1.00  0.00    -0.343 N 
HETATM   15  O1  UNL     1       0.825   0.463   1.402  1.00  0.00    -0.247 OA
ATOM     16  H1  UNL     1       2.146   1.934  -1.178  1.00  0.00     0.164 HD
ATOM     17  H2  UNL     1      -0.125   1.378  -1.485  1.00  0.00     0.165 HD
BRANCH  14  18
HETATM   18  C5  UNL     1       3.336   1.553   0.545  1.00  0.00     0.125 C 
BRANCH  18  19
HETATM   19  C4  UNL     1       3.783   0.173   0.867  1.00  0.00     0.023 C 
BRANCH  19  20
HETATM   20  C2  UNL     1       4.059  -0.622  -0.414  1.00  0.00    -0.021 C 
HETATM   21  C1  UNL     1       4.503  -1.998   0.022  1.00  0.00     0.009 C 
HETATM   22  C3  UNL     1       5.154   0.061  -1.208  1.00  0.00     0.009 C 
ENDBRANCH  19  20
ENDBRANCH  18  19
ENDBRANCH  14  18
ENDBRANCH   1  12
TORSDOF 4
