REMARK  3 active torsions:
REMARK  status: ('A' for Active; 'I' for Inactive)
REMARK    1  A    between atoms: C2_2  and  C4_4 
REMARK    2  A    between atoms: C4_4  and  N1_5 
REMARK       I    between atoms: N1_5  and  C5_7 
REMARK       I    between atoms: C5_7  and  N2_9 
REMARK    3  A    between atoms: N2_9  and  C6_11 
ROOT
HETATM    1  C6  UNL     1      -1.062  -0.331   0.454  1.00  0.00     0.037 C 
HETATM    2  C7  UNL     1      -1.448   1.106   0.567  1.00  0.00     0.035 C 
HETATM    3  C8  UNL     1      -2.927   1.355   0.690  1.00  0.00    -0.010 C 
HETATM    4  C9  UNL     1      -3.585   1.569  -0.645  1.00  0.00     0.005 C 
HETATM    5  C10 UNL     1      -3.341   0.555  -1.667  1.00  0.00     0.005 C 
HETATM    6  C11 UNL     1      -2.884  -0.788  -1.210  1.00  0.00    -0.010 C 
HETATM    7  C12 UNL     1      -3.728  -1.393  -0.132  1.00  0.00     0.030 C 
HETATM    8  C13 UNL     1      -3.273  -1.062   1.246  1.00  0.00     0.040 C 
HETATM    9 CL1  UNL     1      -4.132  -2.101   2.404  1.00  0.00    -0.119 Cl
HETATM   10  C14 UNL     1      -3.654   0.365   1.550  1.00  0.00     0.030 C 
HETATM   11  C15 UNL     1      -1.806  -1.203   1.456  1.00  0.00     0.056 C 
HETATM   12  C16 UNL     1      -1.400  -0.834  -0.905  1.00  0.00     0.035 C 
ENDROOT
BRANCH   1  13
HETATM   13  N2  UNL     1       0.359  -0.460   0.667  1.00  0.00    -0.334 N 
HETATM   14  C5  UNL     1       1.377   0.144  -0.094  1.00  0.00     0.316 C 
HETATM   15  N1  UNL     1       2.755  -0.032   0.178  1.00  0.00    -0.343 N 
HETATM   16  O1  UNL     1       1.080   0.879  -1.066  1.00  0.00    -0.247 OA
ATOM     17  H1  UNL     1       3.033  -0.623   0.961  1.00  0.00     0.164 HD
ATOM     18  H2  UNL     1       0.655  -1.047   1.447  1.00  0.00     0.165 HD
BRANCH  15  19
HETATM   19  C4  UNL     1       3.782   0.603  -0.623  1.00  0.00     0.128 C 
BRANCH  19  20
HETATM   20  C2  UNL     1       5.160   0.276  -0.153  1.00  0.00    -0.005 C 
HETATM   21  C1  UNL     1       5.350  -1.225  -0.232  1.00  0.00     0.011 C 
HETATM   22  C3  UNL     1       6.140   1.003  -1.064  1.00  0.00     0.011 C 
ENDBRANCH  19  20
ENDBRANCH  15  19
ENDBRANCH   1  13
TORSDOF 3
