REMARK  4 active torsions:
REMARK  status: ('A' for Active; 'I' for Inactive)
REMARK    1  A    between atoms: C2_2  and  C4_4 
REMARK    2  A    between atoms: C4_4  and  C5_5 
REMARK    3  A    between atoms: C5_5  and  N1_7 
REMARK       I    between atoms: N1_7  and  C6_9 
REMARK       I    between atoms: C6_9  and  N2_11 
REMARK    4  A    between atoms: N2_11  and  C7_13 
ROOT
HETATM    1  N1  UNL     1      -1.656   0.105   0.997  1.00  0.00    -0.329 N 
ATOM      2  H1  UNL     1      -1.706   1.121   0.918  1.00  0.00     0.165 HD
HETATM    3  C6  UNL     1      -0.385  -0.516   0.980  1.00  0.00     0.317 C 
HETATM    4  O1  UNL     1      -0.306  -1.756   1.079  1.00  0.00    -0.247 OA
HETATM    5  N2  UNL     1       0.788   0.252   0.853  1.00  0.00    -0.339 N 
ATOM      6  H2  UNL     1       0.694   1.264   0.770  1.00  0.00     0.164 HD
ENDROOT
BRANCH   1   7
HETATM    7  C5  UNL     1      -2.894  -0.646   1.122  1.00  0.00     0.159 C 
HETATM    8 BR1  UNL     1      -3.582  -0.284   2.930  1.00  0.00    -0.069 Br
BRANCH   7   9
HETATM    9  C4  UNL     1      -3.975  -0.217   0.187  1.00  0.00     0.040 C 
BRANCH   9  10
HETATM   10  C2  UNL     1      -3.711  -0.389  -1.264  1.00  0.00    -0.020 C 
HETATM   11  C1  UNL     1      -4.945   0.100  -2.040  1.00  0.00     0.009 C 
HETATM   12  C3  UNL     1      -2.555   0.414  -1.805  1.00  0.00     0.009 C 
ENDBRANCH   9  10
ENDBRANCH   7   9
ENDBRANCH   1   7
BRANCH   5  13
HETATM   13  C7  UNL     1       2.124  -0.317   0.834  1.00  0.00     0.086 C 
HETATM   14  C8  UNL     1       3.036   0.412   1.770  1.00  0.00     0.025 C 
HETATM   15  C9  UNL     1       4.205   1.044   1.092  1.00  0.00     0.002 C 
HETATM   16  C10 UNL     1       4.987   0.046   0.267  1.00  0.00     0.000 C 
HETATM   17  C11 UNL     1       4.023  -0.745  -0.610  1.00  0.00     0.002 C 
HETATM   18  C12 UNL     1       2.664  -0.099  -0.584  1.00  0.00     0.025 C 
ENDBRANCH   5  13
TORSDOF 4
