REMARK  9 active torsions:
REMARK  status: ('A' for Active; 'I' for Inactive)
REMARK    1  A    between atoms: C2_2  and  C23_32 
REMARK    2  A    between atoms: C3_3  and  C4_4 
REMARK    3  A    between atoms: C5_5  and  C6_6 
REMARK    4  A    between atoms: C7_7  and  O1_9 
REMARK    5  A    between atoms: C10_12  and  C11_13 
REMARK    6  A    between atoms: C11_13  and  C12_14 
REMARK    7  A    between atoms: C14_19  and  C15_20 
REMARK    8  A    between atoms: N2_21  and  O2_23 
REMARK    9  A    between atoms: C23_32  and  O3_33 
ROOT
HETATM    1  C6  UNL     1       0.810   0.376   0.464  1.00  0.00     0.054 C 
HETATM    2  C7  UNL     1       0.525   1.609   1.216  1.00  0.00     0.063 C 
HETATM    3  C8  UNL     1       0.920   1.356   2.680  1.00  0.00     0.046 C 
HETATM    4  C9  UNL     1      -0.835   2.175   1.201  1.00  0.00     0.047 C 
HETATM    5  C10 UNL     1      -1.962   1.174   1.028  1.00  0.00     0.024 C 
HETATM    6  C13 UNL     1      -1.524  -0.108   0.456  1.00  0.00    -0.054 C 
HETATM    7  C14 UNL     1      -2.697  -0.933   0.030  1.00  0.00    -0.013 C 
HETATM    8  C16 UNL     1      -2.925  -1.489  -1.115  1.00  0.00    -0.072 C 
HETATM    9  C17 UNL     1      -4.169  -2.254  -1.287  1.00  0.00     0.044 C 
HETATM   10  C18 UNL     1      -2.083  -1.507  -2.350  1.00  0.00     0.034 C 
HETATM   11  C19 UNL     1      -0.681  -1.887  -2.150  1.00  0.00     0.005 C 
HETATM   12  C20 UNL     1      -0.035  -1.449  -0.877  1.00  0.00     0.015 C 
HETATM   13  C21 UNL     1      -0.359  -0.058  -0.453  1.00  0.00    -0.010 C 
HETATM   14  C22 UNL     1      -0.360   0.936  -1.556  1.00  0.00     0.021 C 
ENDROOT
BRANCH   1  15
HETATM   15  C5  UNL     1       2.009   0.509  -0.374  1.00  0.00    -0.018 C 
HETATM   16  C4  UNL     1       3.080  -0.212  -0.121  1.00  0.00    -0.003 C 
BRANCH  16  17
HETATM   17  C3  UNL     1       4.297  -0.123  -0.916  1.00  0.00     0.004 C 
HETATM   18  C2  UNL     1       5.331  -0.872  -0.609  1.00  0.00    -0.061 C 
HETATM   19  C1  UNL     1       5.263  -1.812   0.548  1.00  0.00     0.045 C 
BRANCH  18  20
HETATM   20  C23 UNL     1       6.571  -0.781  -1.420  1.00  0.00     0.198 C 
BRANCH  20  21
HETATM   21  O3  UNL     1       7.674  -0.393  -0.673  1.00  0.00    -0.397 OA
ATOM     22  H3  UNL     1       8.468  -0.335  -1.192  1.00  0.00     0.209 HD
ENDBRANCH  20  21
ENDBRANCH  18  20
ENDBRANCH  16  17
ENDBRANCH   1  15
BRANCH   2  23
HETATM   23  O1  UNL     1       1.409   2.635   0.794  1.00  0.00    -0.390 OA
ATOM     24  H1  UNL     1       1.225   3.431   1.279  1.00  0.00     0.210 HD
ENDBRANCH   2  23
BRANCH   5  25
HETATM   25  C11 UNL     1      -3.103   1.888   0.377  1.00  0.00     0.053 C 
BRANCH  25  26
HETATM   26  C12 UNL     1      -3.578   3.040   1.238  1.00  0.00     0.053 C 
HETATM   27  N1  UNL     1      -3.133   4.219   1.055  1.00  0.00    -0.411 N 
ATOM     28  H12 UNL     1      -2.448   4.373   0.315  1.00  0.00     0.155 HD
ATOM     29  H11 UNL     1      -3.453   4.995   1.635  1.00  0.00     0.155 HD
ENDBRANCH  25  26
ENDBRANCH   5  25
BRANCH   7  30
HETATM   30  C15 UNL     1      -3.619  -1.115   1.108  1.00  0.00     0.125 C 
HETATM   31  N2  UNL     1      -4.689  -1.777   1.106  1.00  0.00    -0.280 N 
ATOM     32  H2  UNL     1      -4.929  -2.241   0.230  1.00  0.00     0.193 HD
BRANCH  31  33
HETATM   33  O2  UNL     1      -5.568  -1.947   2.141  1.00  0.00    -0.290 OA
ATOM     34  H2  UNL     1      -6.376  -2.447   2.139  1.00  0.00     0.244 HD
ENDBRANCH  31  33
ENDBRANCH   7  30
TORSDOF 9
