REMARK  9 active torsions:
REMARK  status: ('A' for Active; 'I' for Inactive)
REMARK    1  A    between atoms: C2_2  and  C4_4 
REMARK    2  A    between atoms: C4_4  and  C5_5 
REMARK    3  A    between atoms: C5_5  and  C6_6 
REMARK    4  A    between atoms: C7_7  and  O1_8 
REMARK    5  A    between atoms: C8_10  and  C9_11 
REMARK    6  A    between atoms: C9_11  and  O2_13 
REMARK    7  A    between atoms: C9_11  and  C11_15 
REMARK    8  A    between atoms: C11_15  and  C12_16 
REMARK    9  A    between atoms: C12_16  and  C13_17 
ROOT
HETATM    1  C6  UNL     1      -1.818  -0.686   0.286  1.00  0.00    -0.013 A 
HETATM    2  C7  UNL     1      -0.566  -1.151  -0.055  1.00  0.00     0.098 A 
HETATM    3  C8  UNL     1       0.507  -0.280   0.105  1.00  0.00     0.078 A 
HETATM    4  N1  UNL     1       0.326   0.963   0.573  1.00  0.00    -0.358 N 
ATOM      5  H1  UNL     1       1.139   1.570   0.675  1.00  0.00     0.165 HD
HETATM    6  C17 UNL     1      -0.879   1.442   0.912  1.00  0.00     0.021 A 
HETATM    7  C18 UNL     1      -1.985   0.640   0.781  1.00  0.00    -0.003 A 
HETATM    8  C19 UNL     1      -3.352   1.086   1.127  1.00  0.00     0.210 C 
HETATM    9  O3  UNL     1      -3.312   2.292   1.765  1.00  0.00    -0.376 OA
HETATM   10  C20 UNL     1      -2.493   3.252   1.229  1.00  0.00     0.059 C 
HETATM   11  C21 UNL     1      -2.732   4.546   1.981  1.00  0.00     0.046 C 
HETATM   12  C22 UNL     1      -2.789   3.518  -0.235  1.00  0.00     0.046 C 
HETATM   13  C23 UNL     1      -1.046   2.834   1.425  1.00  0.00     0.095 C 
ENDROOT
BRANCH   3  14
HETATM   14  C9  UNL     1       1.849  -0.730  -0.267  1.00  0.00     0.099 C 
HETATM   15  C10 UNL     1       1.934  -0.969  -1.744  1.00  0.00     0.053 C 
BRANCH  14  16
HETATM   16  O2  UNL     1       2.228  -1.856   0.459  1.00  0.00    -0.384 OA
ATOM     17  H2  UNL     1       3.099  -2.148   0.218  1.00  0.00     0.211 HD
ENDBRANCH  14  16
BRANCH  14  18
HETATM   18  C11 UNL     1       2.914   0.323   0.103  1.00  0.00     0.045 C 
BRANCH  18  19
HETATM   19  C12 UNL     1       4.239  -0.254  -0.322  1.00  0.00     0.011 C 
BRANCH  19  20
HETATM   20  C13 UNL     1       5.404   0.635  -0.040  1.00  0.00    -0.051 C 
HETATM   21  C14 UNL     1       5.578   0.960   1.416  1.00  0.00     0.014 C 
HETATM   22  C15 UNL     1       6.663  -0.071  -0.501  1.00  0.00     0.014 C 
HETATM   23  C16 UNL     1       5.333   1.938  -0.831  1.00  0.00     0.014 C 
ENDBRANCH  19  20
ENDBRANCH  18  19
ENDBRANCH  14  18
ENDBRANCH   3  14
BRANCH   2  24
HETATM   24  O1  UNL     1      -0.411  -2.425  -0.528  1.00  0.00    -0.358 OA
ATOM     25  H1  UNL     1       0.452  -2.745  -0.763  1.00  0.00     0.217 HD
ENDBRANCH   2  24
BRANCH   1  26
HETATM   26  C5  UNL     1      -3.057  -1.477   0.168  1.00  0.00     0.042 C 
BRANCH  26  27
HETATM   27  C4  UNL     1      -2.975  -2.808  -0.457  1.00  0.00     0.008 C 
BRANCH  27  28
HETATM   28  C2  UNL     1      -4.329  -3.506  -0.533  1.00  0.00    -0.023 C 
HETATM   29  C1  UNL     1      -5.327  -2.733  -1.330  1.00  0.00     0.009 C 
HETATM   30  C3  UNL     1      -4.092  -4.841  -1.214  1.00  0.00     0.009 C 
ENDBRANCH  27  28
ENDBRANCH  26  27
ENDBRANCH   1  26
TORSDOF 9
