REMARK  9 active torsions:
REMARK  status: ('A' for Active; 'I' for Inactive)
REMARK    1  A    between atoms: C4_4  and  C5_5 
REMARK    2  A    between atoms: C5_5  and  C6_6 
REMARK    3  A    between atoms: C7_7  and  O1_8 
REMARK    4  A    between atoms: C8_11  and  O3_12 
REMARK    5  A    between atoms: C9_14  and  C10_15 
REMARK    6  A    between atoms: C10_15  and  C11_16 
REMARK    7  A    between atoms: C11_16  and  C12_17 
REMARK    8  A    between atoms: C18_23  and  C20_25 
REMARK    9  A    between atoms: C20_25  and  O4_27 
ROOT
HETATM    1  C10 UNL     1       0.657  -0.432  -0.855  1.00  0.00     0.045 C 
ENDROOT
BRANCH   1   2
HETATM    2  C9  UNL     1       1.752  -1.404  -0.673  1.00  0.00     0.012 A 
HETATM    3  C6  UNL     1       3.003  -1.164  -0.200  1.00  0.00     0.015 A 
HETATM    4  C7  UNL     1       3.650  -2.394  -0.199  1.00  0.00     0.192 A 
HETATM    5  O2  UNL     1       2.825  -3.318  -0.648  1.00  0.00    -0.264 OA
HETATM    6  C8  UNL     1       1.692  -2.773  -0.940  1.00  0.00     0.192 A 
BRANCH   3   7
HETATM    7  C5  UNL     1       3.605   0.109   0.221  1.00  0.00     0.071 C 
BRANCH   7   8
HETATM    8  C4  UNL     1       4.545   0.653  -0.800  1.00  0.00    -0.020 C 
HETATM    9  C2  UNL     1       5.814   0.902  -0.559  1.00  0.00    -0.091 C 
HETATM   10  C1  UNL     1       6.386   0.644   0.785  1.00  0.00     0.042 C 
HETATM   11  C3  UNL     1       6.712   1.444  -1.608  1.00  0.00     0.042 C 
ENDBRANCH   7   8
ENDBRANCH   3   7
BRANCH   4  12
HETATM   12  O1  UNL     1       4.939  -2.711   0.188  1.00  0.00    -0.340 OA
ATOM     13  H1  UNL     1       5.381  -3.552   0.189  1.00  0.00     0.220 HD
ENDBRANCH   4  12
BRANCH   6  14
HETATM   14  O3  UNL     1       0.568  -3.407  -1.441  1.00  0.00    -0.340 OA
ATOM     15  H3  UNL     1      -0.266  -3.006  -1.656  1.00  0.00     0.220 HD
ENDBRANCH   6  14
ENDBRANCH   1   2
BRANCH   1  16
HETATM   16  C11 UNL     1      -0.035  -0.119   0.422  1.00  0.00     0.022 C 
BRANCH  16  17
HETATM   17  C12 UNL     1      -1.158   0.876   0.284  1.00  0.00     0.018 C 
HETATM   18  C13 UNL     1      -0.594   2.173  -0.260  1.00  0.00     0.023 C 
HETATM   19  C14 UNL     1      -1.691   1.168   1.666  1.00  0.00     0.017 C 
HETATM   20  C15 UNL     1      -3.127   1.555   1.667  1.00  0.00     0.007 C 
HETATM   21  C16 UNL     1      -4.057   0.654   0.960  1.00  0.00    -0.001 C 
HETATM   22  C17 UNL     1      -4.896  -0.202   1.918  1.00  0.00     0.011 C 
HETATM   23  C18 UNL     1      -3.443  -0.189  -0.120  1.00  0.00     0.046 C 
HETATM   24  C19 UNL     1      -3.096  -1.540   0.484  1.00  0.00     0.026 C 
HETATM   25  C22 UNL     1      -2.212   0.429  -0.649  1.00  0.00     0.146 C 
HETATM   26  O5  UNL     1      -1.988   0.604  -1.835  1.00  0.00    -0.296 OA
BRANCH  23  27
HETATM   27  C20 UNL     1      -4.478  -0.460  -1.178  1.00  0.00     0.130 C 
HETATM   28  C21 UNL     1      -5.036   0.741  -1.840  1.00  0.00     0.040 C 
BRANCH  27  29
HETATM   29  O4  UNL     1      -3.949  -1.289  -2.198  1.00  0.00    -0.395 OA
ATOM     30  H4  UNL     1      -4.602  -1.460  -2.866  1.00  0.00     0.210 HD
ENDBRANCH  27  29
ENDBRANCH  23  27
ENDBRANCH  16  17
ENDBRANCH   1  16
TORSDOF 9
