REMARK  9 active torsions:
REMARK  status: ('A' for Active; 'I' for Inactive)
REMARK    1  A    between atoms: C4_4  and  C5_5 
REMARK    2  A    between atoms: C5_5  and  C6_6 
REMARK    3  A    between atoms: C6_6  and  C7_7 
REMARK    4  A    between atoms: C7_7  and  C8_8 
REMARK    5  A    between atoms: C8_8  and  O1_9 
REMARK    6  A    between atoms: C8_8  and  O2_11 
REMARK    7  A    between atoms: O2_11  and  C9_12 
REMARK    8  A    between atoms: C15_18  and  O3_19 
REMARK    9  A    between atoms: O3_19  and  O4_20 
ROOT
HETATM    1  C9  UNL     1      -0.137  -1.029   1.576  1.00  0.00     0.158 C 
HETATM    2  C10 UNL     1      -0.733  -0.100   0.635  1.00  0.00     0.009 C 
HETATM    3  C11 UNL     1      -1.766   0.063  -0.143  1.00  0.00    -0.071 C 
HETATM    4  C12 UNL     1      -1.481   1.425  -0.756  1.00  0.00     0.017 C 
HETATM    5  C13 UNL     1      -2.133   2.528   0.019  1.00  0.00     0.015 C 
HETATM    6  C14 UNL     1      -1.873   1.416  -2.223  1.00  0.00     0.076 C 
HETATM    7  C15 UNL     1      -3.314   1.541  -2.422  1.00  0.00     0.081 C 
HETATM    8  C16 UNL     1      -4.284   1.016  -1.720  1.00  0.00     0.009 C 
HETATM    9  C17 UNL     1      -4.187   0.145  -0.522  1.00  0.00     0.040 C 
HETATM   10  C18 UNL     1      -2.955  -0.696  -0.484  1.00  0.00     0.037 C 
HETATM   11  C19 UNL     1      -3.268  -1.933   0.367  1.00  0.00     0.012 C 
HETATM   12  C20 UNL     1      -3.534  -3.117  -0.578  1.00  0.00     0.028 C 
HETATM   13  C21 UNL     1      -4.591  -1.784   1.129  1.00  0.00     0.028 C 
HETATM   14  C22 UNL     1      -2.157  -2.090   1.203  1.00  0.00    -0.170 C 
HETATM   15  C23 UNL     1      -1.024  -2.227   2.017  1.00  0.00     0.116 C 
ENDROOT
BRANCH   1  16
HETATM   16  O2  UNL     1       0.987  -1.589   0.981  1.00  0.00    -0.352 OA
BRANCH  16  17
HETATM   17  C8  UNL     1       2.152  -1.356   1.652  1.00  0.00     0.257 C 
BRANCH  17  18
HETATM   18  C7  UNL     1       3.033  -0.471   0.809  1.00  0.00     0.061 C 
BRANCH  18  19
HETATM   19  C6  UNL     1       3.573  -1.162  -0.411  1.00  0.00     0.009 C 
BRANCH  19  20
HETATM   20  C5  UNL     1       4.435  -0.159  -1.158  1.00  0.00     0.027 C 
BRANCH  20  21
HETATM   21  C4  UNL     1       5.528   0.247  -0.219  1.00  0.00    -0.025 C 
HETATM   22  C2  UNL     1       5.711   1.491   0.165  1.00  0.00    -0.091 C 
HETATM   23  C1  UNL     1       6.805   1.830   1.093  1.00  0.00     0.042 C 
HETATM   24  C3  UNL     1       4.816   2.550  -0.340  1.00  0.00     0.042 C 
ENDBRANCH  20  21
ENDBRANCH  19  20
ENDBRANCH  18  19
ENDBRANCH  17  18
BRANCH  17  25
HETATM   25  O1  UNL     1       2.799  -2.476   2.119  1.00  0.00    -0.371 OA
ATOM     26  H1  UNL     1       2.244  -3.034   2.651  1.00  0.00     0.212 HD
ENDBRANCH  17  25
ENDBRANCH  16  17
ENDBRANCH   1  16
BRANCH   7  27
HETATM   27  O3  UNL     1      -3.692   2.322  -3.503  1.00  0.00    -0.205 OA
BRANCH  27  28
HETATM   28  O4  UNL     1      -4.475   3.396  -3.272  1.00  0.00    -0.245 OA
ATOM     29  H4  UNL     1      -4.734   3.931  -4.013  1.00  0.00     0.254 HD
ENDBRANCH  27  28
ENDBRANCH   7  27
TORSDOF 9
