REMARK  8 active torsions:
REMARK  status: ('A' for Active; 'I' for Inactive)
REMARK    1  A    between atoms: C2_2  and  C3_3 
REMARK    2  A    between atoms: C3_3  and  C4_4 
REMARK    3  A    between atoms: C3_3  and  N1_10 
REMARK    4  A    between atoms: C4_4  and  C5_5 
REMARK    5  A    between atoms: N1_10  and  C10_12 
REMARK    6  A    between atoms: C13_15  and  N2_16 
REMARK    7  A    between atoms: C14_17  and  O1_18 
REMARK    8  A    between atoms: C17_22  and  O2_23 
ROOT
HETATM    1  C10 UNL     1      -0.873   1.852  -0.823  1.00  0.00     0.077 C 
HETATM    2  C11 UNL     1      -0.232   1.400   0.444  1.00  0.00     0.027 C 
HETATM    3  C12 UNL     1       0.511   0.105   0.371  1.00  0.00     0.028 C 
HETATM    4  C13 UNL     1       1.555   0.097  -0.680  1.00  0.00     0.094 C 
HETATM    5  C22 UNL     1       1.512   1.409  -1.435  1.00  0.00     0.028 C 
HETATM    6  C23 UNL     1       0.098   1.529  -1.970  1.00  0.00     0.027 C 
ENDROOT
BRANCH   4   7
HETATM    7  N2  UNL     1       2.894  -0.181  -0.213  1.00  0.00    -0.303 N 
HETATM    8  C14 UNL     1       3.532   0.414   0.803  1.00  0.00     0.151 A 
HETATM    9  C15 UNL     1       4.798  -0.120   0.947  1.00  0.00     0.004 A 
HETATM   10  C16 UNL     1       4.902  -1.078  -0.038  1.00  0.00     0.004 A 
HETATM   11  C21 UNL     1       5.972   0.072   1.835  1.00  0.00     0.044 C 
HETATM   12  C17 UNL     1       3.706  -1.106  -0.756  1.00  0.00     0.151 A 
HETATM   13  C18 UNL     1       6.168  -1.844  -0.152  1.00  0.00     0.044 C 
HETATM   14  C19 UNL     1       6.671  -2.265   1.185  1.00  0.00     0.005 C 
HETATM   15  C20 UNL     1       6.352  -1.336   2.300  1.00  0.00     0.005 C 
BRANCH   8  16
HETATM   16  O1  UNL     1       3.082   1.426   1.649  1.00  0.00    -0.345 OA
ATOM     17  H1  UNL     1       3.535   1.848   2.370  1.00  0.00     0.219 HD
ENDBRANCH   8  16
BRANCH  12  18
HETATM   18  O2  UNL     1       3.461  -1.960  -1.828  1.00  0.00    -0.345 OA
ATOM     19  H2  UNL     1       4.034  -2.613  -2.211  1.00  0.00     0.219 HD
ENDBRANCH  12  18
ENDBRANCH   4   7
BRANCH   1  20
HETATM   20  N1  UNL     1      -2.112   1.260  -1.135  1.00  0.00    -0.413 N 
ATOM     21  H1  UNL     1      -2.208   0.695  -1.979  1.00  0.00     0.154 HD
BRANCH  20  22
HETATM   22  C3  UNL     1      -3.213   1.446  -0.289  1.00  0.00     0.077 C 
BRANCH  22  23
HETATM   23  C2  UNL     1      -3.704   2.847  -0.111  1.00  0.00     0.020 C 
HETATM   24  C1  UNL     1      -4.821   2.950   0.909  1.00  0.00     0.007 C 
ENDBRANCH  22  23
BRANCH  22  25
HETATM   25  C4  UNL     1      -4.307   0.507  -0.762  1.00  0.00     0.029 C 
BRANCH  25  26
HETATM   26  C5  UNL     1      -3.822  -0.909  -0.947  1.00  0.00    -0.013 C 
HETATM   27  C6  UNL     1      -3.279  -1.537   0.304  1.00  0.00     0.005 C 
HETATM   28  C7  UNL     1      -4.546  -1.843   1.086  1.00  0.00     0.000 C 
HETATM   29  C8  UNL     1      -5.461  -2.384   0.030  1.00  0.00     0.000 C 
HETATM   30  C9  UNL     1      -4.998  -1.808  -1.275  1.00  0.00     0.005 C 
ENDBRANCH  25  26
ENDBRANCH  22  25
ENDBRANCH  20  22
ENDBRANCH   1  20
TORSDOF 8
