REMARK  7 active torsions:
REMARK  status: ('A' for Active; 'I' for Inactive)
REMARK    1  A    between atoms: C2_2  and  C3_3 
REMARK    2  A    between atoms: C3_3  and  N1_4 
REMARK    3  A    between atoms: C4_5  and  O1_6 
REMARK    4  A    between atoms: C6_9  and  N2_10 
REMARK    5  A    between atoms: N2_10  and  N3_12 
REMARK    6  A    between atoms: C7_14  and  C8_15 
REMARK    7  A    between atoms: C15_25  and  O2_26 
ROOT
HETATM    1  N2  UNL     1      -0.556   1.157  -0.063  1.00  0.00    -0.297 N 
ATOM      2  H2  UNL     1      -0.683   2.138  -0.313  1.00  0.00     0.187 HD
ENDROOT
BRANCH   1   3
HETATM    3  C6  UNL     1      -1.717   0.377   0.207  1.00  0.00     0.103 A 
HETATM    4  C5  UNL     1      -1.708  -0.949   0.554  1.00  0.00     0.091 A 
HETATM    5  C4  UNL     1      -3.029  -1.306   0.721  1.00  0.00     0.146 A 
HETATM    6  N1  UNL     1      -3.833  -0.275   0.497  1.00  0.00    -0.303 N 
HETATM    7  C15 UNL     1      -3.042   0.758   0.182  1.00  0.00     0.173 A 
BRANCH   5   8
HETATM    8  O1  UNL     1      -3.431  -2.593   1.081  1.00  0.00    -0.346 OA
ATOM      9  H1  UNL     1      -2.855  -3.331   1.241  1.00  0.00     0.219 HD
ENDBRANCH   5   8
BRANCH   6  10
HETATM   10  C3  UNL     1      -5.274  -0.266   0.576  1.00  0.00     0.160 C 
BRANCH  10  11
HETATM   11  C2  UNL     1      -5.846  -0.615  -0.743  1.00  0.00    -0.017 C 
HETATM   12  C1  UNL     1      -6.624  -1.670  -0.896  1.00  0.00     0.008 C 
ENDBRANCH  10  11
ENDBRANCH   6  10
BRANCH   7  13
HETATM   13  O2  UNL     1      -3.464   2.039  -0.130  1.00  0.00    -0.344 OA
ATOM     14  H2  UNL     1      -2.903   2.772  -0.354  1.00  0.00     0.219 HD
ENDBRANCH   7  13
ENDBRANCH   1   3
BRANCH   1  15
HETATM   15  N3  UNL     1       0.727   0.664  -0.006  1.00  0.00    -0.310 N 
HETATM   16  C7  UNL     1       1.731   1.428  -0.226  1.00  0.00     0.120 C 
ATOM     17  H3  UNL     1       0.880  -0.320   0.214  1.00  0.00     0.186 HD
BRANCH  16  18
HETATM   18  C8  UNL     1       3.108   0.938  -0.174  1.00  0.00     0.006 A 
HETATM   19  C9  UNL     1       3.347  -0.388   0.121  1.00  0.00     0.039 A 
HETATM   20  C10 UNL     1       4.630  -0.894   0.181  1.00  0.00     0.042 A 
HETATM   21 CL1  UNL     1       4.997  -2.554   0.548  1.00  0.00    -0.084 Cl
HETATM   22  C11 UNL     1       5.674  -0.020  -0.066  1.00  0.00    -0.017 A 
HETATM   23  C12 UNL     1       7.074  -0.526  -0.012  1.00  0.00     0.052 C 
HETATM   24  C13 UNL     1       5.442   1.310  -0.363  1.00  0.00     0.064 A 
HETATM   25 CL2  UNL     1       6.821   2.368  -0.668  1.00  0.00    -0.082 Cl
HETATM   26  C14 UNL     1       4.147   1.782  -0.414  1.00  0.00     0.068 A 
HETATM   27 CL3  UNL     1       3.916   3.473  -0.794  1.00  0.00    -0.082 Cl
ENDBRANCH  16  18
ENDBRANCH   1  15
TORSDOF 7
