REMARK  10 active torsions:
REMARK  status: ('A' for Active; 'I' for Inactive)
REMARK    1  A    between atoms: C2_2  and  C3_3 
REMARK    2  A    between atoms: C3_3  and  O1_4 
REMARK    3  A    between atoms: O1_4  and  C4_5 
REMARK    4  A    between atoms: C6_7  and  C7_8 
REMARK    5  A    between atoms: C8_9  and  C9_10 
REMARK    6  A    between atoms: C9_10  and  O2_11 
REMARK    7  A    between atoms: N1_13  and  O3_15 
REMARK    8  A    between atoms: C11_19  and  O4_20 
REMARK    9  A    between atoms: O4_20  and  C12_21 
REMARK   10  A    between atoms: N2_23  and  O5_25 
ROOT
HETATM    1  C4  UNL     1      -1.564  -0.282   0.016  1.00  0.00     0.111 A 
HETATM    2  C5  UNL     1      -0.384  -0.902  -0.308  1.00  0.00     0.053 A 
HETATM    3  C6  UNL     1       0.883  -0.371  -0.021  1.00  0.00    -0.009 A 
HETATM    4  C10 UNL     1       0.930   0.848   0.625  1.00  0.00     0.081 A 
HETATM    5 CL1  UNL     1       2.449   1.605   1.035  1.00  0.00    -0.080 Cl
HETATM    6  C11 UNL     1      -0.243   1.536   0.984  1.00  0.00     0.141 A 
HETATM    7  C14 UNL     1      -1.438   0.977   0.683  1.00  0.00     0.185 A 
HETATM    8  F1  UNL     1      -2.564   1.644   1.032  1.00  0.00    -0.200 F 
ENDROOT
BRANCH   3   9
HETATM    9  C7  UNL     1       2.036  -1.138  -0.420  1.00  0.00     0.017 C 
HETATM   10  C8  UNL     1       3.304  -0.925  -0.305  1.00  0.00     0.058 C 
BRANCH  10  11
HETATM   11  C9  UNL     1       4.233  -1.962  -0.846  1.00  0.00     0.159 C 
HETATM   12  N1  UNL     1       5.510  -1.829  -0.773  1.00  0.00    -0.248 N 
ATOM     13  H1  UNL     1       6.122  -2.552  -1.151  1.00  0.00     0.196 HD
BRANCH  11  14
HETATM   14  O2  UNL     1       3.753  -3.112  -1.451  1.00  0.00    -0.345 OA
ATOM     15  H2  UNL     1       4.344  -3.772  -1.795  1.00  0.00     0.219 HD
ENDBRANCH  11  14
BRANCH  12  16
HETATM   16  O3  UNL     1       6.044  -0.716  -0.188  1.00  0.00    -0.288 OA
ATOM     17  H3  UNL     1       6.987  -0.618  -0.134  1.00  0.00     0.244 HD
ENDBRANCH  12  16
ENDBRANCH  10  11
ENDBRANCH   3   9
BRANCH   1  18
HETATM   18  O1  UNL     1      -2.785  -0.720  -0.224  1.00  0.00    -0.348 OA
BRANCH  18  19
HETATM   19  C3  UNL     1      -3.627  -1.604  -0.683  1.00  0.00     0.175 C 
BRANCH  19  20
HETATM   20  C2  UNL     1      -3.753  -2.984  -0.112  1.00  0.00     0.022 C 
HETATM   21  C1  UNL     1      -2.522  -3.802  -0.196  1.00  0.00     0.007 C 
ENDBRANCH  19  20
ENDBRANCH  18  19
ENDBRANCH   1  18
BRANCH   6  22
HETATM   22  O4  UNL     1      -0.112   2.762   1.634  1.00  0.00    -0.291 OA
BRANCH  22  23
HETATM   23  C12 UNL     1      -0.039   3.961   0.918  1.00  0.00     0.140 C 
HETATM   24  C13 UNL     1      -0.191   5.213   1.670  1.00  0.00     0.099 C 
HETATM   25  N2  UNL     1       0.156   3.870  -0.345  1.00  0.00    -0.251 N 
ATOM     26  H2  UNL     1       0.252   2.959  -0.794  1.00  0.00     0.196 HD
BRANCH  25  27
HETATM   27  O5  UNL     1       0.233   5.025  -1.079  1.00  0.00    -0.288 OA
ATOM     28  H5  UNL     1       0.378   4.958  -2.016  1.00  0.00     0.244 HD
ENDBRANCH  25  27
ENDBRANCH  22  23
ENDBRANCH   6  22
TORSDOF 10
