REMARK  8 active torsions:
REMARK  status: ('A' for Active; 'I' for Inactive)
REMARK    1  A    between atoms: C2_2  and  C3_3 
REMARK    2  A    between atoms: C3_3  and  C4_4 
REMARK    3  A    between atoms: C4_4  and  N1_5 
REMARK    4  A    between atoms: C5_6  and  O1_7 
REMARK    5  A    between atoms: C6_9  and  O2_10 
REMARK    6  A    between atoms: C7_12  and  O3_13 
REMARK    7  A    between atoms: C8_15  and  C9_16 
REMARK    8  A    between atoms: N2_17  and  C10_19 
ROOT
HETATM    1  N1  UNL     1      -1.231   1.325   0.336  1.00  0.00    -0.322 N 
HETATM    2  C5  UNL     1      -1.915   2.262  -0.344  1.00  0.00     0.180 A 
HETATM    3  C6  UNL     1      -1.165   2.750  -1.410  1.00  0.00     0.153 A 
HETATM    4  C7  UNL     1       0.023   2.067  -1.357  1.00  0.00     0.132 A 
HETATM    5  C8  UNL     1      -0.022   1.203  -0.294  1.00  0.00     0.088 A 
ENDROOT
BRANCH   5   6
HETATM    6  C9  UNL     1       1.014   0.273   0.152  1.00  0.00     0.121 C 
HETATM    7  N2  UNL     1       2.124   0.251  -0.534  1.00  0.00    -0.364 N 
ATOM      8  H2  UNL     1       2.230   0.868  -1.339  1.00  0.00     0.165 HD
BRANCH   7   9
HETATM    9  C10 UNL     1       3.186  -0.621  -0.174  1.00  0.00     0.035 A 
HETATM   10  C11 UNL     1       3.328  -1.880  -0.750  1.00  0.00     0.053 A 
HETATM   11  C12 UNL     1       4.339  -2.744  -0.427  1.00  0.00     0.037 A 
HETATM   12 CL1  UNL     1       4.509  -4.332  -1.160  1.00  0.00    -0.084 Cl
HETATM   13  C13 UNL     1       5.258  -2.332   0.521  1.00  0.00     0.048 A 
HETATM   14  C14 UNL     1       5.155  -1.083   1.122  1.00  0.00     0.037 A 
HETATM   15 CL2  UNL     1       6.329  -0.595   2.312  1.00  0.00    -0.084 Cl
HETATM   16  C15 UNL     1       4.121  -0.251   0.764  1.00  0.00     0.053 A 
ENDBRANCH   7   9
ENDBRANCH   5   6
BRANCH   1  17
HETATM   17  C4  UNL     1      -1.675   0.578   1.495  1.00  0.00     0.131 C 
BRANCH  17  18
HETATM   18  C3  UNL     1      -2.321  -0.731   1.196  1.00  0.00     0.020 C 
BRANCH  18  19
HETATM   19  C2  UNL     1      -3.522  -0.555   0.335  1.00  0.00    -0.003 C 
HETATM   20  C1  UNL     1      -4.208  -1.894   0.037  1.00  0.00     0.005 C 
ENDBRANCH  18  19
ENDBRANCH  17  18
ENDBRANCH   1  17
BRANCH   4  21
HETATM   21  O3  UNL     1       1.081   2.225  -2.226  1.00  0.00    -0.356 OA
ATOM     22  H3  UNL     1       1.904   1.752  -2.189  1.00  0.00     0.218 HD
ENDBRANCH   4  21
BRANCH   2  23
HETATM   23  O1  UNL     1      -3.196   2.738  -0.088  1.00  0.00    -0.344 OA
ATOM     24  H1  UNL     1      -3.679   3.400  -0.568  1.00  0.00     0.219 HD
ENDBRANCH   2  23
BRANCH   3  25
HETATM   25  O2  UNL     1      -1.534   3.727  -2.341  1.00  0.00    -0.354 OA
ATOM     26  H2  UNL     1      -1.022   4.060  -3.069  1.00  0.00     0.218 HD
ENDBRANCH   3  25
TORSDOF 8
