REMARK  9 active torsions:
REMARK  status: ('A' for Active; 'I' for Inactive)
REMARK    1  A    between atoms: C2_2  and  C4_4 
REMARK    2  A    between atoms: C4_4  and  C5_5 
REMARK    3  A    between atoms: C5_5  and  C6_6 
REMARK    4  A    between atoms: C7_8  and  C8_9 
REMARK    5  A    between atoms: C8_9  and  O2_10 
REMARK    6  A    between atoms: C9_12  and  O3_13 
REMARK    7  A    between atoms: C10_15  and  O4_16 
REMARK    8  A    between atoms: O4_16  and  C11_17 
REMARK    9  A    between atoms: C14_21  and  O5_22 
ROOT
HETATM    1  C6  UNL     1      -1.025   0.783   0.633  1.00  0.00     0.112 A 
HETATM    2  O1  UNL     1      -1.546   1.707  -0.120  1.00  0.00    -0.307 OA
HETATM    3  C7  UNL     1      -0.670   2.515  -0.619  1.00  0.00     0.113 A 
HETATM    4  C9  UNL     1       0.554   2.105  -0.168  1.00  0.00     0.134 A 
HETATM    5  C10 UNL     1       0.370   1.010   0.611  1.00  0.00     0.145 A 
ENDROOT
BRANCH   5   6
HETATM    6  O4  UNL     1       1.256   0.204   1.291  1.00  0.00    -0.300 OA
BRANCH   6   7
HETATM    7  C11 UNL     1       2.405  -0.350   0.794  1.00  0.00     0.138 A 
HETATM    8  C12 UNL     1       2.521  -1.332  -0.120  1.00  0.00     0.073 A 
HETATM    9 CL1  UNL     1       1.084  -2.062  -0.808  1.00  0.00    -0.081 Cl
HETATM   10  C13 UNL     1       3.790  -1.818  -0.544  1.00  0.00     0.065 A 
HETATM   11  C14 UNL     1       4.956  -1.290  -0.017  1.00  0.00     0.092 A 
HETATM   12  C15 UNL     1       4.836  -0.275   0.929  1.00  0.00     0.108 A 
HETATM   13 CL2  UNL     1       6.303   0.377   1.604  1.00  0.00    -0.078 Cl
HETATM   14  C16 UNL     1       3.592   0.201   1.339  1.00  0.00     0.176 A 
HETATM   15  F1  UNL     1       3.548   1.184   2.268  1.00  0.00    -0.201 F 
BRANCH  11  16
HETATM   16  O5  UNL     1       6.233  -1.719  -0.361  1.00  0.00    -0.359 OA
ATOM     17  H5  UNL     1       7.033  -1.357   0.001  1.00  0.00     0.217 HD
ENDBRANCH  11  16
ENDBRANCH   6   7
ENDBRANCH   5   6
BRANCH   1  18
HETATM   18  C5  UNL     1      -1.747  -0.221   1.353  1.00  0.00     0.040 C 
BRANCH  18  19
HETATM   19  C4  UNL     1      -2.492  -1.363   1.108  1.00  0.00     0.005 C 
BRANCH  19  20
HETATM   20  C2  UNL     1      -3.393  -1.723   0.234  1.00  0.00    -0.088 C 
HETATM   21  C1  UNL     1      -3.875  -0.852  -0.874  1.00  0.00     0.043 C 
HETATM   22  C3  UNL     1      -4.145  -3.013   0.499  1.00  0.00     0.043 C 
ENDBRANCH  19  20
ENDBRANCH  18  19
ENDBRANCH   1  18
BRANCH   4  23
HETATM   23  O3  UNL     1       1.787   2.739  -0.452  1.00  0.00    -0.356 OA
ATOM     24  H3  UNL     1       2.637   2.454  -0.139  1.00  0.00     0.218 HD
ENDBRANCH   4  23
BRANCH   3  25
HETATM   25  C8  UNL     1      -0.885   3.685  -1.481  1.00  0.00     0.232 C 
BRANCH  25  26
HETATM   26  O2  UNL     1      -1.566   3.339  -2.681  1.00  0.00    -0.394 OA
ATOM     27  H2  UNL     1      -1.705   4.096  -3.238  1.00  0.00     0.209 HD
ENDBRANCH  25  26
ENDBRANCH   3  25
TORSDOF 9
