REMARK  8 active torsions:
REMARK  status: ('A' for Active; 'I' for Inactive)
REMARK    1  A    between atoms: C2_3  and  C3_4 
REMARK    2  A    between atoms: C2_3  and  C10_20 
REMARK    3  A    between atoms: C3_4  and  C4_5 
REMARK    4  A    between atoms: C4_5  and  N2_6 
REMARK    5  A    between atoms: C6_8  and  O1_9 
REMARK    6  A    between atoms: C7_11  and  C8_12 
REMARK    7  A    between atoms: N3_13  and  O2_15 
REMARK    8  A    between atoms: C9_17  and  O3_18 
ROOT
HETATM    1  N1  UNL     1      -2.195   0.275  -3.424  1.00  0.00    -0.197 NA
HETATM    2  C1  UNL     1      -2.173  -0.173  -2.362  1.00  0.00     0.068 C 
HETATM    3  C2  UNL     1      -2.161  -0.753  -1.013  1.00  0.00     0.127 C 
ENDROOT
BRANCH   3   4
HETATM    4  C3  UNL     1      -0.783  -0.593  -0.415  1.00  0.00     0.044 C 
BRANCH   4   5
HETATM    5  C4  UNL     1       0.280  -1.276  -1.225  1.00  0.00     0.132 C 
BRANCH   5   6
HETATM    6  N2  UNL     1       1.550  -1.047  -0.545  1.00  0.00    -0.334 N 
HETATM    7  C5  UNL     1       2.123  -1.800   0.396  1.00  0.00     0.130 A 
HETATM    8  C6  UNL     1       3.323  -1.272   0.807  1.00  0.00     0.097 A 
HETATM    9  C7  UNL     1       3.493  -0.122   0.068  1.00  0.00     0.067 A 
HETATM   10  C9  UNL     1       2.392  -0.006  -0.754  1.00  0.00     0.157 A 
BRANCH   8  11
HETATM   11  O1  UNL     1       4.220  -1.764   1.772  1.00  0.00    -0.358 OA
ATOM     12  H1  UNL     1       5.050  -1.399   2.056  1.00  0.00     0.217 HD
ENDBRANCH   8  11
BRANCH   9  13
HETATM   13  C8  UNL     1       4.621   0.797   0.141  1.00  0.00     0.132 C 
HETATM   14  N3  UNL     1       5.601   0.592   0.948  1.00  0.00    -0.279 N 
ATOM     15  H3  UNL     1       5.575  -0.236   1.543  1.00  0.00     0.193 HD
BRANCH  14  16
HETATM   16  O2  UNL     1       6.665   1.422   1.045  1.00  0.00    -0.290 OA
ATOM     17  H2  UNL     1       7.389   1.271   1.641  1.00  0.00     0.244 HD
ENDBRANCH  14  16
ENDBRANCH   9  13
BRANCH  10  18
HETATM   18  O3  UNL     1       2.119   0.999  -1.683  1.00  0.00    -0.345 OA
ATOM     19  H3  UNL     1       2.709   1.729  -1.830  1.00  0.00     0.219 HD
ENDBRANCH  10  18
ENDBRANCH   5   6
ENDBRANCH   4   5
ENDBRANCH   3   4
BRANCH   3  20
HETATM   20  C10 UNL     1      -3.116   0.062  -0.202  1.00  0.00    -0.037 A 
HETATM   21  C11 UNL     1      -2.940   1.417  -0.108  1.00  0.00     0.034 A 
HETATM   22  C12 UNL     1      -3.837   2.143   0.648  1.00  0.00     0.058 A 
HETATM   23 CL1  UNL     1      -3.576   3.891   0.745  1.00  0.00    -0.082 Cl
HETATM   24  C13 UNL     1      -4.901   1.571   1.312  1.00  0.00     0.077 A 
HETATM   25 CL2  UNL     1      -5.996   2.558   2.251  1.00  0.00    -0.081 Cl
HETATM   26  C14 UNL     1      -5.028   0.201   1.181  1.00  0.00     0.058 A 
HETATM   27 CL3  UNL     1      -6.380  -0.549   2.020  1.00  0.00    -0.082 Cl
HETATM   28  C15 UNL     1      -4.153  -0.548   0.437  1.00  0.00     0.034 A 
ENDBRANCH   3  20
TORSDOF 8
