REMARK  22 active torsions:
REMARK  status: ('A' for Active; 'I' for Inactive)
REMARK    1  A    between atoms: N1_1  and  N2_4 
REMARK    2  A    between atoms: N2_4  and  C1_6 
REMARK    3  A    between atoms: C1_6  and  C18_45 
REMARK    4  A    between atoms: C2_7  and  O1_8 
REMARK    5  A    between atoms: C2_7  and  N3_10 
REMARK    6  A    between atoms: N3_10  and  C3_12 
REMARK    7  A    between atoms: C3_12  and  O2_13 
REMARK    8  A    between atoms: C3_12  and  N4_15 
REMARK    9  A    between atoms: C7_21  and  O4_22 
REMARK   10  A    between atoms: O4_22  and  C8_23 
REMARK   11  A    between atoms: C8_23  and  C9_25 
REMARK   12  A    between atoms: C9_25  and  N5_26 
REMARK   13  A    between atoms: C9_25  and  C10_30 
REMARK   14  A    between atoms: C15_38  and  O8_39 
REMARK   15  A    between atoms: C18_45  and  O11_46 
REMARK   16  A    between atoms: C18_45  and  C19_48 
REMARK   17  A    between atoms: C19_48  and  O12_49 
REMARK   18  A    between atoms: C19_48  and  C20_51 
REMARK   19  A    between atoms: C20_51  and  O13_52 
REMARK   20  A    between atoms: C20_51  and  C21_54 
REMARK   21  A    between atoms: C21_54  and  N6_55 
REMARK   22  A    between atoms: C21_54  and  N7_59 
ROOT
HETATM    1  C3  UNL     1      -0.935  -0.976  -0.279  1.00  0.00     0.329 C 
ENDROOT
BRANCH   1   2
HETATM    2  N3  UNL     1      -2.368  -1.306  -0.195  1.00  0.00    -0.326 N 
ATOM      3  H3  UNL     1      -3.060  -0.673  -0.596  1.00  0.00     0.166 HD
BRANCH   2   4
HETATM    4  C2  UNL     1      -2.783  -2.487   0.434  1.00  0.00     0.170 C 
HETATM    5  C1  UNL     1      -4.092  -3.004   0.628  1.00  0.00     0.130 C 
BRANCH   5   6
HETATM    6  N2  UNL     1      -4.148  -4.191   1.247  1.00  0.00    -0.301 N 
ATOM      7  H2  UNL     1      -5.071  -4.596   1.405  1.00  0.00     0.186 HD
BRANCH   6   8
HETATM    8  N1  UNL     1      -3.075  -4.895   1.679  1.00  0.00    -0.344 N 
ATOM      9  H12 UNL     1      -2.161  -4.475   1.512  1.00  0.00     0.176 HD
ATOM     10  H11 UNL     1      -3.118  -5.799   2.150  1.00  0.00     0.176 HD
ENDBRANCH   6   8
ENDBRANCH   5   6
BRANCH   5  11
HETATM   11  C18 UNL     1      -5.341  -2.437   0.230  1.00  0.00     0.107 C 
BRANCH  11  12
HETATM   12  O11 UNL     1      -6.373  -3.233   0.517  1.00  0.00    -0.360 OA
ATOM     13  H11 UNL     1      -7.204  -2.856   0.252  1.00  0.00     0.217 HD
ENDBRANCH  11  12
BRANCH  11  14
HETATM   14  C19 UNL     1      -5.643  -1.176  -0.413  1.00  0.00     0.209 C 
BRANCH  14  15
HETATM   15  O12 UNL     1      -7.008  -1.251  -0.920  1.00  0.00    -0.386 OA
ATOM     16  H12 UNL     1      -7.206  -0.423  -1.342  1.00  0.00     0.210 HD
ENDBRANCH  14  15
BRANCH  14  17
HETATM   17  C20 UNL     1      -5.652   0.021   0.548  1.00  0.00     0.211 C 
BRANCH  17  18
HETATM   18  O13 UNL     1      -6.592  -0.270   1.529  1.00  0.00    -0.389 OA
ATOM     19  H13 UNL     1      -6.598   0.471   2.124  1.00  0.00     0.210 HD
ENDBRANCH  17  18
BRANCH  17  20
HETATM   20  C21 UNL     1      -6.027   1.280  -0.185  1.00  0.00     0.409 C 
BRANCH  20  21
HETATM   21  N6  UNL     1      -6.087   2.368   0.775  1.00  0.00    -0.048 N 
ATOM     22  H63 UNL     1      -6.712   2.168   1.556  1.00  0.00     0.276 HD
ATOM     23  H62 UNL     1      -5.224   2.468   1.309  1.00  0.00     0.276 HD
ATOM     24  H61 UNL     1      -6.341   3.222   0.278  1.00  0.00     0.276 HD
ENDBRANCH  20  21
BRANCH  20  25
HETATM   25  N7  UNL     1      -5.033   1.645  -1.176  1.00  0.00    -0.048 N 
ATOM     26  H73 UNL     1      -4.105   1.721  -0.760  1.00  0.00     0.276 HD
ATOM     27  H72 UNL     1      -4.856   0.877  -1.824  1.00  0.00     0.276 HD
ATOM     28  H71 UNL     1      -5.287   2.499  -1.673  1.00  0.00     0.276 HD
ENDBRANCH  20  25
ENDBRANCH  17  20
ENDBRANCH  14  17
ENDBRANCH  11  14
ENDBRANCH   5  11
BRANCH   4  29
HETATM   29  O1  UNL     1      -1.750  -3.168   0.883  1.00  0.00    -0.344 OA
ATOM     30  H1  UNL     1      -0.875  -2.822   0.753  1.00  0.00     0.219 HD
ENDBRANCH   4  29
ENDBRANCH   2   4
ENDBRANCH   1   2
BRANCH   1  31
HETATM   31  O2  UNL     1      -0.507  -0.921  -1.600  1.00  0.00    -0.359 OA
ATOM     32  H2  UNL     1       0.417  -0.708  -1.654  1.00  0.00     0.214 HD
ENDBRANCH   1  31
BRANCH   1  33
HETATM   33  N4  UNL     1      -0.645   0.294   0.343  1.00  0.00    -0.330 N 
HETATM   34  C4  UNL     1       0.527   0.820   0.354  1.00  0.00     0.136 C 
HETATM   35  O3  UNL     1       1.662   0.267  -0.212  1.00  0.00    -0.323 OA
HETATM   36  C12 UNL     1       0.677   2.134   1.034  1.00  0.00     0.155 C 
HETATM   37  C5  UNL     1       2.945   0.914  -0.110  1.00  0.00     0.201 C 
HETATM   38  C6  UNL     1       3.491   0.739   1.238  1.00  0.00    -0.014 C 
HETATM   39  C17 UNL     1       2.709   2.344  -0.399  1.00  0.00     0.059 A 
HETATM   40  C7  UNL     1       4.753   0.295   1.282  1.00  0.00     0.152 C 
HETATM   41  C11 UNL     1       2.923   0.924   2.582  1.00  0.00     0.114 C 
HETATM   42  S1  UNL     1       1.428   1.877   2.646  1.00  0.00    -0.147 SA
HETATM   43  C13 UNL     1       1.592   2.935   0.150  1.00  0.00    -0.017 A 
HETATM   44  C16 UNL     1       3.579   3.047  -1.211  1.00  0.00     0.299 A 
HETATM   45  C14 UNL     1       1.353   4.254  -0.125  1.00  0.00     0.073 A 
HETATM   46  C15 UNL     1       2.261   4.922  -0.950  1.00  0.00     0.187 A 
HETATM   47  O9  UNL     1       3.310   4.315  -1.449  1.00  0.00    -0.251 OA
HETATM   48  O10 UNL     1       4.599   2.564  -1.733  1.00  0.00    -0.259 OA
ATOM     49  H4  UNL     1      -1.407   0.798   0.796  1.00  0.00     0.165 HD
BRANCH  40  50
HETATM   50  O4  UNL     1       5.527   0.008   0.182  1.00  0.00    -0.289 OA
BRANCH  50  51
HETATM   51  C8  UNL     1       5.601  -1.228  -0.433  1.00  0.00     0.304 C 
HETATM   52  O5  UNL     1       4.913  -2.167   0.038  1.00  0.00    -0.262 OA
BRANCH  51  53
HETATM   53  C9  UNL     1       6.443  -1.511  -1.614  1.00  0.00     0.382 C 
BRANCH  53  54
HETATM   54  N5  UNL     1       7.195  -0.357  -2.044  1.00  0.00    -0.056 N 
ATOM     55  H53 UNL     1       6.581   0.440  -2.213  1.00  0.00     0.276 HD
ATOM     56  H52 UNL     1       7.751   0.025  -1.279  1.00  0.00     0.276 HD
ATOM     57  H51 UNL     1       7.776  -0.552  -2.859  1.00  0.00     0.276 HD
ENDBRANCH  53  54
BRANCH  53  58
HETATM   58  C10 UNL     1       7.290  -2.693  -1.414  1.00  0.00     0.214 C 
HETATM   59  O6  UNL     1       8.528  -2.661  -1.587  1.00  0.00    -0.646 OA
HETATM   60  O7  UNL     1       6.721  -3.892  -1.021  1.00  0.00    -0.646 OA
ENDBRANCH  53  58
ENDBRANCH  51  53
ENDBRANCH  50  51
ENDBRANCH  40  50
BRANCH  46  61
HETATM   61  O8  UNL     1       2.028   6.271  -1.238  1.00  0.00    -0.341 OA
ATOM     62  H8  UNL     1       2.646   6.725  -1.799  1.00  0.00     0.220 HD
ENDBRANCH  46  61
ENDBRANCH   1  33
TORSDOF 22
