REMARK  16 active torsions:
REMARK  status: ('A' for Active; 'I' for Inactive)
REMARK    1  A    between atoms: C1_4  and  O1_5 
REMARK    2  A    between atoms: O1_5  and  C2_6 
REMARK    3  A    between atoms: C2_6  and  C3_8 
REMARK    4  A    between atoms: C3_8  and  C4_9 
REMARK    5  A    between atoms: C4_9  and  C5_10 
REMARK    6  A    between atoms: C5_10  and  C6_11 
REMARK    7  A    between atoms: C8_17  and  O7_18 
REMARK    8  A    between atoms: C9_20  and  O8_21 
REMARK    9  A    between atoms: C11_24  and  O9_25 
REMARK   10  A    between atoms: C11_24  and  C12_27 
REMARK   11  A    between atoms: C13_30  and  C14_31 
REMARK   12  A    between atoms: C17_38  and  C18_39 
REMARK   13  A    between atoms: C19_42  and  C20_43 
REMARK   14  A    between atoms: C20_43  and  O18_44 
REMARK   15  A    between atoms: C21_47  and  C22_48 
REMARK   16  A    between atoms: C22_48  and  O20_49 
ROOT
HETATM    1  C3  UNL     1       1.582  -0.750   0.161  1.00  0.00     0.195 C 
HETATM    2  O5  UNL     1       1.345  -2.146   0.343  1.00  0.00    -0.294 OA
HETATM    3  C7  UNL     1       0.198  -2.780   0.772  1.00  0.00     0.300 C 
HETATM    4  O6  UNL     1       0.364  -3.842   1.403  1.00  0.00    -0.262 OA
HETATM    5  C8  UNL     1      -1.140  -2.323   0.552  1.00  0.00     0.201 C 
HETATM    6  C9  UNL     1      -1.187  -2.121  -0.954  1.00  0.00     0.176 C 
HETATM    7  C10 UNL     1      -1.302  -0.656  -1.110  1.00  0.00     0.107 C 
HETATM    8  C11 UNL     1      -2.814  -0.510  -1.407  1.00  0.00     0.191 C 
HETATM    9  C13 UNL     1      -3.628  -0.700  -0.200  1.00  0.00     0.268 C 
HETATM   10  O14 UNL     1      -3.002  -1.045   0.932  1.00  0.00    -0.359 OA
HETATM   11  C15 UNL     1      -1.628  -0.996   1.040  1.00  0.00     0.208 C 
HETATM   12  C16 UNL     1      -0.936   0.030   0.154  1.00  0.00     0.138 C 
HETATM   13  O15 UNL     1      -1.486   1.253   0.052  1.00  0.00    -0.355 OA
HETATM   14  C17 UNL     1      -1.113   2.374   0.712  1.00  0.00     0.254 C 
HETATM   15  C19 UNL     1       0.389   2.413   0.972  1.00  0.00     0.186 C 
HETATM   16  O19 UNL     1       0.853   1.388   0.174  1.00  0.00    -0.360 OA
HETATM   17  C21 UNL     1       0.469   0.090   0.653  1.00  0.00     0.158 C 
ENDROOT
BRANCH   1  18
HETATM   18  C2  UNL     1       2.752  -0.524   1.097  1.00  0.00     0.303 C 
HETATM   19  O2  UNL     1       3.172  -1.349   1.932  1.00  0.00    -0.261 OA
BRANCH  18  20
HETATM   20  O1  UNL     1       3.433   0.684   1.042  1.00  0.00    -0.272 OA
BRANCH  20  21
HETATM   21  C1  UNL     1       4.522   1.010   1.837  1.00  0.00     0.230 C 
HETATM   22  N1  UNL     1       4.948   0.165   2.679  1.00  0.00    -0.390 N 
ATOM     23  H12 UNL     1       4.484  -0.740   2.759  1.00  0.00     0.157 HD
ATOM     24  H11 UNL     1       5.749   0.405   3.264  1.00  0.00     0.157 HD
ENDBRANCH  20  21
ENDBRANCH  18  20
ENDBRANCH   1  18
BRANCH   1  25
HETATM   25  C4  UNL     1       2.100  -0.430  -1.207  1.00  0.00     0.063 C 
BRANCH  25  26
HETATM   26  C5  UNL     1       3.174  -1.220  -1.812  1.00  0.00     0.117 C 
BRANCH  26  27
HETATM   27  C6  UNL     1       4.495  -1.318  -1.257  1.00  0.00     0.172 C 
HETATM   28  O3  UNL     1       4.923  -2.290  -0.591  1.00  0.00    -0.648 OA
HETATM   29  O4  UNL     1       5.435  -0.285  -1.438  1.00  0.00    -0.648 OA
ENDBRANCH  26  27
ENDBRANCH  25  26
ENDBRANCH   1  25
BRANCH  17  30
HETATM   30  C22 UNL     1       0.609   0.241   2.127  1.00  0.00     0.209 C 
BRANCH  30  31
HETATM   31  O20 UNL     1       0.559  -0.878   2.961  1.00  0.00    -0.398 OA
ATOM     32  H20 UNL     1       0.648  -0.782   3.902  1.00  0.00     0.209 HD
ENDBRANCH  30  31
ENDBRANCH  17  30
BRANCH   5  33
HETATM   33  O7  UNL     1      -2.034  -3.286   1.010  1.00  0.00    -0.375 OA
ATOM     34  H7  UNL     1      -2.922  -2.983   0.864  1.00  0.00     0.211 HD
ENDBRANCH   5  33
BRANCH  15  35
HETATM   35  C20 UNL     1       1.150   3.619   0.503  1.00  0.00     0.199 C 
BRANCH  35  36
HETATM   36  O18 UNL     1       0.993   4.773   1.211  1.00  0.00    -0.398 OA
ATOM     37  H18 UNL     1       1.475   5.536   0.914  1.00  0.00     0.209 HD
ENDBRANCH  35  36
ENDBRANCH  15  35
BRANCH   6  38
HETATM   38  O8  UNL     1      -2.113  -3.000  -1.372  1.00  0.00    -0.391 OA
ATOM     39  H8  UNL     1      -2.142  -2.874  -2.313  1.00  0.00     0.210 HD
ENDBRANCH   6  38
BRANCH   8  40
HETATM   40  O9  UNL     1      -3.073  -1.439  -2.472  1.00  0.00    -0.376 OA
ATOM     41  H9  UNL     1      -4.001  -1.349  -2.654  1.00  0.00     0.211 HD
ENDBRANCH   8  40
BRANCH   8  42
HETATM   42  C12 UNL     1      -3.178   0.699  -2.178  1.00  0.00     0.213 C 
HETATM   43  O10 UNL     1      -3.823   1.577  -1.552  1.00  0.00    -0.646 OA
HETATM   44  O11 UNL     1      -2.858   0.896  -3.484  1.00  0.00    -0.646 OA
ENDBRANCH   8  42
BRANCH  14  45
HETATM   45  C18 UNL     1      -1.393   3.649   0.003  1.00  0.00     0.205 C 
HETATM   46  O16 UNL     1      -1.554   4.757   0.624  1.00  0.00    -0.646 OA
HETATM   47  O17 UNL     1      -1.509   3.819  -1.366  1.00  0.00    -0.646 OA
ENDBRANCH  14  45
BRANCH   9  48
HETATM   48  C14 UNL     1      -4.869  -1.509  -0.371  1.00  0.00     0.206 C 
HETATM   49  O12 UNL     1      -5.649  -1.384  -1.353  1.00  0.00    -0.646 OA
HETATM   50  O13 UNL     1      -5.267  -2.475   0.551  1.00  0.00    -0.646 OA
ENDBRANCH   9  48
TORSDOF 16
