REMARK  19 active torsions:
REMARK  status: ('A' for Active; 'I' for Inactive)
REMARK       I    between atoms: C2_2  and  N1_4 
REMARK    1  A    between atoms: N1_4  and  C3_6 
REMARK    2  A    between atoms: C5_8  and  N2_9 
REMARK    3  A    between atoms: C6_13  and  O2_14 
REMARK    4  A    between atoms: O2_14  and  C7_15 
REMARK    5  A    between atoms: C7_15  and  C9_17 
REMARK    6  A    between atoms: C9_17  and  O3_18 
REMARK    7  A    between atoms: C9_17  and  C10_20 
REMARK    8  A    between atoms: C9_17  and  C11_23 
REMARK    9  A    between atoms: C10_20  and  O4_21 
REMARK   10  A    between atoms: C11_23  and  O5_24 
REMARK   11  A    between atoms: C12_27  and  N3_28 
REMARK   12  A    between atoms: C13_29  and  N4_30 
REMARK   13  A    between atoms: N7_38  and  N8_40 
REMARK   14  A    between atoms: C18_46  and  N10_47 
REMARK   15  A    between atoms: N10_47  and  C19_49 
REMARK   16  A    between atoms: C19_49  and  C20_50 
REMARK   17  A    between atoms: C20_50  and  O7_51 
REMARK   18  A    between atoms: C20_50  and  C21_53 
REMARK   19  A    between atoms: C21_53  and  O8_54 
ROOT
HETATM    1  N3  UNL     1      -0.904  -0.548   0.195  1.00  0.00    -0.134 N 
HETATM    2  C13 UNL     1      -1.972  -1.240   0.613  1.00  0.00     0.725 A 
HETATM    3  N9  UNL     1      -3.115  -0.660   0.128  1.00  0.00    -0.181 N 
ATOM      4  H9  UNL     1      -4.069  -0.983   0.291  1.00  0.00     0.184 HD
HETATM    5  C17 UNL     1      -2.761   0.391  -0.588  1.00  0.00     0.137 A 
HETATM    6  C18 UNL     1      -3.551   1.318  -1.284  1.00  0.00     0.133 A 
HETATM    7  N11 UNL     1      -2.900   2.303  -1.924  1.00  0.00    -0.337 N 
ATOM      8  H11 UNL     1      -3.441   2.996  -2.441  1.00  0.00     0.168 HD
HETATM    9  C22 UNL     1      -1.547   2.408  -1.907  1.00  0.00     0.183 A 
HETATM   10  N12 UNL     1      -0.849   1.494  -1.227  1.00  0.00    -0.336 N 
ATOM     11  H12 UNL     1       0.167   1.579  -1.219  1.00  0.00     0.168 HD
HETATM   12  C23 UNL     1      -1.400   0.469  -0.553  1.00  0.00     0.158 A 
ENDROOT
BRANCH   1  13
HETATM   13  C12 UNL     1       0.457  -0.857   0.514  1.00  0.00     0.273 C 
HETATM   14  C3  UNL     1       1.163  -1.868  -0.273  1.00  0.00     0.136 C 
HETATM   15  C4  UNL     1       1.590  -1.320  -1.606  1.00  0.00     0.067 C 
HETATM   16  C5  UNL     1       2.641  -0.275  -1.303  1.00  0.00     0.240 C 
HETATM   17  C6  UNL     1       2.486   0.221   0.114  1.00  0.00     0.293 C 
HETATM   18  O6  UNL     1       1.171   0.333   0.505  1.00  0.00    -0.332 OA
BRANCH  14  19
HETATM   19  N1  UNL     1       0.586  -3.162  -0.363  1.00  0.00    -0.352 N 
HETATM   20  C2  UNL     1       1.209  -4.285   0.201  1.00  0.00     0.214 C 
HETATM   21  C1  UNL     1       0.545  -5.615   0.067  1.00  0.00     0.117 C 
HETATM   22  O1  UNL     1       2.308  -4.150   0.805  1.00  0.00    -0.274 OA
ATOM     23  H1  UNL     1      -0.303  -3.278  -0.850  1.00  0.00     0.163 HD
ENDBRANCH  14  19
BRANCH  16  24
HETATM   24  N2  UNL     1       2.632   0.796  -2.270  1.00  0.00    -0.070 N 
ATOM     25  H23 UNL     1       2.729   0.438  -3.220  1.00  0.00     0.274 HD
ATOM     26  H22 UNL     1       1.705   1.215  -2.350  1.00  0.00     0.274 HD
ATOM     27  H21 UNL     1       3.341   1.501  -2.066  1.00  0.00     0.274 HD
ENDBRANCH  16  24
BRANCH  17  28
HETATM   28  O2  UNL     1       3.018   1.508   0.140  1.00  0.00    -0.351 OA
BRANCH  28  29
HETATM   29  C7  UNL     1       4.029   1.621   1.056  1.00  0.00     0.159 C 
HETATM   30  C8  UNL     1       3.630   2.575   2.168  1.00  0.00     0.043 C 
BRANCH  29  31
HETATM   31  C9  UNL     1       5.299   2.028   0.387  1.00  0.00     0.125 C 
BRANCH  31  32
HETATM   32  O3  UNL     1       5.694   1.085  -0.558  1.00  0.00    -0.383 OA
ATOM     33  H3  UNL     1       6.503   1.344  -0.984  1.00  0.00     0.210 HD
ENDBRANCH  31  32
BRANCH  31  34
HETATM   34  C10 UNL     1       6.409   2.081   1.423  1.00  0.00     0.206 C 
BRANCH  34  35
HETATM   35  O4  UNL     1       7.622   2.458   0.829  1.00  0.00    -0.398 OA
ATOM     36  H4  UNL     1       8.316   2.491   1.477  1.00  0.00     0.209 HD
ENDBRANCH  34  35
ENDBRANCH  31  34
BRANCH  31  37
HETATM   37  C11 UNL     1       5.157   3.370  -0.314  1.00  0.00     0.206 C 
BRANCH  37  38
HETATM   38  O5  UNL     1       6.390   3.722  -0.870  1.00  0.00    -0.398 OA
ATOM     39  H5  UNL     1       6.301   4.560  -1.308  1.00  0.00     0.209 HD
ENDBRANCH  37  38
ENDBRANCH  31  37
ENDBRANCH  29  31
ENDBRANCH  28  29
ENDBRANCH  17  28
ENDBRANCH   1  13
BRANCH   2  40
HETATM   40  N4  UNL     1      -2.092  -2.385   1.433  1.00  0.00     0.093 N 
HETATM   41  N5  UNL     1      -1.499  -2.564   2.594  1.00  0.00    -0.253 N 
HETATM   42  C14 UNL     1      -1.840  -3.769   3.117  1.00  0.00     0.109 A 
ATOM     43  H5  UNL     1      -0.872  -1.893   3.038  1.00  0.00     0.190 HD
HETATM   44  C15 UNL     1      -1.377  -4.353   4.424  1.00  0.00     0.091 C 
HETATM   45  N6  UNL     1      -2.669  -4.333   2.236  1.00  0.00    -0.176 N 
HETATM   46  C16 UNL     1      -2.820  -3.490   1.216  1.00  0.00     0.734 A 
ATOM     47  H6  UNL     1      -3.109  -5.248   2.328  1.00  0.00     0.185 HD
HETATM   48  N7  UNL     1      -3.539  -3.638   0.143  1.00  0.00    -0.136 N 
ATOM     49  H7  UNL     1      -3.547  -2.890  -0.550  1.00  0.00     0.205 HD
BRANCH  48  50
HETATM   50  N8  UNL     1      -4.293  -4.772  -0.093  1.00  0.00    -0.331 N 
ATOM     51  H82 UNL     1      -4.274  -5.510   0.610  1.00  0.00     0.177 HD
ATOM     52  H81 UNL     1      -4.857  -4.888  -0.935  1.00  0.00     0.177 HD
ENDBRANCH  48  50
ENDBRANCH   2  40
BRANCH   6  53
HETATM   53  N10 UNL     1      -4.833   1.194  -1.283  1.00  0.00    -0.372 N 
ATOM     54  H10 UNL     1      -5.257   0.419  -0.774  1.00  0.00     0.161 HD
BRANCH  53  55
HETATM   55  C19 UNL     1      -5.679   2.120  -1.981  1.00  0.00     0.155 C 
BRANCH  55  56
HETATM   56  C20 UNL     1      -5.985   3.366  -1.161  1.00  0.00     0.159 C 
BRANCH  56  57
HETATM   57  O7  UNL     1      -6.634   3.008   0.018  1.00  0.00    -0.392 OA
ATOM     58  H7  UNL     1      -6.825   3.785   0.530  1.00  0.00     0.210 HD
ENDBRANCH  56  57
BRANCH  56  59
HETATM   59  C21 UNL     1      -6.826   4.291  -2.009  1.00  0.00     0.197 C 
BRANCH  59  60
HETATM   60  O8  UNL     1      -6.113   4.599  -3.159  1.00  0.00    -0.398 OA
ATOM     61  H8  UNL     1      -6.642   5.181  -3.692  1.00  0.00     0.209 HD
ENDBRANCH  59  60
ENDBRANCH  56  59
ENDBRANCH  55  56
ENDBRANCH  53  55
ENDBRANCH   6  53
TORSDOF 19
