REMARK  7 active torsions:
REMARK  status: ('A' for Active; 'I' for Inactive)
REMARK    1  A    between atoms: C2_2  and  C3_3 
REMARK    2  A    between atoms: C3_3  and  C4_4 
REMARK    3  A    between atoms: C4_4  and  O1_5 
REMARK    4  A    between atoms: C4_4  and  C5_7 
REMARK    5  A    between atoms: C5_7  and  O2_8 
REMARK    6  A    between atoms: O2_8  and  C6_9 
REMARK    7  A    between atoms: C6_9  and  C7_10 
ROOT
HETATM    1  C6  UNL     1       0.178   0.711   2.110  1.00  0.00     0.206 C 
ENDROOT
BRANCH   1   2
HETATM    2  O2  UNL     1      -0.489   1.720   1.478  1.00  0.00    -0.384 OA
BRANCH   2   3
HETATM    3  C5  UNL     1      -1.012   1.374   0.279  1.00  0.00     0.199 C 
BRANCH   3   4
HETATM    4  C4  UNL     1      -2.092   0.308   0.363  1.00  0.00     0.142 C 
BRANCH   4   5
HETATM    5  C3  UNL     1      -2.556  -0.059  -1.028  1.00  0.00     0.033 C 
BRANCH   5   6
HETATM    6  C2  UNL     1      -3.595  -1.113  -1.012  1.00  0.00    -0.002 C 
HETATM    7  C1  UNL     1      -4.808  -0.670  -0.278  1.00  0.00     0.005 C 
ENDBRANCH   5   6
ENDBRANCH   4   5
BRANCH   4   8
HETATM    8  O1  UNL     1      -3.141   0.804   1.166  1.00  0.00    -0.393 OA
ATOM      9  H1  UNL     1      -2.849   1.035   2.040  1.00  0.00     0.210 HD
ENDBRANCH   4   8
ENDBRANCH   3   4
ENDBRANCH   2   3
ENDBRANCH   1   2
BRANCH   1  10
HETATM   10  C7  UNL     1       1.337   0.297   1.273  1.00  0.00    -0.034 A 
HETATM   11  C8  UNL     1       1.352  -0.915   0.635  1.00  0.00     0.016 A 
HETATM   12  C9  UNL     1       2.443  -1.274  -0.137  1.00  0.00    -0.061 A 
HETATM   13  C10 UNL     1       2.421  -2.598  -0.812  1.00  0.00     0.048 C 
HETATM   14  C11 UNL     1       3.510  -0.393  -0.252  1.00  0.00     0.013 A 
HETATM   15  C12 UNL     1       3.509   0.829   0.382  1.00  0.00    -0.061 A 
HETATM   16  C13 UNL     1       4.632   1.799   0.283  1.00  0.00     0.048 C 
HETATM   17  C14 UNL     1       2.419   1.177   1.149  1.00  0.00     0.016 A 
ENDBRANCH   1  10
TORSDOF 7
