REMARK  2 active torsions:
REMARK  status: ('A' for Active; 'I' for Inactive)
REMARK    1  A    between atoms: C4_4  and  N1_5 
REMARK    2  A    between atoms: N1_5  and  C5_7 
ROOT
HETATM    1  N1  UNL     1       0.621   1.044   0.125  1.00  0.00    -0.358 N 
ATOM      2  H1  UNL     1       0.640   2.053  -0.023  1.00  0.00     0.163 HD
ENDROOT
BRANCH   1   3
HETATM    3  C4  UNL     1      -0.641   0.371   0.324  1.00  0.00     0.084 C 
HETATM    4  C3  UNL     1      -0.855  -0.667  -0.761  1.00  0.00     0.025 C 
HETATM    5  C2  UNL     1      -2.223  -1.295  -0.491  1.00  0.00     0.002 C 
HETATM    6  C1  UNL     1      -3.250  -0.224  -0.722  1.00  0.00     0.000 C 
HETATM    7  C9  UNL     1      -3.112   0.785   0.403  1.00  0.00     0.002 C 
HETATM    8  C8  UNL     1      -1.729   1.387   0.396  1.00  0.00     0.025 C 
ENDBRANCH   1   3
BRANCH   1   9
HETATM    9  C5  UNL     1       1.866   0.290   0.134  1.00  0.00     0.171 C 
HETATM   10  N2  UNL     1       2.067  -0.833   0.705  1.00  0.00    -0.361 N 
HETATM   11  C6  UNL     1       3.395  -1.340   0.545  1.00  0.00     0.142 C 
ATOM     12  H2  UNL     1       1.344  -1.326   1.229  1.00  0.00     0.162 HD
HETATM   13  C7  UNL     1       4.160  -0.097   0.078  1.00  0.00     0.142 C 
HETATM   14  N3  UNL     1       3.074   0.681  -0.498  1.00  0.00    -0.361 N 
ATOM     15  H3  UNL     1       3.166   1.386  -1.230  1.00  0.00     0.162 HD
ENDBRANCH   1   9
TORSDOF 2
