REMARK  1 active torsions:
REMARK  status: ('A' for Active; 'I' for Inactive)
REMARK    1  A    between atoms: C4_7  and  C5_8 
ROOT
HETATM    1  N1  UNL     1      -4.113  -0.084   1.214  1.00  0.00    -0.406 N 
ATOM      2  H11 UNL     1      -4.244  -0.644   2.056  1.00  0.00     0.155 HD
ATOM      3  H12 UNL     1      -4.990   0.407   1.041  1.00  0.00     0.155 HD
HETATM    4  C1  UNL     1      -3.065  -0.011   0.516  1.00  0.00    -0.020 C 
HETATM    5  C2  UNL     1      -2.876   0.798  -0.700  1.00  0.00     0.052 C 
HETATM    6  C3  UNL     1      -1.420   1.143  -0.679  1.00  0.00     0.011 C 
HETATM    7  C4  UNL     1      -0.768   0.317   0.407  1.00  0.00    -0.005 C 
HETATM    8  C10 UNL     1      -1.796  -0.722   0.766  1.00  0.00     0.057 C 
ENDROOT
BRANCH   7   9
HETATM    9  C5  UNL     1       0.508  -0.240  -0.115  1.00  0.00    -0.007 C 
HETATM   10  C6  UNL     1       1.394   0.933  -0.506  1.00  0.00     0.032 C 
HETATM   11  C7  UNL     1       2.637   0.329  -1.141  1.00  0.00     0.232 C 
HETATM   12  N2  UNL     1       3.357  -0.349  -0.093  1.00  0.00    -0.075 N 
HETATM   13  C8  UNL     1       2.633  -1.403   0.531  1.00  0.00     0.232 C 
ATOM     14  H22 UNL     1       4.253  -0.690  -0.440  1.00  0.00     0.277 HD
ATOM     15  H21 UNL     1       3.683   0.320   0.605  1.00  0.00     0.277 HD
HETATM   16  C9  UNL     1       1.228  -1.102   0.889  1.00  0.00     0.032 C 
ENDBRANCH   7   9
TORSDOF 1
