REMARK  5 active torsions:
REMARK  status: ('A' for Active; 'I' for Inactive)
REMARK    1  A    between atoms: C1_4  and  O1_6 
REMARK    2  A    between atoms: O1_6  and  C2_7 
REMARK    3  A    between atoms: C2_7  and  N3_9 
REMARK    4  A    between atoms: N3_9  and  N4_11 
REMARK    5  A    between atoms: N4_11  and  C3_13 
ROOT
HETATM    1  N3  UNL     1       0.361   0.272  -0.794  1.00  0.00    -0.256 N 
ATOM      2  H3  UNL     1       0.208   0.013  -1.769  1.00  0.00     0.190 HD
ENDROOT
BRANCH   1   3
HETATM    3  C2  UNL     1      -0.559  -0.124   0.210  1.00  0.00     0.237 C 
HETATM    4  S1  UNL     1      -0.302   0.294   1.748  1.00  0.00    -0.031 SA
BRANCH   3   5
HETATM    5  O1  UNL     1      -1.659  -0.870  -0.203  1.00  0.00    -0.253 OA
BRANCH   5   6
HETATM    6  C1  UNL     1      -2.956  -0.548   0.228  1.00  0.00     0.232 C 
HETATM    7  N1  UNL     1      -3.038  -0.196   1.486  1.00  0.00    -0.367 N 
ATOM      8  H12 UNL     1      -3.980   0.038   1.799  1.00  0.00     0.159 HD
ATOM      9  H11 UNL     1      -2.228  -0.158   2.105  1.00  0.00     0.159 HD
HETATM   10  N2  UNL     1      -4.076  -0.600  -0.628  1.00  0.00    -0.056 NA
ENDBRANCH   5   6
ENDBRANCH   3   5
ENDBRANCH   1   3
BRANCH   1  11
HETATM   11  N4  UNL     1       1.467   1.014  -0.430  1.00  0.00    -0.127 N 
ATOM     12  H4  UNL     1       1.434   2.016  -0.618  1.00  0.00     0.206 HD
BRANCH  11  13
HETATM   13  C3  UNL     1       2.519   0.566   0.116  1.00  0.00     0.725 A 
HETATM   14  N5  UNL     1       3.577   1.324   0.456  1.00  0.00    -0.117 N 
HETATM   15  N6  UNL     1       4.507   0.565   1.003  1.00  0.00    -0.211 N 
ATOM     16  H5  UNL     1       3.649   2.331   0.313  1.00  0.00     0.207 HD
HETATM   17  N7  UNL     1       4.071  -0.693   1.027  1.00  0.00     0.009 NA
ATOM     18  H6  UNL     1       5.410   0.888   1.350  1.00  0.00     0.206 HD
HETATM   19  N8  UNL     1       2.851  -0.696   0.483  1.00  0.00    -0.112 N 
ATOM     20  H8  UNL     1       2.261  -1.519   0.363  1.00  0.00     0.203 HD
ENDBRANCH  11  13
ENDBRANCH   1  11
TORSDOF 5
