REMARK  4 active torsions:
REMARK  status: ('A' for Active; 'I' for Inactive)
REMARK    1  A    between atoms: N1_1  and  C1_4 
REMARK    2  A    between atoms: C2_7  and  N3_8 
REMARK    3  A    between atoms: N3_8  and  N4_10 
REMARK    4  A    between atoms: S1_15  and  C3_16 
ROOT
HETATM    1  C1  UNL     1      -0.259  -1.769  -0.364  1.00  0.00     0.170 A 
HETATM    2  N2  UNL     1      -1.572  -1.544  -0.289  1.00  0.00    -0.168 N 
ATOM      3  H2  UNL     1      -2.238  -2.313  -0.366  1.00  0.00     0.186 HD
HETATM    4  C2  UNL     1      -1.984  -0.320  -0.115  1.00  0.00     0.704 A 
HETATM    5  N5  UNL     1      -1.061   0.643  -0.023  1.00  0.00    -0.159 N 
ATOM      6  H5  UNL     1      -1.201   1.644   0.112  1.00  0.00     0.192 HD
HETATM    7  S1  UNL     1       0.391  -0.199  -0.184  1.00  0.00     0.030 SA
ENDROOT
BRANCH   7   8
HETATM    8  C3  UNL     1       2.079   0.257   0.196  1.00  0.00     0.193 A 
HETATM    9  N6  UNL     1       2.840  -0.151   1.230  1.00  0.00    -0.262 N 
HETATM   10  N7  UNL     1       4.020   0.431   1.125  1.00  0.00    -0.226 N 
ATOM     11  H6  UNL     1       2.554  -0.797   1.966  1.00  0.00     0.190 HD
HETATM   12  N8  UNL     1       4.025   1.199   0.047  1.00  0.00    -0.226 N 
ATOM     13  H7  UNL     1       4.801   0.309   1.770  1.00  0.00     0.210 HD
HETATM   14  N9  UNL     1       2.857   1.102  -0.523  1.00  0.00    -0.262 N 
ATOM     15  H8  UNL     1       4.806   1.767  -0.280  1.00  0.00     0.210 HD
ATOM     16  H9  UNL     1       2.573   1.585  -1.375  1.00  0.00     0.190 HD
ENDBRANCH   7   8
BRANCH   1  17
HETATM   17  N1  UNL     1       0.391  -2.876  -0.530  1.00  0.00    -0.378 N 
ATOM     18  H12 UNL     1       0.003  -3.813  -0.637  1.00  0.00     0.158 HD
ATOM     19  H11 UNL     1       1.395  -3.048  -0.587  1.00  0.00     0.158 HD
ENDBRANCH   1  17
BRANCH   4  20
HETATM   20  N3  UNL     1      -3.263   0.014  -0.026  1.00  0.00    -0.138 N 
ATOM     21  H3  UNL     1      -3.970  -0.718  -0.096  1.00  0.00     0.205 HD
BRANCH  20  22
HETATM   22  N4  UNL     1      -3.671   1.319   0.158  1.00  0.00    -0.331 N 
ATOM     23  H42 UNL     1      -2.951   2.039   0.226  1.00  0.00     0.177 HD
ATOM     24  H41 UNL     1      -4.656   1.576   0.227  1.00  0.00     0.177 HD
ENDBRANCH  20  22
ENDBRANCH   4  20
TORSDOF 4
