REMARK  3 active torsions:
REMARK  status: ('A' for Active; 'I' for Inactive)
REMARK    1  A    between atoms: N1_1  and  C1_4 
REMARK    2  A    between atoms: C4_12  and  N4_13 
REMARK    3  A    between atoms: N5_16  and  C5_17 
ROOT
HETATM    1  C1  UNL     1      -2.306   0.270   0.398  1.00  0.00     0.680 A 
HETATM    2  N2  UNL     1      -2.369  -1.070   0.299  1.00  0.00    -0.154 N 
ATOM      3  H2  UNL     1      -3.257  -1.570   0.336  1.00  0.00     0.187 HD
HETATM    4  C2  UNL     1      -1.199  -1.715   0.149  1.00  0.00     0.290 A 
HETATM    5  O1  UNL     1      -1.208  -2.974   0.052  1.00  0.00    -0.265 OA
HETATM    6  C3  UNL     1       0.024  -1.088   0.094  1.00  0.00     0.163 A 
HETATM    7  N3  UNL     1       1.305  -1.479  -0.045  1.00  0.00    -0.182 N 
ATOM      8  H3  UNL     1       1.625  -2.442  -0.146  1.00  0.00     0.184 HD
HETATM    9  C4  UNL     1       2.093  -0.390  -0.028  1.00  0.00     0.687 A 
HETATM   10  N5  UNL     1       1.330   0.720   0.124  1.00  0.00    -0.105 N 
HETATM   11  C6  UNL     1       0.057   0.291   0.198  1.00  0.00     0.179 A 
HETATM   12  N6  UNL     1      -1.118   0.928   0.348  1.00  0.00    -0.173 N 
ATOM     13  H6  UNL     1      -1.117   1.945   0.427  1.00  0.00     0.186 HD
ENDROOT
BRANCH   1  14
HETATM   14  N1  UNL     1      -3.415   0.899   0.541  1.00  0.00    -0.234 N 
ATOM     15  H12 UNL     1      -4.307   0.405   0.579  1.00  0.00     0.174 HD
ATOM     16  H11 UNL     1      -3.367   1.915   0.616  1.00  0.00     0.174 HD
ENDBRANCH   1  14
BRANCH  10  17
HETATM   17  C5  UNL     1       1.821   2.052   0.185  1.00  0.00     0.378 C 
HETATM   18  O2  UNL     1       1.074   3.037   0.325  1.00  0.00    -0.282 OA
ENDBRANCH  10  17
BRANCH   9  19
HETATM   19  N4  UNL     1       3.363  -0.377  -0.135  1.00  0.00    -0.234 N 
ATOM     20  H42 UNL     1       3.937  -1.212  -0.249  1.00  0.00     0.174 HD
ATOM     21  H41 UNL     1       3.961   0.449  -0.122  1.00  0.00     0.174 HD
ENDBRANCH   9  19
TORSDOF 3
