REMARK  3 active torsions:
REMARK  status: ('A' for Active; 'I' for Inactive)
REMARK    1  A    between atoms: C3_3  and  O1_4 
REMARK    2  A    between atoms: C9_12  and  C10_13 
REMARK       I    between atoms: C10_13  and  N1_15 
REMARK    3  A    between atoms: C11_17  and  C12_18 
ROOT
HETATM    1  C1  UNL     1      -3.794   1.240  -1.354  1.00  0.00     0.013 C 
HETATM    2  C2  UNL     1      -3.659   1.253   0.098  1.00  0.00     0.020 C 
HETATM    3  C3  UNL     1      -4.595   0.188   0.708  1.00  0.00     0.129 C 
HETATM    4  C4  UNL     1      -3.422  -0.384   1.416  1.00  0.00     0.053 C 
HETATM    5  C5  UNL     1      -3.017  -1.711   0.884  1.00  0.00     0.129 C 
HETATM    6  C6  UNL     1      -1.537  -1.906   1.262  1.00  0.00     0.044 C 
HETATM    7  C7  UNL     1      -0.980  -1.007   0.132  1.00  0.00     0.047 C 
HETATM    8  C8  UNL     1      -1.769  -1.529  -0.983  1.00  0.00     0.177 C 
HETATM    9  O2  UNL     1      -3.053  -1.697  -0.489  1.00  0.00    -0.385 OA
HETATM   10  C9  UNL     1      -1.219   0.398   0.604  1.00  0.00    -0.001 C 
HETATM   11  C17 UNL     1      -2.595   0.787   0.942  1.00  0.00     0.036 C 
ENDROOT
BRANCH  10  12
HETATM   12  C10 UNL     1      -0.369   1.418  -0.023  1.00  0.00     0.248 C 
HETATM   13  O3  UNL     1      -0.870   2.411  -0.563  1.00  0.00    -0.268 OA
HETATM   14  N1  UNL     1       1.030   1.271  -0.012  1.00  0.00    -0.335 N 
HETATM   15  C11 UNL     1       1.759   0.850  -0.953  1.00  0.00     0.097 C 
ATOM     16  H1  UNL     1       1.508   1.533   0.850  1.00  0.00     0.168 HD
BRANCH  15  17
HETATM   17  C12 UNL     1       3.217   0.760  -0.765  1.00  0.00     0.224 C 
HETATM   18  C13 UNL     1       3.552   0.189   0.596  1.00  0.00     0.038 C 
HETATM   19  C14 UNL     1       4.873  -0.537   0.599  1.00  0.00     0.004 C 
HETATM   20  C15 UNL     1       5.845  -0.024  -0.409  1.00  0.00     0.027 C 
HETATM   21  C16 UNL     1       5.264   0.254  -1.755  1.00  0.00     0.233 C 
HETATM   22  N2  UNL     1       3.861  -0.084  -1.750  1.00  0.00    -0.066 N 
ATOM     23  H22 UNL     1       3.691  -1.078  -1.596  1.00  0.00     0.278 HD
ATOM     24  H21 UNL     1       3.432  -0.018  -2.673  1.00  0.00     0.278 HD
ENDBRANCH  15  17
ENDBRANCH  10  12
BRANCH   3  25
HETATM   25  O1  UNL     1      -5.592   0.649   1.523  1.00  0.00    -0.395 OA
ATOM     26  H1  UNL     1      -6.168  -0.006   1.898  1.00  0.00     0.210 HD
ENDBRANCH   3  25
TORSDOF 3
