REMARK  3 active torsions:
REMARK  status: ('A' for Active; 'I' for Inactive)
REMARK    1  A    between atoms: C6_7  and  C7_8 
REMARK       I    between atoms: C7_8  and  N1_10 
REMARK    2  A    between atoms: N1_10  and  N2_12 
REMARK       I    between atoms: N2_12  and  C8_14 
REMARK    3  A    between atoms: C8_14  and  C9_16 
ROOT
HETATM    1  C7  UNL     1      -0.091  -0.372  -0.777  1.00  0.00     0.240 C 
HETATM    2  O2  UNL     1      -0.380   0.370  -1.744  1.00  0.00    -0.271 OA
HETATM    3  N1  UNL     1      -1.047  -1.277  -0.252  1.00  0.00    -0.267 N 
ATOM      4  H1  UNL     1      -0.790  -1.871   0.536  1.00  0.00     0.190 HD
ENDROOT
BRANCH   1   5
HETATM    5  C6  UNL     1       1.234  -0.313  -0.178  1.00  0.00     0.085 C 
HETATM    6  C5  UNL     1       1.087   0.073   1.275  1.00  0.00     0.019 C 
HETATM    7  C4  UNL     1       2.136   1.132   1.546  1.00  0.00     0.069 C 
HETATM    8  C3  UNL     1       3.093   0.907   0.407  1.00  0.00     0.166 C 
HETATM    9  O1  UNL     1       4.000   1.916   0.225  1.00  0.00    -0.348 OA
HETATM   10  C14 UNL     1       2.129   0.741  -0.749  1.00  0.00     0.082 C 
HETATM   11  O4  UNL     1       3.761  -0.274   0.610  1.00  0.00    -0.348 OA
HETATM   12  C2  UNL     1       5.057   1.244  -0.430  1.00  0.00     0.150 C 
HETATM   13  C1  UNL     1       6.354   1.964  -0.288  1.00  0.00     0.042 C 
HETATM   14  C15 UNL     1       5.117  -0.039   0.402  1.00  0.00     0.150 C 
HETATM   15  C16 UNL     1       5.686  -1.167  -0.390  1.00  0.00     0.042 C 
ENDBRANCH   1   5
BRANCH   3  16
HETATM   16  N2  UNL     1      -2.341  -1.376  -0.791  1.00  0.00    -0.267 N 
HETATM   17  C8  UNL     1      -3.502  -1.101  -0.020  1.00  0.00     0.241 C 
HETATM   18  O3  UNL     1      -3.324  -0.758   1.188  1.00  0.00    -0.271 OA
ATOM     19  H2  UNL     1      -2.450  -1.654  -1.766  1.00  0.00     0.190 HD
BRANCH  17  20
HETATM   20  C9  UNL     1      -4.861  -1.203  -0.584  1.00  0.00     0.088 A 
HETATM   21  C10 UNL     1      -5.978  -1.782   0.227  1.00  0.00     0.024 A 
HETATM   22  C11 UNL     1      -5.946  -0.310  -0.110  1.00  0.00    -0.035 A 
HETATM   23  C12 UNL     1      -6.909   0.217  -1.161  1.00  0.00     0.015 C 
HETATM   24  C13 UNL     1      -5.735   0.579   1.093  1.00  0.00     0.015 C 
ENDBRANCH  17  20
ENDBRANCH   3  16
TORSDOF 3
