REMARK  2 active torsions:
REMARK  status: ('A' for Active; 'I' for Inactive)
REMARK       I    between atoms: C1_2  and  N1_3 
REMARK       I    between atoms: C1_2  and  N4_21 
REMARK    1  A    between atoms: N1_3  and  C2_5 
REMARK    2  A    between atoms: N2_7  and  C4_8 
ROOT
HETATM    1  C2  UNL     1       0.470   0.108  -0.047  1.00  0.00     0.124 C 
HETATM    2  C3  UNL     1       0.010  -0.434  -1.357  1.00  0.00     0.298 C 
HETATM    3  N2  UNL     1      -1.407  -0.645  -1.124  1.00  0.00     0.097 N 
HETATM    4  C8  UNL     1      -1.566  -0.915   0.284  1.00  0.00     0.284 C 
HETATM    5  C9  UNL     1      -0.190  -0.822   0.913  1.00  0.00     0.008 C 
HETATM    6  C10 UNL     1      -0.235  -0.308   2.321  1.00  0.00     0.013 C 
HETATM    7  C11 UNL     1      -0.612  -1.555   3.092  1.00  0.00     0.001 C 
HETATM    8  C12 UNL     1       0.148  -2.639   2.381  1.00  0.00     0.001 C 
HETATM    9  C13 UNL     1       0.380  -2.191   0.970  1.00  0.00     0.013 C 
ENDROOT
BRANCH   1  10
HETATM   10  N1  UNL     1       1.875   0.255   0.108  1.00  0.00    -0.336 N 
HETATM   11  C1  UNL     1       2.579   1.434   0.375  1.00  0.00     0.320 C 
HETATM   12  O1  UNL     1       1.954   2.505   0.502  1.00  0.00    -0.247 OA
HETATM   13  N4  UNL     1       3.972   1.442   0.506  1.00  0.00    -0.316 N 
HETATM   14  C14 UNL     1       4.994   0.416   0.424  1.00  0.00     0.204 C 
HETATM   15  C15 UNL     1       4.980   2.442   0.771  1.00  0.00     0.204 C 
HETATM   16  S1  UNL     1       6.236   1.566  -0.159  1.00  0.00    -0.129 SA
ATOM     17  H1  UNL     1       2.432  -0.594   0.014  1.00  0.00     0.164 HD
ENDBRANCH   1  10
BRANCH   3  18
HETATM   18  C4  UNL     1      -2.192   0.504  -1.541  1.00  0.00     0.250 C 
HETATM   19  C5  UNL     1      -3.665   0.283  -1.280  1.00  0.00     0.065 C 
HETATM   20  C6  UNL     1      -4.326   1.129  -2.355  1.00  0.00     0.234 C 
HETATM   21  N3  UNL     1      -3.345   1.386  -3.362  1.00  0.00    -0.073 N 
HETATM   22  C7  UNL     1      -2.178   0.567  -3.064  1.00  0.00     0.268 C 
ATOM     23  H32 UNL     1      -3.700   1.241  -4.307  1.00  0.00     0.277 HD
ATOM     24  H31 UNL     1      -3.121   2.377  -3.453  1.00  0.00     0.277 HD
ENDBRANCH   3  18
TORSDOF 2
