REMARK  13 active torsions:
REMARK  status: ('A' for Active; 'I' for Inactive)
REMARK    1  A    between atoms: N1_2  and  S1_4 
REMARK    2  A    between atoms: S1_4  and  C2_7 
REMARK    3  A    between atoms: C2_7  and  C3_8 
REMARK    4  A    between atoms: C3_8  and  C4_9 
REMARK    5  A    between atoms: C4_9  and  C5_10 
REMARK    6  A    between atoms: C5_10  and  C6_11 
REMARK    7  A    between atoms: C6_11  and  C7_12 
REMARK    8  A    between atoms: C7_12  and  C8_13 
REMARK    9  A    between atoms: C8_13  and  N2_14 
REMARK   10  A    between atoms: N2_14  and  C9_16 
REMARK   11  A    between atoms: C10_19  and  N4_20 
REMARK   12  A    between atoms: C12_26  and  C13_27 
REMARK   13  A    between atoms: C13_27  and  C14_28 
ROOT
HETATM    1  C9  UNL     1      -3.057  -0.593  -0.478  1.00  0.00     0.124 A 
HETATM    2  N3  UNL     1      -2.695  -1.007  -1.701  1.00  0.00    -0.177 N 
ATOM      3  H3  UNL     1      -1.868  -0.621  -2.157  1.00  0.00     0.186 HD
HETATM    4  C10 UNL     1      -3.450  -1.950  -2.320  1.00  0.00     0.677 A 
HETATM    5  N5  UNL     1      -4.543  -2.474  -1.742  1.00  0.00    -0.202 N 
ATOM      6  H5  UNL     1      -5.077  -3.180  -2.249  1.00  0.00     0.183 HD
HETATM    7  C11 UNL     1      -4.958  -2.104  -0.524  1.00  0.00     0.117 A 
HETATM    8  C12 UNL     1      -4.196  -1.134   0.133  1.00  0.00     0.006 A 
ENDROOT
BRANCH   1   9
HETATM    9  N2  UNL     1      -2.360   0.287   0.120  1.00  0.00    -0.375 N 
ATOM     10  H2  UNL     1      -2.648   0.593   1.050  1.00  0.00     0.161 HD
BRANCH   9  11
HETATM   11  C8  UNL     1      -1.188   0.863  -0.463  1.00  0.00     0.121 C 
BRANCH  11  12
HETATM   12  C7  UNL     1       0.054   0.019  -0.263  1.00  0.00     0.020 C 
BRANCH  12  13
HETATM   13  C6  UNL     1       1.196   0.722  -0.917  1.00  0.00     0.002 C 
BRANCH  13  14
HETATM   14  C5  UNL     1       2.506  -0.041  -0.774  1.00  0.00     0.000 C 
BRANCH  14  15
HETATM   15  C4  UNL     1       3.573   0.750  -1.465  1.00  0.00     0.001 C 
BRANCH  15  16
HETATM   16  C3  UNL     1       4.896   0.057  -1.367  1.00  0.00     0.017 C 
BRANCH  16  17
HETATM   17  C2  UNL     1       5.338  -0.136   0.054  1.00  0.00     0.163 C 
BRANCH  17  18
HETATM   18  S1  UNL     1       6.927  -0.964   0.019  1.00  0.00     0.226 S 
HETATM   19  O1  UNL     1       6.753  -2.261  -0.688  1.00  0.00    -0.206 OA
HETATM   20  O2  UNL     1       7.909  -0.064  -0.658  1.00  0.00    -0.206 OA
BRANCH  18  21
HETATM   21  N1  UNL     1       7.494  -1.218   1.635  1.00  0.00    -0.324 N 
HETATM   22  C1  UNL     1       7.668   0.065   2.289  1.00  0.00     0.159 C 
ATOM     23  H1  UNL     1       7.677  -2.127   2.060  1.00  0.00     0.171 HD
ENDBRANCH  18  21
ENDBRANCH  17  18
ENDBRANCH  16  17
ENDBRANCH  15  16
ENDBRANCH  14  15
ENDBRANCH  13  14
ENDBRANCH  12  13
ENDBRANCH  11  12
ENDBRANCH   9  11
ENDBRANCH   1   9
BRANCH   8  24
HETATM   24  C13 UNL     1      -4.577  -0.668   1.459  1.00  0.00     0.083 C 
BRANCH  24  25
HETATM   25  C14 UNL     1      -5.238   0.632   1.540  1.00  0.00    -0.038 A 
HETATM   26  C15 UNL     1      -4.592   1.729   2.047  1.00  0.00     0.010 A 
HETATM   27  C16 UNL     1      -5.235   2.959   2.098  1.00  0.00     0.018 A 
HETATM   28  C17 UNL     1      -6.521   3.042   1.634  1.00  0.00     0.087 A 
HETATM   29  N6  UNL     1      -7.126   1.964   1.148  1.00  0.00    -0.375 N 
HETATM   30  C18 UNL     1      -6.527   0.774   1.089  1.00  0.00     0.095 A 
ATOM     31  H6  UNL     1      -8.084   2.050   0.808  1.00  0.00     0.164 HD
ENDBRANCH  24  25
ENDBRANCH   8  24
BRANCH   4  32
HETATM   32  N4  UNL     1      -3.111  -2.353  -3.492  1.00  0.00    -0.234 N 
ATOM     33  H42 UNL     1      -2.281  -1.955  -3.931  1.00  0.00     0.174 HD
ATOM     34  H41 UNL     1      -3.678  -3.062  -3.957  1.00  0.00     0.174 HD
ENDBRANCH   4  32
TORSDOF 13
