REMARK  12 active torsions:
REMARK  status: ('A' for Active; 'I' for Inactive)
REMARK    1  A    between atoms: C2_2  and  C3_3 
REMARK    2  A    between atoms: C3_3  and  C4_4 
REMARK    3  A    between atoms: C8_8  and  C9_9 
REMARK    4  A    between atoms: C9_9  and  N1_10 
REMARK    5  A    between atoms: N1_10  and  C10_13 
REMARK    6  A    between atoms: C10_13  and  C11_14 
REMARK    7  A    between atoms: C11_14  and  O1_15 
REMARK    8  A    between atoms: C11_14  and  C12_17 
REMARK    9  A    between atoms: C12_17  and  O2_18 
REMARK   10  A    between atoms: O2_18  and  C13_19 
REMARK   11  A    between atoms: C13_19  and  C14_20 
REMARK   12  A    between atoms: C14_20  and  C15_21 
REMARK       I    between atoms: N3_28  and  C20_30 
ROOT
HETATM    1  C11 UNL     1       0.142   1.820   0.259  1.00  0.00     0.167 C 
ENDROOT
BRANCH   1   2
HETATM    2  C10 UNL     1       1.211   0.912   0.796  1.00  0.00     0.266 C 
BRANCH   2   3
HETATM    3  N1  UNL     1       1.714  -0.023  -0.152  1.00  0.00    -0.069 N 
ATOM      4  H12 UNL     1       2.419   0.391  -0.762  1.00  0.00     0.277 HD
ATOM      5  H11 UNL     1       1.022  -0.258  -0.864  1.00  0.00     0.277 HD
BRANCH   3   6
HETATM    6  C9  UNL     1       2.214  -1.210   0.542  1.00  0.00     0.270 C 
BRANCH   6   7
HETATM    7  C8  UNL     1       3.586  -1.584   0.184  1.00  0.00    -0.032 A 
HETATM    8  C7  UNL     1       3.922  -2.830  -0.253  1.00  0.00     0.009 A 
HETATM    9  C6  UNL     1       5.271  -3.144  -0.465  1.00  0.00     0.001 A 
HETATM   10  C5  UNL     1       6.253  -2.172  -0.223  1.00  0.00     0.007 A 
HETATM   11  C4  UNL     1       5.932  -0.919   0.215  1.00  0.00    -0.054 A 
HETATM   12  C21 UNL     1       4.602  -0.647   0.407  1.00  0.00     0.016 A 
BRANCH  11  13
HETATM   13  C3  UNL     1       6.864   0.173   0.566  1.00  0.00     0.064 C 
BRANCH  13  14
HETATM   14  C2  UNL     1       8.186   0.114  -0.043  1.00  0.00    -0.032 C 
HETATM   15  C1  UNL     1       8.609   1.122  -0.799  1.00  0.00     0.007 C 
ENDBRANCH  13  14
ENDBRANCH  11  13
ENDBRANCH   6   7
ENDBRANCH   3   6
ENDBRANCH   2   3
ENDBRANCH   1   2
BRANCH   1  16
HETATM   16  O1  UNL     1       0.348   2.481  -0.864  1.00  0.00    -0.392 OA
ATOM     17  H1  UNL     1      -0.328   3.055  -1.204  1.00  0.00     0.210 HD
ENDBRANCH   1  16
BRANCH   1  18
HETATM   18  C12 UNL     1      -1.161   1.256   0.656  1.00  0.00     0.200 C 
BRANCH  18  19
HETATM   19  O2  UNL     1      -1.699   0.354  -0.249  1.00  0.00    -0.388 OA
BRANCH  19  20
HETATM   20  C13 UNL     1      -2.670  -0.349   0.490  1.00  0.00     0.172 C 
BRANCH  20  21
HETATM   21  C14 UNL     1      -3.763   0.393   1.102  1.00  0.00     0.068 C 
BRANCH  21  22
HETATM   22  C15 UNL     1      -4.809   1.016   0.300  1.00  0.00    -0.012 A 
HETATM   23  C16 UNL     1      -4.897   2.367   0.096  1.00  0.00     0.012 A 
HETATM   24  C17 UNL     1      -5.971   2.898  -0.602  1.00  0.00     0.018 A 
HETATM   25  C18 UNL     1      -6.928   2.023  -1.078  1.00  0.00     0.089 A 
HETATM   26  N2  UNL     1      -6.821   0.671  -0.864  1.00  0.00    -0.352 N 
HETATM   27  C19 UNL     1      -5.808   0.127  -0.199  1.00  0.00     0.115 A 
ATOM     28  H2  UNL     1      -7.550   0.059  -1.231  1.00  0.00     0.166 HD
HETATM   29  N3  UNL     1      -5.621  -1.099   0.036  1.00  0.00    -0.297 N 
HETATM   30  C20 UNL     1      -6.359  -2.216  -0.285  1.00  0.00     0.334 C 
ATOM     31  H3  UNL     1      -4.768  -1.298   0.559  1.00  0.00     0.171 HD
HETATM   32  N4  UNL     1      -7.655  -2.454   0.279  1.00  0.00    -0.040 NA
HETATM   33  O3  UNL     1      -5.943  -3.084  -1.081  1.00  0.00    -0.251 OA
ENDBRANCH  21  22
ENDBRANCH  20  21
ENDBRANCH  19  20
ENDBRANCH  18  19
ENDBRANCH   1  18
TORSDOF 12
