REMARK  13 active torsions:
REMARK  status: ('A' for Active; 'I' for Inactive)
REMARK    1  A    between atoms: N1_2  and  C3_4 
REMARK    2  A    between atoms: C3_4  and  C4_5 
REMARK    3  A    between atoms: C4_5  and  O1_6 
REMARK    4  A    between atoms: O1_6  and  C5_7 
REMARK    5  A    between atoms: C5_7  and  C6_8 
REMARK    6  A    between atoms: C6_8  and  C7_9 
REMARK    7  A    between atoms: N3_14  and  C10_16 
REMARK    8  A    between atoms: C10_16  and  C11_20 
REMARK    9  A    between atoms: C11_20  and  C12_21 
REMARK   10  A    between atoms: C12_21  and  C13_22 
REMARK   11  A    between atoms: C13_22  and  C14_23 
REMARK   12  A    between atoms: C14_23  and  C15_24 
REMARK   13  A    between atoms: C19_28  and  N5_29 
ROOT
HETATM    1  C10 UNL     1      -2.162  -0.680  -0.875  1.00  0.00     0.091 C 
HETATM    2  N4  UNL     1      -2.695  -0.257  -1.963  1.00  0.00    -0.388 N 
ATOM      3  H41 UNL     1      -3.570   0.266  -1.950  1.00  0.00     0.157 HD
ATOM      4  H42 UNL     1      -2.219  -0.452  -2.844  1.00  0.00     0.157 HD
ENDROOT
BRANCH   1   5
HETATM    5  N3  UNL     1      -0.979  -1.387  -0.893  1.00  0.00    -0.181 N 
HETATM    6  C9  UNL     1       0.231  -1.036  -0.865  1.00  0.00     0.685 A 
HETATM    7  N2  UNL     1       1.223  -1.984  -0.895  1.00  0.00    -0.200 N 
HETATM    8  N7  UNL     1       0.832   0.165  -0.806  1.00  0.00    -0.190 N 
HETATM    9  C8  UNL     1       2.411  -1.379  -0.854  1.00  0.00     0.132 A 
ATOM     10  H2  UNL     1       1.075  -2.992  -0.941  1.00  0.00     0.183 HD
HETATM   11  C7  UNL     1       2.175  -0.027  -0.798  1.00  0.00     0.046 A 
HETATM   12  C20 UNL     1       0.159   1.444  -0.760  1.00  0.00     0.175 C 
ATOM     13  H3  UNL     1      -1.109  -2.398  -0.938  1.00  0.00     0.185 HD
BRANCH  11  14
HETATM   14  C6  UNL     1       3.147   1.084  -0.734  1.00  0.00     0.085 C 
BRANCH  14  15
HETATM   15  C5  UNL     1       4.591   0.544  -0.715  1.00  0.00     0.173 C 
BRANCH  15  16
HETATM   16  O1  UNL     1       4.802  -0.260   0.365  1.00  0.00    -0.389 OA
BRANCH  16  17
HETATM   17  C4  UNL     1       6.057  -0.803   0.430  1.00  0.00     0.198 C 
BRANCH  17  18
HETATM   18  C3  UNL     1       7.124   0.230   0.527  1.00  0.00     0.297 C 
BRANCH  18  19
HETATM   19  N1  UNL     1       8.458  -0.362   0.605  1.00  0.00     0.082 N 
HETATM   20  C1  UNL     1       8.839  -1.004  -0.623  1.00  0.00     0.309 C 
HETATM   21  C2  UNL     1       9.429   0.659   0.931  1.00  0.00     0.309 C 
ENDBRANCH  18  19
ENDBRANCH  17  18
ENDBRANCH  16  17
ENDBRANCH  15  16
ENDBRANCH  14  15
ENDBRANCH  11  14
ENDBRANCH   1   5
BRANCH   1  22
HETATM   22  C11 UNL     1      -2.853  -0.397   0.403  1.00  0.00     0.076 C 
BRANCH  22  23
HETATM   23  C12 UNL     1      -4.152   0.355   0.179  1.00  0.00     0.008 C 
BRANCH  23  24
HETATM   24  C13 UNL     1      -4.844   0.639   1.491  1.00  0.00     0.006 C 
BRANCH  24  25
HETATM   25  C14 UNL     1      -6.135   1.383   1.311  1.00  0.00     0.057 C 
BRANCH  25  26
HETATM   26  C15 UNL     1      -7.117   0.616   0.472  1.00  0.00     0.010 A 
HETATM   27  C16 UNL     1      -7.187   0.745  -0.896  1.00  0.00     0.025 A 
HETATM   28  C17 UNL     1      -8.097   0.029  -1.639  1.00  0.00     0.006 A 
HETATM   29  C18 UNL     1      -8.958  -0.840  -0.984  1.00  0.00     0.048 A 
HETATM   30  C19 UNL     1      -8.889  -0.970   0.383  1.00  0.00     0.098 A 
HETATM   31  N6  UNL     1      -7.984  -0.248   1.056  1.00  0.00    -0.346 N 
ATOM     32  H6  UNL     1      -7.944  -0.354   2.070  1.00  0.00     0.167 HD
BRANCH  30  33
HETATM   33  N5  UNL     1      -9.697  -1.783   0.966  1.00  0.00    -0.385 N 
ATOM     34  H52 UNL     1     -10.386  -2.333   0.453  1.00  0.00     0.157 HD
ATOM     35  H51 UNL     1      -9.646  -1.879   1.980  1.00  0.00     0.157 HD
ENDBRANCH  30  33
ENDBRANCH  25  26
ENDBRANCH  24  25
ENDBRANCH  23  24
ENDBRANCH  22  23
ENDBRANCH   1  22
TORSDOF 13
