REMARK  0 active torsions:
REMARK  status: ('A' for Active; 'I' for Inactive)
ROOT
HETATM    1  N1  UNL     1       3.333   1.182  -1.004  1.00  0.00    -0.088 NA
HETATM    2  C1  UNL     1       2.218   0.425  -0.477  1.00  0.00     0.095 C 
HETATM    3  N2  UNL     1       0.980   0.601  -0.680  1.00  0.00    -0.367 N 
ATOM      4  H2  UNL     1       0.628   1.348  -1.278  1.00  0.00     0.161 HD
HETATM    5  C2  UNL     1       0.106  -0.320  -0.013  1.00  0.00     0.097 C 
HETATM    6  C3  UNL     1      -0.972  -0.862  -0.920  1.00  0.00     0.037 C 
HETATM    7  C4  UNL     1      -2.337  -0.677  -0.300  1.00  0.00     0.003 C 
HETATM    8  C5  UNL     1      -2.669   0.777  -0.081  1.00  0.00     0.000 C 
HETATM    9  C6  UNL     1      -1.465   1.456   0.526  1.00  0.00     0.003 C 
HETATM   10  C7  UNL     1      -0.537   0.422   1.138  1.00  0.00     0.037 C 
HETATM   11  C8  UNL     1       1.030  -1.408   0.448  1.00  0.00     0.274 C 
HETATM   12  F1  UNL     1       0.716  -1.869   1.708  1.00  0.00    -0.203 F 
HETATM   13  F2  UNL     1       1.063  -2.461  -0.434  1.00  0.00    -0.203 F 
HETATM   14  C9  UNL     1       2.381  -0.737   0.431  1.00  0.00     0.154 C 
ENDROOT
TORSDOF 0
