REMARK  1 active torsions:
REMARK  status: ('A' for Active; 'I' for Inactive)
REMARK    1  A    between atoms: N1_1  and  C1_5 
ROOT
HETATM    1  C1  UNL     1       1.852   0.213   0.043  1.00  0.00     0.252 C 
HETATM    2 CL1  UNL     1       1.984   0.097   1.789  1.00  0.00    -0.076 Cl
HETATM    3  S1  UNL     1       1.531   1.890  -0.597  1.00  0.00    -0.109 SA
HETATM    4  C2  UNL     1      -0.014   1.034  -0.797  1.00  0.00     0.059 C 
HETATM    5  C3  UNL     1      -0.946   1.313   0.385  1.00  0.00     0.016 C 
HETATM    6  C4  UNL     1      -2.146   0.417   0.158  1.00  0.00     0.001 C 
HETATM    7  C5  UNL     1      -1.700  -1.002   0.191  1.00  0.00     0.001 C 
HETATM    8  C6  UNL     1      -0.240  -1.218   0.261  1.00  0.00     0.010 C 
HETATM    9  C7  UNL     1       0.598  -0.324  -0.576  1.00  0.00     0.062 C 
ENDROOT
BRANCH   1  10
HETATM   10  N1  UNL     1       3.096  -0.265  -0.575  1.00  0.00    -0.047 N 
ATOM     11  H13 UNL     1       3.917   0.224  -0.217  1.00  0.00     0.277 HD
ATOM     12  H12 UNL     1       3.342  -1.206  -0.269  1.00  0.00     0.277 HD
ATOM     13  H11 UNL     1       3.019  -0.198  -1.590  1.00  0.00     0.277 HD
ENDBRANCH   1  10
TORSDOF 1
