REMARK  1 active torsions:
REMARK  status: ('A' for Active; 'I' for Inactive)
REMARK    1  A    between atoms: C7_10  and  O1_12 
ROOT
HETATM    1  C1  UNL     1      -1.630  -1.614  -0.515  1.00  0.00     0.314 C 
HETATM    2  N1  UNL     1      -0.446  -0.781  -0.385  1.00  0.00     0.119 N 
HETATM    3  C2  UNL     1       0.542  -1.559   0.296  1.00  0.00     0.281 C 
HETATM    4  C3  UNL     1       1.914  -1.009   0.299  1.00  0.00     0.109 C 
HETATM    5  C4  UNL     1       2.100   0.190  -0.591  1.00  0.00     0.245 C 
HETATM    6  F1  UNL     1       3.453   0.380  -0.862  1.00  0.00    -0.206 F 
HETATM    7  F2  UNL     1       1.438   0.122  -1.771  1.00  0.00    -0.206 F 
HETATM    8  C5  UNL     1       1.588   1.376   0.234  1.00  0.00     0.084 C 
HETATM    9  C6  UNL     1       0.151   1.596  -0.115  1.00  0.00     0.077 C 
HETATM   10  C7  UNL     1      -0.761   0.468   0.202  1.00  0.00     0.254 C 
HETATM   11  C8  UNL     1      -2.144   0.886  -0.277  1.00  0.00     0.081 C 
ENDROOT
BRANCH  10  12
HETATM   12  O1  UNL     1      -0.857   0.374   1.610  1.00  0.00    -0.363 OA
ATOM     13  H1  UNL     1      -1.068   1.212   2.004  1.00  0.00     0.212 HD
ENDBRANCH  10  12
TORSDOF 1
