REMARK  1 active torsions:
REMARK  status: ('A' for Active; 'I' for Inactive)
REMARK    1  A    between atoms: C5_9  and  N2_10 
ROOT
HETATM    1  F1  UNL     1      -1.231  -2.039  -0.606  1.00  0.00    -0.198 F 
HETATM    2  C1  UNL     1      -1.333  -0.688  -0.895  1.00  0.00     0.300 C 
HETATM    3  F2  UNL     1      -0.930  -0.529  -2.208  1.00  0.00    -0.198 F 
HETATM    4  C2  UNL     1      -2.767  -0.235  -0.799  1.00  0.00     0.089 C 
HETATM    5  C3  UNL     1      -3.185   0.093   0.604  1.00  0.00     0.026 C 
HETATM    6  C4  UNL     1      -2.243   1.089   1.224  1.00  0.00     0.121 C 
HETATM    7  N1  UNL     1      -0.868   0.835   0.930  1.00  0.00    -0.375 N 
ATOM      8  H1  UNL     1      -0.172   1.310   1.504  1.00  0.00     0.160 HD
HETATM    9  C5  UNL     1      -0.435   0.059   0.004  1.00  0.00     0.148 C 
ENDROOT
BRANCH   9  10
HETATM   10  N2  UNL     1       0.965  -0.106  -0.182  1.00  0.00    -0.366 N 
HETATM   11  C6  UNL     1       1.855   0.913  -0.740  1.00  0.00     0.124 C 
HETATM   12  C7  UNL     1       3.032   0.797   0.239  1.00  0.00     0.021 C 
HETATM   13  C8  UNL     1       3.207  -0.692   0.294  1.00  0.00     0.021 C 
HETATM   14  C9  UNL     1       1.811  -1.232   0.107  1.00  0.00     0.124 C 
ENDBRANCH   9  10
TORSDOF 1
