REMARK  2 active torsions:
REMARK  status: ('A' for Active; 'I' for Inactive)
REMARK    1  A    between atoms: C2_2  and  C3_3 
REMARK    2  A    between atoms: C5_5  and  N1_6 
ROOT
HETATM    1  C3  UNL     1      -0.683  -0.302  -0.067  1.00  0.00     0.130 C 
HETATM    2  C4  UNL     1       0.168  -0.226   1.130  1.00  0.00     0.077 C 
HETATM    3  C5  UNL     1       1.265   0.357   0.227  1.00  0.00     0.130 C 
HETATM    4  C6  UNL     1       1.959  -0.708  -0.555  1.00  0.00     0.066 C 
HETATM    5  C7  UNL     1       1.019  -1.872  -0.720  1.00  0.00     0.235 C 
HETATM    6  N2  UNL     1      -0.360  -1.479  -0.826  1.00  0.00    -0.066 N 
ATOM      7  H21 UNL     1      -0.627  -1.362  -1.803  1.00  0.00     0.278 HD
ATOM      8  H22 UNL     1      -0.976  -2.252  -0.572  1.00  0.00     0.278 HD
HETATM    9  C8  UNL     1       0.119   0.879  -0.638  1.00  0.00     0.077 C 
ENDROOT
BRANCH   3  10
HETATM   10  N1  UNL     1       2.093   1.340   0.825  1.00  0.00    -0.070 N 
ATOM     11  H13 UNL     1       1.520   2.092   1.207  1.00  0.00     0.275 HD
ATOM     12  H12 UNL     1       2.506   0.973   1.682  1.00  0.00     0.275 HD
ATOM     13  H11 UNL     1       2.822   1.727   0.225  1.00  0.00     0.275 HD
ENDBRANCH   3  10
BRANCH   1  14
HETATM   14  C2  UNL     1      -2.119   0.012  -0.011  1.00  0.00     0.034 C 
HETATM   15  C1  UNL     1      -2.519   1.361   0.422  1.00  0.00     0.007 C 
ENDBRANCH   1  14
TORSDOF 2
