REMARK  2 active torsions:
REMARK  status: ('A' for Active; 'I' for Inactive)
REMARK    1  A    between atoms: C2_2  and  C4_4 
REMARK    2  A    between atoms: C7_10  and  N2_11 
ROOT
HETATM    1  C4  UNL     1       0.005   0.427   0.165  1.00  0.00     0.219 C 
HETATM    2  N1  UNL     1      -0.606   0.189   1.460  1.00  0.00    -0.069 N 
ATOM      3  H11 UNL     1      -0.939   1.033   1.926  1.00  0.00     0.277 HD
ATOM      4  H12 UNL     1       0.053  -0.088   2.187  1.00  0.00     0.277 HD
HETATM    5  C5  UNL     1      -1.657  -0.803   1.191  1.00  0.00     0.235 C 
HETATM    6  C6  UNL     1      -2.238  -0.216  -0.091  1.00  0.00     0.062 C 
HETATM    7  C7  UNL     1      -0.934  -0.053  -0.880  1.00  0.00     0.216 C 
ENDROOT
BRANCH   7   8
HETATM    8  N2  UNL     1      -1.190   0.909  -1.923  1.00  0.00    -0.073 N 
ATOM      9  H23 UNL     1      -1.516   1.790  -1.526  1.00  0.00     0.274 HD
ATOM     10  H22 UNL     1      -0.315   1.223  -2.344  1.00  0.00     0.274 HD
ATOM     11  H21 UNL     1      -1.835   0.579  -2.641  1.00  0.00     0.274 HD
ENDBRANCH   7   8
BRANCH   1  12
HETATM   12  C2  UNL     1       1.325  -0.308   0.158  1.00  0.00     0.010 C 
HETATM   13  C1  UNL     1       2.084  -0.162  -1.115  1.00  0.00     0.011 C 
HETATM   14  C3  UNL     1       2.191   0.138   1.313  1.00  0.00     0.011 C 
ENDBRANCH   1  12
TORSDOF 2
