REMARK  1 active torsions:
REMARK  status: ('A' for Active; 'I' for Inactive)
REMARK    1  A    between atoms: N1_5  and  N2_7 
ROOT
HETATM    1  C1  UNL     1       2.910   1.338   0.355  1.00  0.00     0.050 C 
HETATM    2  C2  UNL     1       1.633   0.655   0.097  1.00  0.00    -0.011 C 
HETATM    3  C3  UNL     1       0.471   1.203   0.467  1.00  0.00     0.035 C 
HETATM    4  C4  UNL     1      -0.802   0.550   0.224  1.00  0.00     0.033 C 
HETATM    5  N1  UNL     1      -1.880   1.193   0.286  1.00  0.00    -0.311 N 
ATOM      6  H1  UNL     1      -2.732   0.664   0.102  1.00  0.00     0.186 HD
HETATM    7  C5  UNL     1      -0.817  -0.894  -0.100  1.00  0.00     0.002 C 
HETATM    8  C6  UNL     1      -1.314  -1.022  -1.542  1.00  0.00     0.021 C 
HETATM    9  C7  UNL     1      -1.738  -1.681   0.811  1.00  0.00     0.021 C 
HETATM   10  C8  UNL     1       0.566  -1.500   0.015  1.00  0.00     0.099 C 
HETATM   11  C9  UNL     1       1.645  -0.668  -0.593  1.00  0.00     0.268 C 
HETATM   12  F1  UNL     1       2.848  -1.295  -0.358  1.00  0.00    -0.201 F 
HETATM   13  F2  UNL     1       1.486  -0.505  -1.953  1.00  0.00    -0.201 F 
ENDROOT
BRANCH   5  14
HETATM   14  N2  UNL     1      -2.044   2.533   0.574  1.00  0.00    -0.345 N 
ATOM     15  H22 UNL     1      -1.181   3.045   0.755  1.00  0.00     0.176 HD
ATOM     16  H21 UNL     1      -2.919   3.055   0.624  1.00  0.00     0.176 HD
ENDBRANCH   5  14
TORSDOF 1
