REMARK  1 active torsions:
REMARK  status: ('A' for Active; 'I' for Inactive)
REMARK    1  A    between atoms: C6_7  and  O1_8 
ROOT
HETATM    1  N1  UNL     1       2.669  -0.594   1.578  1.00  0.00    -0.197 NA
HETATM    2  C1  UNL     1       2.049  -0.358   0.623  1.00  0.00     0.067 C 
HETATM    3  C2  UNL     1       1.250  -0.073  -0.576  1.00  0.00     0.134 C 
HETATM    4  C3  UNL     1       0.747   1.322  -0.557  1.00  0.00     0.022 C 
HETATM    5  C4  UNL     1      -0.524   1.557   0.162  1.00  0.00     0.004 C 
HETATM    6  C5  UNL     1      -1.455   0.414   0.267  1.00  0.00     0.035 C 
HETATM    7  C6  UNL     1      -0.707  -0.872   0.586  1.00  0.00     0.158 C 
HETATM    8  C7  UNL     1       0.171  -1.120  -0.647  1.00  0.00     0.154 C 
HETATM    9 CL1  UNL     1      -0.835  -0.904  -2.101  1.00  0.00    -0.097 Cl
HETATM   10 CL2  UNL     1       0.843  -2.733  -0.649  1.00  0.00    -0.097 Cl
ENDROOT
BRANCH   7  11
HETATM   11  O1  UNL     1      -1.557  -1.921   0.837  1.00  0.00    -0.392 OA
ATOM     12  H1  UNL     1      -1.090  -2.724   1.036  1.00  0.00     0.210 HD
ENDBRANCH   7  11
TORSDOF 1
