REMARK  3 active torsions:
REMARK  status: ('A' for Active; 'I' for Inactive)
REMARK    1  A    between atoms: C5_5  and  C6_6 
REMARK    2  A    between atoms: C7_7  and  C8_8 
REMARK    3  A    between atoms: N1_12  and  O1_13 
ROOT
HETATM    1  C1  UNL     1      -1.973  -0.010   1.371  1.00  0.00     0.038 C 
HETATM    2  C2  UNL     1      -1.517  -0.365  -0.024  1.00  0.00     0.050 C 
HETATM    3  C3  UNL     1      -2.435  -1.370  -0.677  1.00  0.00     0.038 C 
HETATM    4  C4  UNL     1      -0.125  -0.880   0.091  1.00  0.00     0.017 C 
HETATM    5  C5  UNL     1       0.693   0.138  -0.128  1.00  0.00     0.009 C 
HETATM    6  C9  UNL     1      -0.121   1.354  -0.395  1.00  0.00     0.169 C 
HETATM    7  N1  UNL     1      -1.351   0.764  -0.881  1.00  0.00    -0.182 NA
ENDROOT
BRANCH   5   8
HETATM    8  C6  UNL     1       2.126   0.053  -0.105  1.00  0.00    -0.065 C 
HETATM    9  C7  UNL     1       3.331  -0.029  -0.102  1.00  0.00    -0.032 C 
BRANCH   9  10
HETATM   10  C8  UNL     1       4.804  -0.138  -0.116  1.00  0.00     0.432 C 
HETATM   11  F1  UNL     1       5.168  -1.079   0.830  1.00  0.00    -0.200 F 
HETATM   12  F2  UNL     1       5.387   1.099   0.171  1.00  0.00    -0.200 F 
ENDBRANCH   9  10
ENDBRANCH   5   8
BRANCH   7  13
HETATM   13  O1  UNL     1      -2.375   1.603  -0.934  1.00  0.00    -0.312 OA
ATOM     14  H1  UNL     1      -2.264   2.355  -1.504  1.00  0.00     0.237 HD
ENDBRANCH   7  13
TORSDOF 3
