REMARK  1 active torsions:
REMARK  status: ('A' for Active; 'I' for Inactive)
REMARK    1  A    between atoms: C5_5  and  N1_6 
ROOT
HETATM    1  C1  UNL     1      -2.700  -0.082  -0.104  1.00  0.00     0.010 C 
HETATM    2  C2  UNL     1      -1.249  -0.031  -0.597  1.00  0.00    -0.019 C 
HETATM    3  C3  UNL     1      -0.633   1.194   0.029  1.00  0.00     0.006 C 
HETATM    4  C4  UNL     1       0.803   1.274  -0.402  1.00  0.00     0.033 C 
HETATM    5  C5  UNL     1       1.550   0.100   0.142  1.00  0.00     0.183 C 
HETATM    6  C6  UNL     1       0.909  -1.218  -0.101  1.00  0.00     0.033 C 
HETATM    7  C7  UNL     1      -0.565  -1.243  -0.059  1.00  0.00     0.006 C 
ENDROOT
BRANCH   5   8
HETATM    8  N1  UNL     1       2.858   0.075  -0.526  1.00  0.00    -0.075 N 
ATOM      9  H13 UNL     1       2.788   0.069  -1.544  1.00  0.00     0.274 HD
ATOM     10  H12 UNL     1       3.370   0.952  -0.436  1.00  0.00     0.274 HD
ATOM     11  H11 UNL     1       3.368  -0.726  -0.155  1.00  0.00     0.274 HD
ENDBRANCH   5   8
TORSDOF 1
