REMARK  11 active torsions:
REMARK  status: ('A' for Active; 'I' for Inactive)
REMARK    1  A    between atoms: C2_2  and  C3_3 
REMARK    2  A    between atoms: C3_3  and  C4_4 
REMARK    3  A    between atoms: C4_4  and  N1_5 
REMARK    4  A    between atoms: N1_5  and  C5_8 
REMARK    5  A    between atoms: C5_8  and  C6_9 
REMARK    6  A    between atoms: C6_9  and  C7_10 
REMARK    7  A    between atoms: C7_10  and  C8_11 
REMARK    8  A    between atoms: C8_11  and  C9_12 
REMARK    9  A    between atoms: C9_12  and  C10_13 
REMARK   10  A    between atoms: C10_13  and  C11_14 
REMARK   11  A    between atoms: C11_14  and  C12_15 
ROOT
HETATM    1  C7  UNL     1       0.489   0.634   0.935  1.00  0.00     0.005 C 
ENDROOT
BRANCH   1   2
HETATM    2  C6  UNL     1       1.963   0.645   0.432  1.00  0.00     0.028 C 
BRANCH   2   3
HETATM    3  C5  UNL     1       2.425  -0.781   0.612  1.00  0.00     0.232 C 
BRANCH   3   4
HETATM    4  N1  UNL     1       3.781  -0.929   0.186  1.00  0.00    -0.075 N 
ATOM      5  H12 UNL     1       4.157  -1.821   0.507  1.00  0.00     0.277 HD
ATOM      6  H11 UNL     1       4.385  -0.288   0.700  1.00  0.00     0.277 HD
BRANCH   4   7
HETATM    7  C4  UNL     1       3.984  -0.783  -1.217  1.00  0.00     0.236 C 
BRANCH   7   8
HETATM    8  C3  UNL     1       5.451  -0.962  -1.538  1.00  0.00     0.054 C 
BRANCH   8   9
HETATM    9  C2  UNL     1       6.241   0.070  -0.810  1.00  0.00    -0.035 C 
HETATM   10  C1  UNL     1       7.182  -0.249   0.068  1.00  0.00     0.007 C 
ENDBRANCH   8   9
ENDBRANCH   7   8
ENDBRANCH   4   7
ENDBRANCH   3   4
ENDBRANCH   2   3
ENDBRANCH   1   2
BRANCH   1  11
HETATM   11  C8  UNL     1      -0.113   1.971   0.823  1.00  0.00     0.027 C 
BRANCH  11  12
HETATM   12  C9  UNL     1      -1.503   2.053   1.303  1.00  0.00    -0.030 C 
BRANCH  12  13
HETATM   13  C10 UNL     1      -2.621   1.369   0.656  1.00  0.00    -0.026 C 
BRANCH  13  14
HETATM   14  C11 UNL     1      -2.658  -0.096   0.495  1.00  0.00     0.060 C 
BRANCH  14  15
HETATM   15  C12 UNL     1      -3.990  -0.535  -0.108  1.00  0.00    -0.080 C 
HETATM   16  C13 UNL     1      -4.825  -1.346   0.486  1.00  0.00    -0.024 C 
HETATM   17  C14 UNL     1      -6.011  -1.571  -0.353  1.00  0.00     0.027 C 
HETATM   18  C15 UNL     1      -5.960  -0.502  -1.393  1.00  0.00     0.008 C 
HETATM   19  C16 UNL     1      -4.491  -0.103  -1.417  1.00  0.00     0.034 C 
ENDBRANCH  14  15
ENDBRANCH  13  14
ENDBRANCH  12  13
ENDBRANCH  11  12
ENDBRANCH   1  11
TORSDOF 11
