REMARK  9 active torsions:
REMARK  status: ('A' for Active; 'I' for Inactive)
REMARK    1  A    between atoms: C2_2  and  C3_3 
REMARK    2  A    between atoms: C3_3  and  C4_4 
REMARK    3  A    between atoms: C4_4  and  C5_5 
REMARK    4  A    between atoms: C5_5  and  C6_6 
REMARK    5  A    between atoms: C10_10  and  O1_11 
REMARK    6  A    between atoms: O1_11  and  C11_12 
REMARK    7  A    between atoms: C14_15  and  C15_16 
REMARK    8  A    between atoms: C15_16  and  C16_17 
REMARK    9  A    between atoms: C16_17  and  O2_18 
ROOT
HETATM    1  C6  UNL     1       0.289  -0.004  -0.440  1.00  0.00    -0.051 A 
HETATM    2  C7  UNL     1      -0.171   1.285  -0.745  1.00  0.00     0.017 A 
HETATM    3  C8  UNL     1      -1.469   1.694  -0.591  1.00  0.00    -0.028 A 
HETATM    4  C9  UNL     1      -1.873   3.083  -0.939  1.00  0.00     0.051 C 
HETATM    5  C10 UNL     1      -2.368   0.778  -0.106  1.00  0.00     0.075 A 
HETATM    6  C13 UNL     1      -1.946  -0.492   0.201  1.00  0.00     0.045 A 
HETATM    7  C14 UNL     1      -0.623  -0.904   0.040  1.00  0.00    -0.047 A 
ENDROOT
BRANCH   1   8
HETATM    8  C5  UNL     1       1.739  -0.273  -0.586  1.00  0.00     0.039 C 
BRANCH   8   9
HETATM    9  C4  UNL     1       2.496  -0.110   0.704  1.00  0.00     0.005 C 
BRANCH   9  10
HETATM   10  C3  UNL     1       3.947  -0.409   0.497  1.00  0.00    -0.000 C 
BRANCH  10  11
HETATM   11  C2  UNL     1       4.590   0.491  -0.513  1.00  0.00    -0.005 C 
HETATM   12  C1  UNL     1       4.495   1.931  -0.088  1.00  0.00     0.005 C 
ENDBRANCH  10  11
ENDBRANCH   9  10
ENDBRANCH   8   9
ENDBRANCH   1   8
BRANCH   7  13
HETATM   13  C15 UNL     1      -0.233  -2.299   0.308  1.00  0.00     0.065 C 
BRANCH  13  14
HETATM   14  C16 UNL     1      -0.251  -3.196  -0.900  1.00  0.00     0.168 C 
BRANCH  14  15
HETATM   15  O2  UNL     1      -1.557  -3.239  -1.436  1.00  0.00    -0.401 OA
ATOM     16  H2  UNL     1      -1.568  -3.805  -2.199  1.00  0.00     0.209 HD
ENDBRANCH  14  15
ENDBRANCH  13  14
ENDBRANCH   7  13
BRANCH   5  17
HETATM   17  O1  UNL     1      -3.675   1.108   0.076  1.00  0.00    -0.351 OA
BRANCH  17  18
HETATM   18  C11 UNL     1      -4.738   0.372   0.546  1.00  0.00     0.171 C 
HETATM   19  C12 UNL     1      -4.638  -0.154   1.930  1.00  0.00     0.034 C 
ENDBRANCH  17  18
ENDBRANCH   5  17
TORSDOF 9
