REMARK  8 active torsions:
REMARK  status: ('A' for Active; 'I' for Inactive)
REMARK    1  A    between atoms: C2_2  and  C4_4 
REMARK    2  A    between atoms: C4_4  and  C5_5 
REMARK    3  A    between atoms: C5_5  and  C6_6 
REMARK    4  A    between atoms: C5_5  and  C12_15 
REMARK    5  A    between atoms: C6_6  and  C7_7 
REMARK    6  A    between atoms: C10_10  and  C11_11 
REMARK    7  A    between atoms: C11_11  and  O1_12 
REMARK    8  A    between atoms: C12_15  and  C13_16 
ROOT
HETATM    1  C5  UNL     1      -0.453   0.026  -0.033  1.00  0.00    -0.007 C 
ENDROOT
BRANCH   1   2
HETATM    2  C4  UNL     1      -0.160   1.381  -0.672  1.00  0.00     0.009 C 
BRANCH   2   3
HETATM    3  C2  UNL     1      -1.117   2.461  -0.279  1.00  0.00    -0.022 C 
HETATM    4  C1  UNL     1      -0.658   3.719  -1.010  1.00  0.00     0.009 C 
HETATM    5  C3  UNL     1      -1.134   2.779   1.176  1.00  0.00     0.009 C 
ENDBRANCH   2   3
ENDBRANCH   1   2
BRANCH   1   6
HETATM    6  C6  UNL     1       0.603  -0.886  -0.541  1.00  0.00     0.069 C 
BRANCH   6   7
HETATM    7  C7  UNL     1       1.997  -0.528  -0.146  1.00  0.00     0.053 A 
HETATM    8  C8  UNL     1       2.496   0.348   0.762  1.00  0.00     0.035 A 
HETATM    9  C9  UNL     1       3.874   0.282   0.721  1.00  0.00     0.037 A 
HETATM   10  C10 UNL     1       4.132  -0.671  -0.251  1.00  0.00     0.076 A 
HETATM   11  O2  UNL     1       3.016  -1.123  -0.735  1.00  0.00    -0.317 OA
BRANCH  10  12
HETATM   12  C11 UNL     1       5.504  -1.095  -0.659  1.00  0.00     0.229 C 
BRANCH  12  13
HETATM   13  O1  UNL     1       6.474  -0.401   0.065  1.00  0.00    -0.394 OA
ATOM     14  H1  UNL     1       7.347  -0.671  -0.195  1.00  0.00     0.209 HD
ENDBRANCH  12  13
ENDBRANCH  10  12
ENDBRANCH   6   7
ENDBRANCH   1   6
BRANCH   1  15
HETATM   15  C12 UNL     1      -1.829  -0.401  -0.300  1.00  0.00     0.013 C 
BRANCH  15  16
HETATM   16  C13 UNL     1      -2.411  -1.645   0.213  1.00  0.00    -0.051 C 
HETATM   17  C14 UNL     1      -3.920  -1.717  -0.240  1.00  0.00     0.014 C 
HETATM   18  C15 UNL     1      -1.865  -2.953  -0.296  1.00  0.00     0.014 C 
HETATM   19  C16 UNL     1      -2.479  -1.738   1.717  1.00  0.00     0.014 C 
ENDBRANCH  15  16
ENDBRANCH   1  15
TORSDOF 8
