REMARK  12 active torsions:
REMARK  status: ('A' for Active; 'I' for Inactive)
REMARK    1  A    between atoms: C2_2  and  C3_3 
REMARK    2  A    between atoms: C3_3  and  N1_4 
REMARK    3  A    between atoms: N1_4  and  C4_5 
REMARK    4  A    between atoms: N1_4  and  C7_8 
REMARK    5  A    between atoms: C4_5  and  C5_6 
REMARK    6  A    between atoms: C7_8  and  C8_9 
REMARK    7  A    between atoms: C14_16  and  O2_17 
REMARK    8  A    between atoms: O2_17  and  C15_18 
REMARK    9  A    between atoms: C15_18  and  C16_19 
REMARK   10  A    between atoms: C16_19  and  C17_20 
REMARK   11  A    between atoms: C17_20  and  N2_21 
REMARK   12  A    between atoms: N2_21  and  C19_23 
ROOT
HETATM    1  C8  UNL     1      -4.706   0.065   0.489  1.00  0.00     0.072 A 
HETATM    2  C9  UNL     1      -4.379  -0.769   1.578  1.00  0.00     0.175 A 
HETATM    3  O1  UNL     1      -3.078  -0.811   1.684  1.00  0.00    -0.303 OA
HETATM    4  C10 UNL     1      -2.499  -0.062   0.741  1.00  0.00     0.158 A 
HETATM    5  C11 UNL     1      -1.074   0.117   0.580  1.00  0.00     0.015 A 
HETATM    6  C12 UNL     1      -0.549   0.887  -0.423  1.00  0.00     0.018 A 
HETATM    7  C13 UNL     1       0.819   1.105  -0.530  1.00  0.00     0.038 A 
HETATM    8  C14 UNL     1       1.691   0.545   0.384  1.00  0.00     0.068 A 
HETATM    9  C22 UNL     1       1.168  -0.232   1.392  1.00  0.00     0.038 A 
HETATM   10  C23 UNL     1      -0.204  -0.437   1.479  1.00  0.00     0.018 A 
HETATM   11  N3  UNL     1      -3.516   0.455   0.029  1.00  0.00    -0.333 N 
ATOM     12  H3  UNL     1      -3.392   1.075  -0.772  1.00  0.00     0.168 HD
ENDROOT
BRANCH   1  13
HETATM   13  C7  UNL     1      -6.082   0.421   0.090  1.00  0.00     0.122 C 
BRANCH  13  14
HETATM   14  N1  UNL     1      -6.873  -0.567  -0.490  1.00  0.00    -0.361 N 
BRANCH  14  15
HETATM   15  C3  UNL     1      -6.561  -1.019  -1.762  1.00  0.00     0.090 C 
BRANCH  15  16
HETATM   16  C2  UNL     1      -7.100  -0.180  -2.860  1.00  0.00     0.007 C 
HETATM   17  C1  UNL     1      -7.787   0.955  -2.697  1.00  0.00     0.012 C 
ENDBRANCH  15  16
ENDBRANCH  14  15
BRANCH  14  18
HETATM   18  C4  UNL     1      -8.193  -0.729  -0.000  1.00  0.00     0.154 C 
BRANCH  18  19
HETATM   19  C5  UNL     1      -8.323  -0.194   1.393  1.00  0.00    -0.017 C 
HETATM   20  C6  UNL     1      -9.163   0.785   1.638  1.00  0.00     0.008 C 
ENDBRANCH  18  19
ENDBRANCH  14  18
ENDBRANCH  13  14
ENDBRANCH   1  13
BRANCH   8  21
HETATM   21  O2  UNL     1       3.048   0.748   0.303  1.00  0.00    -0.351 OA
BRANCH  21  22
HETATM   22  C15 UNL     1       3.917   0.196   1.268  1.00  0.00     0.177 C 
BRANCH  22  23
HETATM   23  C16 UNL     1       5.345   0.593   0.955  1.00  0.00     0.057 C 
BRANCH  23  24
HETATM   24  C17 UNL     1       5.731   0.056  -0.396  1.00  0.00     0.274 C 
BRANCH  24  25
HETATM   25  N2  UNL     1       7.097   0.453  -0.740  1.00  0.00     0.088 N 
HETATM   26  C18 UNL     1       7.399  -0.106  -2.075  1.00  0.00     0.310 C 
BRANCH  25  27
HETATM   27  C19 UNL     1       8.037  -0.066   0.220  1.00  0.00     0.214 C 
HETATM   28  C20 UNL     1       9.194  -0.772  -0.400  1.00  0.00     0.042 C 
HETATM   29  C21 UNL     1       8.561   1.066   1.081  1.00  0.00     0.042 C 
ENDBRANCH  25  27
ENDBRANCH  24  25
ENDBRANCH  23  24
ENDBRANCH  22  23
ENDBRANCH  21  22
ENDBRANCH   8  21
TORSDOF 12
