REMARK  13 active torsions:
REMARK  status: ('A' for Active; 'I' for Inactive)
REMARK    1  A    between atoms: N1_2  and  C1_4 
REMARK    2  A    between atoms: C4_7  and  S1_8 
REMARK    3  A    between atoms: S1_8  and  C5_9 
REMARK    4  A    between atoms: C5_9  and  C6_10 
REMARK    5  A    between atoms: C6_10  and  C7_11 
REMARK    6  A    between atoms: C7_11  and  O3_12 
REMARK    7  A    between atoms: O3_12  and  C8_13 
REMARK    8  A    between atoms: C8_13  and  C9_14 
REMARK    9  A    between atoms: C9_14  and  O4_15 
REMARK   10  A    between atoms: O4_15  and  C10_16 
REMARK   11  A    between atoms: C10_16  and  C11_17 
REMARK   12  A    between atoms: C11_17  and  O5_18 
REMARK   13  A    between atoms: O5_18  and  C12_19 
ROOT
HETATM    1  C7  UNL     1      -0.907   0.092   1.040  1.00  0.00     0.168 C 
ENDROOT
BRANCH   1   2
HETATM    2  C6  UNL     1      -2.052   0.221   0.067  1.00  0.00     0.037 C 
BRANCH   2   3
HETATM    3  C5  UNL     1      -2.732   1.561   0.334  1.00  0.00     0.081 C 
BRANCH   3   4
HETATM    4  S1  UNL     1      -4.142   1.798  -0.800  1.00  0.00    -0.130 SA
BRANCH   4   5
HETATM    5  C4  UNL     1      -5.421   0.620  -0.456  1.00  0.00     0.000 A 
HETATM    6  C3  UNL     1      -6.395   0.928   0.442  1.00  0.00     0.021 A 
HETATM    7  C2  UNL     1      -7.392   0.016   0.715  1.00  0.00     0.037 A 
HETATM    8  C1  UNL     1      -7.443  -1.218   0.103  1.00  0.00     0.102 A 
HETATM    9  C19 UNL     1      -6.445  -1.509  -0.804  1.00  0.00     0.037 A 
HETATM   10  C18 UNL     1      -5.441  -0.602  -1.086  1.00  0.00     0.021 A 
BRANCH   8  11
HETATM   11  N1  UNL     1      -8.473  -2.129   0.404  1.00  0.00    -0.116 N 
HETATM   12  O1  UNL     1      -8.502  -3.230  -0.150  1.00  0.00    -0.532 OA
HETATM   13  O2  UNL     1      -9.436  -1.796   1.305  1.00  0.00    -0.532 OA
ENDBRANCH   8  11
ENDBRANCH   4   5
ENDBRANCH   3   4
ENDBRANCH   2   3
ENDBRANCH   1   2
BRANCH   1  14
HETATM   14  O3  UNL     1      -0.030   1.128   0.870  1.00  0.00    -0.389 OA
BRANCH  14  15
HETATM   15  C8  UNL     1       0.564   1.250  -0.358  1.00  0.00     0.193 C 
BRANCH  15  16
HETATM   16  C9  UNL     1       1.496   2.439  -0.288  1.00  0.00     0.193 C 
BRANCH  16  17
HETATM   17  O4  UNL     1       2.437   2.239   0.692  1.00  0.00    -0.387 OA
BRANCH  17  18
HETATM   18  C10 UNL     1       3.198   1.126   0.435  1.00  0.00     0.194 C 
BRANCH  18  19
HETATM   19  C11 UNL     1       4.268   0.925   1.491  1.00  0.00     0.201 C 
BRANCH  19  20
HETATM   20  O5  UNL     1       5.026  -0.171   1.245  1.00  0.00    -0.349 OA
BRANCH  20  21
HETATM   21  C12 UNL     1       5.875  -0.594   0.302  1.00  0.00     0.068 A 
HETATM   22  C13 UNL     1       6.458  -1.850   0.398  1.00  0.00     0.037 A 
HETATM   23  C14 UNL     1       7.334  -2.370  -0.507  1.00  0.00     0.003 A 
HETATM   24  C15 UNL     1       7.660  -1.582  -1.598  1.00  0.00     0.000 A 
HETATM   25  C16 UNL     1       7.121  -0.328  -1.759  1.00  0.00     0.003 A 
HETATM   26  C17 UNL     1       6.223   0.157  -0.793  1.00  0.00     0.037 A 
ENDBRANCH  20  21
ENDBRANCH  19  20
ENDBRANCH  18  19
ENDBRANCH  17  18
ENDBRANCH  16  17
ENDBRANCH  15  16
ENDBRANCH  14  15
ENDBRANCH   1  14
TORSDOF 13
