REMARK  21 active torsions:
REMARK  status: ('A' for Active; 'I' for Inactive)
REMARK    1  A    between atoms: N1_1  and  C1_5 
REMARK    2  A    between atoms: C3_7  and  N2_8 
REMARK    3  A    between atoms: C4_12  and  S1_13 
REMARK    4  A    between atoms: S1_13  and  S2_14 
REMARK    5  A    between atoms: S2_14  and  C5_15 
REMARK    6  A    between atoms: C6_16  and  N3_17 
REMARK    7  A    between atoms: C8_22  and  N4_23 
REMARK    8  A    between atoms: C9_27  and  O1_28 
REMARK    9  A    between atoms: O1_28  and  C10_29 
REMARK   10  A    between atoms: C11_31  and  C12_32 
REMARK   11  A    between atoms: C12_32  and  O3_33 
REMARK   12  A    between atoms: C12_32  and  C13_35 
REMARK   13  A    between atoms: C13_35  and  O4_36 
REMARK   14  A    between atoms: C14_39  and  C15_40 
REMARK   15  A    between atoms: C15_40  and  O6_41 
REMARK   16  A    between atoms: C16_43  and  O7_44 
REMARK   17  A    between atoms: C17_46  and  O8_47 
REMARK   18  A    between atoms: C18_50  and  O10_51 
REMARK   19  A    between atoms: O10_51  and  C19_52 
REMARK   20  A    between atoms: C20_53  and  N5_54 
REMARK   21  A    between atoms: C22_59  and  N6_60 
ROOT
HETATM    1  C5  UNL     1      -0.652  -0.758  -1.592  1.00  0.00     0.120 C 
HETATM    2  C6  UNL     1      -0.234  -1.992  -0.893  1.00  0.00     0.202 C 
HETATM    3  C7  UNL     1      -0.743  -1.907   0.549  1.00  0.00     0.069 C 
HETATM    4  C8  UNL     1      -2.251  -1.797   0.451  1.00  0.00     0.217 C 
HETATM    5  C9  UNL     1      -2.674  -0.497  -0.192  1.00  0.00     0.185 C 
HETATM    6  C17 UNL     1      -2.154  -0.547  -1.609  1.00  0.00     0.165 C 
ENDROOT
BRANCH   1   7
HETATM    7  S2  UNL     1       0.253   0.670  -1.045  1.00  0.00    -0.085 SA
BRANCH   7   8
HETATM    8  S1  UNL     1       2.287   0.637  -1.585  1.00  0.00    -0.063 SA
BRANCH   8   9
HETATM    9  C4  UNL     1       3.302  -0.122  -0.270  1.00  0.00     0.227 C 
HETATM   10  C3  UNL     1       3.288   0.773   0.911  1.00  0.00     0.225 C 
HETATM   11  C2  UNL     1       4.533   0.758   1.714  1.00  0.00     0.074 C 
HETATM   12  C1  UNL     1       5.282  -0.530   1.455  1.00  0.00     0.240 C 
HETATM   13  C18 UNL     1       5.617  -0.480  -0.042  1.00  0.00     0.292 C 
HETATM   14  O9  UNL     1       4.480  -0.560  -0.767  1.00  0.00    -0.341 OA
BRANCH  10  15
HETATM   15  N2  UNL     1       2.107   0.558   1.749  1.00  0.00    -0.072 N 
ATOM     16  H23 UNL     1       2.188  -0.299   2.296  1.00  0.00     0.274 HD
ATOM     17  H22 UNL     1       2.065   1.230   2.515  1.00  0.00     0.274 HD
ATOM     18  H21 UNL     1       1.250   0.568   1.196  1.00  0.00     0.274 HD
ENDBRANCH  10  15
BRANCH  12  19
HETATM   19  N1  UNL     1       4.509  -1.677   1.808  1.00  0.00    -0.070 N 
ATOM     20  H13 UNL     1       4.187  -1.624   2.774  1.00  0.00     0.274 HD
ATOM     21  H12 UNL     1       3.604  -1.673   1.337  1.00  0.00     0.274 HD
ATOM     22  H11 UNL     1       5.014  -2.546   1.633  1.00  0.00     0.274 HD
ENDBRANCH  12  19
BRANCH  13  23
HETATM   23  O10 UNL     1       6.333   0.697  -0.229  1.00  0.00    -0.350 OA
BRANCH  23  24
HETATM   24  C19 UNL     1       7.633   0.551  -0.605  1.00  0.00     0.185 C 
HETATM   25  C20 UNL     1       7.854   1.294  -1.934  1.00  0.00     0.216 C 
HETATM   26  C21 UNL     1       9.222   1.663  -1.403  1.00  0.00     0.070 C 
HETATM   27  C22 UNL     1       8.665   1.445  -0.010  1.00  0.00     0.216 C 
BRANCH  25  28
HETATM   28  N5  UNL     1       7.871   0.407  -3.078  1.00  0.00    -0.072 N 
ATOM     29  H53 UNL     1       8.561  -0.334  -2.955  1.00  0.00     0.274 HD
ATOM     30  H52 UNL     1       7.024  -0.160  -3.113  1.00  0.00     0.274 HD
ATOM     31  H51 UNL     1       8.018   0.900  -3.959  1.00  0.00     0.274 HD
ENDBRANCH  25  28
BRANCH  27  32
HETATM   32  N6  UNL     1       9.643   0.802   0.851  1.00  0.00    -0.072 N 
ATOM     33  H63 UNL     1       9.167   0.283   1.589  1.00  0.00     0.274 HD
ATOM     34  H62 UNL     1      10.095   0.036   0.351  1.00  0.00     0.274 HD
ATOM     35  H61 UNL     1      10.350   1.414   1.258  1.00  0.00     0.274 HD
ENDBRANCH  27  32
ENDBRANCH  23  24
ENDBRANCH  13  23
ENDBRANCH   8   9
ENDBRANCH   7   8
ENDBRANCH   1   7
BRANCH   2  36
HETATM   36  N3  UNL     1      -0.826  -3.149  -1.557  1.00  0.00    -0.074 N 
ATOM     37  H33 UNL     1      -1.840  -3.073  -1.633  1.00  0.00     0.274 HD
ATOM     38  H32 UNL     1      -0.607  -3.176  -2.553  1.00  0.00     0.274 HD
ATOM     39  H31 UNL     1      -0.538  -4.000  -1.075  1.00  0.00     0.274 HD
ENDBRANCH   2  36
BRANCH   6  40
HETATM   40  O8  UNL     1      -2.704  -1.629  -2.292  1.00  0.00    -0.392 OA
ATOM     41  H8  UNL     1      -3.645  -1.497  -2.303  1.00  0.00     0.210 HD
ENDBRANCH   6  40
BRANCH   5  42
HETATM   42  O1  UNL     1      -4.013  -0.391  -0.077  1.00  0.00    -0.348 OA
BRANCH  42  43
HETATM   43  C10 UNL     1      -4.533   0.670   0.587  1.00  0.00     0.294 C 
HETATM   44  O2  UNL     1      -5.185   1.462  -0.363  1.00  0.00    -0.326 OA
HETATM   45  C11 UNL     1      -6.498   1.146  -0.543  1.00  0.00     0.294 C 
HETATM   46  O5  UNL     1      -7.226   1.459   0.567  1.00  0.00    -0.348 OA
HETATM   47  C14 UNL     1      -6.733   1.014   1.752  1.00  0.00     0.181 C 
HETATM   48  C16 UNL     1      -5.424   0.301   1.728  1.00  0.00     0.204 C 
BRANCH  45  49
HETATM   49  C12 UNL     1      -6.756  -0.230  -1.103  1.00  0.00     0.197 C 
BRANCH  49  50
HETATM   50  O3  UNL     1      -6.137  -0.331  -2.343  1.00  0.00    -0.389 OA
ATOM     51  H3  UNL     1      -6.300  -1.198  -2.696  1.00  0.00     0.210 HD
ENDBRANCH  49  50
BRANCH  49  52
HETATM   52  C13 UNL     1      -8.264  -0.272  -1.396  1.00  0.00     0.200 C 
BRANCH  52  53
HETATM   53  O4  UNL     1      -8.634   0.778  -2.219  1.00  0.00    -0.398 OA
ATOM     54  H4  UNL     1      -9.566   0.752  -2.400  1.00  0.00     0.209 HD
ENDBRANCH  52  53
ENDBRANCH  49  52
ENDBRANCH  45  49
BRANCH  47  55
HETATM   55  C15 UNL     1      -6.683   2.229   2.694  1.00  0.00     0.199 C 
BRANCH  55  56
HETATM   56  O6  UNL     1      -7.974   2.736   2.846  1.00  0.00    -0.398 OA
ATOM     57  H6  UNL     1      -7.943   3.486   3.428  1.00  0.00     0.209 HD
ENDBRANCH  55  56
ENDBRANCH  47  55
BRANCH  48  58
HETATM   58  O7  UNL     1      -4.814   0.581   2.977  1.00  0.00    -0.388 OA
ATOM     59  H7  UNL     1      -5.381   0.346   3.703  1.00  0.00     0.210 HD
ENDBRANCH  48  58
ENDBRANCH  42  43
ENDBRANCH   5  42
BRANCH   4  60
HETATM   60  N4  UNL     1      -2.896  -2.098   1.685  1.00  0.00    -0.072 N 
ATOM     61  H43 UNL     1      -2.615  -3.015   2.033  1.00  0.00     0.274 HD
ATOM     62  H42 UNL     1      -2.533  -1.518   2.442  1.00  0.00     0.274 HD
ATOM     63  H41 UNL     1      -3.911  -2.024   1.619  1.00  0.00     0.274 HD
ENDBRANCH   4  60
TORSDOF 21
