REMARK  16 active torsions:
REMARK  status: ('A' for Active; 'I' for Inactive)
REMARK    1  A    between atoms: N1_1  and  C1_4 
REMARK    2  A    between atoms: N3_10  and  C5_11 
REMARK    3  A    between atoms: C5_11  and  O1_12 
REMARK    4  A    between atoms: O1_12  and  C6_13 
REMARK    5  A    between atoms: C6_13  and  O2_14 
REMARK    6  A    between atoms: C6_13  and  C7_16 
REMARK    7  A    between atoms: C7_16  and  O3_17 
REMARK    8  A    between atoms: C7_16  and  C8_19 
REMARK    9  A    between atoms: C7_16  and  N5_25 
REMARK   10  A    between atoms: C8_19  and  C9_20 
REMARK   11  A    between atoms: C9_20  and  N4_21 
REMARK       I    between atoms: N5_25  and  C10_27 
REMARK   12  A    between atoms: C10_27  and  C11_29 
REMARK       I    between atoms: N7_33  and  C13_35 
REMARK       I    between atoms: C13_35  and  N8_36 
REMARK       I    between atoms: C13_35  and  N9_40 
REMARK   13  A    between atoms: C15_45  and  N10_46 
REMARK   14  A    between atoms: C17_51  and  N13_52 
REMARK   15  A    between atoms: C18_57  and  C19_58 
REMARK   16  A    between atoms: C19_58  and  O6_59 
ROOT
HETATM    1  C11 UNL     1      -1.365   0.457   0.886  1.00  0.00     0.177 A 
HETATM    2  N6  UNL     1      -1.624   1.756   1.034  1.00  0.00    -0.324 N 
ATOM      3  H6  UNL     1      -0.934   2.367   1.470  1.00  0.00     0.169 HD
HETATM    4  C12 UNL     1      -2.793   2.261   0.609  1.00  0.00     0.109 A 
HETATM    5  N7  UNL     1      -3.024   3.515   0.760  1.00  0.00    -0.327 N 
ATOM      6  H7  UNL     1      -2.307   4.091   1.201  1.00  0.00     0.164 HD
HETATM    7  C13 UNL     1      -4.239   4.144   0.340  1.00  0.00     0.481 C 
HETATM    8  N8  UNL     1      -4.335   4.319  -1.095  1.00  0.00    -0.033 N 
ATOM      9  H81 UNL     1      -5.201   4.767  -1.394  1.00  0.00     0.278 HD
ATOM     10  H82 UNL     1      -4.204   3.429  -1.576  1.00  0.00     0.278 HD
ATOM     11  H83 UNL     1      -3.525   4.826  -1.452  1.00  0.00     0.278 HD
HETATM   12  N9  UNL     1      -4.354   5.492   0.912  1.00  0.00    -0.033 N 
ATOM     13  H91 UNL     1      -5.220   5.940   0.613  1.00  0.00     0.278 HD
ATOM     14  H92 UNL     1      -3.538   6.065   0.695  1.00  0.00     0.278 HD
ATOM     15  H93 UNL     1      -4.268   5.479   1.928  1.00  0.00     0.278 HD
HETATM   16  C14 UNL     1      -3.739   1.465   0.020  1.00  0.00     0.097 A 
HETATM   17  C15 UNL     1      -3.464   0.122  -0.129  1.00  0.00     0.117 A 
HETATM   18  N14 UNL     1      -2.269  -0.337   0.317  1.00  0.00    -0.324 N 
ATOM     19  H14 UNL     1      -2.054  -1.329   0.213  1.00  0.00     0.169 HD
ENDROOT
BRANCH   1  20
HETATM   20  C10 UNL     1      -0.070  -0.069   1.363  1.00  0.00     0.288 C 
HETATM   21  N5  UNL     1       0.888   0.756   1.957  1.00  0.00    -0.319 N 
ATOM     22  H5  UNL     1       0.622   1.738   2.034  1.00  0.00     0.166 HD
HETATM   23  O4  UNL     1       0.111  -1.289   1.200  1.00  0.00    -0.264 OA
BRANCH  21  24
HETATM   24  C7  UNL     1       2.155   0.446   2.463  1.00  0.00     0.186 C 
BRANCH  24  25
HETATM   25  C6  UNL     1       3.173  -0.127   1.535  1.00  0.00     0.320 C 
BRANCH  25  26
HETATM   26  O1  UNL     1       2.945  -1.274   0.889  1.00  0.00    -0.310 OA
BRANCH  26  27
HETATM   27  C5  UNL     1       3.192  -1.364  -0.452  1.00  0.00     0.236 C 
BRANCH  27  28
HETATM   28  N3  UNL     1       4.516  -1.153  -0.903  1.00  0.00    -0.322 N 
HETATM   29  C4  UNL     1       5.386  -2.192  -0.959  1.00  0.00     0.100 A 
HETATM   30  C3  UNL     1       6.674  -2.094  -1.396  1.00  0.00     0.048 A 
HETATM   31  C2  UNL     1       7.184  -0.851  -1.830  1.00  0.00     0.054 A 
HETATM   32  N2  UNL     1       8.392  -0.614  -2.270  1.00  0.00    -0.336 N 
HETATM   33  C21 UNL     1       6.305   0.192  -1.772  1.00  0.00     0.051 A 
HETATM   34  C1  UNL     1       8.702   0.631  -2.640  1.00  0.00     0.143 A 
ATOM     35  H2  UNL     1       9.082  -1.363  -2.329  1.00  0.00     0.168 HD
HETATM   36  S1  UNL     1       7.253   1.487  -2.358  1.00  0.00    -0.051 SA
HETATM   37  C20 UNL     1       4.984   0.039  -1.313  1.00  0.00     0.119 A 
BRANCH  34  38
HETATM   38  N1  UNL     1       9.855   1.061  -3.105  1.00  0.00    -0.380 N 
ATOM     39  H12 UNL     1      10.721   0.549  -3.274  1.00  0.00     0.158 HD
ATOM     40  H11 UNL     1      10.092   2.012  -3.388  1.00  0.00     0.158 HD
ENDBRANCH  34  38
ENDBRANCH  27  28
ENDBRANCH  26  27
ENDBRANCH  25  26
BRANCH  25  41
HETATM   41  O2  UNL     1       4.363  -0.217   2.339  1.00  0.00    -0.366 OA
ATOM     42  H2  UNL     1       4.525   0.599   2.798  1.00  0.00     0.212 HD
ENDBRANCH  25  41
ENDBRANCH  24  25
BRANCH  24  43
HETATM   43  O3  UNL     1       2.714   1.790   2.789  1.00  0.00    -0.366 OA
ATOM     44  H3  UNL     1       2.066   2.155   3.380  1.00  0.00     0.212 HD
ENDBRANCH  24  43
BRANCH  24  45
HETATM   45  C8  UNL     1       2.225  -0.198   3.826  1.00  0.00     0.093 C 
BRANCH  45  46
HETATM   46  C9  UNL     1       2.002  -1.661   3.897  1.00  0.00     0.234 C 
BRANCH  46  47
HETATM   47  N4  UNL     1       2.181  -2.046   5.323  1.00  0.00    -0.079 N 
ATOM     48  H43 UNL     1       3.078  -1.755   5.711  1.00  0.00     0.274 HD
ATOM     49  H42 UNL     1       1.589  -1.516   5.962  1.00  0.00     0.274 HD
ATOM     50  H41 UNL     1       2.027  -3.053   5.372  1.00  0.00     0.274 HD
ENDBRANCH  46  47
ENDBRANCH  45  46
ENDBRANCH  24  45
ENDBRANCH  21  24
ENDBRANCH   1  20
BRANCH  17  51
HETATM   51  N10 UNL     1      -4.435  -0.703  -0.736  1.00  0.00    -0.277 N 
HETATM   52  C16 UNL     1      -5.430  -1.318   0.107  1.00  0.00     0.197 C 
HETATM   53  N11 UNL     1      -5.799  -0.757   1.358  1.00  0.00    -0.063 NA
HETATM   54  N12 UNL     1      -5.958  -2.412  -0.361  1.00  0.00    -0.316 N 
HETATM   55  C17 UNL     1      -5.507  -2.894  -1.648  1.00  0.00     0.430 C 
ATOM     56  H12 UNL     1      -6.671  -2.916   0.166  1.00  0.00     0.166 HD
HETATM   57  O5  UNL     1      -5.279  -1.906  -2.572  1.00  0.00    -0.316 OA
HETATM   58  C18 UNL     1      -4.409  -0.911  -2.150  1.00  0.00     0.260 C 
BRANCH  55  59
HETATM   59  N13 UNL     1      -4.397  -3.794  -1.462  1.00  0.00    -0.035 N 
ATOM     60 3H13 UNL     1      -3.642  -3.369  -0.923  1.00  0.00     0.279 HD
ATOM     61 2H13 UNL     1      -4.622  -4.556  -0.822  1.00  0.00     0.279 HD
ATOM     62 1H13 UNL     1      -4.079  -4.134  -2.370  1.00  0.00     0.279 HD
ENDBRANCH  55  59
BRANCH  58  63
HETATM   63  C19 UNL     1      -4.797   0.348  -2.930  1.00  0.00     0.218 C 
BRANCH  63  64
HETATM   64  O6  UNL     1      -6.080   0.776  -2.615  1.00  0.00    -0.397 OA
ATOM     65  H6  UNL     1      -6.321   1.557  -3.099  1.00  0.00     0.209 HD
ENDBRANCH  63  64
ENDBRANCH  58  63
ENDBRANCH  17  51
TORSDOF 16
