REMARK  19 active torsions:
REMARK  status: ('A' for Active; 'I' for Inactive)
REMARK    1  A    between atoms: N1_2  and  C2_3 
REMARK    2  A    between atoms: N1_2  and  C22_46 
REMARK    3  A    between atoms: C2_3  and  C3_4 
REMARK    4  A    between atoms: C3_4  and  O1_5 
REMARK    5  A    between atoms: C3_4  and  N2_7 
REMARK    6  A    between atoms: N2_7  and  C4_9 
REMARK    7  A    between atoms: N3_11  and  N4_12 
REMARK    8  A    between atoms: N4_12  and  C6_14 
REMARK    9  A    between atoms: C6_14  and  C7_15 
REMARK   10  A    between atoms: C7_15  and  O2_16 
REMARK   11  A    between atoms: C15_30  and  N8_31 
REMARK   12  A    between atoms: C18_34  and  O5_35 
REMARK   13  A    between atoms: C19_37  and  O6_38 
REMARK   14  A    between atoms: C20_40  and  O7_41 
REMARK   15  A    between atoms: C22_46  and  O8_47 
REMARK   16  A    between atoms: C22_46  and  C23_49 
REMARK   17  A    between atoms: C23_49  and  O9_50 
REMARK   18  A    between atoms: C23_49  and  C24_52 
REMARK   19  A    between atoms: C24_52  and  O10_53 
ROOT
HETATM    1  C6  UNL     1       0.159   5.467  -0.148  1.00  0.00     0.081 C 
HETATM    2  C8  UNL     1       0.948   5.639   0.890  1.00  0.00     0.150 C 
HETATM    3  C9  UNL     1       0.442   5.298   2.187  1.00  0.00     0.113 C 
HETATM    4  N5  UNL     1       0.050   5.017   3.238  1.00  0.00    -0.191 NA
HETATM    5  C10 UNL     1       2.286   6.153   0.751  1.00  0.00     0.113 C 
HETATM    6  N6  UNL     1       3.360   6.577   0.621  1.00  0.00    -0.191 NA
ENDROOT
BRANCH   1   7
HETATM    7  N4  UNL     1      -1.146   4.961   0.011  1.00  0.00    -0.291 N 
ATOM      8  H4  UNL     1      -1.922   5.623   0.020  1.00  0.00     0.187 HD
BRANCH   7   9
HETATM    9  N3  UNL     1      -1.437   3.603   0.157  1.00  0.00    -0.229 N 
HETATM   10  C5  UNL     1      -0.420   2.726   0.147  1.00  0.00     0.151 A 
HETATM   11  C4  UNL     1      -0.627   1.358   0.288  1.00  0.00     0.076 A 
HETATM   12  C21 UNL     1      -1.940   0.893   0.446  1.00  0.00     0.098 A 
HETATM   13  C12 UNL     1      -2.978   1.799   0.456  1.00  0.00     0.132 A 
HETATM   14  N9  UNL     1      -2.216  -0.384   0.588  1.00  0.00    -0.188 N 
HETATM   15  C11 UNL     1      -2.681   3.124   0.310  1.00  0.00     0.284 A 
HETATM   16  C13 UNL     1      -4.238   1.282   0.616  1.00  0.00     0.279 A 
HETATM   17  O3  UNL     1      -3.640   3.941   0.321  1.00  0.00    -0.265 OA
HETATM   18  O4  UNL     1      -5.208   2.085   0.628  1.00  0.00    -0.266 OA
HETATM   19  N7  UNL     1      -4.481  -0.057   0.761  1.00  0.00    -0.151 N 
HETATM   20  C14 UNL     1      -5.871  -0.488   0.952  1.00  0.00     0.179 C 
HETATM   21  C15 UNL     1      -3.478  -0.927   0.751  1.00  0.00     0.687 A 
ATOM     22  H9  UNL     1      -1.429  -1.033   0.577  1.00  0.00     0.184 HD
BRANCH  11  23
HETATM   23  N2  UNL     1       0.435   0.413   0.276  1.00  0.00    -0.359 N 
ATOM     24  H2  UNL     1       0.202  -0.575   0.378  1.00  0.00     0.162 HD
BRANCH  23  25
HETATM   25  C3  UNL     1       1.807   0.769   0.130  1.00  0.00     0.235 C 
BRANCH  25  26
HETATM   26  C2  UNL     1       2.693  -0.474   0.154  1.00  0.00     0.172 C 
BRANCH  26  27
HETATM   27  N1  UNL     1       4.077  -0.187   0.099  1.00  0.00    -0.386 N 
HETATM   28  C1  UNL     1       4.628   0.429   1.226  1.00  0.00     0.146 C 
BRANCH  27  29
HETATM   29  C22 UNL     1       4.880  -0.826  -0.849  1.00  0.00     0.246 C 
BRANCH  29  30
HETATM   30  O8  UNL     1       4.092  -1.264  -1.943  1.00  0.00    -0.374 OA
ATOM     31  H8  UNL     1       4.638  -1.699  -2.588  1.00  0.00     0.212 HD
ENDBRANCH  29  30
BRANCH  29  32
HETATM   32  C23 UNL     1       5.678  -2.007  -0.415  1.00  0.00     0.190 C 
BRANCH  32  33
HETATM   33  O9  UNL     1       6.586  -1.765   0.588  1.00  0.00    -0.389 OA
ATOM     34  H9  UNL     1       7.095  -2.518   0.865  1.00  0.00     0.210 HD
ENDBRANCH  32  33
BRANCH  32  35
HETATM   35  C24 UNL     1       6.504  -2.437  -1.639  1.00  0.00     0.200 C 
BRANCH  35  36
HETATM   36  O10 UNL     1       7.372  -1.374  -1.956  1.00  0.00    -0.398 OA
ATOM     37  H10 UNL     1       7.882  -1.640  -2.712  1.00  0.00     0.209 HD
ENDBRANCH  35  36
ENDBRANCH  32  35
ENDBRANCH  29  32
ENDBRANCH  27  29
ENDBRANCH  26  27
ENDBRANCH  25  26
BRANCH  25  38
HETATM   38  O1  UNL     1       2.072   1.432  -1.068  1.00  0.00    -0.375 OA
ATOM     39  H1  UNL     1       1.521   2.205  -1.083  1.00  0.00     0.212 HD
ENDBRANCH  25  38
ENDBRANCH  23  25
ENDBRANCH  11  23
BRANCH  21  40
HETATM   40  N8  UNL     1      -3.577  -2.330   0.848  1.00  0.00    -0.188 N 
HETATM   41  C16 UNL     1      -2.268  -3.021   1.119  1.00  0.00     0.147 C 
HETATM   42  C17 UNL     1      -1.956  -3.697  -0.201  1.00  0.00     0.055 C 
HETATM   43  C18 UNL     1      -3.075  -4.540  -0.720  1.00  0.00     0.152 C 
HETATM   44  C19 UNL     1      -4.423  -3.899  -0.695  1.00  0.00     0.196 C 
HETATM   45  C20 UNL     1      -4.633  -3.250   0.694  1.00  0.00     0.268 C 
BRANCH  43  46
HETATM   46  O5  UNL     1      -2.770  -4.843  -2.068  1.00  0.00    -0.393 OA
ATOM     47  H5  UNL     1      -3.482  -5.379  -2.398  1.00  0.00     0.210 HD
ENDBRANCH  43  46
BRANCH  44  48
HETATM   48  O6  UNL     1      -5.373  -4.907  -0.817  1.00  0.00    -0.389 OA
ATOM     49  H6  UNL     1      -6.231  -4.499  -0.801  1.00  0.00     0.210 HD
ENDBRANCH  44  48
BRANCH  45  50
HETATM   50  O7  UNL     1      -4.366  -4.324   1.622  1.00  0.00    -0.373 OA
ATOM     51  H7  UNL     1      -5.078  -4.944   1.518  1.00  0.00     0.212 HD
ENDBRANCH  45  50
ENDBRANCH  21  40
ENDBRANCH   7   9
ENDBRANCH   1   7
BRANCH   1  52
HETATM   52  C7  UNL     1       0.671   5.818  -1.491  1.00  0.00     0.224 C 
BRANCH  52  53
HETATM   53  O2  UNL     1       0.671   4.715  -2.334  1.00  0.00    -0.395 OA
ATOM     54  H2  UNL     1       1.000   4.940  -3.196  1.00  0.00     0.209 HD
ENDBRANCH  52  53
ENDBRANCH   1  52
TORSDOF 19
