REMARK  8 active torsions:
REMARK  status: ('A' for Active; 'I' for Inactive)
REMARK    1  A    between atoms: C3_3  and  N1_4 
REMARK    2  A    between atoms: N1_4  and  O1_6 
REMARK    3  A    between atoms: C4_10  and  S1_11 
REMARK    4  A    between atoms: S1_11  and  C5_12 
REMARK    5  A    between atoms: C5_12  and  C6_13 
REMARK       I    between atoms: C6_13  and  N3_15 
REMARK    6  A    between atoms: N3_15  and  C7_16 
REMARK    7  A    between atoms: C10_20  and  N4_21 
REMARK    8  A    between atoms: C12_25  and  C13_26 
ROOT
HETATM    1  C6  UNL     1      -0.385  -0.285   0.965  1.00  0.00     0.301 C 
HETATM    2  O2  UNL     1       0.220   0.204   1.988  1.00  0.00    -0.256 OA
HETATM    3  N3  UNL     1      -1.391   0.310   0.266  1.00  0.00    -0.368 NA
ENDROOT
BRANCH   1   4
HETATM    4  C5  UNL     1       0.171  -1.629   0.592  1.00  0.00     0.200 C 
BRANCH   4   5
HETATM    5  S1  UNL     1       1.460  -1.764  -0.571  1.00  0.00    -0.101 SA
BRANCH   5   6
HETATM    6  C4  UNL     1       3.144  -1.456  -0.207  1.00  0.00     0.078 A 
HETATM    7  N2  UNL     1       3.925  -2.474   0.306  1.00  0.00    -0.335 N 
HETATM    8  C3  UNL     1       5.255  -2.369   0.479  1.00  0.00     0.132 A 
ATOM      9  H2  UNL     1       3.470  -3.349   0.567  1.00  0.00     0.168 HD
HETATM   10  C2  UNL     1       5.947  -1.233   0.170  1.00  0.00    -0.010 A 
HETATM   11  C1  UNL     1       7.395  -1.146   0.324  1.00  0.00     0.052 C 
HETATM   12  C19 UNL     1       5.226  -0.173  -0.330  1.00  0.00    -0.044 A 
HETATM   13  C17 UNL     1       3.853  -0.323  -0.504  1.00  0.00    -0.022 A 
HETATM   14  C20 UNL     1       5.927   1.055  -0.674  1.00  0.00     0.049 C 
HETATM   15  C18 UNL     1       3.112   0.853  -1.068  1.00  0.00     0.052 C 
BRANCH   8  16
HETATM   16  N1  UNL     1       6.028  -3.464   0.997  1.00  0.00    -0.253 N 
ATOM     17  H1  UNL     1       6.891  -3.752   0.536  1.00  0.00     0.196 HD
BRANCH  16  18
HETATM   18  O1  UNL     1       5.623  -4.062   2.029  1.00  0.00    -0.288 OA
ATOM     19  H1  UNL     1       6.134  -4.786   2.371  1.00  0.00     0.244 HD
ENDBRANCH  16  18
ENDBRANCH   8  16
ENDBRANCH   5   6
ENDBRANCH   4   5
ENDBRANCH   1   4
BRANCH   3  20
HETATM   20  C7  UNL     1      -2.393   0.980  -0.379  1.00  0.00     0.139 A 
HETATM   21  C8  UNL     1      -1.940   2.139  -1.090  1.00  0.00     0.077 A 
HETATM   22 CL1  UNL     1      -0.259   2.679  -0.856  1.00  0.00    -0.081 Cl
HETATM   23  C9  UNL     1      -2.795   2.840  -1.903  1.00  0.00     0.063 A 
HETATM   24  C10 UNL     1      -4.103   2.459  -2.063  1.00  0.00     0.105 A 
HETATM   25  C11 UNL     1      -4.548   1.323  -1.360  1.00  0.00     0.047 A 
HETATM   26  C12 UNL     1      -3.741   0.595  -0.539  1.00  0.00    -0.006 A 
BRANCH  24  27
HETATM   27  N4  UNL     1      -5.000   3.173  -2.887  1.00  0.00    -0.116 N 
HETATM   28  O3  UNL     1      -4.585   4.180  -3.500  1.00  0.00    -0.532 OA
HETATM   29  O4  UNL     1      -6.276   2.823  -3.040  1.00  0.00    -0.532 OA
ENDBRANCH  24  27
BRANCH  26  30
HETATM   30  C13 UNL     1      -4.309  -0.452   0.237  1.00  0.00    -0.021 C 
HETATM   31  C14 UNL     1      -5.746  -0.794  -0.142  1.00  0.00     0.019 C 
HETATM   32  C15 UNL     1      -4.562   0.212   1.659  1.00  0.00     0.019 C 
HETATM   33  C16 UNL     1      -3.622  -1.749   0.414  1.00  0.00     0.019 C 
ENDBRANCH  26  30
ENDBRANCH   3  20
TORSDOF 8
