REMARK  7 active torsions:
REMARK  status: ('A' for Active; 'I' for Inactive)
REMARK    1  A    between atoms: C2_2  and  C3_3 
REMARK    2  A    between atoms: C6_6  and  C7_7 
REMARK    3  A    between atoms: C7_7  and  S1_8 
REMARK    4  A    between atoms: S1_8  and  C8_9 
REMARK    5  A    between atoms: C8_9  and  N3_26 
REMARK    6  A    between atoms: N1_10  and  C9_12 
REMARK    7  A    between atoms: C11_14  and  C12_15 
ROOT
HETATM    1  C12 UNL     1      -5.121  -0.633  -0.212  1.00  0.00     0.086 C 
HETATM    2  C13 UNL     1      -5.323  -1.988  -0.745  1.00  0.00     0.074 C 
HETATM    3  N2  UNL     1      -5.492  -3.053  -1.168  1.00  0.00    -0.196 NA
HETATM    4  C14 UNL     1      -5.196  -0.656   1.257  1.00  0.00     0.056 C 
HETATM    5  C15 UNL     1      -6.339   0.082   1.888  1.00  0.00     0.169 C 
HETATM    6  O1  UNL     1      -7.383   0.374   1.025  1.00  0.00    -0.391 OA
HETATM    7  C16 UNL     1      -6.855   1.192   0.029  1.00  0.00     0.169 C 
HETATM    8  C17 UNL     1      -6.073   0.323  -0.890  1.00  0.00     0.056 C 
ENDROOT
BRANCH   1   9
HETATM    9  C11 UNL     1      -3.741  -0.222  -0.673  1.00  0.00     0.009 A 
HETATM   10  C10 UNL     1      -2.512  -0.589  -0.202  1.00  0.00     0.048 A 
HETATM   11  C9  UNL     1      -1.427  -0.073  -0.813  1.00  0.00     0.064 A 
HETATM   12  C18 UNL     1      -1.668   0.787  -1.869  1.00  0.00     0.101 A 
HETATM   13  S2  UNL     1      -3.352   0.841  -1.966  1.00  0.00    -0.078 SA
HETATM   14 CL1  UNL     1      -0.482   1.623  -2.898  1.00  0.00    -0.074 Cl
BRANCH  11  15
HETATM   15  N1  UNL     1      -0.035  -0.324  -0.489  1.00  0.00    -0.334 N 
HETATM   16  C8  UNL     1       0.548  -1.411  -0.343  1.00  0.00     0.154 C 
ATOM     17  H1  UNL     1       0.544   0.506  -0.364  1.00  0.00     0.168 HD
BRANCH  16  18
HETATM   18  S1  UNL     1       2.309  -1.365   0.056  1.00  0.00    -0.089 SA
BRANCH  18  19
HETATM   19  C7  UNL     1       2.737   0.364   0.372  1.00  0.00     0.121 C 
BRANCH  19  20
HETATM   20  C6  UNL     1       4.194   0.571   0.488  1.00  0.00    -0.048 A 
HETATM   21  C5  UNL     1       4.832   0.509   1.686  1.00  0.00     0.009 A 
HETATM   22  C4  UNL     1       6.199   0.722   1.762  1.00  0.00     0.012 A 
HETATM   23  C3  UNL     1       6.962   0.998   0.639  1.00  0.00    -0.037 A 
HETATM   24  C21 UNL     1       6.309   1.057  -0.571  1.00  0.00     0.012 A 
HETATM   25  C20 UNL     1       4.953   0.851  -0.673  1.00  0.00     0.009 A 
BRANCH  23  26
HETATM   26  C2  UNL     1       8.409   1.260   0.742  1.00  0.00     0.001 C 
HETATM   27  C1  UNL     1       9.238   1.419  -0.155  1.00  0.00     0.012 C 
ENDBRANCH  23  26
ENDBRANCH  19  20
ENDBRANCH  18  19
ENDBRANCH  16  18
BRANCH  16  28
HETATM   28  N3  UNL     1      -0.037  -2.684  -0.474  1.00  0.00    -0.274 N 
HETATM   29  C19 UNL     1       0.287  -3.546  -1.508  1.00  0.00     0.183 C 
HETATM   30  N4  UNL     1       0.545  -4.285  -2.370  1.00  0.00    -0.172 NA
ATOM     31  H3  UNL     1      -0.725  -2.983   0.218  1.00  0.00     0.180 HD
ENDBRANCH  16  28
ENDBRANCH  11  15
ENDBRANCH   1   9
TORSDOF 7
