REMARK  8 active torsions:
REMARK  status: ('A' for Active; 'I' for Inactive)
REMARK    1  A    between atoms: O1_2  and  C2_3 
REMARK    2  A    between atoms: C2_3  and  C3_5 
REMARK    3  A    between atoms: C5_8  and  C6_9 
REMARK    4  A    between atoms: C6_9  and  N1_10 
REMARK    5  A    between atoms: N1_10  and  N2_12 
REMARK    6  A    between atoms: N2_12  and  C7_14 
REMARK    7  A    between atoms: C15_26  and  C16_27 
REMARK    8  A    between atoms: C17_28  and  C18_29 
ROOT
HETATM    1  C6  UNL     1       0.093   0.287   1.660  1.00  0.00     0.120 C 
ENDROOT
BRANCH   1   2
HETATM    2  C5  UNL     1      -1.152  -0.335   2.204  1.00  0.00    -0.001 A 
HETATM    3  C4  UNL     1      -1.489  -0.141   3.515  1.00  0.00     0.064 A 
HETATM    4  S1  UNL     1      -2.967  -0.938   3.683  1.00  0.00    -0.094 SA
HETATM    5  C3  UNL     1      -3.154  -1.530   2.066  1.00  0.00     0.091 A 
HETATM    6  C15 UNL     1      -2.040  -1.068   1.446  1.00  0.00    -0.001 A 
BRANCH   5   7
HETATM    7  C2  UNL     1      -4.256  -2.406   1.626  1.00  0.00     0.300 C 
HETATM    8  O2  UNL     1      -5.159  -2.635   2.515  1.00  0.00    -0.259 OA
BRANCH   7   9
HETATM    9  O1  UNL     1      -4.383  -2.977   0.407  1.00  0.00    -0.322 OA
HETATM   10  C1  UNL     1      -5.526  -3.812   0.180  1.00  0.00     0.213 C 
ENDBRANCH   7   9
ENDBRANCH   5   7
BRANCH   6  11
HETATM   11  C16 UNL     1      -1.808  -1.206  -0.014  1.00  0.00     0.014 C 
HETATM   12  C17 UNL     1      -2.525  -0.797  -1.002  1.00  0.00     0.001 C 
BRANCH  12  13
HETATM   13  C18 UNL     1      -3.776  -0.069  -1.011  1.00  0.00     0.002 C 
HETATM   14  C19 UNL     1      -4.389   0.278  -2.135  1.00  0.00    -0.088 C 
HETATM   15  C20 UNL     1      -3.839  -0.055  -3.460  1.00  0.00     0.043 C 
HETATM   16  C21 UNL     1      -5.661   1.015  -2.068  1.00  0.00     0.043 C 
ENDBRANCH  12  13
ENDBRANCH   6  11
ENDBRANCH   1   2
BRANCH   1  17
HETATM   17  N1  UNL     1       0.354   0.248   0.459  1.00  0.00    -0.309 N 
ATOM     18  H1  UNL     1      -0.393  -0.246  -0.029  1.00  0.00     0.186 HD
BRANCH  17  19
HETATM   19  N2  UNL     1       1.268   0.625  -0.419  1.00  0.00    -0.280 N 
ATOM     20  H2  UNL     1       0.911   0.767  -1.364  1.00  0.00     0.189 HD
BRANCH  19  21
HETATM   21  C7  UNL     1       2.538   0.845  -0.288  1.00  0.00     0.164 A 
HETATM   22  N3  UNL     1       3.344   0.767   0.755  1.00  0.00    -0.334 N 
HETATM   23  C8  UNL     1       4.617   1.089   0.625  1.00  0.00     0.053 A 
ATOM     24  H3  UNL     1       2.984   0.459   1.658  1.00  0.00     0.168 HD
HETATM   25  C9  UNL     1       5.594   1.072   1.635  1.00  0.00     0.055 A 
HETATM   26  C14 UNL     1       5.043   1.492  -0.605  1.00  0.00     0.035 A 
HETATM   27  C10 UNL     1       6.886   1.435   1.397  1.00  0.00     0.042 A 
HETATM   28 CL1  UNL     1       8.091   1.409   2.699  1.00  0.00    -0.084 Cl
HETATM   29  C11 UNL     1       7.313   1.842   0.154  1.00  0.00    -0.039 A 
HETATM   30  C12 UNL     1       8.717   2.233  -0.045  1.00  0.00     0.050 C 
HETATM   31  C13 UNL     1       6.376   1.867  -0.845  1.00  0.00     0.029 A 
HETATM   32  S2  UNL     1       3.619   1.399  -1.534  1.00  0.00    -0.051 SA
ENDBRANCH  19  21
ENDBRANCH  17  19
ENDBRANCH   1  17
TORSDOF 8
