REMARK  6 active torsions:
REMARK  status: ('A' for Active; 'I' for Inactive)
REMARK    1  A    between atoms: C2_2  and  O1_3 
REMARK    2  A    between atoms: O1_3  and  C3_4 
REMARK    3  A    between atoms: C3_4  and  C4_6 
REMARK    4  A    between atoms: C9_12  and  C10_13 
REMARK    5  A    between atoms: C12_15  and  N1_16 
REMARK       I    between atoms: N1_16  and  C13_18 
REMARK    6  A    between atoms: C13_18  and  C14_20 
ROOT
HETATM    1  C4  UNL     1      -2.939  -0.730  -0.063  1.00  0.00     0.064 A 
HETATM    2  C5  UNL     1      -4.107  -0.885  -0.760  1.00  0.00    -0.004 A 
HETATM    3  C6  UNL     1      -5.121   0.179  -1.137  1.00  0.00     0.057 C 
HETATM    4  S1  UNL     1      -4.140  -2.547  -1.096  1.00  0.00    -0.097 SA
HETATM    5  C7  UNL     1      -2.710  -2.975  -0.359  1.00  0.00     0.005 A 
HETATM    6  C8  UNL     1      -2.162  -1.827   0.173  1.00  0.00     0.004 A 
HETATM    7  C9  UNL     1      -0.881  -1.631   0.949  1.00  0.00    -0.011 C 
HETATM    8  C19 UNL     1      -0.464  -2.517   2.031  1.00  0.00     0.053 C 
HETATM    9  C20 UNL     1      -0.226  -4.021   1.708  1.00  0.00     0.085 C 
HETATM   10  C21 UNL     1      -1.176  -4.394   0.740  1.00  0.00    -0.178 C 
HETATM   11  C22 UNL     1      -2.150  -4.397  -0.300  1.00  0.00     0.127 C 
ENDROOT
BRANCH   7  12
HETATM   12  C10 UNL     1       0.212  -1.088   0.089  1.00  0.00     0.084 A 
HETATM   13  C11 UNL     1       1.143  -0.181   0.509  1.00  0.00     0.069 A 
HETATM   14  C12 UNL     1       2.011   0.104  -0.556  1.00  0.00     0.060 A 
HETATM   15  C18 UNL     1       1.536  -0.670  -1.577  1.00  0.00     0.172 A 
HETATM   16  O4  UNL     1       0.483  -1.352  -1.160  1.00  0.00    -0.320 OA
BRANCH  14  17
HETATM   17  N1  UNL     1       3.099   1.010  -0.466  1.00  0.00    -0.321 N 
HETATM   18  C13 UNL     1       3.969   1.301  -1.517  1.00  0.00     0.266 C 
HETATM   19  O3  UNL     1       3.800   0.736  -2.629  1.00  0.00    -0.267 OA
ATOM     20  H1  UNL     1       3.255   1.480   0.426  1.00  0.00     0.169 HD
BRANCH  18  21
HETATM   21  C14 UNL     1       5.095   2.238  -1.425  1.00  0.00     0.111 A 
HETATM   22  S2  UNL     1       6.196   2.622  -2.715  1.00  0.00    -0.093 SA
HETATM   23  C15 UNL     1       7.195   3.734  -1.905  1.00  0.00     0.054 A 
HETATM   24  C16 UNL     1       6.648   3.778  -0.656  1.00  0.00     0.051 A 
HETATM   25  C17 UNL     1       5.573   3.010  -0.415  1.00  0.00     0.139 A 
HETATM   26  F1  UNL     1       4.966   3.008   0.841  1.00  0.00    -0.204 F 
ENDBRANCH  18  21
ENDBRANCH  14  17
ENDBRANCH   7  12
BRANCH   1  27
HETATM   27  C3  UNL     1      -2.623   0.680   0.387  1.00  0.00     0.295 C 
HETATM   28  O2  UNL     1      -3.004   1.105   1.498  1.00  0.00    -0.259 OA
BRANCH  27  29
HETATM   29  O1  UNL     1      -1.904   1.531  -0.425  1.00  0.00    -0.318 OA
BRANCH  29  30
HETATM   30  C2  UNL     1      -1.550   2.841  -0.134  1.00  0.00     0.174 C 
HETATM   31  C1  UNL     1      -2.695   3.764   0.111  1.00  0.00     0.034 C 
ENDBRANCH  29  30
ENDBRANCH  27  29
ENDBRANCH   1  27
TORSDOF 6
