REMARK  8 active torsions:
REMARK  status: ('A' for Active; 'I' for Inactive)
REMARK    1  A    between atoms: C5_5  and  N1_6 
REMARK    2  A    between atoms: N1_6  and  C6_8 
REMARK    3  A    between atoms: C7_10  and  C8_11 
REMARK    4  A    between atoms: C9_12  and  C11_15 
REMARK    5  A    between atoms: C11_15  and  O3_17 
REMARK    6  A    between atoms: O3_17  and  C12_18 
REMARK    7  A    between atoms: C17_23  and  C18_24 
REMARK    8  A    between atoms: C19_25  and  C20_26 
ROOT
HETATM    1  C8  UNL     1       2.317   0.367  -0.650  1.00  0.00     0.067 C 
HETATM    2  C9  UNL     1       3.324  -0.355  -0.294  1.00  0.00     0.122 C 
HETATM    3  C10 UNL     1       3.244  -1.502   0.561  1.00  0.00     0.105 C 
HETATM    4  N2  UNL     1       3.208  -2.437   1.281  1.00  0.00    -0.191 NA
ENDROOT
BRANCH   2   5
HETATM    5  C11 UNL     1       4.663   0.041  -0.814  1.00  0.00     0.304 C 
HETATM    6  O2  UNL     1       4.822   1.022  -1.559  1.00  0.00    -0.258 OA
BRANCH   5   7
HETATM    7  O3  UNL     1       5.766  -0.699  -0.461  1.00  0.00    -0.312 OA
BRANCH   7   8
HETATM    8  C12 UNL     1       7.075  -0.404  -0.902  1.00  0.00     0.124 C 
HETATM    9  C13 UNL     1       7.951  -0.078   0.273  1.00  0.00     0.040 C 
HETATM   10  C14 UNL     1       7.666  -1.492  -1.760  1.00  0.00     0.040 C 
ENDBRANCH   7   8
ENDBRANCH   5   7
ENDBRANCH   2   5
BRANCH   1  11
HETATM   11  C7  UNL     1       0.913   0.227  -0.312  1.00  0.00     0.087 A 
HETATM   12  O1  UNL     1       0.152   1.158   0.253  1.00  0.00    -0.292 OA
HETATM   13  C6  UNL     1      -1.069   0.706   0.416  1.00  0.00     0.169 A 
HETATM   14  C17 UNL     1      -1.136  -0.602  -0.067  1.00  0.00     0.077 A 
HETATM   15  C15 UNL     1       0.135  -0.880  -0.524  1.00  0.00    -0.005 A 
HETATM   16  C16 UNL     1       0.455  -2.193  -1.156  1.00  0.00     0.052 C 
BRANCH  13  17
HETATM   17  N1  UNL     1      -2.162   1.411   0.987  1.00  0.00    -0.322 N 
ATOM     18  H1  UNL     1      -3.080   0.973   1.071  1.00  0.00     0.169 HD
BRANCH  17  19
HETATM   19  C5  UNL     1      -1.945   2.744   1.439  1.00  0.00     0.109 A 
HETATM   20  C4  UNL     1      -2.955   3.493   2.003  1.00  0.00     0.049 A 
HETATM   21  C3  UNL     1      -2.677   4.771   2.419  1.00  0.00     0.015 A 
HETATM   22  C2  UNL     1      -1.427   5.330   2.292  1.00  0.00    -0.006 A 
HETATM   23  C1  UNL     1      -1.094   6.711   2.732  1.00  0.00     0.053 C 
HETATM   24  C25 UNL     1      -0.458   4.517   1.715  1.00  0.00     0.195 A 
HETATM   25  N3  UNL     1      -0.726   3.273   1.310  1.00  0.00    -0.319 N 
HETATM   26  F1  UNL     1       0.785   5.073   1.589  1.00  0.00    -0.186 F 
ATOM     27  H3  UNL     1       0.018   2.714   0.892  1.00  0.00     0.169 HD
ENDBRANCH  17  19
ENDBRANCH  13  17
BRANCH  14  28
HETATM   28  C18 UNL     1      -2.258  -1.490  -0.099  1.00  0.00    -0.061 C 
HETATM   29  C19 UNL     1      -3.225  -2.232  -0.116  1.00  0.00    -0.096 C 
BRANCH  29  30
HETATM   30  C20 UNL     1      -4.381  -3.141  -0.155  1.00  0.00     0.065 C 
HETATM   31  C21 UNL     1      -4.376  -3.776  -1.528  1.00  0.00     0.017 C 
HETATM   32  C22 UNL     1      -5.829  -3.901  -1.914  1.00  0.00     0.001 C 
HETATM   33  C23 UNL     1      -6.571  -2.844  -1.135  1.00  0.00     0.001 C 
HETATM   34  C24 UNL     1      -5.683  -2.382  -0.027  1.00  0.00     0.017 C 
ENDBRANCH  29  30
ENDBRANCH  14  28
ENDBRANCH   1  11
TORSDOF 8
