REMARK  8 active torsions:
REMARK  status: ('A' for Active; 'I' for Inactive)
REMARK    1  A    between atoms: O1_2  and  C2_3 
REMARK    2  A    between atoms: C2_3  and  S2_5 
REMARK    3  A    between atoms: S2_5  and  C3_6 
REMARK    4  A    between atoms: C3_6  and  C4_7 
REMARK    5  A    between atoms: C4_7  and  C5_8 
REMARK    6  A    between atoms: C9_12  and  O2_13 
REMARK    7  A    between atoms: C10_15  and  C11_16 
REMARK       I    between atoms: C11_16  and  N1_18 
REMARK    8  A    between atoms: N1_18  and  C12_20 
ROOT
HETATM    1  C5  UNL     1      -0.302  -0.875   0.704  1.00  0.00     0.006 C 
HETATM    2  C6  UNL     1      -0.302  -2.210   0.010  1.00  0.00     0.020 C 
HETATM    3  C7  UNL     1      -1.801  -2.471  -0.225  1.00  0.00     0.015 C 
HETATM    4  C8  UNL     1      -1.662  -1.227  -1.116  1.00  0.00     0.029 C 
HETATM    5  C9  UNL     1      -0.299  -1.794  -1.457  1.00  0.00     0.127 C 
HETATM    6  C10 UNL     1      -1.414  -0.193  -0.037  1.00  0.00     0.089 C 
ENDROOT
BRANCH   6   7
HETATM    7  C11 UNL     1      -1.196   1.120  -0.575  1.00  0.00     0.228 C 
HETATM    8  O3  UNL     1      -0.138   1.752  -0.468  1.00  0.00    -0.273 OA
HETATM    9  N1  UNL     1      -2.259   1.750  -1.278  1.00  0.00    -0.306 N 
ATOM     10  H1  UNL     1      -2.251   1.740  -2.298  1.00  0.00     0.171 HD
BRANCH   9  11
HETATM   11  C12 UNL     1      -3.241   2.338  -0.661  1.00  0.00     0.167 A 
HETATM   12  N2  UNL     1      -3.461   2.476   0.652  1.00  0.00    -0.279 N 
HETATM   13  N3  UNL     1      -4.501   3.096   1.035  1.00  0.00    -0.303 N 
ATOM     14  H2  UNL     1      -2.806   2.091   1.332  1.00  0.00     0.189 HD
HETATM   15  C13 UNL     1      -5.349   3.594   0.149  1.00  0.00     0.160 A 
ATOM     16  H3  UNL     1      -4.684   3.211   2.032  1.00  0.00     0.186 HD
HETATM   17  S3  UNL     1      -4.596   3.138  -1.322  1.00  0.00    -0.046 SA
ENDBRANCH   9  11
ENDBRANCH   6   7
BRANCH   1  18
HETATM   18  C4  UNL     1       1.027  -0.233   0.692  1.00  0.00     0.016 C 
BRANCH  18  19
HETATM   19  C3  UNL     1       1.987  -1.193   1.425  1.00  0.00     0.082 C 
BRANCH  19  20
HETATM   20  S2  UNL     1       3.656  -0.496   1.480  1.00  0.00    -0.093 SA
BRANCH  20  21
HETATM   21  C2  UNL     1       4.406  -0.397  -0.111  1.00  0.00     0.174 C 
HETATM   22  S1  UNL     1       3.724  -0.885  -1.491  1.00  0.00    -0.045 SA
BRANCH  21  23
HETATM   23  O1  UNL     1       5.692   0.147  -0.186  1.00  0.00    -0.340 OA
HETATM   24  C1  UNL     1       5.872   1.450   0.325  1.00  0.00     0.211 C 
ENDBRANCH  21  23
ENDBRANCH  20  21
ENDBRANCH  19  20
ENDBRANCH  18  19
ENDBRANCH   1  18
BRANCH   5  25
HETATM   25  O2  UNL     1      -0.445  -2.866  -2.337  1.00  0.00    -0.395 OA
ATOM     26  H2  UNL     1      -0.443  -2.607  -3.251  1.00  0.00     0.210 HD
ENDBRANCH   5  25
TORSDOF 8
