REMARK  7 active torsions:
REMARK  status: ('A' for Active; 'I' for Inactive)
REMARK       I    between atoms: N1_2  and  C3_4 
REMARK    1  A    between atoms: C3_4  and  C4_6 
REMARK    2  A    between atoms: C4_6  and  S1_8 
REMARK    3  A    between atoms: S1_8  and  C5_9 
REMARK    4  A    between atoms: C7_11  and  N2_12 
REMARK    5  A    between atoms: C10_15  and  O3_16 
REMARK    6  A    between atoms: C12_19  and  C13_20 
REMARK    7  A    between atoms: C14_21  and  C16_24 
ROOT
HETATM    1  C13 UNL     1      -0.529   1.387   2.095  1.00  0.00     0.042 C 
HETATM    2  C14 UNL     1      -1.016   2.594   1.998  1.00  0.00     0.121 C 
HETATM    3  C15 UNL     1      -2.135   2.898   1.156  1.00  0.00     0.106 C 
HETATM    4  N3  UNL     1      -3.071   3.163   0.487  1.00  0.00    -0.191 NA
ENDROOT
BRANCH   2   5
HETATM    5  C16 UNL     1      -0.405   3.669   2.769  1.00  0.00     0.220 C 
HETATM    6  O4  UNL     1       0.592   3.420   3.523  1.00  0.00    -0.643 OA
HETATM    7  O5  UNL     1      -0.921   4.944   2.665  1.00  0.00    -0.643 OA
ENDBRANCH   2   5
BRANCH   1   8
HETATM    8  C12 UNL     1      -1.029   0.220   1.385  1.00  0.00    -0.015 A 
HETATM    9  C5  UNL     1      -0.918   0.151   0.032  1.00  0.00     0.021 A 
HETATM   10  C6  UNL     1      -1.455  -0.953  -0.598  1.00  0.00     0.052 A 
HETATM   11  C7  UNL     1      -2.092  -1.972   0.127  1.00  0.00     0.064 A 
HETATM   12  C10 UNL     1      -2.196  -1.889   1.494  1.00  0.00     0.093 A 
HETATM   13  C11 UNL     1      -1.660  -0.783   2.138  1.00  0.00     0.051 A 
BRANCH   9  14
HETATM   14  S1  UNL     1      -0.039   1.408  -0.887  1.00  0.00    -0.042 SA
BRANCH  14  15
HETATM   15  C4  UNL     1       1.714   0.933  -0.892  1.00  0.00     0.281 C 
HETATM   16  O2  UNL     1       2.060  -0.101  -0.285  1.00  0.00    -0.274 OA
BRANCH  15  17
HETATM   17  C3  UNL     1       2.690   1.744  -1.589  1.00  0.00     0.300 C 
HETATM   18  N1  UNL     1       4.043   1.418  -1.593  1.00  0.00    -0.353 N 
HETATM   19  C1  UNL     1       4.979   2.261  -2.323  1.00  0.00     0.152 C 
HETATM   20  C2  UNL     1       4.570   0.286  -0.898  1.00  0.00     0.152 C 
HETATM   21  O1  UNL     1       2.294   2.801  -2.225  1.00  0.00    -0.263 OA
ENDBRANCH  15  17
ENDBRANCH  14  15
ENDBRANCH   9  14
BRANCH  11  22
HETATM   22  N2  UNL     1      -2.594  -3.087  -0.591  1.00  0.00    -0.387 N 
HETATM   23  C8  UNL     1      -1.941  -4.380  -0.456  1.00  0.00     0.149 C 
HETATM   24  C9  UNL     1      -3.741  -3.008  -1.461  1.00  0.00     0.149 C 
ENDBRANCH  11  22
BRANCH  12  25
HETATM   25  O3  UNL     1      -2.825  -2.897   2.184  1.00  0.00    -0.358 OA
ATOM     26  H3  UNL     1      -2.897  -2.840   3.130  1.00  0.00     0.217 HD
ENDBRANCH  12  25
ENDBRANCH   1   8
TORSDOF 7
