REMARK  8 active torsions:
REMARK  status: ('A' for Active; 'I' for Inactive)
REMARK    1  A    between atoms: C4_4  and  O1_5 
REMARK    2  A    between atoms: C5_7  and  C6_8 
REMARK    3  A    between atoms: C6_8  and  C7_9 
REMARK    4  A    between atoms: C7_9  and  C8_10 
REMARK    5  A    between atoms: C22_28  and  O3_29 
REMARK    6  A    between atoms: O3_29  and  C23_30 
REMARK    7  A    between atoms: C24_31  and  C25_32 
REMARK    8  A    between atoms: C25_32  and  N2_33 
ROOT
HETATM    1  C1  UNL     1      -1.017   2.591   1.213  1.00  0.00     0.044 C 
HETATM    2  C2  UNL     1      -0.360   1.277   1.034  1.00  0.00    -0.078 C 
HETATM    3  C3  UNL     1      -1.027   0.311   0.409  1.00  0.00    -0.034 C 
HETATM    4  C4  UNL     1      -2.404   0.593  -0.082  1.00  0.00     0.178 C 
HETATM    5  C5  UNL     1      -3.361  -0.499  -0.012  1.00  0.00    -0.039 C 
HETATM    6  C13 UNL     1      -2.786  -1.924  -0.045  1.00  0.00    -0.011 C 
HETATM    7  C14 UNL     1      -2.893  -2.566  -1.398  1.00  0.00     0.021 C 
HETATM    8  C15 UNL     1      -3.771  -2.752   0.812  1.00  0.00     0.017 C 
HETATM    9  C16 UNL     1      -3.032  -3.843   1.583  1.00  0.00     0.035 C 
HETATM   10  C17 UNL     1      -2.387  -3.121   2.725  1.00  0.00     0.151 A 
HETATM   11  O2  UNL     1      -1.052  -2.965   2.853  1.00  0.00    -0.375 OA
HETATM   12  C18 UNL     1      -1.613  -1.962   2.119  1.00  0.00     0.157 A 
HETATM   13  C19 UNL     1      -1.472  -2.036   0.630  1.00  0.00     0.044 C 
HETATM   14  C20 UNL     1      -0.426  -1.030   0.168  1.00  0.00     0.016 C 
HETATM   15  C21 UNL     1      -0.121  -1.207  -1.310  1.00  0.00     0.023 C 
HETATM   16  C22 UNL     1       0.834  -1.286   0.932  1.00  0.00     0.141 C 
HETATM   17  C31 UNL     1       1.051  -0.329   2.104  1.00  0.00     0.038 C 
HETATM   18  C32 UNL     1       1.010   1.079   1.553  1.00  0.00     0.036 C 
ENDROOT
BRANCH  16  19
HETATM   19  O3  UNL     1       2.040  -1.322   0.281  1.00  0.00    -0.357 OA
BRANCH  19  20
HETATM   20  C23 UNL     1       2.677  -2.025  -0.649  1.00  0.00     0.133 C 
HETATM   21  C24 UNL     1       4.022  -2.107  -0.601  1.00  0.00     0.027 C 
BRANCH  21  22
HETATM   22  C25 UNL     1       4.716  -1.409   0.487  1.00  0.00     0.301 C 
BRANCH  22  23
HETATM   23  N2  UNL     1       5.648  -0.416   0.035  1.00  0.00     0.095 N 
HETATM   24  C26 UNL     1       6.253   0.186   1.220  1.00  0.00     0.303 C 
HETATM   25  C27 UNL     1       7.327   1.112   0.733  1.00  0.00     0.302 C 
HETATM   26  N3  UNL     1       6.897   2.104  -0.189  1.00  0.00     0.087 N 
HETATM   27  C28 UNL     1       8.077   2.507  -0.973  1.00  0.00     0.310 C 
HETATM   28  C29 UNL     1       5.882   1.740  -1.111  1.00  0.00     0.302 C 
HETATM   29  C30 UNL     1       4.969   0.628  -0.667  1.00  0.00     0.303 C 
ENDBRANCH  22  23
ENDBRANCH  21  22
ENDBRANCH  19  20
ENDBRANCH  16  19
BRANCH   4  30
HETATM   30  O1  UNL     1      -2.238   1.220  -1.304  1.00  0.00    -0.387 OA
ATOM     31  H1  UNL     1      -3.117   1.400  -1.617  1.00  0.00     0.210 HD
ENDBRANCH   4  30
BRANCH   5  32
HETATM   32  C6  UNL     1      -4.581  -0.467  -0.821  1.00  0.00     0.007 C 
BRANCH  32  33
HETATM   33  C7  UNL     1      -5.638   0.542  -0.701  1.00  0.00     0.013 C 
BRANCH  33  34
HETATM   34  C8  UNL     1      -5.417   1.954  -0.973  1.00  0.00    -0.018 A 
HETATM   35  C9  UNL     1      -5.182   2.895   0.001  1.00  0.00     0.099 A 
HETATM   36  N1  UNL     1      -4.999   4.185  -0.246  1.00  0.00    -0.372 N 
HETATM   37  C10 UNL     1      -5.030   4.684  -1.498  1.00  0.00     0.130 A 
ATOM     38  H1  UNL     1      -4.830   4.819   0.535  1.00  0.00     0.164 HD
HETATM   39  C11 UNL     1      -5.262   3.785  -2.509  1.00  0.00     0.132 A 
HETATM   40  F1  UNL     1      -5.302   4.244  -3.803  1.00  0.00    -0.205 F 
HETATM   41  C12 UNL     1      -5.454   2.453  -2.284  1.00  0.00     0.056 A 
ENDBRANCH  33  34
ENDBRANCH  32  33
ENDBRANCH   5  32
TORSDOF 8
