REMARK  8 active torsions:
REMARK  status: ('A' for Active; 'I' for Inactive)
REMARK    1  A    between atoms: C6_8  and  C7_9 
REMARK    2  A    between atoms: C7_9  and  C8_10 
REMARK    3  A    between atoms: C7_9  and  C19_23 
REMARK    4  A    between atoms: C11_13  and  C12_14 
REMARK    5  A    between atoms: C13_15  and  C14_16 
REMARK       I    between atoms: C14_16  and  N2_18 
REMARK    6  A    between atoms: N4_28  and  C22_29 
REMARK    7  A    between atoms: C22_29  and  C23_30 
REMARK    8  A    between atoms: C29_37  and  N5_38 
ROOT
HETATM    1  C7  UNL     1       0.809   0.120   0.777  1.00  0.00     0.089 C 
ENDROOT
BRANCH   1   2
HETATM    2  C6  UNL     1       0.795   1.574   0.951  1.00  0.00    -0.044 A 
HETATM    3  C5  UNL     1       0.540   2.203   2.158  1.00  0.00     0.010 A 
HETATM    4  C4  UNL     1       0.521   3.543   2.346  1.00  0.00     0.031 A 
HETATM    5  C3  UNL     1       0.772   4.410   1.263  1.00  0.00     0.050 A 
HETATM    6  N1  UNL     1       0.781   5.717   1.317  1.00  0.00    -0.353 N 
HETATM    7  C31 UNL     1       1.028   3.828   0.052  1.00  0.00     0.034 A 
HETATM    8  C2  UNL     1       1.031   6.418   0.228  1.00  0.00     0.048 A 
ATOM      9  H1  UNL     1       0.595   6.193   2.200  1.00  0.00     0.166 HD
HETATM   10  C1  UNL     1       1.088   7.921   0.075  1.00  0.00     0.076 C 
HETATM   11  S1  UNL     1       1.268   5.197  -0.943  1.00  0.00    -0.075 SA
HETATM   12  C30 UNL     1       1.042   2.434  -0.115  1.00  0.00     0.029 A 
ENDBRANCH   1   2
BRANCH   1  13
HETATM   13  C8  UNL     1      -0.587  -0.378   0.649  1.00  0.00    -0.045 A 
HETATM   14  C9  UNL     1      -1.002  -1.524   1.307  1.00  0.00     0.009 A 
HETATM   15  C10 UNL     1      -2.289  -1.990   1.228  1.00  0.00     0.012 A 
HETATM   16  C11 UNL     1      -3.261  -1.323   0.470  1.00  0.00    -0.036 A 
HETATM   17  C17 UNL     1      -2.860  -0.181  -0.189  1.00  0.00     0.012 A 
HETATM   18  C18 UNL     1      -1.543   0.272  -0.093  1.00  0.00     0.009 A 
BRANCH  16  19
HETATM   19  C12 UNL     1      -4.589  -1.861   0.427  1.00  0.00     0.017 C 
HETATM   20  C13 UNL     1      -5.551  -1.282  -0.275  1.00  0.00     0.075 C 
BRANCH  20  21
HETATM   21  C14 UNL     1      -6.904  -1.871  -0.291  1.00  0.00     0.242 C 
HETATM   22  O1  UNL     1      -7.164  -2.919   0.355  1.00  0.00    -0.268 OA
HETATM   23  N2  UNL     1      -7.904  -1.226  -1.052  1.00  0.00    -0.357 N 
HETATM   24  C15 UNL     1      -9.234  -1.780  -1.085  1.00  0.00     0.152 C 
HETATM   25  C16 UNL     1      -7.614  -0.031  -1.791  1.00  0.00     0.152 C 
ENDBRANCH  20  21
ENDBRANCH  16  19
ENDBRANCH   1  13
BRANCH   1  26
HETATM   26  C19 UNL     1       1.718  -0.382  -0.279  1.00  0.00     0.014 A 
HETATM   27  C20 UNL     1       1.195  -0.853  -1.465  1.00  0.00     0.101 A 
HETATM   28  N3  UNL     1       2.053  -1.303  -2.421  1.00  0.00    -0.361 N 
HETATM   29  C21 UNL     1       3.379  -1.303  -2.252  1.00  0.00     0.184 A 
ATOM     30  H3  UNL     1       1.670  -1.653  -3.299  1.00  0.00     0.166 HD
HETATM   31  N4  UNL     1       3.930  -0.855  -1.117  1.00  0.00    -0.325 N 
HETATM   32  C29 UNL     1       3.108  -0.398  -0.139  1.00  0.00     0.111 A 
BRANCH  31  33
HETATM   33  C22 UNL     1       5.359  -0.851  -0.890  1.00  0.00     0.170 C 
BRANCH  33  34
HETATM   34  C23 UNL     1       5.876  -2.113  -0.317  1.00  0.00    -0.040 A 
HETATM   35  C24 UNL     1       6.172  -2.287   1.015  1.00  0.00     0.012 A 
HETATM   36  C25 UNL     1       6.643  -3.491   1.513  1.00  0.00     0.043 A 
HETATM   37  C26 UNL     1       6.814  -4.540   0.636  1.00  0.00     0.116 A 
HETATM   38  F1  UNL     1       7.277  -5.732   1.115  1.00  0.00    -0.206 F 
HETATM   39  C27 UNL     1       6.522  -4.381  -0.703  1.00  0.00     0.043 A 
HETATM   40  C28 UNL     1       6.058  -3.181  -1.174  1.00  0.00     0.012 A 
ENDBRANCH  33  34
ENDBRANCH  31  33
BRANCH  32  41
HETATM   41  N5  UNL     1       3.598   0.036   0.958  1.00  0.00    -0.385 N 
ATOM     42  H52 UNL     1       2.980   0.380   1.693  1.00  0.00     0.157 HD
ATOM     43  H51 UNL     1       4.613   0.024   1.060  1.00  0.00     0.157 HD
ENDBRANCH  32  41
ENDBRANCH   1  26
TORSDOF 8
