REMARK  4 active torsions:
REMARK  status: ('A' for Active; 'I' for Inactive)
REMARK    1  A    between atoms: C3_3  and  S1_4 
REMARK    2  A    between atoms: S1_4  and  C4_5 
REMARK    3  A    between atoms: C4_5  and  C7_8 
REMARK    4  A    between atoms: C7_8  and  C10_11 
ROOT
HETATM    1  C1  UNL     1       2.907   0.237   2.243  1.00  0.00     0.057 C 
HETATM    2  C2  UNL     1       3.439   0.079   0.869  1.00  0.00     0.040 A 
HETATM    3  C3  UNL     1       2.741   0.438  -0.254  1.00  0.00     0.084 A 
HETATM    4  N1  UNL     1       3.328   0.261  -1.444  1.00  0.00    -0.327 N 
ATOM      5  H1  UNL     1       2.822   0.523  -2.290  1.00  0.00     0.169 HD
HETATM    6  C14 UNL     1       4.577  -0.257  -1.556  1.00  0.00     0.179 A 
HETATM    7  S2  UNL     1       5.211  -0.437  -3.040  1.00  0.00    -0.040 SA
HETATM    8  N2  UNL     1       5.277  -0.615  -0.480  1.00  0.00    -0.300 N 
ATOM      9  H2  UNL     1       6.215  -1.004  -0.579  1.00  0.00     0.171 HD
HETATM   10  C15 UNL     1       4.732  -0.457   0.735  1.00  0.00     0.256 A 
HETATM   11  O1  UNL     1       5.368  -0.786   1.787  1.00  0.00    -0.267 OA
ENDROOT
BRANCH   3  12
HETATM   12  S1  UNL     1       1.133   1.120  -0.143  1.00  0.00    -0.101 SA
BRANCH  12  13
HETATM   13  C4  UNL     1      -0.204  -0.142  -0.285  1.00  0.00     0.015 C 
HETATM   14  C5  UNL     1      -0.051  -0.634  -1.729  1.00  0.00     0.028 C 
HETATM   15  C6  UNL     1       0.153  -1.271   0.590  1.00  0.00     0.028 C 
BRANCH  13  16
HETATM   16  C7  UNL     1      -1.462   0.585  -0.023  1.00  0.00    -0.025 C 
HETATM   17  C8  UNL     1      -1.560   1.677  -1.095  1.00  0.00     0.017 C 
HETATM   18  C9  UNL     1      -1.342   1.343   1.294  1.00  0.00     0.017 C 
BRANCH  16  19
HETATM   19  C10 UNL     1      -2.736  -0.140   0.015  1.00  0.00    -0.043 C 
HETATM   20  C11 UNL     1      -3.144  -0.877  -1.242  1.00  0.00     0.015 C 
HETATM   21  C12 UNL     1      -3.843   0.926   0.179  1.00  0.00     0.015 C 
HETATM   22  C13 UNL     1      -2.932  -1.071   1.195  1.00  0.00     0.015 C 
ENDBRANCH  16  19
ENDBRANCH  13  16
ENDBRANCH  12  13
ENDBRANCH   3  12
TORSDOF 4
