REMARK  3 active torsions:
REMARK  status: ('A' for Active; 'I' for Inactive)
REMARK    1  A    between atoms: C5_5  and  C6_6 
REMARK    2  A    between atoms: C18_19  and  O2_20 
REMARK    3  A    between atoms: C18_19  and  O3_22 
ROOT
HETATM    1  C6  UNL     1      -0.081  -0.749  -0.322  1.00  0.00     0.001 C 
HETATM    2  C7  UNL     1      -0.045  -1.887   0.767  1.00  0.00     0.006 C 
HETATM    3  C8  UNL     1      -1.407  -2.500   0.700  1.00  0.00     0.010 C 
HETATM    4  C9  UNL     1      -2.212  -1.406   0.032  1.00  0.00    -0.039 C 
HETATM    5  C10 UNL     1      -2.449  -1.834  -1.372  1.00  0.00     0.015 C 
HETATM    6  C11 UNL     1      -3.442  -1.203   0.863  1.00  0.00     0.017 C 
HETATM    7  C12 UNL     1      -4.355  -0.241   0.166  1.00  0.00     0.080 C 
HETATM    8  C13 UNL     1      -3.512   0.582  -0.739  1.00  0.00     0.135 C 
HETATM    9  O1  UNL     1      -4.016   0.946  -1.782  1.00  0.00    -0.297 OA
HETATM   10  C14 UNL     1      -2.077   0.949  -0.362  1.00  0.00     0.018 C 
HETATM   11  C15 UNL     1      -1.613   1.832  -1.462  1.00  0.00     0.023 C 
HETATM   12  C16 UNL     1      -2.400   1.948   0.791  1.00  0.00     0.023 C 
HETATM   13  C17 UNL     1      -1.287  -0.153   0.115  1.00  0.00     0.013 C 
ENDROOT
BRANCH   1  14
HETATM   14  C5  UNL     1       1.293  -0.233  -0.306  1.00  0.00     0.053 C 
HETATM   15  C4  UNL     1       1.637   0.804  -1.351  1.00  0.00     0.014 C 
HETATM   16  C3  UNL     1       3.131   0.761  -1.735  1.00  0.00     0.034 C 
HETATM   17  C2  UNL     1       3.847   0.618  -0.440  1.00  0.00    -0.080 C 
HETATM   18  C1  UNL     1       5.072   0.144  -0.365  1.00  0.00     0.015 C 
HETATM   19  C19 UNL     1       3.065   1.051   0.754  1.00  0.00     0.072 C 
HETATM   20  C18 UNL     1       1.887   0.135   1.011  1.00  0.00     0.170 C 
HETATM   21  C20 UNL     1       4.014   1.073   1.937  1.00  0.00     0.020 C 
BRANCH  20  22
HETATM   22  O2  UNL     1       1.063   0.805   1.877  1.00  0.00    -0.364 OA
ATOM     23  H2  UNL     1       1.441   1.039   2.716  1.00  0.00     0.213 HD
ENDBRANCH  20  22
BRANCH  20  24
HETATM   24  O3  UNL     1       2.427  -0.960   1.696  1.00  0.00    -0.364 OA
ATOM     25  H3  UNL     1       2.805  -0.726   2.535  1.00  0.00     0.213 HD
ENDBRANCH  20  24
ENDBRANCH   1  14
TORSDOF 3
