REMARK  4 active torsions:
REMARK  status: ('A' for Active; 'I' for Inactive)
REMARK    1  A    between atoms: O1_1  and  N1_3 
REMARK    2  A    between atoms: C1_5  and  N2_6 
REMARK    3  A    between atoms: C1_5  and  C8_16 
REMARK    4  A    between atoms: N2_6  and  C2_7 
ROOT
HETATM    1  N1  UNL     1       1.196  -1.898  -2.099  1.00  0.00    -0.245 N 
ATOM      2  H1  UNL     1       0.352  -2.197  -2.587  1.00  0.00     0.196 HD
HETATM    3  C1  UNL     1       1.141  -1.100  -1.043  1.00  0.00     0.178 C 
ENDROOT
BRANCH   3   4
HETATM    4  N2  UNL     1       2.187  -0.684  -0.377  1.00  0.00    -0.396 NA
BRANCH   4   5
HETATM    5  C2  UNL     1       3.192  -0.423   0.225  1.00  0.00     0.097 C 
HETATM    6  C3  UNL     1       3.593   0.933   0.808  1.00  0.00     0.103 C 
HETATM    7  C4  UNL     1       4.990   0.697   1.279  1.00  0.00     0.193 C 
HETATM    8  C5  UNL     1       4.984  -0.073   2.582  1.00  0.00     0.036 C 
HETATM    9  N3  UNL     1       5.451  -0.337   0.353  1.00  0.00    -0.060 N 
HETATM   10  C6  UNL     1       4.454  -1.431   2.100  1.00  0.00     0.042 C 
HETATM   11  C7  UNL     1       4.380  -1.284   0.615  1.00  0.00     0.246 C 
ATOM     12  H32 UNL     1       5.603  -0.061  -0.617  1.00  0.00     0.278 HD
ATOM     13  H31 UNL     1       6.408  -0.672   0.466  1.00  0.00     0.278 HD
ENDBRANCH   4   5
ENDBRANCH   3   4
BRANCH   3  14
HETATM   14  C8  UNL     1      -0.274  -0.703  -0.671  1.00  0.00     0.070 C 
HETATM   15  C9  UNL     1      -0.334   0.794  -0.770  1.00  0.00     0.013 C 
HETATM   16  C10 UNL     1      -0.956   1.431   0.486  1.00  0.00     0.001 C 
HETATM   17  C11 UNL     1      -1.921   2.502   0.158  1.00  0.00     0.000 C 
HETATM   18  C12 UNL     1      -3.321   2.405   0.549  1.00  0.00     0.000 C 
HETATM   19  C13 UNL     1      -3.869   1.206   1.187  1.00  0.00     0.000 C 
HETATM   20  C14 UNL     1      -4.651   0.284   0.270  1.00  0.00     0.000 C 
HETATM   21  C15 UNL     1      -4.206   0.259  -1.134  1.00  0.00     0.000 C 
HETATM   22  C16 UNL     1      -3.772  -1.136  -1.597  1.00  0.00     0.000 C 
HETATM   23  C17 UNL     1      -2.605  -1.652  -0.809  1.00  0.00     0.001 C 
HETATM   24  C18 UNL     1      -1.280  -1.415  -1.504  1.00  0.00     0.013 C 
ENDBRANCH   3  14
BRANCH   1  25
HETATM   25  O1  UNL     1       2.440  -2.303  -2.504  1.00  0.00    -0.288 OA
ATOM     26  H1  UNL     1       2.479  -2.875  -3.261  1.00  0.00     0.244 HD
ENDBRANCH   1  25
TORSDOF 4
