REMARK  4 active torsions:
REMARK  status: ('A' for Active; 'I' for Inactive)
REMARK    1  A    between atoms: C2_2  and  C3_3 
REMARK    2  A    between atoms: C3_3  and  C4_4 
REMARK    3  A    between atoms: C6_6  and  O1_7 
REMARK    4  A    between atoms: N1_19  and  O2_21 
ROOT
HETATM    1  C4  UNL     1      -2.303   0.000   0.007  1.00  0.00    -0.011 C 
HETATM    2  C5  UNL     1      -3.215  -0.397  -1.180  1.00  0.00     0.018 C 
HETATM    3  C6  UNL     1      -2.694  -0.945   1.097  1.00  0.00     0.127 C 
HETATM    4  C7  UNL     1      -1.649  -1.769   1.728  1.00  0.00     0.033 C 
HETATM    5  C8  UNL     1      -0.296  -1.783   1.091  1.00  0.00     0.013 C 
HETATM    6  C9  UNL     1       0.086  -0.377   0.732  1.00  0.00    -0.032 C 
HETATM    7  C10 UNL     1      -0.024   0.476   1.936  1.00  0.00     0.016 C 
HETATM    8  C11 UNL     1      -0.884   0.013  -0.386  1.00  0.00     0.005 C 
HETATM    9  C12 UNL     1      -0.712  -0.877  -1.588  1.00  0.00     0.007 C 
HETATM   10  C13 UNL     1       0.695  -1.196  -1.956  1.00  0.00     0.006 C 
HETATM   11  C14 UNL     1       1.609  -0.262  -1.265  1.00  0.00    -0.000 C 
HETATM   12  C15 UNL     1       3.039  -0.535  -1.674  1.00  0.00     0.060 C 
HETATM   13  C16 UNL     1       3.831   0.592  -1.118  1.00  0.00     0.010 C 
HETATM   14  N1  UNL     1       4.895   0.920  -1.764  1.00  0.00    -0.277 N 
ATOM     15  H1  UNL     1       5.131   0.398  -2.608  1.00  0.00     0.193 HD
HETATM   16  C17 UNL     1       3.472   1.319   0.089  1.00  0.00     0.055 C 
HETATM   17  C18 UNL     1       2.128   1.088   0.644  1.00  0.00     0.016 C 
HETATM   18  C19 UNL     1       1.513  -0.254   0.219  1.00  0.00    -0.032 C 
HETATM   19  C20 UNL     1       2.314  -1.336   0.887  1.00  0.00     0.016 C 
ENDROOT
BRANCH   1  20
HETATM   20  C3  UNL     1      -2.792   1.405   0.314  1.00  0.00     0.038 C 
BRANCH  20  21
HETATM   21  C2  UNL     1      -2.661   2.341  -0.825  1.00  0.00    -0.036 C 
HETATM   22  C1  UNL     1      -3.732   2.934  -1.352  1.00  0.00     0.007 C 
ENDBRANCH  20  21
ENDBRANCH   1  20
BRANCH   3  23
HETATM   23  O1  UNL     1      -3.769  -1.792   0.750  1.00  0.00    -0.395 OA
ATOM     24  H1  UNL     1      -4.018  -2.393   1.443  1.00  0.00     0.210 HD
ENDBRANCH   3  23
BRANCH  14  25
HETATM   25  O2  UNL     1       5.732   1.946  -1.369  1.00  0.00    -0.290 OA
ATOM     26  H2  UNL     1       6.517   2.188  -1.846  1.00  0.00     0.244 HD
ENDBRANCH  14  25
TORSDOF 4
