REMARK  10 active torsions:
REMARK  status: ('A' for Active; 'I' for Inactive)
REMARK    1  A    between atoms: C7_7  and  O1_8 
REMARK    2  A    between atoms: C8_10  and  C9_11 
REMARK    3  A    between atoms: C10_12  and  C11_13 
REMARK    4  A    between atoms: C11_13  and  C12_15 
REMARK    5  A    between atoms: C12_15  and  N1_16 
REMARK    6  A    between atoms: N1_16  and  C13_17 
REMARK    7  A    between atoms: N1_16  and  C15_19 
REMARK    8  A    between atoms: C15_19  and  C16_20 
REMARK    9  A    between atoms: C16_20  and  O3_21 
REMARK   10  A    between atoms: C18_25  and  C19_26 
ROOT
HETATM    1  C1  UNL     1      -3.201  -4.031   0.228  1.00  0.00     0.015 C 
HETATM    2  C2  UNL     1      -3.356  -2.750   0.451  1.00  0.00    -0.082 C 
HETATM    3  C3  UNL     1      -4.516  -1.920   0.048  1.00  0.00     0.039 C 
HETATM    4  C4  UNL     1      -4.229  -0.562   0.650  1.00  0.00    -0.002 C 
HETATM    5  C5  UNL     1      -3.430  -0.980   1.896  1.00  0.00     0.017 C 
HETATM    6  C6  UNL     1      -2.432  -1.846   1.142  1.00  0.00     0.050 C 
HETATM    7  C7  UNL     1      -1.923  -0.859   0.090  1.00  0.00     0.083 C 
HETATM    8  C8  UNL     1      -0.823  -0.045   0.561  1.00  0.00     0.114 C 
HETATM    9  C17 UNL     1      -1.374   1.336   0.893  1.00  0.00     0.142 C 
HETATM   10  O4  UNL     1      -0.740   2.215   1.400  1.00  0.00    -0.297 OA
HETATM   11  C18 UNL     1      -2.780   1.388   0.489  1.00  0.00     0.063 C 
HETATM   12  C21 UNL     1      -3.130   0.070  -0.143  1.00  0.00     0.037 C 
ENDROOT
BRANCH   8  13
HETATM   13  C9  UNL     1       0.400   0.182  -0.164  1.00  0.00    -0.008 C 
HETATM   14  C10 UNL     1       0.806  -0.116  -1.352  1.00  0.00     0.052 C 
BRANCH  14  15
HETATM   15  C11 UNL     1       2.047   0.139  -2.010  1.00  0.00     0.181 C 
HETATM   16  O2  UNL     1       2.149  -0.253  -3.235  1.00  0.00    -0.288 OA
BRANCH  15  17
HETATM   17  C12 UNL     1       3.202   0.789  -1.461  1.00  0.00     0.114 C 
BRANCH  17  18
HETATM   18  N1  UNL     1       3.528   0.588  -0.081  1.00  0.00    -0.288 NA
BRANCH  18  19
HETATM   19  C13 UNL     1       4.679   1.443   0.172  1.00  0.00     0.090 C 
HETATM   20  C14 UNL     1       5.181   1.386   1.559  1.00  0.00     0.021 C 
ENDBRANCH  18  19
BRANCH  18  21
HETATM   21  C15 UNL     1       3.846  -0.800   0.218  1.00  0.00     0.121 C 
BRANCH  21  22
HETATM   22  C16 UNL     1       5.146  -1.258  -0.406  1.00  0.00     0.179 C 
BRANCH  22  23
HETATM   23  O3  UNL     1       5.285  -2.610  -0.010  1.00  0.00    -0.400 OA
ATOM     24  H3  UNL     1       6.101  -2.898  -0.402  1.00  0.00     0.209 HD
ENDBRANCH  22  23
ENDBRANCH  21  22
ENDBRANCH  18  21
ENDBRANCH  17  18
ENDBRANCH  15  17
ENDBRANCH  14  15
ENDBRANCH   8  13
BRANCH   7  25
HETATM   25  O1  UNL     1      -1.805  -1.597  -1.057  1.00  0.00    -0.388 OA
ATOM     26  H1  UNL     1      -1.489  -0.984  -1.710  1.00  0.00     0.210 HD
ENDBRANCH   7  25
BRANCH  11  27
HETATM   27  C19 UNL     1      -3.048   2.555  -0.424  1.00  0.00     0.008 C 
HETATM   28  C20 UNL     1      -2.702   3.836   0.302  1.00  0.00     0.006 C 
ENDBRANCH  11  27
TORSDOF 10
