REMARK  8 active torsions:
REMARK  status: ('A' for Active; 'I' for Inactive)
REMARK    1  A    between atoms: O1_3  and  C2_4 
REMARK    2  A    between atoms: C2_4  and  C3_5 
REMARK    3  A    between atoms: C3_5  and  C4_6 
REMARK    4  A    between atoms: C4_6  and  N2_7 
REMARK    5  A    between atoms: C17_22  and  O2_23 
REMARK    6  A    between atoms: O2_23  and  C18_24 
REMARK    7  A    between atoms: C18_24  and  C19_25 
REMARK    8  A    between atoms: C19_25  and  O3_26 
ROOT
HETATM    1  N1  UNL     1       7.885  -3.168   0.459  1.00  0.00    -0.164 NA
HETATM    2  C1  UNL     1       6.907  -2.537   0.593  1.00  0.00     0.228 C 
HETATM    3  O1  UNL     1       5.783  -1.784   0.747  1.00  0.00    -0.283 OA
ENDROOT
BRANCH   3   4
HETATM    4  C2  UNL     1       5.837  -0.360   0.575  1.00  0.00     0.191 C 
BRANCH   4   5
HETATM    5  C3  UNL     1       4.471   0.248   0.796  1.00  0.00     0.047 C 
BRANCH   5   6
HETATM    6  C4  UNL     1       3.478  -0.321  -0.195  1.00  0.00     0.125 C 
BRANCH   6   7
HETATM    7  N2  UNL     1       2.174   0.232  -0.012  1.00  0.00    -0.379 N 
HETATM    8  C5  UNL     1       1.379  -0.048   1.158  1.00  0.00     0.124 C 
HETATM    9  C6  UNL     1      -0.088  -0.246   0.883  1.00  0.00     0.035 C 
HETATM   10  C7  UNL     1      -0.698   0.687  -0.052  1.00  0.00     0.006 C 
HETATM   11  C8  UNL     1       0.270   1.278  -0.961  1.00  0.00     0.002 A 
HETATM   12  C14 UNL     1      -1.596   1.792   0.429  1.00  0.00     0.026 C 
HETATM   13  C20 UNL     1      -1.866   0.210  -0.883  1.00  0.00     0.037 C 
HETATM   14  C9  UNL     1       1.608   1.093  -0.985  1.00  0.00     0.054 A 
HETATM   15  C11 UNL     1      -0.133   2.135  -1.951  1.00  0.00     0.018 A 
HETATM   16  C10 UNL     1       2.071   1.861  -2.030  1.00  0.00     0.118 A 
HETATM   17  N3  UNL     1       0.994   2.480  -2.595  1.00  0.00    -0.366 N 
ATOM     18  H3  UNL     1       1.039   3.114  -3.393  1.00  0.00     0.165 HD
HETATM   19  C12 UNL     1      -1.577   2.420  -2.024  1.00  0.00     0.063 C 
HETATM   20  C13 UNL     1      -2.298   1.663  -0.927  1.00  0.00     0.008 C 
HETATM   21  C15 UNL     1      -2.523   1.274   1.457  1.00  0.00    -0.022 C 
HETATM   22  C16 UNL     1      -3.182   0.159   1.193  1.00  0.00     0.002 C 
HETATM   23  C17 UNL     1      -2.965  -0.520  -0.115  1.00  0.00     0.149 C 
BRANCH  23  24
HETATM   24  O2  UNL     1      -2.742  -1.849  -0.009  1.00  0.00    -0.380 OA
BRANCH  24  25
HETATM   25  C18 UNL     1      -3.706  -2.650  -0.559  1.00  0.00     0.194 C 
BRANCH  25  26
HETATM   26  C19 UNL     1      -5.055  -2.641   0.051  1.00  0.00     0.190 C 
BRANCH  26  27
HETATM   27  O3  UNL     1      -5.740  -1.447   0.082  1.00  0.00    -0.399 OA
ATOM     28  H3  UNL     1      -6.606  -1.441   0.473  1.00  0.00     0.209 HD
ENDBRANCH  26  27
ENDBRANCH  25  26
ENDBRANCH  24  25
ENDBRANCH  23  24
ENDBRANCH   6   7
ENDBRANCH   5   6
ENDBRANCH   4   5
ENDBRANCH   3   4
TORSDOF 8
