REMARK  8 active torsions:
REMARK  status: ('A' for Active; 'I' for Inactive)
REMARK    1  A    between atoms: N2_7  and  C5_8 
REMARK    2  A    between atoms: C5_8  and  C6_9 
REMARK    3  A    between atoms: C6_9  and  C7_10 
REMARK    4  A    between atoms: C7_10  and  O1_11 
REMARK    5  A    between atoms: C7_10  and  C8_13 
REMARK    6  A    between atoms: C8_13  and  N3_14 
REMARK    7  A    between atoms: C11_17  and  N4_18 
REMARK       I    between atoms: N4_18  and  C12_20 
REMARK    8  A    between atoms: C12_20  and  C13_22 
ROOT
HETATM    1  N3  UNL     1      -1.168   0.436  -0.265  1.00  0.00     0.092 N 
HETATM    2  C9  UNL     1      -0.690   0.722  -1.595  1.00  0.00     0.274 C 
HETATM    3  C10 UNL     1       0.683   0.122  -1.698  1.00  0.00     0.057 C 
HETATM    4  C11 UNL     1       1.061  -0.202  -0.292  1.00  0.00     0.114 C 
HETATM    5  C20 UNL     1      -0.014   0.340   0.566  1.00  0.00     0.297 C 
ENDROOT
BRANCH   1   6
HETATM    6  C8  UNL     1      -2.066  -0.665  -0.203  1.00  0.00     0.303 C 
BRANCH   6   7
HETATM    7  C7  UNL     1      -3.393  -0.334  -0.863  1.00  0.00     0.148 C 
BRANCH   7   8
HETATM    8  C6  UNL     1      -3.957   0.861  -0.186  1.00  0.00     0.053 C 
BRANCH   8   9
HETATM    9  C5  UNL     1      -5.278   1.312  -0.672  1.00  0.00     0.132 C 
BRANCH   9  10
HETATM   10  N2  UNL     1      -6.374   0.414  -0.594  1.00  0.00    -0.346 N 
HETATM   11  C2  UNL     1      -7.224   0.185   0.420  1.00  0.00     0.079 A 
HETATM   12  C1  UNL     1      -7.123   0.861   1.742  1.00  0.00     0.089 C 
HETATM   13  N1  UNL     1      -8.162  -0.720   0.093  1.00  0.00    -0.355 N 
HETATM   14  C3  UNL     1      -7.911  -1.082  -1.156  1.00  0.00     0.106 A 
ATOM     15  H1  UNL     1      -8.917  -1.060   0.688  1.00  0.00     0.166 HD
HETATM   16  C4  UNL     1      -6.812  -0.391  -1.593  1.00  0.00     0.109 A 
ENDBRANCH   9  10
ENDBRANCH   8   9
ENDBRANCH   7   8
BRANCH   7  17
HETATM   17  O1  UNL     1      -4.166  -1.486  -0.747  1.00  0.00    -0.394 OA
ATOM     18  H1  UNL     1      -3.805  -2.251  -1.180  1.00  0.00     0.210 HD
ENDBRANCH   7  17
ENDBRANCH   6   7
ENDBRANCH   1   6
BRANCH   4  19
HETATM   19  N4  UNL     1       2.381   0.263   0.062  1.00  0.00    -0.354 N 
HETATM   20  C12 UNL     1       3.442  -0.532   0.531  1.00  0.00     0.222 C 
HETATM   21  O2  UNL     1       3.331  -1.770   0.689  1.00  0.00    -0.273 OA
ATOM     22  H4  UNL     1       2.561   1.262  -0.037  1.00  0.00     0.162 HD
BRANCH  20  23
HETATM   23  C13 UNL     1       4.778   0.057   0.872  1.00  0.00     0.082 C 
HETATM   24  C14 UNL     1       5.411   0.695  -0.363  1.00  0.00     0.019 C 
HETATM   25  C15 UNL     1       6.633  -0.122  -0.681  1.00  0.00    -0.013 C 
HETATM   26  C16 UNL     1       7.697   0.230   0.328  1.00  0.00     0.005 C 
HETATM   27  C19 UNL     1       6.201  -1.493  -0.137  1.00  0.00     0.010 C 
HETATM   28  C17 UNL     1       7.055  -0.237   1.632  1.00  0.00     0.006 C 
HETATM   29  C18 UNL     1       5.786  -0.968   1.248  1.00  0.00    -0.001 C 
ENDBRANCH  20  23
ENDBRANCH   4  19
TORSDOF 8
