REMARK  9 active torsions:
REMARK  status: ('A' for Active; 'I' for Inactive)
REMARK    1  A    between atoms: C2_2  and  N1_3 
REMARK    2  A    between atoms: C5_6  and  C6_7 
REMARK    3  A    between atoms: C6_7  and  O1_8 
REMARK    4  A    between atoms: N2_13  and  C10_14 
REMARK    5  A    between atoms: C10_14  and  C11_15 
REMARK    6  A    between atoms: C15_19  and  C16_20 
REMARK    7  A    between atoms: C16_20  and  O2_21 
REMARK    8  A    between atoms: C16_20  and  C17_23 
REMARK    9  A    between atoms: C18_25  and  C19_26 
ROOT
HETATM    1  N1  UNL     1       0.269   0.909  -0.252  1.00  0.00     0.112 N 
HETATM    2  C3  UNL     1      -0.490   0.223   0.670  1.00  0.00     0.299 A 
HETATM    3  C4  UNL     1      -1.812  -0.401   0.521  1.00  0.00     0.265 C 
HETATM    4  C5  UNL     1      -1.733  -1.897   0.314  1.00  0.00     0.049 C 
HETATM    5  C7  UNL     1      -1.003  -2.141  -0.952  1.00  0.00    -0.002 C 
HETATM    6  C8  UNL     1      -1.941  -1.638  -2.062  1.00  0.00     0.035 C 
HETATM    7  C9  UNL     1      -3.039  -0.775  -1.545  1.00  0.00     0.273 C 
HETATM    8  N2  UNL     1      -2.663   0.157  -0.498  1.00  0.00     0.096 N 
HETATM    9  C14 UNL     1       0.281  -1.403  -1.118  1.00  0.00     0.052 C 
HETATM   10  C15 UNL     1       0.652  -0.442  -0.064  1.00  0.00     0.221 A 
ENDROOT
BRANCH  10  11
HETATM   11  C16 UNL     1       1.952  -0.728   0.709  1.00  0.00     0.191 C 
BRANCH  11  12
HETATM   12  O2  UNL     1       1.835  -0.198   1.992  1.00  0.00    -0.390 OA
ATOM     13  H2  UNL     1       2.637  -0.375   2.469  1.00  0.00     0.210 HD
ENDBRANCH  11  12
BRANCH  11  14
HETATM   14  C17 UNL     1       3.160  -0.252  -0.021  1.00  0.00     0.182 A 
HETATM   15  O3  UNL     1       3.367   1.079  -0.285  1.00  0.00    -0.372 OA
HETATM   16  C18 UNL     1       4.122   0.579   0.772  1.00  0.00     0.157 A 
BRANCH  16  17
HETATM   17  C19 UNL     1       5.598   0.356   0.601  1.00  0.00     0.009 C 
HETATM   18  C20 UNL     1       5.889  -1.089   0.982  1.00  0.00     0.012 C 
HETATM   19  C21 UNL     1       6.069   0.536  -0.819  1.00  0.00     0.012 C 
ENDBRANCH  16  17
ENDBRANCH  11  14
ENDBRANCH  10  11
BRANCH   1  20
HETATM   20  C2  UNL     1       0.035   1.613  -1.401  1.00  0.00     0.270 C 
HETATM   21  C1  UNL     1      -0.713   2.916  -1.086  1.00  0.00     0.037 C 
ENDBRANCH   1  20
BRANCH   4  22
HETATM   22  C6  UNL     1      -1.303  -2.683   1.490  1.00  0.00     0.171 C 
BRANCH  22  23
HETATM   23  O1  UNL     1      -1.285  -4.039   1.123  1.00  0.00    -0.400 OA
ATOM     24  H1  UNL     1      -1.009  -4.544   1.879  1.00  0.00     0.209 HD
ENDBRANCH  22  23
ENDBRANCH   4  22
BRANCH   8  25
HETATM   25  C10 UNL     1      -3.959   0.595   0.056  1.00  0.00     0.277 C 
BRANCH  25  26
HETATM   26  C11 UNL     1      -3.799   1.771   0.966  1.00  0.00     0.014 A 
HETATM   27  C12 UNL     1      -4.981   2.345   1.606  1.00  0.00     0.007 A 
HETATM   28  C13 UNL     1      -4.376   3.078   0.420  1.00  0.00     0.007 A 
ENDBRANCH  25  26
ENDBRANCH   8  25
TORSDOF 9
