REMARK  5 active torsions:
REMARK  status: ('A' for Active; 'I' for Inactive)
REMARK    1  A    between atoms: C6_6  and  C7_7 
REMARK    2  A    between atoms: C8_8  and  C9_9 
REMARK    3  A    between atoms: C9_9  and  O1_10 
REMARK    4  A    between atoms: C9_9  and  C10_12 
REMARK    5  A    between atoms: C10_12  and  C11_13 
ROOT
HETATM    1  C7  UNL     1      -0.256  -1.466  -0.544  1.00  0.00    -0.022 C 
HETATM    2  C8  UNL     1       1.020  -1.566  -0.241  1.00  0.00     0.001 C 
ENDROOT
BRANCH   1   3
HETATM    3  C6  UNL     1      -0.933  -0.178  -0.588  1.00  0.00     0.021 C 
HETATM    4  C5  UNL     1      -1.561   0.102  -1.957  1.00  0.00     0.019 C 
HETATM    5  C4  UNL     1      -2.964   0.495  -1.641  1.00  0.00     0.018 C 
HETATM    6  C3  UNL     1      -3.669  -0.736  -1.168  1.00  0.00    -0.018 C 
HETATM    7  C16 UNL     1      -2.778   1.187  -0.279  1.00  0.00    -0.029 C 
HETATM    8  C2  UNL     1      -3.163  -1.062   0.019  1.00  0.00    -0.077 C 
HETATM    9  C1  UNL     1      -3.606  -2.230   0.813  1.00  0.00     0.044 C 
HETATM   10  C14 UNL     1      -2.101  -0.044   0.353  1.00  0.00    -0.007 C 
HETATM   11  C15 UNL     1      -1.811   0.092   1.771  1.00  0.00     0.021 C 
HETATM   12  C17 UNL     1      -4.080   1.451   0.397  1.00  0.00     0.016 C 
HETATM   13  C18 UNL     1      -1.868   2.355  -0.360  1.00  0.00     0.016 C 
ENDBRANCH   1   3
BRANCH   2  14
HETATM   14  C9  UNL     1       1.934  -0.448   0.087  1.00  0.00     0.142 C 
BRANCH  14  15
HETATM   15  O1  UNL     1       1.794   0.029   1.382  1.00  0.00    -0.392 OA
ATOM     16  H1  UNL     1       2.380   0.746   1.592  1.00  0.00     0.210 HD
ENDBRANCH  14  15
BRANCH  14  17
HETATM   17  C10 UNL     1       3.383  -0.827  -0.192  1.00  0.00     0.068 C 
BRANCH  17  18
HETATM   18  C11 UNL     1       4.323   0.286   0.131  1.00  0.00     0.190 C 
HETATM   19  C12 UNL     1       5.750  -0.127  -0.159  1.00  0.00     0.060 C 
HETATM   20  C13 UNL     1       6.057   0.726   1.058  1.00  0.00     0.235 C 
HETATM   21  N1  UNL     1       4.692   0.430   1.521  1.00  0.00    -0.071 N 
ATOM     22  H12 UNL     1       4.192   1.073   2.136  1.00  0.00     0.277 HD
ATOM     23  H11 UNL     1       4.513  -0.315   2.194  1.00  0.00     0.277 HD
ENDBRANCH  17  18
ENDBRANCH  14  17
ENDBRANCH   2  14
TORSDOF 5
