REMARK  6 active torsions:
REMARK  status: ('A' for Active; 'I' for Inactive)
REMARK    1  A    between atoms: C2_2  and  C3_3 
REMARK    2  A    between atoms: C6_8  and  N2_9 
REMARK    3  A    between atoms: C7_14  and  N4_15 
REMARK    4  A    between atoms: N4_15  and  C8_17 
REMARK    5  A    between atoms: C8_17  and  C9_18 
REMARK    6  A    between atoms: C8_17  and  C11_20 
ROOT
HETATM    1  C3  UNL     1      -2.467   0.097   0.260  1.00  0.00     0.009 A 
HETATM    2  C4  UNL     1      -3.411   1.014  -0.131  1.00  0.00     0.032 A 
HETATM    3  C5  UNL     1      -4.728   1.135   0.580  1.00  0.00     0.069 C 
HETATM    4  N1  UNL     1      -3.173   1.827  -1.164  1.00  0.00    -0.196 N 
ATOM      5  H1  UNL     1      -3.874   2.508  -1.455  1.00  0.00     0.184 HD
HETATM    6  C6  UNL     1      -2.007   1.739  -1.812  1.00  0.00     0.677 A 
HETATM    7  N3  UNL     1      -1.060   0.823  -1.424  1.00  0.00    -0.177 N 
ATOM      8  H3  UNL     1      -0.182   0.784  -1.941  1.00  0.00     0.186 HD
HETATM    9  C7  UNL     1      -1.234  -0.019  -0.402  1.00  0.00     0.125 A 
ENDROOT
BRANCH   9  10
HETATM   10  N4  UNL     1      -0.387  -0.856  -0.034  1.00  0.00    -0.370 N 
ATOM     11  H4  UNL     1      -0.726  -1.392   0.765  1.00  0.00     0.161 HD
BRANCH  10  12
HETATM   12  C8  UNL     1       0.897  -1.270  -0.405  1.00  0.00     0.086 C 
BRANCH  12  13
HETATM   13  C9  UNL     1       0.978  -1.905  -1.756  1.00  0.00     0.021 C 
HETATM   14  C10 UNL     1       0.083  -3.150  -1.842  1.00  0.00     0.007 C 
ENDBRANCH  12  13
BRANCH  12  15
HETATM   15  C11 UNL     1       1.962  -0.212  -0.225  1.00  0.00     0.008 C 
HETATM   16  C12 UNL     1       1.968   0.157   1.260  1.00  0.00     0.007 C 
HETATM   17  C13 UNL     1       2.975   1.188   1.617  1.00  0.00     0.000 C 
HETATM   18  C14 UNL     1       4.337   0.936   1.017  1.00  0.00     0.000 C 
HETATM   19  C15 UNL     1       4.244   0.585  -0.452  1.00  0.00     0.000 C 
HETATM   20  C16 UNL     1       3.366  -0.683  -0.519  1.00  0.00     0.007 C 
ENDBRANCH  12  15
ENDBRANCH  10  12
ENDBRANCH   9  10
BRANCH   1  21
HETATM   21  C2  UNL     1      -2.759  -0.783   1.399  1.00  0.00     0.040 C 
HETATM   22  C1  UNL     1      -2.614   0.011   2.675  1.00  0.00     0.010 C 
ENDBRANCH   1  21
BRANCH   6  23
HETATM   23  N2  UNL     1      -1.761   2.531  -2.827  1.00  0.00    -0.234 N 
ATOM     24  H22 UNL     1      -2.464   3.211  -3.115  1.00  0.00     0.174 HD
ATOM     25  H21 UNL     1      -0.871   2.464  -3.321  1.00  0.00     0.174 HD
ENDBRANCH   6  23
TORSDOF 6
