REMARK  5 active torsions:
REMARK  status: ('A' for Active; 'I' for Inactive)
REMARK    1  A    between atoms: C3_5  and  C4_6 
REMARK    2  A    between atoms: C4_6  and  N3_10 
REMARK    3  A    between atoms: N3_10  and  C5_12 
REMARK    4  A    between atoms: C11_20  and  C12_21 
REMARK    5  A    between atoms: C12_21  and  C13_22 
ROOT
HETATM    1  C1  UNL     1      -2.747  -2.764   0.571  1.00  0.00     0.070 C 
HETATM    2  C2  UNL     1      -1.572  -1.846   0.524  1.00  0.00     0.029 A 
HETATM    3  N1  UNL     1      -0.346  -2.081   1.057  1.00  0.00    -0.341 N 
ATOM      4  H1  UNL     1      -0.092  -2.921   1.576  1.00  0.00     0.167 HD
HETATM    5  C3  UNL     1       0.479  -1.067   0.810  1.00  0.00     0.150 A 
HETATM    6  N4  UNL     1      -0.231  -0.168   0.106  1.00  0.00    -0.341 N 
ATOM      7  H4  UNL     1       0.129   0.723  -0.235  1.00  0.00     0.167 HD
HETATM    8  C11 UNL     1      -1.511  -0.624  -0.087  1.00  0.00     0.033 A 
ENDROOT
BRANCH   5   9
HETATM    9  C4  UNL     1       1.861  -0.974   1.231  1.00  0.00     0.140 C 
HETATM   10  N2  UNL     1       2.410  -1.920   1.910  1.00  0.00    -0.383 N 
ATOM     11  H22 UNL     1       1.855  -2.742   2.146  1.00  0.00     0.157 HD
ATOM     12  H21 UNL     1       3.384  -1.854   2.207  1.00  0.00     0.157 HD
BRANCH   9  13
HETATM   13  N3  UNL     1       2.631   0.167   0.903  1.00  0.00    -0.369 N 
ATOM     14  H3  UNL     1       2.740   0.904   1.600  1.00  0.00     0.161 HD
BRANCH  13  15
HETATM   15  C5  UNL     1       3.270   0.326  -0.388  1.00  0.00     0.083 C 
HETATM   16  C6  UNL     1       3.991   1.628  -0.407  1.00  0.00     0.025 C 
HETATM   17  C7  UNL     1       5.284   1.489  -1.136  1.00  0.00     0.002 C 
HETATM   18  C8  UNL     1       6.187   0.504  -0.432  1.00  0.00     0.000 C 
HETATM   19  C9  UNL     1       5.497  -0.812  -0.176  1.00  0.00     0.002 C 
HETATM   20  C10 UNL     1       4.114  -0.863  -0.768  1.00  0.00     0.025 C 
ENDBRANCH  13  15
ENDBRANCH   9  13
ENDBRANCH   5   9
BRANCH   8  21
HETATM   21  C12 UNL     1      -2.548   0.147  -0.794  1.00  0.00     0.064 C 
BRANCH  21  22
HETATM   22  C13 UNL     1      -3.464   0.963   0.035  1.00  0.00    -0.000 A 
HETATM   23  C14 UNL     1      -4.379   0.512   1.075  1.00  0.00     0.015 A 
HETATM   24  C15 UNL     1      -4.908   0.988  -0.284  1.00  0.00    -0.043 A 
HETATM   25  C16 UNL     1      -5.569  -0.110  -1.085  1.00  0.00     0.015 C 
HETATM   26  C17 UNL     1      -5.589   2.314  -0.388  1.00  0.00     0.015 C 
ENDBRANCH  21  22
ENDBRANCH   8  21
TORSDOF 5
