REMARK  6 active torsions:
REMARK  status: ('A' for Active; 'I' for Inactive)
REMARK    1  A    between atoms: C3_3  and  N1_4 
REMARK       I    between atoms: N2_7  and  C6_8 
REMARK       I    between atoms: C6_8  and  N3_10 
REMARK    2  A    between atoms: N3_10  and  C7_12 
REMARK    3  A    between atoms: C7_12  and  C8_13 
REMARK    4  A    between atoms: C7_12  and  C13_18 
REMARK    5  A    between atoms: C9_14  and  C10_15 
REMARK    6  A    between atoms: C13_18  and  O2_19 
ROOT
HETATM    1  C1  UNL     1      -6.520  -0.293  -0.962  1.00  0.00     0.013 C 
HETATM    2  C2  UNL     1      -5.781   0.052  -0.065  1.00  0.00    -0.087 C 
HETATM    3  C3  UNL     1      -4.932   0.452   1.029  1.00  0.00     0.365 C 
ENDROOT
BRANCH   3   4
HETATM    4  N1  UNL     1      -3.549   0.062   0.944  1.00  0.00     0.107 N 
HETATM    5  C4  UNL     1      -2.941   0.425   2.233  1.00  0.00     0.294 C 
HETATM    6  C5  UNL     1      -1.643   1.184   2.061  1.00  0.00     0.158 C 
HETATM    7  N2  UNL     1      -0.786   0.415   1.143  1.00  0.00    -0.326 N 
HETATM    8  C6  UNL     1       0.517   0.054   1.593  1.00  0.00     0.319 C 
HETATM    9  C14 UNL     1      -1.364   0.113  -0.111  1.00  0.00     0.122 C 
HETATM   10  O1  UNL     1       0.914   0.402   2.760  1.00  0.00    -0.247 OA
HETATM   11  N3  UNL     1       1.426  -0.688   0.809  1.00  0.00    -0.326 N 
ATOM     12  H3  UNL     1       1.148  -0.985  -0.126  1.00  0.00     0.165 HD
HETATM   13  C15 UNL     1      -0.831   0.879  -1.295  1.00  0.00     0.028 C 
HETATM   14  C18 UNL     1      -2.799   0.676  -0.107  1.00  0.00     0.246 C 
HETATM   15  C16 UNL     1      -1.893   0.484  -2.336  1.00  0.00     0.004 C 
HETATM   16  C17 UNL     1      -3.190   0.353  -1.507  1.00  0.00     0.038 C 
BRANCH  11  17
HETATM   17  C7  UNL     1       2.735  -1.036   1.294  1.00  0.00     0.189 C 
BRANCH  17  18
HETATM   18  C8  UNL     1       3.817  -0.519   0.421  1.00  0.00    -0.078 C 
HETATM   19  C9  UNL     1       4.699  -0.120  -0.295  1.00  0.00    -0.100 C 
BRANCH  19  20
HETATM   20  C10 UNL     1       5.794   0.347  -1.173  1.00  0.00     0.065 A 
HETATM   21  C11 UNL     1       5.725  -0.167  -2.555  1.00  0.00     0.018 A 
HETATM   22  C12 UNL     1       5.337   1.282  -2.306  1.00  0.00     0.018 A 
ENDBRANCH  19  20
ENDBRANCH  17  18
BRANCH  17  23
HETATM   23  C13 UNL     1       2.939  -2.537   1.378  1.00  0.00     0.202 C 
BRANCH  23  24
HETATM   24  O2  UNL     1       2.800  -3.153   0.152  1.00  0.00    -0.398 OA
ATOM     25  H2  UNL     1       2.928  -4.093   0.205  1.00  0.00     0.209 HD
ENDBRANCH  23  24
ENDBRANCH  17  23
ENDBRANCH  11  17
ENDBRANCH   3   4
TORSDOF 6
