REMARK  6 active torsions:
REMARK  status: ('A' for Active; 'I' for Inactive)
REMARK    1  A    between atoms: C2_2  and  N1_3 
REMARK       I    between atoms: N1_3  and  C3_5 
REMARK       I    between atoms: C3_5  and  N2_7 
REMARK    2  A    between atoms: N2_7  and  C4_9 
REMARK    3  A    between atoms: C4_9  and  C5_10 
REMARK    4  A    between atoms: C5_10  and  N3_11 
REMARK    5  A    between atoms: C5_10  and  N4_16 
REMARK    6  A    between atoms: N3_11  and  C6_12 
ROOT
HETATM    1  C5  UNL     1      -0.217  -0.373  -0.092  1.00  0.00     0.166 C 
ENDROOT
BRANCH   1   2
HETATM    2  C4  UNL     1       0.919   0.510   0.269  1.00  0.00     0.216 C 
BRANCH   2   3
HETATM    3  N2  UNL     1       2.215  -0.052  -0.052  1.00  0.00    -0.335 N 
HETATM    4  C3  UNL     1       3.380   0.680   0.236  1.00  0.00     0.316 C 
HETATM    5  N1  UNL     1       4.649   0.155  -0.067  1.00  0.00    -0.343 N 
HETATM    6  O1  UNL     1       3.295   1.808   0.767  1.00  0.00    -0.247 OA
ATOM      7  H1  UNL     1       4.707  -0.767  -0.500  1.00  0.00     0.164 HD
ATOM      8  H2  UNL     1       2.282  -0.973  -0.484  1.00  0.00     0.164 HD
BRANCH   5   9
HETATM    9  C2  UNL     1       5.877   0.870   0.211  1.00  0.00     0.120 C 
HETATM   10  C1  UNL     1       5.915   1.107   1.721  1.00  0.00     0.026 C 
ENDBRANCH   5   9
ENDBRANCH   2   3
ENDBRANCH   1   2
BRANCH   1  11
HETATM   11  N3  UNL     1      -0.105  -1.440  -0.596  1.00  0.00    -0.423 NA
BRANCH  11  12
HETATM   12  C6  UNL     1       0.022  -2.638  -1.163  1.00  0.00     0.084 C 
HETATM   13  C7  UNL     1       0.693  -2.747  -2.516  1.00  0.00     0.053 C 
HETATM   14  C8  UNL     1       0.667  -3.635  -0.179  1.00  0.00     0.053 C 
HETATM   15  C9  UNL     1      -1.383  -3.242  -1.397  1.00  0.00     0.053 C 
ENDBRANCH  11  12
ENDBRANCH   1  11
BRANCH   1  16
HETATM   16  N4  UNL     1      -1.536   0.147   0.213  1.00  0.00    -0.347 N 
HETATM   17  C10 UNL     1      -2.247  -0.262   1.415  1.00  0.00     0.156 C 
HETATM   18  C11 UNL     1      -3.041   0.834   2.027  1.00  0.00     0.291 C 
HETATM   19  N5  UNL     1      -2.496   2.113   1.591  1.00  0.00     0.088 N 
HETATM   20  C12 UNL     1      -3.185   3.141   2.314  1.00  0.00     0.310 C 
HETATM   21  C13 UNL     1      -2.774   2.255   0.176  1.00  0.00     0.302 C 
HETATM   22  C14 UNL     1      -2.228   1.076  -0.615  1.00  0.00     0.054 C 
HETATM   23  C15 UNL     1      -1.429   1.627  -1.752  1.00  0.00     0.040 C 
HETATM   24  C16 UNL     1      -3.434   0.344  -1.213  1.00  0.00     0.040 C 
ENDBRANCH   1  16
TORSDOF 6
