REMARK  7 active torsions:
REMARK  status: ('A' for Active; 'I' for Inactive)
REMARK    1  A    between atoms: C2_2  and  C3_3 
REMARK    2  A    between atoms: C3_3  and  C4_4 
REMARK    3  A    between atoms: C4_4  and  N1_5 
REMARK    4  A    between atoms: N1_5  and  C5_7 
REMARK    5  A    between atoms: C5_7  and  N2_9 
REMARK    6  A    between atoms: N3_13  and  C9_14 
REMARK    7  A    between atoms: C9_14  and  N4_16 
ROOT
HETATM    1  N2  UNL     1       0.176   0.439   0.075  1.00  0.00    -0.353 N 
HETATM    2  C6  UNL     1      -0.016  -0.916  -0.352  1.00  0.00     0.159 C 
HETATM    3  C7  UNL     1      -1.318  -1.405   0.306  1.00  0.00     0.158 C 
HETATM    4  C8  UNL     1      -2.487  -1.268  -0.625  1.00  0.00     0.159 C 
HETATM    5  N3  UNL     1      -3.567  -0.465  -0.084  1.00  0.00    -0.353 N 
HETATM    6  C11 UNL     1      -3.307   0.548   0.910  1.00  0.00     0.159 C 
HETATM    7  C12 UNL     1      -1.849   0.577   1.331  1.00  0.00     0.158 C 
HETATM    8  C13 UNL     1      -0.998   1.253   0.306  1.00  0.00     0.159 C 
HETATM    9  O1  UNL     1      -1.500  -0.775   1.534  1.00  0.00    -0.374 OA
ENDROOT
BRANCH   1  10
HETATM   10  C5  UNL     1       1.443   1.029   0.279  1.00  0.00     0.169 C 
HETATM   11  S1  UNL     1       1.608   2.584   0.772  1.00  0.00    -0.041 SA
BRANCH  10  12
HETATM   12  N1  UNL     1       2.613   0.273   0.055  1.00  0.00    -0.367 N 
ATOM     13  H1  UNL     1       2.554  -0.697  -0.253  1.00  0.00     0.161 HD
BRANCH  12  14
HETATM   14  C4  UNL     1       3.902   0.903   0.272  1.00  0.00     0.122 C 
BRANCH  14  15
HETATM   15  C3  UNL     1       4.996  -0.086  -0.026  1.00  0.00     0.019 C 
BRANCH  15  16
HETATM   16  C2  UNL     1       6.359   0.538   0.190  1.00  0.00    -0.003 C 
HETATM   17  C1  UNL     1       7.394  -0.518  -0.130  1.00  0.00     0.005 C 
ENDBRANCH  15  16
ENDBRANCH  14  15
ENDBRANCH  12  14
ENDBRANCH  10  12
ENDBRANCH   1  10
BRANCH   5  18
HETATM   18  C9  UNL     1      -4.919  -0.640  -0.506  1.00  0.00     0.169 C 
HETATM   19  S2  UNL     1      -5.240  -1.778  -1.628  1.00  0.00    -0.041 SA
BRANCH  18  20
HETATM   20  N4  UNL     1      -5.972   0.130   0.009  1.00  0.00    -0.371 N 
HETATM   21  C10 UNL     1      -7.316  -0.082  -0.446  1.00  0.00     0.148 C 
ATOM     22  H4  UNL     1      -5.781   0.845   0.711  1.00  0.00     0.161 HD
ENDBRANCH  18  20
ENDBRANCH   5  18
TORSDOF 7
