REMARK  8 active torsions:
REMARK  status: ('A' for Active; 'I' for Inactive)
REMARK    1  A    between atoms: N1_2  and  C2_4 
REMARK    2  A    between atoms: C2_4  and  N2_6 
REMARK    3  A    between atoms: N2_6  and  C3_8 
REMARK    4  A    between atoms: C3_8  and  C4_9 
REMARK    5  A    between atoms: C4_9  and  N3_10 
REMARK    6  A    between atoms: N4_13  and  C7_14 
REMARK    7  A    between atoms: C7_14  and  O1_15 
REMARK    8  A    between atoms: C7_14  and  N5_17 
ROOT
HETATM    1  N3  UNL     1       1.734  -0.121  -0.263  1.00  0.00    -0.408 N 
HETATM    2  C5  UNL     1       1.366  -0.933  -1.360  1.00  0.00     0.136 C 
HETATM    3  C6  UNL     1       0.008  -0.499  -1.855  1.00  0.00     0.145 C 
HETATM    4  N4  UNL     1      -0.895  -0.231  -0.697  1.00  0.00    -0.344 N 
HETATM    5  C14 UNL     1      -0.428   0.626   0.357  1.00  0.00     0.145 C 
HETATM    6  C15 UNL     1       0.984   1.079  -0.103  1.00  0.00     0.136 C 
ENDROOT
BRANCH   4   7
HETATM    7  C7  UNL     1      -2.170  -0.816  -0.675  1.00  0.00     0.217 C 
BRANCH   7   8
HETATM    8  O1  UNL     1      -2.392  -1.551  -1.746  1.00  0.00    -0.333 OA
ATOM      9  H1  UNL     1      -3.255  -1.947  -1.731  1.00  0.00     0.220 HD
ENDBRANCH   7   8
BRANCH   7  10
HETATM   10  N5  UNL     1      -3.183  -0.738   0.256  1.00  0.00    -0.347 N 
HETATM   11  C8  UNL     1      -3.241  -0.053   1.508  1.00  0.00     0.126 C 
HETATM   12  C9  UNL     1      -4.091   1.221   1.265  1.00  0.00     0.020 C 
HETATM   13  C10 UNL     1      -5.127   0.891   0.196  1.00  0.00     0.007 C 
HETATM   14  C11 UNL     1      -5.565  -0.550   0.413  1.00  0.00    -0.000 C 
HETATM   15  C12 UNL     1      -6.834  -0.751  -0.387  1.00  0.00     0.011 C 
HETATM   16  C13 UNL     1      -4.454  -1.453  -0.070  1.00  0.00     0.130 C 
ENDBRANCH   7  10
ENDBRANCH   4   7
BRANCH   1  17
HETATM   17  C4  UNL     1       3.097  -0.064   0.116  1.00  0.00     0.136 C 
BRANCH  17  18
HETATM   18  C3  UNL     1       3.906   0.661  -0.927  1.00  0.00     0.141 C 
BRANCH  18  19
HETATM   19  N2  UNL     1       5.294   0.705  -0.523  1.00  0.00    -0.366 N 
ATOM     20  H2  UNL     1       5.716   1.582  -0.218  1.00  0.00     0.161 HD
BRANCH  19  21
HETATM   21  C2  UNL     1       6.061  -0.486  -0.556  1.00  0.00     0.167 C 
HETATM   22  S1  UNL     1       5.417  -1.898  -1.091  1.00  0.00    -0.041 SA
BRANCH  21  23
HETATM   23  N1  UNL     1       7.418  -0.423  -0.138  1.00  0.00    -0.372 N 
HETATM   24  C1  UNL     1       7.962   0.837   0.303  1.00  0.00     0.148 C 
ATOM     25  H1  UNL     1       8.001  -1.260  -0.150  1.00  0.00     0.161 HD
ENDBRANCH  21  23
ENDBRANCH  19  21
ENDBRANCH  18  19
ENDBRANCH  17  18
ENDBRANCH   1  17
TORSDOF 8
