REMARK  6 active torsions:
REMARK  status: ('A' for Active; 'I' for Inactive)
REMARK    1  A    between atoms: N1_1  and  C1_5 
REMARK    2  A    between atoms: C1_5  and  C2_6 
REMARK    3  A    between atoms: C2_6  and  N2_7 
REMARK    4  A    between atoms: N3_11  and  C6_12 
REMARK    5  A    between atoms: C6_12  and  N4_14 
REMARK    6  A    between atoms: N4_14  and  C7_16 
ROOT
HETATM    1  N2  UNL     1       3.806   0.046  -0.183  1.00  0.00    -0.409 N 
HETATM    2  C3  UNL     1       3.746  -1.143  -0.961  1.00  0.00     0.118 C 
HETATM    3  C4  UNL     1       2.591  -1.143  -1.939  1.00  0.00     0.039 C 
HETATM    4  C5  UNL     1       1.888   0.195  -1.779  1.00  0.00     0.127 C 
HETATM    5  N3  UNL     1       1.093   0.148  -0.599  1.00  0.00    -0.356 N 
HETATM    6  C16 UNL     1       1.520   0.142   0.772  1.00  0.00     0.144 C 
HETATM    7  C17 UNL     1       3.006   0.102   0.983  1.00  0.00     0.136 C 
ENDROOT
BRANCH   5   8
HETATM    8  C6  UNL     1      -0.321   0.099  -0.773  1.00  0.00     0.174 C 
HETATM    9  S1  UNL     1      -0.850   0.100  -2.300  1.00  0.00    -0.041 SA
BRANCH   8  10
HETATM   10  N4  UNL     1      -1.218   0.051   0.302  1.00  0.00    -0.340 N 
ATOM     11  H4  UNL     1      -0.744   0.053   1.205  1.00  0.00     0.167 HD
BRANCH  10  12
HETATM   12  C7  UNL     1      -2.611   0.001   0.430  1.00  0.00    -0.003 C 
HETATM   13  C8  UNL     1      -3.415  -1.078  -0.176  1.00  0.00     0.032 C 
HETATM   14  C9  UNL     1      -4.613  -1.266   0.834  1.00  0.00     0.015 C 
HETATM   15  C15 UNL     1      -4.249  -0.771  -1.377  1.00  0.00     0.015 C 
HETATM   16  C10 UNL     1      -5.312   0.058   0.603  1.00  0.00    -0.009 C 
HETATM   17  C11 UNL     1      -4.561   1.124   1.367  1.00  0.00     0.015 C 
HETATM   18  C14 UNL     1      -5.085   0.411  -0.856  1.00  0.00    -0.009 C 
HETATM   19  C12 UNL     1      -3.348   1.327   0.416  1.00  0.00     0.032 C 
HETATM   20  C13 UNL     1      -4.117   1.589  -0.854  1.00  0.00     0.015 C 
ENDBRANCH  10  12
ENDBRANCH   8  10
ENDBRANCH   5   8
BRANCH   1  21
HETATM   21  C2  UNL     1       5.074   0.676  -0.151  1.00  0.00     0.144 C 
BRANCH  21  22
HETATM   22  C1  UNL     1       6.162  -0.059   0.575  1.00  0.00     0.248 C 
BRANCH  22  23
HETATM   23  N1  UNL     1       5.782  -0.243   1.964  1.00  0.00    -0.078 N 
ATOM     24  H13 UNL     1       5.544   0.639   2.418  1.00  0.00     0.274 HD
ATOM     25  H12 UNL     1       4.877  -0.704   2.058  1.00  0.00     0.274 HD
ATOM     26  H11 UNL     1       6.522  -0.743   2.458  1.00  0.00     0.274 HD
ENDBRANCH  22  23
ENDBRANCH  21  22
ENDBRANCH   1  21
TORSDOF 6
