REMARK  4 active torsions:
REMARK  status: ('A' for Active; 'I' for Inactive)
REMARK    1  A    between atoms: C2_5  and  C3_6 
REMARK    2  A    between atoms: C3_6  and  N2_7 
REMARK    3  A    between atoms: N2_7  and  N3_9 
REMARK       I    between atoms: N3_9  and  C4_11 
REMARK    4  A    between atoms: N6_17  and  C6_18 
ROOT
HETATM    1  N1  UNL     1      -1.423  -0.612  -1.842  1.00  0.00    -0.383 N 
ATOM      2  H11 UNL     1      -2.436  -0.728  -1.813  1.00  0.00     0.157 HD
ATOM      3  H12 UNL     1      -1.065  -0.935  -2.741  1.00  0.00     0.157 HD
HETATM    4  C1  UNL     1      -0.729  -0.126  -0.873  1.00  0.00     0.136 A 
HETATM    5  C2  UNL     1       0.660   0.033  -0.913  1.00  0.00     0.043 A 
HETATM    6  C5  UNL     1       0.986   0.576   0.309  1.00  0.00     0.124 A 
HETATM    7  N5  UNL     1      -0.155   0.715   0.999  1.00  0.00    -0.301 N 
ATOM      8  H5  UNL     1      -0.207   1.097   1.944  1.00  0.00     0.186 HD
HETATM    9  N6  UNL     1      -1.202   0.301   0.314  1.00  0.00    -0.222 N 
ENDROOT
BRANCH   5  10
HETATM   10  C3  UNL     1       1.548  -0.304  -2.007  1.00  0.00     0.124 C 
BRANCH  10  11
HETATM   11  N2  UNL     1       2.797  -0.163  -2.049  1.00  0.00    -0.307 N 
ATOM     12  H2  UNL     1       3.232  -0.466  -2.921  1.00  0.00     0.186 HD
BRANCH  11  13
HETATM   13  N3  UNL     1       3.671   0.332  -1.113  1.00  0.00    -0.254 N 
HETATM   14  C4  UNL     1       4.566  -0.526  -0.422  1.00  0.00     0.347 C 
HETATM   15  N4  UNL     1       5.486  -0.063   0.552  1.00  0.00    -0.038 NA
HETATM   16  O1  UNL     1       4.547  -1.750  -0.680  1.00  0.00    -0.249 OA
ATOM     17  H3  UNL     1       3.677   1.332  -0.911  1.00  0.00     0.191 HD
ENDBRANCH  11  13
ENDBRANCH  10  11
ENDBRANCH   5  10
BRANCH   9  18
HETATM   18  C6  UNL     1      -2.571   0.298   0.730  1.00  0.00     0.143 A 
HETATM   19  C7  UNL     1      -3.401  -0.773   0.501  1.00  0.00     0.053 A 
HETATM   20  C8  UNL     1      -4.704  -0.681   0.939  1.00  0.00     0.022 A 
HETATM   21  C9  UNL     1      -5.150   0.450   1.584  1.00  0.00     0.107 A 
HETATM   22  N7  UNL     1      -4.302   1.465   1.783  1.00  0.00    -0.310 N 
HETATM   23  N8  UNL     1      -3.066   1.371   1.364  1.00  0.00    -0.284 N 
ATOM     24  H7  UNL     1      -4.618   2.310   2.260  1.00  0.00     0.186 HD
ATOM     25  H8  UNL     1      -2.442   2.161   1.529  1.00  0.00     0.188 HD
ENDBRANCH   9  18
TORSDOF 4
