REMARK  3 active torsions:
REMARK  status: ('A' for Active; 'I' for Inactive)
REMARK    1  A    between atoms: C2_5  and  N2_6 
REMARK    2  A    between atoms: N2_6  and  C3_8 
REMARK    3  A    between atoms: C6_15  and  N5_16 
ROOT
HETATM    1  O1  UNL     1      -2.127   2.985  -0.894  1.00  0.00    -0.247 OA
HETATM    2  C1  UNL     1      -2.133   1.815  -0.437  1.00  0.00     0.328 A 
HETATM    3  N1  UNL     1      -0.973   1.121  -0.274  1.00  0.00    -0.292 N 
ATOM      4  H1  UNL     1      -0.084   1.553  -0.526  1.00  0.00     0.172 HD
HETATM    5  C2  UNL     1      -0.993  -0.113   0.210  1.00  0.00     0.151 A 
HETATM    6  C6  UNL     1      -2.199  -0.692   0.550  1.00  0.00     0.214 A 
HETATM    7  C7  UNL     1      -3.347   0.044   0.370  1.00  0.00     0.286 A 
HETATM    8  O4  UNL     1      -4.439  -0.501   0.686  1.00  0.00    -0.265 OA
HETATM    9  N6  UNL     1      -3.335   1.300  -0.123  1.00  0.00    -0.273 N 
ATOM     10  H6  UNL     1      -4.195   1.833  -0.251  1.00  0.00     0.173 HD
ENDROOT
BRANCH   5  11
HETATM   11  N2  UNL     1       0.181  -0.845   0.389  1.00  0.00    -0.312 N 
ATOM     12  H2  UNL     1       0.096  -1.788   0.767  1.00  0.00     0.170 HD
BRANCH  11  13
HETATM   13  C3  UNL     1       1.503  -0.367   0.079  1.00  0.00     0.176 C 
HETATM   14  N3  UNL     1       2.007   0.711   0.540  1.00  0.00    -0.361 N 
HETATM   15  C4  UNL     1       3.338   0.889   0.032  1.00  0.00     0.142 C 
ATOM     16  H3  UNL     1       1.533   1.352   1.176  1.00  0.00     0.162 HD
HETATM   17  C5  UNL     1       3.438  -0.083  -1.131  1.00  0.00     0.142 C 
HETATM   18  N4  UNL     1       2.420  -1.036  -0.769  1.00  0.00    -0.361 N 
ATOM     19  H4  UNL     1       2.369  -2.010  -1.067  1.00  0.00     0.162 HD
ENDBRANCH  11  13
ENDBRANCH   5  11
BRANCH   6  20
HETATM   20  N5  UNL     1      -2.194  -2.015   1.066  1.00  0.00    -0.106 N 
HETATM   21  O2  UNL     1      -1.972  -2.954   0.260  1.00  0.00    -0.531 OA
HETATM   22  O3  UNL     1      -2.421  -2.294   2.394  1.00  0.00    -0.531 OA
ENDBRANCH   6  20
TORSDOF 3
