REMARK  3 active torsions:
REMARK  status: ('A' for Active; 'I' for Inactive)
REMARK    1  A    between atoms: C2_3  and  C3_4 
REMARK    2  A    between atoms: C6_11  and  N4_12 
REMARK    3  A    between atoms: N4_12  and  N5_14 
REMARK       I    between atoms: N5_14  and  C7_16 
ROOT
HETATM    1  C1  UNL     1      -2.889  -2.006  -0.453  1.00  0.00     0.158 C 
HETATM    2  N1  UNL     1      -2.337  -0.741  -0.057  1.00  0.00    -0.331 N 
HETATM    3  C2  UNL     1      -3.041   0.358   0.259  1.00  0.00     0.174 A 
HETATM    4  N3  UNL     1      -2.161   1.326   0.570  1.00  0.00    -0.336 N 
ATOM      5  H3  UNL     1      -2.396   2.278   0.852  1.00  0.00     0.168 HD
HETATM    6  C4  UNL     1      -0.913   0.823   0.445  1.00  0.00     0.063 A 
HETATM    7  C5  UNL     1       0.357   1.336   0.627  1.00  0.00     0.062 A 
HETATM    8  C6  UNL     1       1.474   0.565   0.418  1.00  0.00     0.050 A 
HETATM    9  C8  UNL     1       1.365  -0.751   0.019  1.00  0.00     0.033 A 
HETATM   10  C9  UNL     1       0.110  -1.274  -0.166  1.00  0.00     0.034 A 
HETATM   11  C10 UNL     1      -1.002  -0.495   0.046  1.00  0.00     0.062 A 
ENDROOT
BRANCH   8  12
HETATM   12  N4  UNL     1       2.782   1.113   0.612  1.00  0.00    -0.297 N 
ATOM     13  H4  UNL     1       2.896   2.081   0.914  1.00  0.00     0.187 HD
BRANCH  12  14
HETATM   14  N5  UNL     1       3.894   0.312   0.385  1.00  0.00    -0.254 N 
HETATM   15  C7  UNL     1       4.720   0.530  -0.744  1.00  0.00     0.347 C 
HETATM   16  N6  UNL     1       5.846  -0.313  -0.934  1.00  0.00    -0.038 NA
HETATM   17  O2  UNL     1       4.425   1.459  -1.532  1.00  0.00    -0.249 OA
ATOM     18  H5  UNL     1       4.117  -0.440   1.037  1.00  0.00     0.191 HD
ENDBRANCH  12  14
ENDBRANCH   8  12
BRANCH   3  19
HETATM   19  C3  UNL     1      -4.501   0.436   0.250  1.00  0.00     0.299 C 
HETATM   20  N2  UNL     1      -5.145   1.650   0.606  1.00  0.00    -0.054 NA
HETATM   21  O1  UNL     1      -5.209  -0.550  -0.066  1.00  0.00    -0.268 OA
ENDBRANCH   3  19
TORSDOF 3
