REMARK  3 active torsions:
REMARK  status: ('A' for Active; 'I' for Inactive)
REMARK    1  A    between atoms: C2_5  and  C3_6 
REMARK       I    between atoms: C3_6  and  N3_8 
REMARK    2  A    between atoms: N3_8  and  N4_10 
REMARK    3  A    between atoms: C5_17  and  N6_18 
ROOT
HETATM    1  C1  UNL     1      -2.323   0.926  -1.208  1.00  0.00     0.197 C 
HETATM    2  N1  UNL     1      -1.504   0.361  -0.170  1.00  0.00    -0.128 N 
HETATM    3  N2  UNL     1      -0.225   0.182  -0.439  1.00  0.00    -0.275 N 
ATOM      4  H2  UNL     1       0.126   0.447  -1.359  1.00  0.00     0.188 HD
HETATM    5  C2  UNL     1       0.626  -0.335   0.452  1.00  0.00     0.187 A 
HETATM    6  C4  UNL     1       0.131  -0.685   1.682  1.00  0.00     0.293 A 
HETATM    7  O2  UNL     1       0.924  -1.176   2.538  1.00  0.00    -0.265 OA
HETATM    8  N5  UNL     1      -1.160  -0.502   1.948  1.00  0.00    -0.153 N 
ATOM      9  H5  UNL     1      -1.521  -0.764   2.865  1.00  0.00     0.187 HD
HETATM   10  C5  UNL     1      -1.998   0.019   1.039  1.00  0.00     0.695 A 
ENDROOT
BRANCH   5  11
HETATM   11  C3  UNL     1       2.036  -0.522   0.127  1.00  0.00     0.293 C 
HETATM   12  O1  UNL     1       2.781  -1.011   1.004  1.00  0.00    -0.264 OA
HETATM   13  N3  UNL     1       2.536  -0.157  -1.148  1.00  0.00    -0.271 N 
ATOM     14  H3  UNL     1       1.886   0.238  -1.828  1.00  0.00     0.189 HD
BRANCH  13  15
HETATM   15  N4  UNL     1       3.867  -0.309  -1.520  1.00  0.00    -0.342 N 
ATOM     16  H42 UNL     1       4.503  -0.705  -0.828  1.00  0.00     0.176 HD
ATOM     17  H41 UNL     1       4.227  -0.046  -2.438  1.00  0.00     0.176 HD
ENDBRANCH  13  15
ENDBRANCH   5  11
BRANCH  10  18
HETATM   18  N6  UNL     1      -3.241   0.206   1.266  1.00  0.00    -0.233 N 
ATOM     19  H62 UNL     1      -3.878   0.602   0.575  1.00  0.00     0.174 HD
ATOM     20  H61 UNL     1      -3.614  -0.052   2.179  1.00  0.00     0.174 HD
ENDBRANCH  10  18
TORSDOF 3
