REMARK  2 active torsions:
REMARK  status: ('A' for Active; 'I' for Inactive)
REMARK    1  A    between atoms: O1_2  and  C2_3 
REMARK    2  A    between atoms: N4_15  and  N5_17 
ROOT
HETATM    1  C2  UNL     1       0.334   0.002   0.164  1.00  0.00     0.192 C 
HETATM    2  N1  UNL     1      -0.170  -0.748   1.178  1.00  0.00    -0.286 N 
ATOM      3  H1  UNL     1       0.387  -0.838   2.028  1.00  0.00     0.172 HD
HETATM    4  C3  UNL     1      -1.374  -1.389   1.133  1.00  0.00     0.330 C 
HETATM    5  O2  UNL     1      -1.530  -2.361   1.916  1.00  0.00    -0.246 OA
HETATM    6  N2  UNL     1      -2.434  -1.115   0.351  1.00  0.00    -0.260 N 
ATOM      7  H2  UNL     1      -3.273  -1.653   0.568  1.00  0.00     0.175 HD
HETATM    8  C4  UNL     1      -2.573  -0.237  -0.684  1.00  0.00     0.329 C 
HETATM    9  O3  UNL     1      -3.701  -0.114  -1.207  1.00  0.00    -0.246 OA
HETATM   10  N3  UNL     1      -1.628   0.542  -1.237  1.00  0.00    -0.290 N 
ATOM     11  H3  UNL     1      -1.870   1.013  -2.109  1.00  0.00     0.172 HD
HETATM   12  C5  UNL     1      -0.373   0.763  -0.743  1.00  0.00     0.175 C 
HETATM   13  N4  UNL     1       0.195   1.824  -1.202  1.00  0.00    -0.288 N 
ATOM     14  H4  UNL     1      -0.280   2.426  -1.875  1.00  0.00     0.188 HD
ENDROOT
BRANCH   1  15
HETATM   15  O1  UNL     1       1.698   0.040  -0.020  1.00  0.00    -0.338 OA
HETATM   16  C1  UNL     1       2.627  -0.657   0.782  1.00  0.00     0.211 C 
ENDBRANCH   1  15
BRANCH  13  17
HETATM   17  N5  UNL     1       1.480   2.124  -0.749  1.00  0.00    -0.344 N 
ATOM     18  H52 UNL     1       1.941   1.512  -0.076  1.00  0.00     0.176 HD
ATOM     19  H51 UNL     1       1.930   2.964  -1.112  1.00  0.00     0.176 HD
ENDBRANCH  13  17
TORSDOF 2
