REMARK  5 active torsions:
REMARK  status: ('A' for Active; 'I' for Inactive)
REMARK    1  A    between atoms: C3_5  and  N2_6 
REMARK    2  A    between atoms: C4_11  and  N4_12 
REMARK    3  A    between atoms: N4_12  and  N5_14 
REMARK    4  A    between atoms: N5_14  and  N6_16 
REMARK    5  A    between atoms: N7_19  and  C5_20 
ROOT
HETATM    1  C1  UNL     1      -2.948  -1.109  -0.367  1.00  0.00     0.091 C 
HETATM    2  C2  UNL     1      -1.786  -0.185  -0.117  1.00  0.00     0.119 A 
HETATM    3  N1  UNL     1      -1.988   1.100   0.263  1.00  0.00    -0.180 N 
ATOM      4  H1  UNL     1      -2.929   1.472   0.389  1.00  0.00     0.185 HD
HETATM    5  C3  UNL     1      -0.893   1.873   0.470  1.00  0.00     0.691 A 
HETATM    6  N3  UNL     1       0.350   1.391   0.307  1.00  0.00    -0.021 N 
ATOM      7  H3  UNL     1       1.166   1.983   0.465  1.00  0.00     0.203 HD
HETATM    8  C4  UNL     1       0.492   0.103  -0.072  1.00  0.00     0.722 A 
HETATM    9  N7  UNL     1      -0.559  -0.704  -0.290  1.00  0.00    -0.110 N 
ENDROOT
BRANCH   8  10
HETATM   10  N4  UNL     1       1.657  -0.399  -0.240  1.00  0.00    -0.117 N 
ATOM     11  H4  UNL     1       1.764  -1.372  -0.527  1.00  0.00     0.207 HD
BRANCH  10  12
HETATM   12  N5  UNL     1       2.777   0.402  -0.025  1.00  0.00    -0.235 N 
ATOM     13  H5  UNL     1       2.817   1.341  -0.421  1.00  0.00     0.208 HD
BRANCH  12  14
HETATM   14  N6  UNL     1       3.849  -0.086   0.738  1.00  0.00    -0.330 N 
ATOM     15  H62 UNL     1       3.793  -1.027   1.127  1.00  0.00     0.178 HD
ATOM     16  H61 UNL     1       4.669   0.500   0.895  1.00  0.00     0.178 HD
ENDBRANCH  12  14
ENDBRANCH  10  12
ENDBRANCH   8  10
BRANCH   9  17
HETATM   17  C5  UNL     1      -0.386  -2.072  -0.694  1.00  0.00     0.378 C 
HETATM   18  O1  UNL     1       0.771  -2.532  -0.849  1.00  0.00    -0.282 OA
ENDBRANCH   9  17
BRANCH   5  19
HETATM   19  N2  UNL     1      -1.040   3.106   0.834  1.00  0.00    -0.234 N 
ATOM     20  H22 UNL     1      -1.984   3.472   0.958  1.00  0.00     0.174 HD
ATOM     21  H21 UNL     1      -0.216   3.687   0.990  1.00  0.00     0.174 HD
ENDBRANCH   5  19
TORSDOF 5
