REMARK  5 active torsions:
REMARK  status: ('A' for Active; 'I' for Inactive)
REMARK    1  A    between atoms: C5_9  and  N3_10 
REMARK    2  A    between atoms: N5_18  and  C8_19 
REMARK    3  A    between atoms: C8_19  and  C9_20 
REMARK    4  A    between atoms: C9_20  and  C10_21 
REMARK    5  A    between atoms: C10_21  and  C11_22 
ROOT
HETATM    1  C1  UNL     1      -0.622  -4.170  -0.889  1.00  0.00     0.106 C 
HETATM    2  C2  UNL     1      -1.083  -3.066  -0.641  1.00  0.00    -0.112 C 
HETATM    3  C3  UNL     1      -1.637  -1.777  -0.332  1.00  0.00     0.153 A 
HETATM    4  N1  UNL     1      -2.830  -1.470   0.206  1.00  0.00    -0.319 N 
ATOM      5  H1  UNL     1      -3.543  -2.144   0.483  1.00  0.00     0.169 HD
HETATM    6  C4  UNL     1      -2.936  -0.129   0.322  1.00  0.00     0.155 A 
HETATM    7  N2  UNL     1      -3.894   0.700   0.786  1.00  0.00    -0.174 N 
ATOM      8  H2  UNL     1      -4.766   0.316   1.149  1.00  0.00     0.186 HD
HETATM    9  C5  UNL     1      -3.704   2.023   0.772  1.00  0.00     0.680 A 
HETATM   10  N4  UNL     1      -2.560   2.581   0.300  1.00  0.00    -0.154 N 
ATOM     11  H4  UNL     1      -2.450   3.595   0.305  1.00  0.00     0.187 HD
HETATM   12  C6  UNL     1      -1.575   1.807  -0.172  1.00  0.00     0.290 A 
HETATM   13  O1  UNL     1      -0.497   2.265  -0.620  1.00  0.00    -0.265 OA
HETATM   14  C7  UNL     1      -1.763   0.440  -0.162  1.00  0.00     0.151 A 
HETATM   15  N5  UNL     1      -0.989  -0.602  -0.555  1.00  0.00    -0.319 N 
ENDROOT
BRANCH  15  16
HETATM   16  C8  UNL     1       0.336  -0.509  -1.129  1.00  0.00     0.132 C 
BRANCH  16  17
HETATM   17  C9  UNL     1       1.425  -0.523  -0.073  1.00  0.00     0.020 C 
BRANCH  17  18
HETATM   18  C10 UNL     1       2.748  -0.421  -0.806  1.00  0.00     0.001 C 
BRANCH  18  19
HETATM   19  C11 UNL     1       3.923  -0.425   0.136  1.00  0.00    -0.004 C 
HETATM   20  C12 UNL     1       3.808   0.754   1.073  1.00  0.00     0.005 C 
ENDBRANCH  18  19
ENDBRANCH  17  18
ENDBRANCH  16  17
ENDBRANCH  15  16
BRANCH   9  21
HETATM   21  N3  UNL     1      -4.618   2.801   1.213  1.00  0.00    -0.234 N 
ATOM     22  H32 UNL     1      -5.478   2.382   1.568  1.00  0.00     0.174 HD
ATOM     23  H31 UNL     1      -4.473   3.811   1.202  1.00  0.00     0.174 HD
ENDBRANCH   9  21
TORSDOF 5
