REMARK  5 active torsions:
REMARK  status: ('A' for Active; 'I' for Inactive)
REMARK    1  A    between atoms: C3_3  and  C4_4 
REMARK    2  A    between atoms: C4_4  and  C5_5 
REMARK    3  A    between atoms: C5_5  and  C6_6 
REMARK    4  A    between atoms: C6_6  and  N1_7 
REMARK    5  A    between atoms: C11_17  and  N4_18 
ROOT
HETATM    1  C1  UNL     1       3.821   1.803   1.985  1.00  0.00     0.012 C 
HETATM    2  C2  UNL     1       3.917   1.072   1.039  1.00  0.00    -0.117 C 
HETATM    3  C3  UNL     1       4.052   0.186  -0.084  1.00  0.00     0.093 C 
ENDROOT
BRANCH   3   4
HETATM    4  C4  UNL     1       2.818   0.159  -0.942  1.00  0.00     0.014 C 
BRANCH   4   5
HETATM    5  C5  UNL     1       1.591  -0.287  -0.234  1.00  0.00     0.021 C 
BRANCH   5   6
HETATM    6  C6  UNL     1       0.432  -0.267  -1.206  1.00  0.00     0.132 C 
BRANCH   6   7
HETATM    7  N1  UNL     1      -0.802  -0.682  -0.622  1.00  0.00    -0.321 N 
HETATM    8  C7  UNL     1      -1.285  -1.928  -0.566  1.00  0.00     0.081 A 
HETATM    9  C8  UNL     1      -0.683  -3.192  -1.085  1.00  0.00     0.089 C 
HETATM   10  N2  UNL     1      -2.492  -1.929   0.069  1.00  0.00    -0.339 N 
HETATM   11  C9  UNL     1      -2.745  -0.656   0.405  1.00  0.00     0.148 A 
ATOM     12  H2  UNL     1      -3.085  -2.738   0.252  1.00  0.00     0.167 HD
HETATM   13  C10 UNL     1      -3.823  -0.113   1.059  1.00  0.00     0.290 A 
HETATM   14  C12 UNL     1      -1.688   0.132  -0.026  1.00  0.00     0.157 A 
HETATM   15  O1  UNL     1      -4.754  -0.865   1.429  1.00  0.00    -0.265 OA
HETATM   16  N3  UNL     1      -3.863   1.195   1.289  1.00  0.00    -0.154 N 
HETATM   17  C11 UNL     1      -2.847   1.977   0.878  1.00  0.00     0.680 A 
ATOM     18  H3  UNL     1      -4.660   1.605   1.775  1.00  0.00     0.187 HD
HETATM   19  N5  UNL     1      -1.800   1.445   0.242  1.00  0.00    -0.174 N 
ATOM     20  H5  UNL     1      -1.047   2.066  -0.055  1.00  0.00     0.186 HD
BRANCH  17  21
HETATM   21  N4  UNL     1      -2.936   3.238   1.126  1.00  0.00    -0.234 N 
ATOM     22  H42 UNL     1      -3.736   3.644   1.612  1.00  0.00     0.174 HD
ATOM     23  H41 UNL     1      -2.166   3.830   0.815  1.00  0.00     0.174 HD
ENDBRANCH  17  21
ENDBRANCH   6   7
ENDBRANCH   5   6
ENDBRANCH   4   5
ENDBRANCH   3   4
TORSDOF 5
