REMARK  15 active torsions:
REMARK  status: ('A' for Active; 'I' for Inactive)
REMARK    1  A    between atoms: C2_2  and  C3_3 
REMARK    2  A    between atoms: C3_3  and  C5_5 
REMARK    3  A    between atoms: C5_5  and  C6_6 
REMARK    4  A    between atoms: C5_5  and  N1_9 
REMARK    5  A    between atoms: C6_6  and  O1_7 
REMARK       I    between atoms: N1_9  and  C8_11 
REMARK    6  A    between atoms: C8_11  and  C9_13 
REMARK    7  A    between atoms: C9_13  and  C10_14 
REMARK    8  A    between atoms: C10_14  and  N2_15 
REMARK       I    between atoms: N3_19  and  C14_20 
REMARK    9  A    between atoms: C14_20  and  C15_22 
REMARK   10  A    between atoms: C15_22  and  N4_23 
REMARK   11  A    between atoms: C15_22  and  C27_41 
REMARK       I    between atoms: N4_23  and  C16_25 
REMARK   12  A    between atoms: C16_25  and  C17_27 
REMARK   13  A    between atoms: C17_27  and  N5_28 
REMARK       I    between atoms: N5_28  and  C18_30 
REMARK   14  A    between atoms: C18_30  and  O6_32 
REMARK   15  A    between atoms: O6_32  and  C19_33 
ROOT
HETATM    1  N2  UNL     1       2.613  -0.943  -1.735  1.00  0.00    -0.391 N 
HETATM    2  C11 UNL     1       2.317  -1.912  -0.761  1.00  0.00     0.059 C 
HETATM    3  C12 UNL     1       2.150  -1.258   0.587  1.00  0.00     0.064 C 
HETATM    4  C13 UNL     1       0.723  -0.824   0.768  1.00  0.00     0.131 C 
HETATM    5  N3  UNL     1       0.041  -0.519  -0.470  1.00  0.00    -0.348 N 
HETATM    6  C14 UNL     1      -1.242  -1.042  -0.661  1.00  0.00     0.245 C 
HETATM    7  O3  UNL     1      -1.808  -0.737  -1.775  1.00  0.00    -0.271 OA
HETATM    8  C30 UNL     1       0.513   0.306  -1.588  1.00  0.00     0.145 C 
HETATM    9  C31 UNL     1       2.022   0.336  -1.636  1.00  0.00     0.141 C 
ENDROOT
BRANCH   6  10
HETATM   10  C15 UNL     1      -2.030  -1.902   0.262  1.00  0.00     0.213 C 
BRANCH  10  11
HETATM   11  N4  UNL     1      -3.435  -1.554  -0.046  1.00  0.00    -0.343 N 
HETATM   12  C16 UNL     1      -4.121  -0.562   0.666  1.00  0.00     0.246 C 
HETATM   13  O4  UNL     1      -3.542   0.060   1.586  1.00  0.00    -0.271 OA
ATOM     14  H4  UNL     1      -3.916  -2.050  -0.796  1.00  0.00     0.163 HD
BRANCH  12  15
HETATM   15  C17 UNL     1      -5.533  -0.211   0.359  1.00  0.00     0.116 C 
HETATM   16  C23 UNL     1      -5.819  -0.291  -1.101  1.00  0.00     0.041 C 
HETATM   17  C24 UNL     1      -6.539  -1.587  -1.357  1.00  0.00     0.003 C 
HETATM   18  C25 UNL     1      -6.690  -2.282  -0.036  1.00  0.00     0.003 C 
HETATM   19  C26 UNL     1      -6.481  -1.221   0.994  1.00  0.00     0.041 C 
BRANCH  15  20
HETATM   20  N5  UNL     1      -5.875   1.093   0.874  1.00  0.00    -0.319 N 
HETATM   21  C18 UNL     1      -7.119   1.741   0.739  1.00  0.00     0.362 C 
HETATM   22  O5  UNL     1      -8.132   1.283   0.157  1.00  0.00    -0.238 OA
ATOM     23  H5  UNL     1      -5.147   1.593   1.384  1.00  0.00     0.166 HD
BRANCH  21  24
HETATM   24  O6  UNL     1      -7.267   3.016   1.293  1.00  0.00    -0.294 OA
BRANCH  24  25
HETATM   25  C19 UNL     1      -8.484   3.724   1.188  1.00  0.00     0.061 C 
HETATM   26  C20 UNL     1      -8.874   3.948  -0.255  1.00  0.00     0.046 C 
HETATM   27  C21 UNL     1      -9.611   3.138   1.970  1.00  0.00     0.046 C 
HETATM   28  C22 UNL     1      -8.190   5.101   1.815  1.00  0.00     0.046 C 
ENDBRANCH  24  25
ENDBRANCH  21  24
ENDBRANCH  15  20
ENDBRANCH  12  15
ENDBRANCH  10  11
BRANCH  10  29
HETATM   29  C27 UNL     1      -1.887  -3.359   0.039  1.00  0.00     0.107 A 
HETATM   30  C28 UNL     1      -2.877  -4.018  -0.920  1.00  0.00     0.051 C 
HETATM   31  C29 UNL     1      -1.631  -4.207   1.265  1.00  0.00     0.209 A 
HETATM   32  O7  UNL     1      -0.686  -4.038   0.254  1.00  0.00    -0.373 OA
ENDBRANCH  10  29
ENDBRANCH   6  10
BRANCH   1  33
HETATM   33  C10 UNL     1       3.886  -0.915  -2.342  1.00  0.00     0.131 C 
BRANCH  33  34
HETATM   34  C9  UNL     1       5.009  -0.517  -1.406  1.00  0.00     0.122 C 
BRANCH  34  35
HETATM   35  C8  UNL     1       6.299  -0.469  -2.127  1.00  0.00     0.221 C 
HETATM   36  N1  UNL     1       7.495  -0.307  -1.419  1.00  0.00    -0.349 N 
HETATM   37  C7  UNL     1       8.709  -0.204  -2.205  1.00  0.00     0.153 C 
HETATM   38  O2  UNL     1       6.291  -0.570  -3.366  1.00  0.00    -0.273 OA
BRANCH  36  39
HETATM   39  C5  UNL     1       7.602  -0.226  -0.005  1.00  0.00     0.114 C 
BRANCH  39  40
HETATM   40  C3  UNL     1       8.301   0.984   0.542  1.00  0.00     0.006 C 
HETATM   41  C4  UNL     1       8.250   0.869   2.051  1.00  0.00     0.012 C 
BRANCH  40  42
HETATM   42  C2  UNL     1       7.643   2.282   0.166  1.00  0.00     0.002 C 
HETATM   43  C1  UNL     1       8.416   3.392   0.839  1.00  0.00     0.005 C 
ENDBRANCH  40  42
ENDBRANCH  39  40
BRANCH  39  44
HETATM   44  C6  UNL     1       8.414  -1.433   0.482  1.00  0.00     0.189 C 
BRANCH  44  45
HETATM   45  O1  UNL     1       9.698  -1.445  -0.069  1.00  0.00    -0.399 OA
ATOM     46  H1  UNL     1      10.201  -2.192   0.233  1.00  0.00     0.209 HD
ENDBRANCH  44  45
ENDBRANCH  39  44
ENDBRANCH  36  39
ENDBRANCH  34  35
ENDBRANCH  33  34
ENDBRANCH   1  33
TORSDOF 15
