REMARK  15 active torsions:
REMARK  status: ('A' for Active; 'I' for Inactive)
REMARK    1  A    between atoms: N3_4  and  C2_6 
REMARK    2  A    between atoms: C2_6  and  C3_7 
REMARK    3  A    between atoms: C3_7  and  C4_8 
REMARK    4  A    between atoms: C4_8  and  C5_9 
REMARK    5  A    between atoms: C16_22  and  C17_23 
REMARK    6  A    between atoms: C18_24  and  C19_25 
REMARK    7  A    between atoms: C19_25  and  C20_26 
REMARK    8  A    between atoms: C20_26  and  C21_27 
REMARK    9  A    between atoms: C21_27  and  C22_28 
REMARK   10  A    between atoms: C22_28  and  C23_29 
REMARK   11  A    between atoms: C23_29  and  C24_30 
REMARK   12  A    between atoms: C24_30  and  C25_31 
REMARK       I    between atoms: C25_31  and  N4_33 
REMARK   13  A    between atoms: C30_39  and  O5_40 
REMARK   14  A    between atoms: N5_42  and  N6_43 
REMARK   15  A    between atoms: C31_46  and  O6_47 
ROOT
HETATM    1  C5  UNL     1      -3.651   0.625  -0.198  1.00  0.00     0.062 C 
HETATM    2  C6  UNL     1      -4.832   0.194   0.674  1.00  0.00     0.013 C 
HETATM    3  C7  UNL     1      -4.430  -0.771   1.762  1.00  0.00     0.001 C 
HETATM    4  C8  UNL     1      -5.457  -1.858   1.987  1.00  0.00     0.004 C 
HETATM    5  C9  UNL     1      -4.884  -3.237   1.762  1.00  0.00     0.027 C 
HETATM    6  C10 UNL     1      -4.003  -3.645   2.889  1.00  0.00    -0.031 C 
HETATM    7  C11 UNL     1      -3.076  -4.591   2.800  1.00  0.00    -0.031 C 
HETATM    8  C12 UNL     1      -2.784  -5.377   1.569  1.00  0.00     0.027 C 
HETATM    9  C13 UNL     1      -1.317  -5.452   1.269  1.00  0.00     0.013 C 
HETATM   10  C14 UNL     1      -0.681  -4.170   0.850  1.00  0.00     0.111 C 
HETATM   11  C15 UNL     1      -1.326  -3.561  -0.335  1.00  0.00     0.259 C 
HETATM   12  O1  UNL     1      -1.823  -4.388  -1.168  1.00  0.00    -0.265 OA
HETATM   13  O2  UNL     1      -1.382  -2.239  -0.514  1.00  0.00    -0.304 OA
HETATM   14  C16 UNL     1      -0.470  -1.218  -0.670  1.00  0.00     0.230 C 
HETATM   15  C30 UNL     1      -0.428  -0.226   0.436  1.00  0.00     0.172 C 
HETATM   16  N5  UNL     1      -1.204   0.917   0.641  1.00  0.00    -0.223 N 
HETATM   17  C31 UNL     1      -2.583   1.166   0.667  1.00  0.00     0.143 C 
ENDROOT
BRANCH  14  18
HETATM   18  C17 UNL     1      -0.615  -0.602  -2.024  1.00  0.00     0.010 C 
HETATM   19  C18 UNL     1       0.333  -0.122  -2.771  1.00  0.00    -0.028 C 
BRANCH  19  20
HETATM   20  C19 UNL     1       1.756  -0.099  -2.400  1.00  0.00     0.027 C 
BRANCH  20  21
HETATM   21  C20 UNL     1       2.289   1.329  -2.389  1.00  0.00     0.004 C 
BRANCH  21  22
HETATM   22  C21 UNL     1       3.735   1.336  -2.009  1.00  0.00     0.000 C 
BRANCH  22  23
HETATM   23  C22 UNL     1       4.631   0.546  -2.915  1.00  0.00     0.000 C 
BRANCH  23  24
HETATM   24  C23 UNL     1       6.067   0.633  -2.467  1.00  0.00     0.009 C 
BRANCH  24  25
HETATM   25  C24 UNL     1       6.304   0.126  -1.072  1.00  0.00     0.103 C 
BRANCH  25  26
HETATM   26  C25 UNL     1       7.745   0.250  -0.729  1.00  0.00     0.219 C 
HETATM   27  O3  UNL     1       8.565   0.642  -1.587  1.00  0.00    -0.273 OA
HETATM   28  N4  UNL     1       8.197  -0.072   0.565  1.00  0.00    -0.348 N 
HETATM   29  C26 UNL     1       9.618   0.062   0.888  1.00  0.00     0.152 C 
HETATM   30  C29 UNL     1       7.296  -0.542   1.625  1.00  0.00     0.152 C 
HETATM   31  C27 UNL     1       9.751   0.650   2.287  1.00  0.00     0.187 C 
HETATM   32  O4  UNL     1       8.998  -0.063   3.213  1.00  0.00    -0.388 OA
HETATM   33  C28 UNL     1       7.652   0.157   2.927  1.00  0.00     0.187 C 
ENDBRANCH  25  26
ENDBRANCH  24  25
ENDBRANCH  23  24
ENDBRANCH  22  23
ENDBRANCH  21  22
ENDBRANCH  20  21
ENDBRANCH  19  20
ENDBRANCH  14  18
BRANCH  15  34
HETATM   34  O5  UNL     1       0.497  -0.536   1.306  1.00  0.00    -0.346 OA
ATOM     35  H5  UNL     1       0.524   0.098   2.013  1.00  0.00     0.219 HD
ENDBRANCH  15  34
BRANCH  16  36
HETATM   36  N6  UNL     1      -0.430   2.109   0.898  1.00  0.00    -0.335 N 
ATOM     37  H62 UNL     1       0.574   1.928   0.879  1.00  0.00     0.177 HD
ATOM     38  H61 UNL     1      -0.997   2.944   1.048  1.00  0.00     0.177 HD
ENDBRANCH  16  36
BRANCH  17  39
HETATM   39  O6  UNL     1      -3.112   1.980   1.543  1.00  0.00    -0.348 OA
ATOM     40  H6  UNL     1      -2.425   2.328   2.099  1.00  0.00     0.219 HD
ENDBRANCH  17  39
BRANCH   1  41
HETATM   41  C4  UNL     1      -4.185   1.603  -1.214  1.00  0.00     0.014 C 
BRANCH  41  42
HETATM   42  C3  UNL     1      -4.812   2.828  -0.675  1.00  0.00     0.020 C 
BRANCH  42  43
HETATM   43  C2  UNL     1      -5.335   3.746  -1.790  1.00  0.00     0.122 C 
BRANCH  43  44
HETATM   44  N3  UNL     1      -5.921   4.885  -1.074  1.00  0.00    -0.367 N 
HETATM   45  C1  UNL     1      -7.071   5.375  -1.349  1.00  0.00     0.196 C 
HETATM   46  N1  UNL     1      -7.875   4.835  -2.390  1.00  0.00    -0.067 NA
HETATM   47  N2  UNL     1      -7.541   6.473  -0.598  1.00  0.00    -0.067 NA
ATOM     48  H3  UNL     1      -5.384   5.308  -0.317  1.00  0.00     0.161 HD
ENDBRANCH  43  44
ENDBRANCH  42  43
ENDBRANCH  41  42
ENDBRANCH   1  41
TORSDOF 15
