REMARK  14 active torsions:
REMARK  status: ('A' for Active; 'I' for Inactive)
REMARK    1  A    between atoms: C9_10  and  C10_11 
REMARK       I    between atoms: C10_11  and  N1_13 
REMARK    2  A    between atoms: N1_13  and  C11_14 
REMARK    3  A    between atoms: C11_14  and  C12_15 
REMARK    4  A    between atoms: C12_15  and  O3_16 
REMARK    5  A    between atoms: O3_16  and  C13_17 
REMARK    6  A    between atoms: C13_17  and  C14_18 
REMARK    7  A    between atoms: C14_18  and  O4_19 
REMARK    8  A    between atoms: O4_19  and  C15_20 
REMARK    9  A    between atoms: C15_20  and  C16_21 
REMARK   10  A    between atoms: C16_21  and  O5_22 
REMARK   11  A    between atoms: O5_22  and  N2_23 
REMARK   12  A    between atoms: N2_23  and  O6_24 
REMARK   13  A    between atoms: N3_26  and  C17_28 
REMARK   14  A    between atoms: C23_37  and  C24_38 
ROOT
HETATM    1  C1  UNL     1      -1.952  -1.681  -3.948  1.00  0.00     0.023 C 
HETATM    2  C2  UNL     1      -2.188  -1.270  -2.714  1.00  0.00    -0.016 C 
HETATM    3  C3  UNL     1      -2.420  -2.186  -1.591  1.00  0.00     0.173 C 
HETATM    4  O1  UNL     1      -2.466  -3.419  -1.665  1.00  0.00    -0.291 OA
HETATM    5  C4  UNL     1      -2.599  -1.386  -0.331  1.00  0.00     0.084 C 
HETATM    6  C5  UNL     1      -2.705  -2.100   0.902  1.00  0.00    -0.007 C 
HETATM    7  C6  UNL     1      -2.089  -1.393   1.855  1.00  0.00    -0.024 C 
HETATM    8  C7  UNL     1      -1.516  -0.119   1.269  1.00  0.00     0.024 C 
HETATM    9  C8  UNL     1      -2.369   1.002   1.652  1.00  0.00     0.015 C 
HETATM   10  C9  UNL     1      -1.392  -0.508  -0.152  1.00  0.00     0.084 C 
HETATM   11  C19 UNL     1      -1.301   0.510  -1.195  1.00  0.00     0.032 C 
HETATM   12  C20 UNL     1      -2.245   0.174  -2.368  1.00  0.00     0.027 C 
HETATM   13  C21 UNL     1      -3.650   0.405  -1.760  1.00  0.00     0.045 C 
HETATM   14  C22 UNL     1      -3.799  -0.571  -0.686  1.00  0.00    -0.058 C 
HETATM   15  C23 UNL     1      -4.932  -0.765  -0.066  1.00  0.00     0.005 C 
ENDROOT
BRANCH  10  16
HETATM   16  C10 UNL     1      -0.093  -1.343  -0.175  1.00  0.00     0.302 C 
HETATM   17  O2  UNL     1      -0.181  -2.555  -0.449  1.00  0.00    -0.256 OA
HETATM   18  N1  UNL     1       1.079  -0.699   0.108  1.00  0.00    -0.385 NA
BRANCH  18  19
HETATM   19  C11 UNL     1       2.260  -0.050   0.392  1.00  0.00     0.185 C 
BRANCH  19  20
HETATM   20  C12 UNL     1       3.292  -0.100  -0.731  1.00  0.00     0.227 C 
BRANCH  20  21
HETATM   21  O3  UNL     1       4.470   0.525  -0.483  1.00  0.00    -0.383 OA
BRANCH  21  22
HETATM   22  C13 UNL     1       5.210   0.063   0.568  1.00  0.00     0.194 C 
BRANCH  22  23
HETATM   23  C14 UNL     1       5.558  -1.395   0.453  1.00  0.00     0.193 C 
BRANCH  23  24
HETATM   24  O4  UNL     1       6.274  -1.651  -0.674  1.00  0.00    -0.387 OA
BRANCH  24  25
HETATM   25  C15 UNL     1       7.455  -0.985  -0.775  1.00  0.00     0.196 C 
BRANCH  25  26
HETATM   26  C16 UNL     1       8.380  -1.313   0.374  1.00  0.00     0.232 C 
BRANCH  26  27
HETATM   27  O5  UNL     1       9.610  -0.592   0.201  1.00  0.00    -0.236 OA
BRANCH  27  28
HETATM   28  N2  UNL     1      10.605  -0.740   1.112  1.00  0.00    -0.054 N 
HETATM   29  N3  UNL     1      11.518   0.116   1.206  1.00  0.00    -0.243 N 
ATOM     30  H3  UNL     1      12.256  -0.017   1.897  1.00  0.00     0.193 HD
BRANCH  28  31
HETATM   31  O6  UNL     1      10.657  -1.833   1.966  1.00  0.00    -0.248 OA
ATOM     32  H6  UNL     1      11.353  -1.937   2.604  1.00  0.00     0.249 HD
ENDBRANCH  28  31
BRANCH  29  33
HETATM   33  C17 UNL     1      11.548   1.265   0.373  1.00  0.00     0.089 C 
HETATM   34  C18 UNL     1      12.295   1.281  -0.904  1.00  0.00     0.090 C 
HETATM   35  N4  UNL     1      10.893   2.312   0.774  1.00  0.00    -0.388 N 
ATOM     36  H42 UNL     1      10.378   2.301   1.654  1.00  0.00     0.157 HD
ATOM     37  H41 UNL     1      10.915   3.138   0.175  1.00  0.00     0.157 HD
ENDBRANCH  29  33
ENDBRANCH  27  28
ENDBRANCH  26  27
ENDBRANCH  25  26
ENDBRANCH  24  25
ENDBRANCH  23  24
ENDBRANCH  22  23
ENDBRANCH  21  22
ENDBRANCH  20  21
ENDBRANCH  19  20
ENDBRANCH  18  19
ENDBRANCH  10  16
BRANCH  15  38
HETATM   38  C24 UNL     1      -6.078   0.046  -0.444  1.00  0.00     0.013 C 
HETATM   39  C25 UNL     1      -7.291   0.000   0.040  1.00  0.00     0.014 C 
HETATM   40  C26 UNL     1      -8.351   0.938  -0.495  1.00  0.00     0.088 C 
HETATM   41  C31 UNL     1      -7.759  -0.901   1.070  1.00  0.00     0.254 C 
HETATM   42  C27 UNL     1      -9.004   1.590   0.709  1.00  0.00     0.010 C 
HETATM   43  C28 UNL     1      -9.103   2.889   0.727  1.00  0.00    -0.018 C 
HETATM   44  C30 UNL     1      -9.480   0.695   1.749  1.00  0.00     0.254 C 
HETATM   45  C29 UNL     1      -9.671   3.775   1.731  1.00  0.00     0.036 C 
HETATM   46  O7  UNL     1     -10.457   1.057   2.479  1.00  0.00    -0.268 OA
HETATM   47  N5  UNL     1      -8.860  -0.568   1.942  1.00  0.00    -0.290 N 
ATOM     48  H5  UNL     1      -9.179  -1.212   2.666  1.00  0.00     0.172 HD
HETATM   49  O8  UNL     1      -7.177  -2.017   1.201  1.00  0.00    -0.268 OA
ENDBRANCH  15  38
TORSDOF 14
