REMARK  14 active torsions:
REMARK  status: ('A' for Active; 'I' for Inactive)
REMARK       I    between atoms: N1_2  and  C2_4 
REMARK       I    between atoms: C2_4  and  N7_39 
REMARK    1  A    between atoms: N2_5  and  C3_7 
REMARK    2  A    between atoms: C3_7  and  C4_8 
REMARK    3  A    between atoms: C4_8  and  C5_9 
REMARK    4  A    between atoms: C5_9  and  C6_10 
REMARK    5  A    between atoms: C6_10  and  N3_11 
REMARK    6  A    between atoms: C6_10  and  C17_28 
REMARK       I    between atoms: N3_11  and  C7_13 
REMARK    7  A    between atoms: C7_13  and  C8_15 
REMARK    8  A    between atoms: C8_15  and  N4_16 
REMARK    9  A    between atoms: C8_15  and  C14_25 
REMARK       I    between atoms: N4_16  and  C9_18 
REMARK   10  A    between atoms: C9_18  and  O3_20 
REMARK   11  A    between atoms: O3_20  and  C10_21 
REMARK       I    between atoms: C17_28  and  N5_30 
REMARK   12  A    between atoms: N5_30  and  C19_32 
REMARK   13  A    between atoms: C19_32  and  C20_33 
REMARK   14  A    between atoms: N8_42  and  C25_43 
ROOT
HETATM    1  C6  UNL     1      -1.447   2.239   0.304  1.00  0.00     0.176 C 
ENDROOT
BRANCH   1   2
HETATM    2  C5  UNL     1      -0.202   1.443  -0.141  1.00  0.00     0.036 C 
BRANCH   2   3
HETATM    3  C4  UNL     1       0.078   0.256   0.707  1.00  0.00     0.023 C 
BRANCH   3   4
HETATM    4  C3  UNL     1       1.297  -0.518   0.205  1.00  0.00     0.138 C 
BRANCH   4   5
HETATM    5  N2  UNL     1       2.467   0.299   0.209  1.00  0.00    -0.226 N 
HETATM    6  C2  UNL     1       3.675  -0.049   0.041  1.00  0.00     0.671 C 
HETATM    7  N1  UNL     1       4.661   0.995   0.096  1.00  0.00    -0.231 N 
HETATM    8  N7  UNL     1       4.167  -1.351  -0.195  1.00  0.00    -0.215 N 
HETATM    9  C1  UNL     1       4.700   1.901   1.221  1.00  0.00     0.165 C 
ATOM     10  H1  UNL     1       5.336   1.097  -0.662  1.00  0.00     0.177 HD
HETATM   11  C23 UNL     1       4.595  -2.160   0.927  1.00  0.00     0.171 C 
HETATM   12  C29 UNL     1       4.283  -1.952  -1.505  1.00  0.00     0.171 C 
HETATM   13  C24 UNL     1       5.529  -3.236   0.456  1.00  0.00     0.293 C 
HETATM   14  N8  UNL     1       6.405  -2.833  -0.614  1.00  0.00     0.095 N 
HETATM   15  C28 UNL     1       5.730  -2.342  -1.775  1.00  0.00     0.293 C 
ATOM     16  H2  UNL     1       2.311   1.294   0.368  1.00  0.00     0.177 HD
BRANCH  14  17
HETATM   17  C25 UNL     1       7.422  -1.916  -0.201  1.00  0.00     0.215 C 
HETATM   18  C26 UNL     1       8.319  -2.577   0.836  1.00  0.00     0.042 C 
HETATM   19  C27 UNL     1       8.256  -1.540  -1.411  1.00  0.00     0.042 C 
ENDBRANCH  14  17
ENDBRANCH   4   5
ENDBRANCH   3   4
ENDBRANCH   2   3
ENDBRANCH   1   2
BRANCH   1  20
HETATM   20  N3  UNL     1      -2.669   1.537   0.181  1.00  0.00    -0.346 N 
HETATM   21  C7  UNL     1      -3.075   0.382  -0.452  1.00  0.00     0.241 C 
HETATM   22  O1  UNL     1      -2.271  -0.325  -1.155  1.00  0.00    -0.271 OA
ATOM     23  H3  UNL     1      -3.432   1.995   0.680  1.00  0.00     0.163 HD
BRANCH  21  24
HETATM   24  C8  UNL     1      -4.431  -0.203  -0.415  1.00  0.00     0.182 C 
BRANCH  24  25
HETATM   25  N4  UNL     1      -4.423  -1.608  -0.815  1.00  0.00    -0.323 N 
HETATM   26  C9  UNL     1      -4.928  -2.550   0.130  1.00  0.00     0.362 C 
HETATM   27  O2  UNL     1      -5.363  -2.193   1.262  1.00  0.00    -0.238 OA
ATOM     28  H4  UNL     1      -4.073  -1.902  -1.727  1.00  0.00     0.165 HD
BRANCH  26  29
HETATM   29  O3  UNL     1      -4.985  -3.914  -0.106  1.00  0.00    -0.294 OA
BRANCH  29  30
HETATM   30  C10 UNL     1      -5.457  -4.879   0.751  1.00  0.00     0.061 C 
HETATM   31  C11 UNL     1      -6.927  -4.612   1.091  1.00  0.00     0.046 C 
HETATM   32  C12 UNL     1      -5.462  -6.211  -0.013  1.00  0.00     0.046 C 
HETATM   33  C13 UNL     1      -4.739  -5.089   2.028  1.00  0.00     0.046 C 
ENDBRANCH  29  30
ENDBRANCH  26  29
ENDBRANCH  24  25
BRANCH  24  34
HETATM   34  C14 UNL     1      -5.357   0.559  -1.329  1.00  0.00     0.009 C 
HETATM   35  C15 UNL     1      -5.522   1.993  -0.926  1.00  0.00     0.012 C 
HETATM   36  C16 UNL     1      -4.884   0.466  -2.783  1.00  0.00     0.012 C 
ENDBRANCH  24  34
ENDBRANCH  21  24
ENDBRANCH   1  20
BRANCH   1  37
HETATM   37  C17 UNL     1      -1.345   3.586  -0.178  1.00  0.00     0.242 C 
HETATM   38  O4  UNL     1      -2.228   4.004  -1.007  1.00  0.00    -0.271 OA
HETATM   39  N5  UNL     1      -0.364   4.525   0.168  1.00  0.00    -0.349 N 
HETATM   40  C18 UNL     1       0.673   4.222   1.117  1.00  0.00     0.153 C 
BRANCH  39  41
HETATM   41  C19 UNL     1      -0.350   5.854  -0.407  1.00  0.00     0.190 C 
BRANCH  41  42
HETATM   42  C20 UNL     1      -1.151   6.801   0.424  1.00  0.00     0.068 A 
HETATM   43  N6  UNL     1      -1.427   8.060   0.142  1.00  0.00    -0.362 N 
HETATM   44  C21 UNL     1      -2.136   8.763   0.962  1.00  0.00     0.096 A 
ATOM     45  H6  UNL     1      -1.081   8.478  -0.722  1.00  0.00     0.165 HD
HETATM   46  C22 UNL     1      -2.580   8.160   2.110  1.00  0.00     0.068 A 
HETATM   47  S1  UNL     1      -1.927   6.580   1.926  1.00  0.00    -0.086 SA
ENDBRANCH  41  42
ENDBRANCH  39  41
ENDBRANCH   1  37
TORSDOF 14
