REMARK  18 active torsions:
REMARK  status: ('A' for Active; 'I' for Inactive)
REMARK    1  A    between atoms: C2_2  and  C3_3 
REMARK    2  A    between atoms: C3_3  and  C4_4 
REMARK    3  A    between atoms: C4_4  and  O1_5 
REMARK    4  A    between atoms: O1_5  and  C5_6 
REMARK    5  A    between atoms: N2_9  and  C6_10 
REMARK    6  A    between atoms: C6_10  and  O2_11 
REMARK    7  A    between atoms: C6_10  and  C7_13 
REMARK    8  A    between atoms: C7_13  and  N3_14 
REMARK    9  A    between atoms: C7_13  and  C18_31 
REMARK   10  A    between atoms: N3_14  and  C8_16 
REMARK   11  A    between atoms: C8_16  and  O3_17 
REMARK   12  A    between atoms: C8_16  and  C9_19 
REMARK   13  A    between atoms: C9_19  and  O4_20 
REMARK   14  A    between atoms: C9_19  and  C10_22 
REMARK   15  A    between atoms: C10_22  and  C11_24 
REMARK   16  A    between atoms: C22_35  and  C23_36 
REMARK       I    between atoms: C23_36  and  N4_38 
REMARK   17  A    between atoms: N5_41  and  C26_42 
REMARK   18  A    between atoms: C26_42  and  C27_43 
ROOT
HETATM    1  C6  UNL     1       0.581   0.786  -1.676  1.00  0.00     0.181 C 
ENDROOT
BRANCH   1   2
HETATM    2  N2  UNL     1      -0.518   1.372  -1.049  1.00  0.00    -0.253 N 
HETATM    3  N1  UNL     1      -0.836   2.599  -0.508  1.00  0.00    -0.278 N 
HETATM    4  C5  UNL     1      -2.083   2.869  -0.477  1.00  0.00     0.135 C 
ATOM      5  H1  UNL     1      -0.127   3.244  -0.158  1.00  0.00     0.189 HD
HETATM    6  C32 UNL     1      -2.783   1.701  -1.069  1.00  0.00     0.122 C 
HETATM    7  C22 UNL     1      -1.781   0.587  -0.826  1.00  0.00     0.210 C 
BRANCH   4   8
HETATM    8  O1  UNL     1      -2.688   4.048   0.021  1.00  0.00    -0.338 OA
BRANCH   8   9
HETATM    9  C4  UNL     1      -2.019   5.272  -0.185  1.00  0.00     0.177 C 
BRANCH   9  10
HETATM   10  C3  UNL     1      -1.820   5.574  -1.655  1.00  0.00     0.026 C 
BRANCH  10  11
HETATM   11  C2  UNL     1      -1.098   6.909  -1.751  1.00  0.00    -0.002 C 
HETATM   12  C1  UNL     1      -2.000   7.947  -1.076  1.00  0.00     0.005 C 
ENDBRANCH  10  11
ENDBRANCH   9  10
ENDBRANCH   8   9
ENDBRANCH   4   8
BRANCH   7  13
HETATM   13  C23 UNL     1      -1.888   0.185   0.596  1.00  0.00     0.245 C 
HETATM   14  O6  UNL     1      -1.108   0.561   1.502  1.00  0.00    -0.271 OA
HETATM   15  N4  UNL     1      -2.949  -0.684   0.944  1.00  0.00    -0.347 N 
HETATM   16  C24 UNL     1      -3.167  -1.141   2.318  1.00  0.00     0.156 C 
HETATM   17  C31 UNL     1      -3.908  -1.207  -0.029  1.00  0.00     0.156 C 
HETATM   18  C25 UNL     1      -4.157  -2.284   2.269  1.00  0.00     0.292 C 
HETATM   19  N5  UNL     1      -5.404  -1.941   1.663  1.00  0.00     0.091 N 
HETATM   20  C30 UNL     1      -5.279  -1.018   0.544  1.00  0.00     0.292 C 
BRANCH  19  21
HETATM   21  C26 UNL     1      -6.153  -3.066   1.189  1.00  0.00     0.276 C 
BRANCH  21  22
HETATM   22  C27 UNL     1      -6.656  -3.924   2.335  1.00  0.00     0.006 C 
HETATM   23  C28 UNL     1      -7.427  -5.076   1.715  1.00  0.00     0.011 C 
HETATM   24  C29 UNL     1      -7.654  -3.150   3.179  1.00  0.00     0.011 C 
ENDBRANCH  21  22
ENDBRANCH  19  21
ENDBRANCH   7  13
ENDBRANCH   1   2
BRANCH   1  25
HETATM   25  O2  UNL     1       0.363  -0.468  -1.999  1.00  0.00    -0.344 OA
ATOM     26  H2  UNL     1       1.112  -0.867  -2.426  1.00  0.00     0.219 HD
ENDBRANCH   1  25
BRANCH   1  27
HETATM   27  C7  UNL     1       1.893   1.340  -2.015  1.00  0.00     0.067 C 
BRANCH  27  28
HETATM   28  N3  UNL     1       2.799   0.442  -2.584  1.00  0.00    -0.361 N 
ATOM     29  H3  UNL     1       3.138   0.710  -3.508  1.00  0.00     0.162 HD
BRANCH  28  30
HETATM   30  C8  UNL     1       3.306  -0.732  -2.113  1.00  0.00     0.254 C 
BRANCH  30  31
HETATM   31  O3  UNL     1       4.167  -1.243  -3.164  1.00  0.00    -0.374 OA
ATOM     32  H3  UNL     1       4.520  -2.061  -2.836  1.00  0.00     0.212 HD
ENDBRANCH  30  31
BRANCH  30  33
HETATM   33  C9  UNL     1       4.155  -0.821  -0.889  1.00  0.00     0.236 C 
BRANCH  33  34
HETATM   34  O4  UNL     1       3.593  -0.451   0.299  1.00  0.00    -0.384 OA
ATOM     35  H4  UNL     1       4.133  -0.508   1.078  1.00  0.00     0.210 HD
ENDBRANCH  33  34
BRANCH  33  36
HETATM   36  C10 UNL     1       4.694  -2.210  -0.691  1.00  0.00     0.168 C 
HETATM   37  O5  UNL     1       5.179  -2.752  -1.665  1.00  0.00    -0.294 OA
BRANCH  36  38
HETATM   38  C11 UNL     1       4.656  -2.916   0.609  1.00  0.00     0.020 C 
HETATM   39  C12 UNL     1       3.204  -3.040   1.088  1.00  0.00     0.023 C 
HETATM   40  C13 UNL     1       5.186  -4.306   0.513  1.00  0.00     0.017 C 
HETATM   41  C14 UNL     1       6.621  -4.396   0.103  1.00  0.00     0.001 C 
HETATM   42  C15 UNL     1       7.424  -3.296   0.730  1.00  0.00     0.000 C 
HETATM   43  C16 UNL     1       6.747  -2.847   2.013  1.00  0.00     0.001 C 
HETATM   44  C17 UNL     1       5.417  -2.168   1.690  1.00  0.00     0.017 C 
ENDBRANCH  36  38
ENDBRANCH  33  36
ENDBRANCH  30  33
ENDBRANCH  28  30
ENDBRANCH  27  28
BRANCH  27  45
HETATM   45  C18 UNL     1       2.383   2.588  -1.380  1.00  0.00    -0.005 C 
HETATM   46  C19 UNL     1       3.830   2.797  -1.925  1.00  0.00     0.021 C 
HETATM   47  C20 UNL     1       2.321   2.738   0.081  1.00  0.00     0.021 C 
HETATM   48  C21 UNL     1       1.673   3.852  -1.954  1.00  0.00     0.021 C 
ENDBRANCH  27  45
ENDBRANCH   1  27
TORSDOF 18
