REMARK  12 active torsions:
REMARK  status: ('A' for Active; 'I' for Inactive)
REMARK    1  A    between atoms: S1_3  and  C3_5 
REMARK    2  A    between atoms: S1_3  and  N5_38 
REMARK    3  A    between atoms: C6_8  and  C7_9 
REMARK    4  A    between atoms: C7_9  and  C8_11 
REMARK       I    between atoms: C8_11  and  N1_13 
REMARK    5  A    between atoms: N1_13  and  C9_15 
REMARK    6  A    between atoms: C9_15  and  C11_17 
REMARK    7  A    between atoms: C9_15  and  C15_21 
REMARK    8  A    between atoms: C11_17  and  C12_18 
REMARK    9  A    between atoms: C15_21  and  C16_23 
REMARK       I    between atoms: C16_23  and  N2_25 
REMARK   10  A    between atoms: N2_25  and  C17_27 
REMARK   11  A    between atoms: C17_27  and  C18_28 
REMARK   12  A    between atoms: N5_38  and  C24_40 
ROOT
HETATM    1  C1  UNL     1      -2.657  -0.830  -2.261  1.00  0.00     0.028 C 
HETATM    2  C2  UNL     1      -3.315  -0.146  -1.495  1.00  0.00    -0.000 C 
HETATM    3  S1  UNL     1      -4.350   1.039  -0.137  1.00  0.00     0.129 S 
HETATM    4  O1  UNL     1      -4.156   2.352  -1.332  1.00  0.00    -0.231 OA
ENDROOT
BRANCH   3   5
HETATM    5  C3  UNL     1      -3.092   0.763   1.284  1.00  0.00     0.058 A 
HETATM    6  C4  UNL     1      -1.724   0.585   1.002  1.00  0.00     0.039 A 
HETATM    7  C5  UNL     1      -0.742   0.405   1.934  1.00  0.00     0.026 A 
HETATM    8  C6  UNL     1       0.642   0.214   1.845  1.00  0.00     0.116 A 
HETATM    9  C19 UNL     1      -1.074   0.391   3.246  1.00  0.00     0.061 A 
HETATM   10  N3  UNL     1       1.098   0.092   3.102  1.00  0.00    -0.295 N 
HETATM   11  N4  UNL     1       0.061   0.199   3.942  1.00  0.00    -0.299 N 
ATOM     12  H3  UNL     1       2.070  -0.057   3.371  1.00  0.00     0.187 HD
ATOM     13  H4  UNL     1       0.122   0.143   4.959  1.00  0.00     0.187 HD
HETATM   14  C20 UNL     1      -2.373   0.556   3.609  1.00  0.00     0.040 A 
HETATM   15  C21 UNL     1      -3.342   0.736   2.644  1.00  0.00    -0.039 A 
HETATM   16  C22 UNL     1      -4.725   0.949   3.137  1.00  0.00     0.050 C 
BRANCH   8  17
HETATM   17  C7  UNL     1       1.363   0.167   0.602  1.00  0.00     0.267 C 
HETATM   18  O2  UNL     1       0.790   0.306  -0.533  1.00  0.00    -0.280 OA
BRANCH  17  19
HETATM   19  C8  UNL     1       2.821  -0.041   0.481  1.00  0.00     0.295 C 
HETATM   20  O3  UNL     1       3.424  -0.183   1.540  1.00  0.00    -0.264 OA
HETATM   21  N1  UNL     1       3.448  -0.071  -0.765  1.00  0.00    -0.338 N 
ATOM     22  H1  UNL     1       2.812   0.072  -1.549  1.00  0.00     0.164 HD
BRANCH  21  23
HETATM   23  C9  UNL     1       4.804  -0.263  -1.154  1.00  0.00     0.100 C 
HETATM   24  C10 UNL     1       4.833  -0.018  -2.703  1.00  0.00     0.047 C 
BRANCH  23  25
HETATM   25  C11 UNL     1       5.384  -1.606  -1.008  1.00  0.00     0.043 C 
BRANCH  25  26
HETATM   26  C12 UNL     1       5.578  -2.292   0.262  1.00  0.00    -0.020 C 
HETATM   27  C13 UNL     1       6.514  -1.658   1.256  1.00  0.00     0.009 C 
HETATM   28  C14 UNL     1       6.256  -3.647  -0.078  1.00  0.00     0.009 C 
ENDBRANCH  25  26
ENDBRANCH  23  25
BRANCH  23  29
HETATM   29  C15 UNL     1       5.696   0.808  -0.629  1.00  0.00     0.244 C 
HETATM   30  O4  UNL     1       5.116   1.660   0.128  1.00  0.00    -0.284 OA
BRANCH  29  31
HETATM   31  C16 UNL     1       7.085   0.988  -0.868  1.00  0.00     0.290 C 
HETATM   32  O5  UNL     1       7.748   0.234  -1.605  1.00  0.00    -0.264 OA
HETATM   33  N2  UNL     1       7.792   2.060  -0.263  1.00  0.00    -0.348 N 
ATOM     34  H2  UNL     1       7.282   2.699   0.347  1.00  0.00     0.163 HD
BRANCH  33  35
HETATM   35  C17 UNL     1       9.195   2.283  -0.474  1.00  0.00     0.192 C 
BRANCH  35  36
HETATM   36  C18 UNL     1       9.675   3.460   0.269  1.00  0.00     0.250 C 
HETATM   37  O6  UNL     1       8.912   4.115   0.959  1.00  0.00    -0.305 OA
ENDBRANCH  35  36
ENDBRANCH  33  35
ENDBRANCH  29  31
ENDBRANCH  23  29
ENDBRANCH  21  23
ENDBRANCH  17  19
ENDBRANCH   8  17
ENDBRANCH   3   5
BRANCH   3  38
HETATM   38  N5  UNL     1      -5.784  -0.265  -0.323  1.00  0.00    -0.297 N 
HETATM   39  C23 UNL     1      -5.500  -1.545   0.280  1.00  0.00     0.167 C 
BRANCH  38  40
HETATM   40  C24 UNL     1      -7.006  -0.047  -0.934  1.00  0.00     0.054 A 
HETATM   41  C25 UNL     1      -7.267  -0.323  -2.249  1.00  0.00    -0.034 A 
HETATM   42  C26 UNL     1      -6.231  -0.940  -3.102  1.00  0.00     0.050 C 
HETATM   43  C27 UNL     1      -8.535  -0.056  -2.820  1.00  0.00     0.009 A 
HETATM   44  C28 UNL     1      -9.543   0.490  -2.064  1.00  0.00     0.001 A 
HETATM   45  C29 UNL     1      -9.307   0.776  -0.738  1.00  0.00     0.009 A 
HETATM   46  C30 UNL     1      -8.049   0.509  -0.181  1.00  0.00    -0.034 A 
HETATM   47  C31 UNL     1      -7.893   0.827   1.239  1.00  0.00     0.050 C 
ENDBRANCH  38  40
ENDBRANCH   3  38
TORSDOF 12
