REMARK  1 active torsions:
REMARK  status: ('A' for Active; 'I' for Inactive)
REMARK    1  A    between atoms: C10_10  and  O1_11 
ROOT
HETATM    1  C1  UNL     1      -1.517   2.954   0.103  1.00  0.00     0.046 C 
HETATM    2  C2  UNL     1      -1.673   1.633  -0.606  1.00  0.00     0.058 C 
HETATM    3  C3  UNL     1      -3.090   1.571  -1.126  1.00  0.00     0.038 C 
HETATM    4  C4  UNL     1      -4.110   1.339  -0.062  1.00  0.00     0.003 C 
HETATM    5  C5  UNL     1      -5.074   0.232  -0.447  1.00  0.00     0.000 C 
HETATM    6  C6  UNL     1      -4.965  -0.968   0.445  1.00  0.00     0.000 C 
HETATM    7  C7  UNL     1      -4.024  -2.017  -0.107  1.00  0.00     0.000 C 
HETATM    8  C8  UNL     1      -3.134  -2.597   0.974  1.00  0.00     0.002 C 
HETATM    9  C9  UNL     1      -1.671  -2.335   0.639  1.00  0.00     0.032 C 
HETATM   10  C10 UNL     1      -1.056  -1.569   1.757  1.00  0.00     0.120 C 
HETATM   11  C11 UNL     1       0.168  -0.789   1.378  1.00  0.00     0.069 C 
HETATM   12  C12 UNL     1      -0.111   0.481   0.641  1.00  0.00     0.193 C 
HETATM   13  O2  UNL     1      -1.364   0.542   0.133  1.00  0.00    -0.369 OA
HETATM   14  C13 UNL     1       1.001   0.692  -0.350  1.00  0.00     0.255 C 
HETATM   15  C14 UNL     1       0.666   1.657  -1.443  1.00  0.00     0.080 C 
HETATM   16  C15 UNL     1      -0.766   1.662  -1.832  1.00  0.00     0.043 C 
HETATM   17  O3  UNL     1       1.392  -0.509  -0.959  1.00  0.00    -0.192 OA
HETATM   18  O4  UNL     1       2.557  -0.337  -1.545  1.00  0.00    -0.195 OA
HETATM   19  C16 UNL     1       3.557  -0.209  -0.585  1.00  0.00     0.229 C 
HETATM   20  C17 UNL     1       4.141  -1.574  -0.354  1.00  0.00     0.074 C 
HETATM   21  C18 UNL     1       5.359  -1.570   0.515  1.00  0.00     0.006 C 
HETATM   22  C19 UNL     1       6.296  -0.427   0.229  1.00  0.00     0.000 C 
HETATM   23  C20 UNL     1       5.581   0.904   0.177  1.00  0.00     0.006 C 
HETATM   24  C21 UNL     1       4.591   0.814  -0.978  1.00  0.00     0.074 C 
HETATM   25  O5  UNL     1       2.953   0.219   0.595  1.00  0.00    -0.195 OA
HETATM   26  O6  UNL     1       2.133   1.180   0.306  1.00  0.00    -0.192 OA
ENDROOT
BRANCH  10  27
HETATM   27  O1  UNL     1      -1.982  -0.782   2.454  1.00  0.00    -0.395 OA
ATOM     28  H1  UNL     1      -1.589  -0.293   3.168  1.00  0.00     0.210 HD
ENDBRANCH  10  27
TORSDOF 1
