REMARK  0 active torsions:
REMARK  status: ('A' for Active; 'I' for Inactive)
ROOT
HETATM    1  C1  UNL     1      -7.067  -0.211  -1.259  1.00  0.00     0.012 C 
HETATM    2  C2  UNL     1      -5.723   0.091  -0.627  1.00  0.00     0.005 C 
HETATM    3  C3  UNL     1      -4.819   0.820  -1.591  1.00  0.00     0.011 C 
HETATM    4  C4  UNL     1      -3.537   1.130  -0.859  1.00  0.00     0.069 C 
HETATM    5  C5  UNL     1      -2.983  -0.081  -0.129  1.00  0.00     0.170 C 
HETATM    6  C6  UNL     1      -3.097   0.198   1.331  1.00  0.00     0.069 C 
HETATM    7  C7  UNL     1      -2.231  -0.603   2.223  1.00  0.00     0.013 C 
HETATM    8  C8  UNL     1      -1.346  -1.488   1.415  1.00  0.00     0.107 C 
HETATM    9  C9  UNL     1      -0.767  -0.658   0.312  1.00  0.00     0.341 C 
HETATM   10  O1  UNL     1       0.253  -1.444  -0.273  1.00  0.00    -0.168 OA
HETATM   11  O2  UNL     1       1.208  -0.655  -0.692  1.00  0.00    -0.226 OA
HETATM   12  C10 UNL     1       2.275  -0.552   0.153  1.00  0.00     0.207 C 
HETATM   13  C11 UNL     1       1.995   0.050   1.500  1.00  0.00     0.122 C 
HETATM   14  C12 UNL     1       2.333  -0.942   2.629  1.00  0.00     0.052 C 
HETATM   15  C13 UNL     1       2.783   1.309   1.807  1.00  0.00     0.044 C 
HETATM   16  C14 UNL     1       4.220   1.299   1.365  1.00  0.00     0.009 C 
HETATM   17  C15 UNL     1       4.495   0.139   0.541  1.00  0.00     0.006 A 
HETATM   18  C16 UNL     1       4.692  -0.109  -0.839  1.00  0.00    -0.033 A 
HETATM   19  C17 UNL     1       5.555   0.904  -1.599  1.00  0.00     0.016 C 
HETATM   20  C18 UNL     1       5.023  -1.525  -1.331  1.00  0.00     0.016 C 
HETATM   21  C19 UNL     1       3.343   0.206  -0.518  1.00  0.00    -0.000 A 
HETATM   22  C20 UNL     1       2.881   1.527  -1.043  1.00  0.00     0.019 C 
HETATM   23  O3  UNL     1       0.669   0.368   1.730  1.00  0.00    -0.222 OA
HETATM   24  O4  UNL     1      -0.127   0.495   0.766  1.00  0.00    -0.168 OA
HETATM   25  O5  UNL     1      -1.708  -0.273  -0.602  1.00  0.00    -0.292 OA
HETATM   26  O6  UNL     1      -3.701  -1.216  -0.457  1.00  0.00    -0.354 OA
HETATM   27  C21 UNL     1      -5.035  -1.167  -0.209  1.00  0.00     0.175 C 
ENDROOT
TORSDOF 0
