REMARK  0 active torsions:
REMARK  status: ('A' for Active; 'I' for Inactive)
ROOT
HETATM    1  C1  UNL     1       4.427  -2.635   0.150  1.00  0.00     0.000 C 
HETATM    2  C2  UNL     1       3.238  -2.818   1.038  1.00  0.00     0.006 C 
HETATM    3  C3  UNL     1       2.441  -1.568   1.259  1.00  0.00     0.074 C 
HETATM    4  C4  UNL     1       2.045  -0.885  -0.024  1.00  0.00     0.230 C 
HETATM    5  C5  UNL     1       2.965  -1.196  -1.158  1.00  0.00     0.074 C 
HETATM    6  C6  UNL     1       4.378  -1.332  -0.606  1.00  0.00     0.006 C 
HETATM    7  O1  UNL     1       2.026   0.503   0.247  1.00  0.00    -0.193 OA
HETATM    8  O2  UNL     1       0.932   0.707   0.935  1.00  0.00    -0.166 OA
HETATM    9  C7  UNL     1       0.131   1.707   0.421  1.00  0.00     0.366 C 
HETATM   10  C8  UNL     1       0.947   2.484  -0.592  1.00  0.00     0.104 C 
HETATM   11  C9  UNL     1       1.911   3.425   0.122  1.00  0.00     0.009 C 
HETATM   12  C10 UNL     1       1.145   4.539   0.838  1.00  0.00     0.028 C 
HETATM   13  C11 UNL     1      -0.276   4.007   1.015  1.00  0.00     0.239 C 
HETATM   14  N1  UNL     1      -0.118   2.643   1.532  1.00  0.00    -0.015 N 
ATOM     15  H11 UNL     1       0.606   2.587   2.248  1.00  0.00     0.283 HD
ATOM     16  H12 UNL     1      -0.914   2.356   2.102  1.00  0.00     0.283 HD
HETATM   17  O3  UNL     1      -1.084   1.303  -0.040  1.00  0.00    -0.290 OA
HETATM   18  C12 UNL     1      -1.111   0.001  -0.537  1.00  0.00     0.209 C 
HETATM   19  O4  UNL     1       0.123  -0.318  -1.055  1.00  0.00    -0.197 OA
HETATM   20  O5  UNL     1       0.749  -1.225  -0.373  1.00  0.00    -0.195 OA
HETATM   21  C13 UNL     1      -2.198  -0.001  -1.598  1.00  0.00     0.052 C 
HETATM   22  C14 UNL     1      -3.408   0.655  -0.989  1.00  0.00     0.014 C 
HETATM   23  C15 UNL     1      -3.857  -0.155   0.204  1.00  0.00    -0.013 C 
HETATM   24  C16 UNL     1      -4.258  -1.565  -0.239  1.00  0.00     0.009 C 
HETATM   25  C17 UNL     1      -3.052  -2.211  -0.840  1.00  0.00    -0.013 C 
HETATM   26  C18 UNL     1      -2.567  -1.386  -2.038  1.00  0.00     0.014 C 
HETATM   27  C19 UNL     1      -1.910  -2.289   0.120  1.00  0.00     0.014 C 
HETATM   28  C20 UNL     1      -1.537  -0.904   0.574  1.00  0.00     0.052 C 
HETATM   29  C21 UNL     1      -2.785  -0.310   1.232  1.00  0.00     0.014 C 
ENDROOT
TORSDOF 0
