REMARK  0 active torsions:
REMARK  status: ('A' for Active; 'I' for Inactive)
ROOT
HETATM    1  C1  UNL     1       3.183   0.962   2.400  1.00  0.00     0.015 C 
HETATM    2  C2  UNL     1       3.562   0.195   1.185  1.00  0.00    -0.042 C 
HETATM    3  C3  UNL     1       5.088   0.029   1.210  1.00  0.00     0.015 C 
HETATM    4  C4  UNL     1       2.923  -1.151   1.065  1.00  0.00     0.014 C 
HETATM    5  C5  UNL     1       2.583  -1.541  -0.333  1.00  0.00    -0.007 C 
HETATM    6  C6  UNL     1       3.680  -1.141  -1.308  1.00  0.00     0.024 C 
HETATM    7  C7  UNL     1       3.767   0.347  -1.316  1.00  0.00     0.098 C 
HETATM    8  C8  UNL     1       3.066   0.953  -2.469  1.00  0.00     0.064 C 
HETATM    9  N1  UNL     1       2.534   1.428  -3.384  1.00  0.00    -0.197 NA
HETATM   10  C9  UNL     1       3.218   0.981  -0.069  1.00  0.00     0.016 C 
HETATM   11  C10 UNL     1       1.782   1.336  -0.165  1.00  0.00     0.081 C 
HETATM   12  C11 UNL     1       0.812   0.253  -0.324  1.00  0.00     0.230 C 
HETATM   13  C12 UNL     1       1.297  -1.042  -0.850  1.00  0.00     0.079 C 
HETATM   14  O1  UNL     1      -0.190   0.699  -1.227  1.00  0.00    -0.195 OA
HETATM   15  O2  UNL     1      -1.222   1.190  -0.591  1.00  0.00    -0.194 OA
HETATM   16  C13 UNL     1      -1.904   0.131   0.008  1.00  0.00     0.237 C 
HETATM   17  O3  UNL     1      -0.940  -0.782   0.453  1.00  0.00    -0.194 OA
HETATM   18  O4  UNL     1       0.083  -0.025   0.860  1.00  0.00    -0.195 OA
HETATM   19  C14 UNL     1      -2.804  -0.470  -1.042  1.00  0.00     0.055 C 
HETATM   20  C15 UNL     1      -3.753   0.639  -1.481  1.00  0.00     0.015 C 
HETATM   21  C16 UNL     1      -4.552   1.055  -0.281  1.00  0.00    -0.013 C 
HETATM   22  C17 UNL     1      -5.331  -0.112   0.281  1.00  0.00     0.009 C 
HETATM   23  C18 UNL     1      -4.370  -1.191   0.721  1.00  0.00    -0.013 C 
HETATM   24  C19 UNL     1      -3.592  -1.626  -0.506  1.00  0.00     0.015 C 
HETATM   25  C20 UNL     1      -3.397  -0.672   1.753  1.00  0.00     0.015 C 
HETATM   26  C21 UNL     1      -2.693   0.568   1.221  1.00  0.00     0.055 C 
HETATM   27  C22 UNL     1      -3.687   1.606   0.812  1.00  0.00     0.015 C 
ENDROOT
TORSDOF 0
