REMARK  2 active torsions:
REMARK  status: ('A' for Active; 'I' for Inactive)
REMARK    1  A    between atoms: C7_8  and  O2_9 
REMARK    2  A    between atoms: N1_19  and  O4_21 
ROOT
HETATM    1  C1  UNL     1       4.431   1.367   2.283  1.00  0.00     0.048 C 
HETATM    2  C2  UNL     1       4.542   0.724   0.916  1.00  0.00     0.079 C 
HETATM    3  C3  UNL     1       5.803   1.211   0.252  1.00  0.00     0.048 C 
HETATM    4  C4  UNL     1       4.442  -0.766   0.968  1.00  0.00     0.209 C 
HETATM    5  O1  UNL     1       3.092  -0.998   0.625  1.00  0.00    -0.351 OA
HETATM    6  C5  UNL     1       2.883  -0.050  -0.343  1.00  0.00     0.177 C 
HETATM    7  C6  UNL     1       3.371  -0.500  -1.714  1.00  0.00     0.103 C 
HETATM    8  C7  UNL     1       2.162  -1.033  -2.447  1.00  0.00     0.153 C 
HETATM    9  C8  UNL     1       1.042  -1.012  -1.410  1.00  0.00     0.164 C 
HETATM   10  O3  UNL     1      -0.135  -0.937  -2.049  1.00  0.00    -0.377 OA
HETATM   11  C9  UNL     1      -1.284  -0.908  -1.319  1.00  0.00     0.127 C 
HETATM   12  C10 UNL     1      -1.525  -2.127  -0.466  1.00  0.00     0.033 C 
HETATM   13  C11 UNL     1      -2.408  -1.895   0.709  1.00  0.00     0.018 C 
HETATM   14  C12 UNL     1      -3.440  -0.842   0.555  1.00  0.00     0.004 C 
HETATM   15  C13 UNL     1      -4.741  -1.423  -0.017  1.00  0.00     0.022 C 
HETATM   16  C14 UNL     1      -3.791  -0.331   1.903  1.00  0.00     0.019 C 
HETATM   17  N1  UNL     1      -3.994  -1.077   2.929  1.00  0.00    -0.277 N 
ATOM     18  H1  UNL     1      -3.909  -2.087   2.812  1.00  0.00     0.193 HD
HETATM   19  C15 UNL     1      -3.873   1.147   1.905  1.00  0.00     0.056 C 
HETATM   20  C16 UNL     1      -3.440   1.584   0.539  1.00  0.00     0.016 C 
HETATM   21  C17 UNL     1      -3.066   0.345  -0.243  1.00  0.00    -0.025 C 
HETATM   22  C18 UNL     1      -3.837   0.411  -1.561  1.00  0.00     0.016 C 
HETATM   23  C19 UNL     1      -1.578   0.382  -0.622  1.00  0.00     0.024 C 
HETATM   24  C20 UNL     1      -0.744   0.781   0.496  1.00  0.00     0.009 C 
HETATM   25  C21 UNL     1       0.607   0.209   0.632  1.00  0.00     0.018 C 
HETATM   26  C22 UNL     1       1.426   0.223  -0.622  1.00  0.00     0.041 C 
HETATM   27  C23 UNL     1       1.329   1.487  -1.402  1.00  0.00     0.024 C 
HETATM   28  O5  UNL     1       3.473   1.115   0.080  1.00  0.00    -0.342 OA
ENDROOT
BRANCH   8  29
HETATM   29  O2  UNL     1       1.832  -0.301  -3.565  1.00  0.00    -0.393 OA
ATOM     30  H2  UNL     1       1.072  -0.636  -4.026  1.00  0.00     0.210 HD
ENDBRANCH   8  29
BRANCH  17  31
HETATM   31  O4  UNL     1      -4.316  -0.601   4.164  1.00  0.00    -0.290 OA
ATOM     32  H4  UNL     1      -4.466  -1.153   4.923  1.00  0.00     0.244 HD
ENDBRANCH  17  31
TORSDOF 2
