REMARK  2 active torsions:
REMARK  status: ('A' for Active; 'I' for Inactive)
REMARK    1  A    between atoms: C21_23  and  O3_24 
REMARK    2  A    between atoms: C23_27  and  O4_28 
ROOT
HETATM    1  C1  UNL     1      -5.516   1.101  -1.475  1.00  0.00     0.011 C 
HETATM    2  C2  UNL     1      -5.396   0.319  -0.218  1.00  0.00    -0.010 C 
HETATM    3  C3  UNL     1      -5.392  -1.165  -0.393  1.00  0.00     0.005 C 
HETATM    4  C4  UNL     1      -3.965  -1.660  -0.099  1.00  0.00     0.006 C 
HETATM    5  C5  UNL     1      -3.205  -0.392  -0.197  1.00  0.00     0.003 C 
HETATM    6  C6  UNL     1      -4.064   0.579   0.509  1.00  0.00    -0.036 C 
HETATM    7  C7  UNL     1      -4.348   0.282   1.946  1.00  0.00     0.016 C 
HETATM    8  C8  UNL     1      -3.572   1.979   0.307  1.00  0.00     0.010 C 
HETATM    9  C9  UNL     1      -2.117   1.988   0.791  1.00  0.00     0.006 C 
HETATM   10  C10 UNL     1      -1.298   1.021  -0.002  1.00  0.00    -0.006 C 
HETATM   11  C11 UNL     1       0.158   1.180   0.212  1.00  0.00     0.011 C 
HETATM   12  C12 UNL     1       0.886   0.680  -1.009  1.00  0.00     0.075 C 
HETATM   13  C13 UNL     1       1.370  -0.711  -0.704  1.00  0.00     0.230 C 
HETATM   14  C14 UNL     1       0.280  -1.727  -0.605  1.00  0.00     0.075 C 
HETATM   15  C15 UNL     1      -1.084  -1.248  -0.873  1.00  0.00     0.015 C 
HETATM   16  C16 UNL     1      -1.763  -0.433   0.179  1.00  0.00    -0.036 C 
HETATM   17  C17 UNL     1      -1.503  -0.902   1.570  1.00  0.00     0.016 C 
HETATM   18  O1  UNL     1       2.319  -1.022  -1.706  1.00  0.00    -0.195 OA
HETATM   19  O2  UNL     1       3.414  -1.533  -1.187  1.00  0.00    -0.192 OA
HETATM   20  C18 UNL     1       4.093  -0.559  -0.452  1.00  0.00     0.255 C 
HETATM   21  C19 UNL     1       4.867   0.373  -1.360  1.00  0.00     0.079 C 
HETATM   22  C20 UNL     1       5.503   1.425  -0.452  1.00  0.00     0.037 C 
HETATM   23  C21 UNL     1       6.579   0.732   0.331  1.00  0.00     0.120 C 
HETATM   24  C22 UNL     1       6.444  -0.762   0.351  1.00  0.00     0.069 C 
HETATM   25  C23 UNL     1       4.998  -1.127   0.592  1.00  0.00     0.188 C 
HETATM   26  O5  UNL     1       3.120   0.225   0.194  1.00  0.00    -0.192 OA
HETATM   27  O6  UNL     1       2.127  -0.619   0.483  1.00  0.00    -0.195 OA
ENDROOT
BRANCH  25  28
HETATM   28  O4  UNL     1       4.840  -2.511   0.693  1.00  0.00    -0.390 OA
ATOM     29  H4  UNL     1       5.416  -2.872   1.357  1.00  0.00     0.210 HD
ENDBRANCH  25  28
BRANCH  23  30
HETATM   30  O3  UNL     1       7.837   1.120  -0.169  1.00  0.00    -0.395 OA
ATOM     31  H3  UNL     1       8.518   0.681   0.327  1.00  0.00     0.210 HD
ENDBRANCH  23  30
TORSDOF 2
