REMARK  3 active torsions:
REMARK  status: ('A' for Active; 'I' for Inactive)
REMARK    1  A    between atoms: C7_7  and  O1_8 
REMARK    2  A    between atoms: C11_13  and  O2_14 
REMARK    3  A    between atoms: C18_24  and  O5_25 
ROOT
HETATM    1  C1  UNL     1      -4.256  -1.807   0.750  1.00  0.00     0.039 C 
HETATM    2  C2  UNL     1      -2.880  -1.127   0.674  1.00  0.00     0.118 C 
HETATM    3  C3  UNL     1      -1.857  -1.832   1.482  1.00  0.00     0.032 C 
HETATM    4  C4  UNL     1      -0.455  -1.748   1.055  1.00  0.00     0.008 C 
HETATM    5  C5  UNL     1      -0.043  -1.078  -0.201  1.00  0.00     0.004 C 
HETATM    6  C6  UNL     1      -0.260   0.390  -0.422  1.00  0.00     0.073 C 
HETATM    7  C7  UNL     1       1.018   1.026  -0.021  1.00  0.00     0.172 C 
HETATM    8  C8  UNL     1       1.974   0.715  -1.117  1.00  0.00     0.074 C 
HETATM    9  C9  UNL     1       2.483  -0.612  -0.675  1.00  0.00     0.005 C 
HETATM   10  C10 UNL     1       3.382  -0.272   0.458  1.00  0.00     0.071 C 
HETATM   11  C11 UNL     1       3.558   1.184   0.768  1.00  0.00     0.065 C 
HETATM   12  C12 UNL     1       2.600   2.211   0.878  1.00  0.00     0.170 C 
HETATM   13  O3  UNL     1       1.321   2.273   0.268  1.00  0.00    -0.323 OA
HETATM   14  C13 UNL     1       1.357  -1.541  -0.568  1.00  0.00    -0.039 C 
HETATM   15  C14 UNL     1       1.857  -2.714   0.259  1.00  0.00     0.015 C 
HETATM   16  C15 UNL     1       1.212  -2.179  -1.981  1.00  0.00     0.015 C 
HETATM   17  C16 UNL     1      -1.343   1.168  -0.035  1.00  0.00     0.088 A 
HETATM   18  C17 UNL     1      -1.566   2.089   1.071  1.00  0.00     0.178 A 
HETATM   19  O4  UNL     1      -1.396   3.238   0.335  1.00  0.00    -0.345 OA
HETATM   20  C18 UNL     1      -1.491   2.509  -0.813  1.00  0.00     0.176 C 
HETATM   21  C19 UNL     1      -2.880   2.362  -1.401  1.00  0.00     0.072 C 
HETATM   22  C20 UNL     1      -3.673   1.804  -0.274  1.00  0.00     0.047 C 
HETATM   23  C21 UNL     1      -2.585   1.043   0.506  1.00  0.00     0.104 A 
HETATM   24  O6  UNL     1      -3.078   0.119   1.318  1.00  0.00    -0.371 OA
ENDROOT
BRANCH   7  25
HETATM   25  O1  UNL     1       1.174   0.449   1.234  1.00  0.00    -0.365 OA
ATOM     26  H1  UNL     1       1.993   0.856   1.491  1.00  0.00     0.213 HD
ENDBRANCH   7  25
BRANCH  20  27
HETATM   27  O5  UNL     1      -0.589   2.700  -1.820  1.00  0.00    -0.364 OA
ATOM     28  H5  UNL     1      -0.679   3.518  -2.295  1.00  0.00     0.213 HD
ENDBRANCH  20  27
BRANCH  11  29
HETATM   29  O2  UNL     1       4.703   1.647   0.035  1.00  0.00    -0.363 OA
ATOM     30  H2  UNL     1       4.815   2.570   0.231  1.00  0.00     0.217 HD
ENDBRANCH  11  29
TORSDOF 3
