REMARK  3 active torsions:
REMARK  status: ('A' for Active; 'I' for Inactive)
REMARK    1  A    between atoms: C7_8  and  O2_9 
REMARK    2  A    between atoms: C13_17  and  O4_19 
REMARK    3  A    between atoms: C20_27  and  O6_28 
ROOT
HETATM    1  C1  UNL     1      -3.354   0.930   0.470  1.00  0.00     0.018 C 
HETATM    2  C2  UNL     1      -2.485   0.516  -0.628  1.00  0.00    -0.017 C 
HETATM    3  C3  UNL     1      -2.506   1.626  -1.691  1.00  0.00     0.018 C 
HETATM    4  C4  UNL     1      -3.171  -0.669  -1.331  1.00  0.00     0.178 C 
HETATM    5  O1  UNL     1      -2.205  -1.600  -1.446  1.00  0.00    -0.377 OA
HETATM    6  C5  UNL     1      -1.340  -1.479  -0.317  1.00  0.00     0.090 C 
HETATM    7  C6  UNL     1      -2.224  -2.006   0.810  1.00  0.00     0.049 C 
HETATM    8  C7  UNL     1      -0.224  -2.420  -0.554  1.00  0.00     0.155 C 
HETATM    9  C8  UNL     1       1.012  -1.992  -1.212  1.00  0.00     0.075 C 
HETATM   10  C9  UNL     1       2.241  -1.740  -0.459  1.00  0.00     0.086 C 
HETATM   11  C10 UNL     1       3.438  -2.588  -0.966  1.00  0.00     0.049 C 
HETATM   12  O3  UNL     1       2.785  -0.434  -0.556  1.00  0.00    -0.372 OA
HETATM   13  C11 UNL     1       1.845   0.441  -0.184  1.00  0.00     0.132 C 
HETATM   14  C12 UNL     1       2.284   1.909  -0.077  1.00  0.00     0.070 C 
HETATM   15  C13 UNL     1       1.085   2.704   0.256  1.00  0.00     0.065 C 
HETATM   16  C14 UNL     1       0.903   3.685  -0.923  1.00  0.00     0.046 C 
HETATM   17  C15 UNL     1      -0.212   2.122   0.622  1.00  0.00     0.079 C 
HETATM   18  C16 UNL     1      -0.517   2.095   2.133  1.00  0.00     0.179 C 
HETATM   19  O5  UNL     1      -0.997   0.830   1.958  1.00  0.00    -0.378 OA
HETATM   20  C17 UNL     1      -0.339   0.612   0.734  1.00  0.00     0.082 C 
HETATM   21  C18 UNL     1       1.043   0.170   1.032  1.00  0.00     0.053 C 
HETATM   22  C19 UNL     1       1.330  -1.075   1.784  1.00  0.00     0.045 C 
HETATM   23  C20 UNL     1       2.245  -2.010   1.021  1.00  0.00     0.153 C 
HETATM   24  C21 UNL     1      -1.118  -0.021  -0.328  1.00  0.00     0.068 C 
ENDROOT
BRANCH  15  25
HETATM   25  O4  UNL     1       1.460   3.562   1.328  1.00  0.00    -0.390 OA
ATOM     26  H4  UNL     1       0.689   4.073   1.542  1.00  0.00     0.210 HD
ENDBRANCH  15  25
BRANCH  23  27
HETATM   27  O6  UNL     1       2.152  -3.336   1.385  1.00  0.00    -0.393 OA
ATOM     28  H6  UNL     1       2.155  -3.506   2.320  1.00  0.00     0.210 HD
ENDBRANCH  23  27
BRANCH   8  29
HETATM   29  O2  UNL     1      -0.788  -3.526  -1.275  1.00  0.00    -0.392 OA
ATOM     30  H2  UNL     1      -0.071  -4.130  -1.427  1.00  0.00     0.210 HD
ENDBRANCH   8  29
TORSDOF 3
