REMARK  7 active torsions:
REMARK  status: ('A' for Active; 'I' for Inactive)
REMARK    1  A    between atoms: C2_2  and  O1_3 
REMARK    2  A    between atoms: O1_3  and  C3_4 
REMARK    3  A    between atoms: C3_4  and  C4_6 
REMARK    4  A    between atoms: C7_9  and  O3_10 
REMARK    5  A    between atoms: C9_13  and  O4_14 
REMARK    6  A    between atoms: C10_16  and  C11_17 
REMARK    7  A    between atoms: C11_17  and  C12_19 
ROOT
HETATM    1  C4  UNL     1      -0.990  -0.985  -0.172  1.00  0.00     0.065 A 
HETATM    2  C5  UNL     1      -1.883  -2.071  -0.063  1.00  0.00    -0.011 A 
HETATM    3  C6  UNL     1      -3.202  -1.880   0.604  1.00  0.00     0.052 C 
HETATM    4  C7  UNL     1      -1.503  -3.282  -0.556  1.00  0.00     0.075 A 
HETATM    5  C8  UNL     1      -0.228  -3.431  -1.159  1.00  0.00     0.074 A 
HETATM    6  C9  UNL     1       0.603  -2.352  -1.233  1.00  0.00     0.083 A 
HETATM    7  C10 UNL     1       0.235  -1.086  -0.731  1.00  0.00     0.065 A 
ENDROOT
BRANCH   7   8
HETATM    8  C11 UNL     1       1.221  -0.098  -1.022  1.00  0.00     0.198 C 
HETATM    9  O5  UNL     1       1.248   0.299  -2.241  1.00  0.00    -0.286 OA
BRANCH   8  10
HETATM   10  C12 UNL     1       2.188   0.482  -0.089  1.00  0.00     0.046 A 
HETATM   11  C13 UNL     1       2.935   1.569  -0.478  1.00  0.00    -0.022 A 
HETATM   12  C14 UNL     1       2.441   2.427  -1.619  1.00  0.00     0.051 C 
HETATM   13  C15 UNL     1       4.083   1.956   0.224  1.00  0.00     0.064 A 
HETATM   14 CL1  UNL     1       5.019   3.303  -0.344  1.00  0.00    -0.082 Cl
HETATM   15  C16 UNL     1       4.451   1.214   1.326  1.00  0.00     0.079 A 
HETATM   16 CL2  UNL     1       5.929   1.651   2.183  1.00  0.00    -0.081 Cl
HETATM   17  C17 UNL     1       3.744   0.145   1.747  1.00  0.00     0.080 A 
HETATM   18 CL3  UNL     1       4.198  -0.833   3.125  1.00  0.00    -0.081 Cl
HETATM   19  C18 UNL     1       2.593  -0.224   1.025  1.00  0.00     0.072 A 
HETATM   20 CL4  UNL     1       1.670  -1.586   1.651  1.00  0.00    -0.081 Cl
ENDBRANCH   8  10
ENDBRANCH   7   8
BRANCH   1  21
HETATM   21  C3  UNL     1      -1.558   0.394   0.015  1.00  0.00     0.295 C 
HETATM   22  O2  UNL     1      -0.764   1.358   0.012  1.00  0.00    -0.259 OA
BRANCH  21  23
HETATM   23  O1  UNL     1      -2.875   0.611   0.161  1.00  0.00    -0.318 OA
BRANCH  23  24
HETATM   24  C2  UNL     1      -3.581   1.796   0.277  1.00  0.00     0.174 C 
HETATM   25  C1  UNL     1      -3.298   2.681   1.444  1.00  0.00     0.034 C 
ENDBRANCH  23  24
ENDBRANCH  21  23
ENDBRANCH   1  21
BRANCH   6  26
HETATM   26  O4  UNL     1       1.850  -2.563  -1.838  1.00  0.00    -0.360 OA
ATOM     27  H4  UNL     1       2.429  -1.811  -1.890  1.00  0.00     0.217 HD
ENDBRANCH   6  26
BRANCH   4  28
HETATM   28  O3  UNL     1      -2.312  -4.386  -0.482  1.00  0.00    -0.360 OA
ATOM     29  H3  UNL     1      -2.047  -5.231  -0.826  1.00  0.00     0.217 HD
ENDBRANCH   4  28
TORSDOF 7
