REMARK  6 active torsions:
REMARK  status: ('A' for Active; 'I' for Inactive)
REMARK    1  A    between atoms: O1_2  and  C2_3 
REMARK    2  A    between atoms: C4_5  and  C5_6 
REMARK    3  A    between atoms: C8_10  and  O2_11 
REMARK    4  A    between atoms: C11_16  and  O3_17 
REMARK    5  A    between atoms: C16_25  and  O4_26 
REMARK    6  A    between atoms: C18_28  and  O5_29 
ROOT
HETATM    1  C5  UNL     1      -0.800  -1.297   0.321  1.00  0.00     0.057 C 
HETATM    2  C6  UNL     1      -1.047  -1.512   1.775  1.00  0.00     0.056 C 
HETATM    3  C7  UNL     1      -1.912  -0.472   2.422  1.00  0.00     0.226 C 
HETATM    4  F1  UNL     1      -2.072  -0.857   3.744  1.00  0.00    -0.245 F 
HETATM    5  C8  UNL     1      -3.234  -0.314   1.727  1.00  0.00     0.194 C 
HETATM    6 CL1  UNL     1      -4.055   1.073   2.492  1.00  0.00    -0.080 Cl
HETATM    7  C9  UNL     1      -2.995  -0.082   0.292  1.00  0.00     0.006 A 
HETATM    8  C10 UNL     1      -3.950   0.619  -0.412  1.00  0.00     0.050 A 
HETATM    9  C11 UNL     1      -3.823   0.875  -1.754  1.00  0.00     0.089 A 
HETATM   10  C12 UNL     1      -2.719   0.431  -2.440  1.00  0.00     0.089 A 
HETATM   11 CL2  UNL     1      -2.542   0.748  -4.148  1.00  0.00    -0.080 Cl
HETATM   12  C13 UNL     1      -1.751  -0.280  -1.724  1.00  0.00     0.066 A 
HETATM   13 CL3  UNL     1      -0.371  -0.830  -2.662  1.00  0.00    -0.082 Cl
HETATM   14  C14 UNL     1      -1.878  -0.539  -0.369  1.00  0.00    -0.015 A 
ENDROOT
BRANCH   1  15
HETATM   15  C4  UNL     1       0.542  -0.710   0.173  1.00  0.00    -0.044 A 
HETATM   16  C3  UNL     1       0.748   0.624   0.406  1.00  0.00     0.047 A 
HETATM   17  C2  UNL     1       2.027   1.179   0.292  1.00  0.00     0.104 A 
HETATM   18  C18 UNL     1       3.091   0.380  -0.057  1.00  0.00     0.135 A 
HETATM   19  C16 UNL     1       2.898  -0.961  -0.294  1.00  0.00     0.104 A 
HETATM   20  C15 UNL     1       1.620  -1.487  -0.175  1.00  0.00     0.047 A 
BRANCH  17  21
HETATM   21  O1  UNL     1       2.187   2.544   0.539  1.00  0.00    -0.353 OA
HETATM   22  C1  UNL     1       1.108   3.369   0.896  1.00  0.00     0.210 C 
ENDBRANCH  17  21
BRANCH  18  23
HETATM   23  O5  UNL     1       4.354   0.961  -0.163  1.00  0.00    -0.351 OA
HETATM   24  C19 UNL     1       4.780   1.496  -1.416  1.00  0.00     0.210 C 
ENDBRANCH  18  23
BRANCH  19  25
HETATM   25  O4  UNL     1       3.986  -1.743  -0.644  1.00  0.00    -0.353 OA
HETATM   26  C17 UNL     1       3.801  -3.123  -0.890  1.00  0.00     0.210 C 
ENDBRANCH  19  25
ENDBRANCH   1  15
BRANCH   5  27
HETATM   27  O2  UNL     1      -4.071  -1.417   1.943  1.00  0.00    -0.368 OA
ATOM     28  H2  UNL     1      -4.907  -1.317   1.503  1.00  0.00     0.212 HD
ENDBRANCH   5  27
BRANCH   9  29
HETATM   29  O3  UNL     1      -4.781   1.582  -2.477  1.00  0.00    -0.359 OA
ATOM     30  H3  UNL     1      -4.693   1.759  -3.406  1.00  0.00     0.217 HD
ENDBRANCH   9  29
TORSDOF 6
