REMARK  5 active torsions:
REMARK  status: ('A' for Active; 'I' for Inactive)
REMARK    1  A    between atoms: C4_5  and  N2_6 
REMARK    2  A    between atoms: C7_11  and  C8_12 
REMARK    3  A    between atoms: C8_12  and  C9_13 
REMARK    4  A    between atoms: C8_12  and  N3_20 
REMARK    5  A    between atoms: C9_13  and  C10_14 
ROOT
HETATM    1  N1  UNL     1      -1.362  -3.776   0.895  1.00  0.00    -0.191 NA
HETATM    2  C1  UNL     1      -1.753  -2.698   0.621  1.00  0.00     0.100 C 
HETATM    3  C2  UNL     1      -2.261  -1.400   0.279  1.00  0.00     0.055 A 
HETATM    4  C3  UNL     1      -3.628  -1.168   0.183  1.00  0.00     0.059 A 
HETATM    5  C4  UNL     1      -4.172   0.049  -0.151  1.00  0.00     0.104 A 
HETATM    6  C5  UNL     1      -3.283   1.064  -0.397  1.00  0.00     0.037 A 
HETATM    7  C6  UNL     1      -1.909   0.862  -0.309  1.00  0.00     0.013 A 
HETATM    8  C7  UNL     1      -1.371  -0.356   0.026  1.00  0.00    -0.013 A 
ENDROOT
BRANCH   8   9
HETATM    9  C8  UNL     1       0.078  -0.555   0.122  1.00  0.00     0.137 C 
BRANCH   9  10
HETATM   10  C9  UNL     1       0.769   0.714  -0.320  1.00  0.00     0.070 C 
BRANCH  10  11
HETATM   11  C10 UNL     1       2.250   0.646  -0.282  1.00  0.00    -0.056 A 
HETATM   12  C11 UNL     1       2.984   0.171  -1.347  1.00  0.00     0.007 A 
HETATM   13  C12 UNL     1       4.366   0.120  -1.327  1.00  0.00     0.001 A 
HETATM   14  C13 UNL     1       5.070   0.551  -0.224  1.00  0.00     0.000 A 
HETATM   15  C14 UNL     1       4.356   1.028   0.845  1.00  0.00     0.001 A 
HETATM   16  C15 UNL     1       2.964   1.074   0.815  1.00  0.00     0.007 A 
ENDBRANCH  10  11
ENDBRANCH   9  10
BRANCH   9  17
HETATM   17  N3  UNL     1       0.562  -0.868   1.402  1.00  0.00    -0.333 N 
HETATM   18  N4  UNL     1       1.515  -1.648   1.532  1.00  0.00    -0.349 N 
ATOM     19  H42 UNL     1       1.938  -2.055   0.698  1.00  0.00     0.176 HD
ATOM     20  H41 UNL     1       1.867  -1.875   2.462  1.00  0.00     0.176 HD
ATOM     21  H3  UNL     1       0.128  -0.452   2.226  1.00  0.00     0.180 HD
ENDBRANCH   9  17
ENDBRANCH   8   9
BRANCH   5  22
HETATM   22  N2  UNL     1      -5.583   0.217  -0.231  1.00  0.00    -0.116 N 
HETATM   23  O1  UNL     1      -6.337  -0.747   0.004  1.00  0.00    -0.532 OA
HETATM   24  O2  UNL     1      -6.168   1.403  -0.559  1.00  0.00    -0.532 OA
ENDBRANCH   5  22
TORSDOF 5
