REMARK  5 active torsions:
REMARK  status: ('A' for Active; 'I' for Inactive)
REMARK    1  A    between atoms: C2_2  and  C3_3 
REMARK    2  A    between atoms: C2_2  and  C4_6 
REMARK    3  A    between atoms: C4_6  and  C5_7 
REMARK    4  A    between atoms: C4_6  and  N2_14 
REMARK    5  A    between atoms: C5_7  and  C6_8 
ROOT
HETATM    1  C4  UNL     1      -0.221   0.741   0.157  1.00  0.00     0.118 C 
ENDROOT
BRANCH   1   2
HETATM    2  C2  UNL     1      -1.157   1.883  -0.260  1.00  0.00    -0.009 C 
HETATM    3  C1  UNL     1      -2.126   1.561  -1.103  1.00  0.00     0.024 C 
BRANCH   2   4
HETATM    4  C3  UNL     1      -0.988   3.234   0.178  1.00  0.00     0.120 C 
HETATM    5  N1  UNL     1      -1.841   4.247  -0.301  1.00  0.00    -0.089 NA
HETATM    6  S1  UNL     1       0.180   3.629   1.227  1.00  0.00    -0.063 SA
ENDBRANCH   2   4
ENDBRANCH   1   2
BRANCH   1   7
HETATM    7  C5  UNL     1       1.018   0.953  -0.597  1.00  0.00     0.068 C 
BRANCH   7   8
HETATM    8  C6  UNL     1       2.144   0.035  -0.416  1.00  0.00    -0.056 A 
HETATM    9  C7  UNL     1       2.375  -0.973  -1.309  1.00  0.00     0.007 A 
HETATM   10  C8  UNL     1       3.444  -1.862  -1.148  1.00  0.00     0.001 A 
HETATM   11  C9  UNL     1       4.298  -1.741  -0.076  1.00  0.00     0.000 A 
HETATM   12  C10 UNL     1       4.074  -0.735   0.821  1.00  0.00     0.001 A 
HETATM   13  C11 UNL     1       3.018   0.136   0.656  1.00  0.00     0.007 A 
ENDBRANCH   7   8
ENDBRANCH   1   7
BRANCH   1  14
HETATM   14  N2  UNL     1      -0.970  -0.395   0.178  1.00  0.00    -0.400 N 
HETATM   15  C12 UNL     1      -2.014  -0.376   1.157  1.00  0.00     0.144 C 
HETATM   16  C13 UNL     1      -2.144  -1.710   1.875  1.00  0.00     0.187 C 
HETATM   17  O1  UNL     1      -2.381  -2.740   0.967  1.00  0.00    -0.388 OA
HETATM   18  C14 UNL     1      -2.150  -2.363  -0.346  1.00  0.00     0.187 C 
HETATM   19  C15 UNL     1      -0.783  -1.609  -0.441  1.00  0.00     0.144 C 
ENDBRANCH   1  14
TORSDOF 5
