REMARK  7 active torsions:
REMARK  status: ('A' for Active; 'I' for Inactive)
REMARK    1  A    between atoms: C2_2  and  C9_11 
REMARK    2  A    between atoms: N1_3  and  C3_5 
REMARK    3  A    between atoms: C3_5  and  C4_6 
REMARK    4  A    between atoms: C9_11  and  C11_14 
REMARK    5  A    between atoms: C11_14  and  S1_20 
REMARK    6  A    between atoms: N3_15  and  N4_17 
REMARK    7  A    between atoms: S1_20  and  C12_21 
ROOT
HETATM    1  C9  UNL     1      -0.305  -0.644   1.232  1.00  0.00     0.195 C 
HETATM    2  C10 UNL     1      -0.501  -1.860   2.065  1.00  0.00     0.076 C 
HETATM    3  N2  UNL     1      -0.662  -2.814   2.699  1.00  0.00    -0.196 NA
ENDROOT
BRANCH   1   4
HETATM    4  C2  UNL     1       0.553  -0.930   0.071  1.00  0.00     0.002 C 
HETATM    5  C1  UNL     1       0.172  -1.951  -0.951  1.00  0.00     0.064 C 
HETATM    6  N1  UNL     1       1.638  -0.314  -0.087  1.00  0.00    -0.395 N 
ATOM      7  H1  UNL     1       2.185  -0.560  -0.912  1.00  0.00     0.159 HD
BRANCH   6   8
HETATM    8  C3  UNL     1       2.181   0.682   0.755  1.00  0.00     0.123 C 
BRANCH   8   9
HETATM    9  C4  UNL     1       3.645   0.861   0.369  1.00  0.00     0.003 C 
HETATM   10  C5  UNL     1       3.803   1.289  -1.076  1.00  0.00     0.006 C 
HETATM   11  C6  UNL     1       5.311   1.069  -1.252  1.00  0.00     0.000 C 
HETATM   12  C7  UNL     1       5.544  -0.233  -0.506  1.00  0.00     0.000 C 
HETATM   13  C8  UNL     1       4.332  -0.511   0.322  1.00  0.00     0.006 C 
ENDBRANCH   8   9
ENDBRANCH   6   8
ENDBRANCH   1   4
BRANCH   1  14
HETATM   14  C11 UNL     1      -1.643  -0.152   0.872  1.00  0.00     0.085 C 
HETATM   15  N3  UNL     1      -2.034   1.011   1.262  1.00  0.00    -0.303 N 
ATOM     16  H3  UNL     1      -2.970   1.308   0.985  1.00  0.00     0.186 HD
BRANCH  15  17
HETATM   17  N4  UNL     1      -1.291   1.888   2.023  1.00  0.00    -0.344 N 
ATOM     18  H42 UNL     1      -0.358   1.574   2.290  1.00  0.00     0.176 HD
ATOM     19  H41 UNL     1      -1.601   2.809   2.332  1.00  0.00     0.176 HD
ENDBRANCH  15  17
BRANCH  14  20
HETATM   20  S1  UNL     1      -2.772  -1.117  -0.108  1.00  0.00    -0.105 SA
BRANCH  20  21
HETATM   21  C12 UNL     1      -4.334  -0.268  -0.382  1.00  0.00     0.003 C 
HETATM   22  C13 UNL     1      -4.172   0.970  -1.235  1.00  0.00     0.026 C 
HETATM   23  C14 UNL     1      -4.926   0.111   0.981  1.00  0.00     0.026 C 
HETATM   24  C15 UNL     1      -5.292  -1.217  -1.044  1.00  0.00     0.026 C 
ENDBRANCH  20  21
ENDBRANCH  14  20
ENDBRANCH   1  14
TORSDOF 7
