REMARK  6 active torsions:
REMARK  status: ('A' for Active; 'I' for Inactive)
REMARK    1  A    between atoms: C5_6  and  C6_7 
REMARK    2  A    between atoms: C10_11  and  C11_12 
REMARK    3  A    between atoms: N2_13  and  C12_15 
REMARK    4  A    between atoms: C12_15  and  C13_16 
REMARK    5  A    between atoms: C15_22  and  C16_23 
REMARK    6  A    between atoms: C20_27  and  C21_28 
ROOT
HETATM    1  C13 UNL     1      -1.291   1.663   1.251  1.00  0.00     0.025 A 
HETATM    2  C14 UNL     1      -0.407   2.329   2.137  1.00  0.00     0.122 A 
HETATM    3  N3  UNL     1      -1.001   3.483   2.459  1.00  0.00    -0.310 N 
ATOM      4  H3  UNL     1      -0.605   4.191   3.078  1.00  0.00     0.186 HD
HETATM    5  N4  UNL     1      -2.157   3.572   1.868  1.00  0.00    -0.299 N 
ATOM      6  H4  UNL     1      -2.799   4.359   1.961  1.00  0.00     0.187 HD
HETATM    7  C15 UNL     1      -2.385   2.479   1.116  1.00  0.00     0.071 A 
ENDROOT
BRANCH   1   8
HETATM    8  C12 UNL     1      -1.001   0.480   0.480  1.00  0.00     0.102 C 
BRANCH   8   9
HETATM    9  N2  UNL     1       0.004  -0.450   0.654  1.00  0.00    -0.373 N 
HETATM   10  C11 UNL     1       1.338  -0.226   0.791  1.00  0.00     0.099 C 
ATOM     11  H2  UNL     1      -0.291  -1.426   0.683  1.00  0.00     0.164 HD
BRANCH  10  12
HETATM   12  C10 UNL     1       2.288  -0.870  -0.202  1.00  0.00    -0.020 A 
HETATM   13  C9  UNL     1       1.888  -1.317  -1.413  1.00  0.00     0.013 A 
HETATM   14  C8  UNL     1       2.899  -1.729  -2.304  1.00  0.00     0.002 A 
HETATM   15  C7  UNL     1       4.243  -1.683  -1.981  1.00  0.00     0.012 A 
HETATM   16  C6  UNL     1       4.618  -1.222  -0.746  1.00  0.00    -0.025 A 
HETATM   17  C28 UNL     1       3.635  -0.829   0.118  1.00  0.00     0.025 A 
BRANCH  16  18
HETATM   18  C5  UNL     1       6.045  -1.050  -0.388  1.00  0.00    -0.024 A 
HETATM   19  C4  UNL     1       7.001  -1.875  -0.979  1.00  0.00     0.012 A 
HETATM   20  C3  UNL     1       8.326  -1.717  -0.686  1.00  0.00     0.003 A 
HETATM   21  C2  UNL     1       8.701  -0.721   0.209  1.00  0.00     0.026 A 
HETATM   22  C1  UNL     1       7.766   0.088   0.787  1.00  0.00     0.047 A 
HETATM   23  N1  UNL     1       8.170   1.100   1.688  1.00  0.00    -0.102 NA
HETATM   24  C29 UNL     1       6.429  -0.074   0.492  1.00  0.00     0.038 A 
ENDBRANCH  16  18
ENDBRANCH  10  12
ENDBRANCH   8   9
ENDBRANCH   1   8
BRANCH   7  25
HETATM   25  C16 UNL     1      -3.683   2.263   0.419  1.00  0.00    -0.006 A 
HETATM   26  C17 UNL     1      -4.305   3.277  -0.260  1.00  0.00     0.014 A 
HETATM   27  C18 UNL     1      -5.545   3.123  -0.857  1.00  0.00     0.002 A 
HETATM   28  C19 UNL     1      -6.183   1.900  -0.767  1.00  0.00     0.012 A 
HETATM   29  C20 UNL     1      -5.575   0.875  -0.101  1.00  0.00    -0.025 A 
HETATM   30  C27 UNL     1      -4.316   1.044   0.505  1.00  0.00     0.026 A 
BRANCH  29  31
HETATM   31  C21 UNL     1      -6.177  -0.475  -0.023  1.00  0.00    -0.026 A 
HETATM   32  C22 UNL     1      -6.956  -0.860  -1.100  1.00  0.00     0.012 A 
HETATM   33  C23 UNL     1      -7.497  -2.121  -1.163  1.00  0.00     0.001 A 
HETATM   34  C24 UNL     1      -7.220  -2.971  -0.109  1.00  0.00     0.000 A 
HETATM   35  C25 UNL     1      -6.445  -2.618   0.984  1.00  0.00     0.001 A 
HETATM   36  C26 UNL     1      -5.925  -1.323   0.998  1.00  0.00     0.012 A 
ENDBRANCH  29  31
ENDBRANCH   7  25
TORSDOF 6
