REMARK  8 active torsions:
REMARK  status: ('A' for Active; 'I' for Inactive)
REMARK    1  A    between atoms: N1_1  and  C1_4 
REMARK    2  A    between atoms: C4_7  and  N2_8 
REMARK    3  A    between atoms: N2_8  and  C5_10 
REMARK    4  A    between atoms: C5_10  and  C6_11 
REMARK    5  A    between atoms: C9_14  and  C10_15 
REMARK    6  A    between atoms: C14_19  and  O1_20 
REMARK    7  A    between atoms: O1_20  and  C15_21 
REMARK    8  A    between atoms: C15_21  and  C16_22 
ROOT
HETATM    1  C6  UNL     1       2.975  -1.293   0.552  1.00  0.00    -0.029 A 
HETATM    2  C7  UNL     1       2.316  -0.086   0.572  1.00  0.00     0.010 A 
HETATM    3  C8  UNL     1       1.075   0.090   0.007  1.00  0.00     0.014 A 
HETATM    4  C9  UNL     1       0.400  -0.964  -0.632  1.00  0.00    -0.015 A 
HETATM    5  C23 UNL     1       1.056  -2.169  -0.651  1.00  0.00    -0.014 A 
HETATM    6  C24 UNL     1       0.423  -3.250  -1.260  1.00  0.00     0.013 A 
HETATM    7  C25 UNL     1       1.071  -4.469  -1.276  1.00  0.00     0.001 A 
HETATM    8  C26 UNL     1       2.324  -4.614  -0.698  1.00  0.00     0.001 A 
HETATM    9  C27 UNL     1       2.964  -3.558  -0.091  1.00  0.00     0.013 A 
HETATM   10  C28 UNL     1       2.311  -2.344  -0.079  1.00  0.00    -0.017 A 
ENDROOT
BRANCH   4  11
HETATM   11  C10 UNL     1      -0.896  -0.701  -1.247  1.00  0.00    -0.022 A 
HETATM   12  C11 UNL     1      -1.218  -0.915  -2.563  1.00  0.00     0.012 A 
HETATM   13  C12 UNL     1      -2.457  -0.653  -3.103  1.00  0.00     0.004 A 
HETATM   14  C13 UNL     1      -3.432  -0.148  -2.289  1.00  0.00     0.037 A 
HETATM   15  C14 UNL     1      -3.170   0.088  -0.967  1.00  0.00     0.070 A 
HETATM   16  C22 UNL     1      -1.921  -0.185  -0.458  1.00  0.00     0.049 A 
BRANCH  15  17
HETATM   17  O1  UNL     1      -4.150   0.598  -0.139  1.00  0.00    -0.347 OA
BRANCH  17  18
HETATM   18  C15 UNL     1      -5.417   0.869  -0.679  1.00  0.00     0.214 C 
BRANCH  18  19
HETATM   19  C16 UNL     1      -6.342   1.410   0.350  1.00  0.00    -0.034 A 
HETATM   20  C17 UNL     1      -5.862   1.581   1.627  1.00  0.00     0.009 A 
HETATM   21  C18 UNL     1      -6.691   2.080   2.607  1.00  0.00     0.001 A 
HETATM   22  C19 UNL     1      -8.007   2.409   2.304  1.00  0.00     0.000 A 
HETATM   23  C20 UNL     1      -8.464   2.229   1.020  1.00  0.00     0.001 A 
HETATM   24  C21 UNL     1      -7.641   1.728   0.026  1.00  0.00     0.009 A 
ENDBRANCH  18  19
ENDBRANCH  17  18
ENDBRANCH  15  17
ENDBRANCH   4  11
BRANCH   1  25
HETATM   25  C5  UNL     1       4.303  -1.516   1.171  1.00  0.00     0.159 C 
BRANCH  25  26
HETATM   26  N2  UNL     1       4.908  -0.368   1.751  1.00  0.00    -0.385 N 
ATOM     27  H2  UNL     1       4.976  -0.302   2.767  1.00  0.00     0.160 HD
BRANCH  26  28
HETATM   28  C4  UNL     1       5.416   0.682   0.959  1.00  0.00     0.043 A 
HETATM   29  C3  UNL     1       5.470   0.567  -0.406  1.00  0.00     0.034 A 
HETATM   30  C2  UNL     1       5.974   1.625  -1.125  1.00  0.00     0.050 A 
HETATM   31  C1  UNL     1       6.422   2.787  -0.527  1.00  0.00     0.098 A 
HETATM   32  N3  UNL     1       6.357   2.874   0.818  1.00  0.00    -0.351 N 
HETATM   33  C29 UNL     1       5.860   1.833   1.547  1.00  0.00     0.118 A 
ATOM     34  H3  UNL     1       6.680   3.719   1.290  1.00  0.00     0.166 HD
BRANCH  31  35
HETATM   35  N1  UNL     1       6.895   3.783  -1.189  1.00  0.00    -0.385 N 
ATOM     36  H12 UNL     1       6.944   3.717  -2.206  1.00  0.00     0.157 HD
ATOM     37  H11 UNL     1       7.226   4.641  -0.747  1.00  0.00     0.157 HD
ENDBRANCH  31  35
ENDBRANCH  26  28
ENDBRANCH  25  26
ENDBRANCH   1  25
TORSDOF 8
