REMARK  7 active torsions:
REMARK  status: ('A' for Active; 'I' for Inactive)
REMARK    1  A    between atoms: C4_4  and  N1_5 
REMARK       I    between atoms: N1_5  and  C5_7 
REMARK    2  A    between atoms: C5_7  and  C6_9 
REMARK    3  A    between atoms: C14_17  and  N2_18 
REMARK    4  A    between atoms: N2_18  and  C15_20 
REMARK    5  A    between atoms: C20_25  and  C21_26 
REMARK       I    between atoms: C21_26  and  N3_28 
REMARK    6  A    between atoms: N3_28  and  C22_30 
REMARK    7  A    between atoms: C22_30  and  C23_31 
ROOT
HETATM    1  N2  UNL     1      -0.746  -0.323  -1.741  1.00  0.00    -0.355 N 
ATOM      2  H2  UNL     1      -1.130  -1.264  -1.657  1.00  0.00     0.166 HD
ENDROOT
BRANCH   1   3
HETATM    3  C14 UNL     1       0.524  -0.094  -1.176  1.00  0.00     0.038 A 
HETATM    4  C2  UNL     1       1.342  -1.195  -0.883  1.00  0.00    -0.033 A 
HETATM    5  C1  UNL     1       0.886  -2.532  -1.248  1.00  0.00     0.050 C 
HETATM    6  C3  UNL     1       2.577  -1.054  -0.257  1.00  0.00     0.038 A 
HETATM    7  C4  UNL     1       3.041   0.169   0.098  1.00  0.00     0.035 A 
HETATM    8  C12 UNL     1       2.227   1.293  -0.190  1.00  0.00     0.032 A 
HETATM    9  C13 UNL     1       1.008   1.135  -0.809  1.00  0.00     0.032 A 
BRANCH   7  10
HETATM   10  N1  UNL     1       4.289   0.386   0.722  1.00  0.00    -0.323 N 
HETATM   11  C5  UNL     1       5.311  -0.546   0.876  1.00  0.00     0.256 C 
HETATM   12  O1  UNL     1       5.304  -1.749   0.478  1.00  0.00    -0.267 OA
ATOM     13  H1  UNL     1       4.458   1.319   1.097  1.00  0.00     0.169 HD
BRANCH  11  14
HETATM   14  C6  UNL     1       6.567  -0.144   1.573  1.00  0.00     0.032 A 
HETATM   15  C7  UNL     1       7.733  -0.871   1.380  1.00  0.00     0.017 A 
HETATM   16  C8  UNL     1       8.904  -0.539   2.008  1.00  0.00     0.001 A 
HETATM   17  C9  UNL     1       8.939   0.544   2.858  1.00  0.00     0.000 A 
HETATM   18  C10 UNL     1       7.802   1.280   3.068  1.00  0.00     0.001 A 
HETATM   19  C11 UNL     1       6.619   0.917   2.412  1.00  0.00     0.017 A 
ENDBRANCH  11  14
ENDBRANCH   7  10
ENDBRANCH   1   3
BRANCH   1  20
HETATM   20  C15 UNL     1      -1.536   0.641  -2.416  1.00  0.00     0.048 A 
HETATM   21  C16 UNL     1      -0.890   1.609  -3.196  1.00  0.00     0.030 A 
HETATM   22  C17 UNL     1      -1.553   2.512  -3.996  1.00  0.00     0.002 A 
HETATM   23  C18 UNL     1      -2.920   2.490  -4.059  1.00  0.00     0.001 A 
HETATM   24  C19 UNL     1      -3.564   1.552  -3.306  1.00  0.00     0.019 A 
HETATM   25  C20 UNL     1      -2.917   0.621  -2.481  1.00  0.00     0.058 A 
BRANCH  25  26
HETATM   26  C21 UNL     1      -3.670  -0.291  -1.674  1.00  0.00     0.254 C 
HETATM   27  O2  UNL     1      -3.125  -1.066  -0.867  1.00  0.00    -0.268 OA
HETATM   28  N3  UNL     1      -5.109  -0.372  -1.743  1.00  0.00    -0.353 N 
ATOM     29  H3  UNL     1      -5.615   0.238  -2.385  1.00  0.00     0.163 HD
BRANCH  28  30
HETATM   30  C22 UNL     1      -5.854  -1.312  -0.909  1.00  0.00     0.161 C 
BRANCH  30  31
HETATM   31  C23 UNL     1      -5.962  -0.850   0.494  1.00  0.00    -0.041 A 
HETATM   32  C24 UNL     1      -6.572  -1.653   1.421  1.00  0.00     0.009 A 
HETATM   33  C25 UNL     1      -6.718  -1.307   2.746  1.00  0.00     0.001 A 
HETATM   34  C26 UNL     1      -6.214  -0.081   3.129  1.00  0.00     0.000 A 
HETATM   35  C27 UNL     1      -5.590   0.768   2.237  1.00  0.00     0.001 A 
HETATM   36  C28 UNL     1      -5.472   0.364   0.916  1.00  0.00     0.009 A 
ENDBRANCH  30  31
ENDBRANCH  28  30
ENDBRANCH  25  26
ENDBRANCH   1  20
TORSDOF 7
