REMARK  7 active torsions:
REMARK  status: ('A' for Active; 'I' for Inactive)
REMARK       I    between atoms: C1_2  and  N1_3 
REMARK       I    between atoms: C1_2  and  N2_17 
REMARK    1  A    between atoms: N1_3  and  C2_5 
REMARK    2  A    between atoms: C5_8  and  C6_9 
REMARK    3  A    between atoms: N2_17  and  C14_19 
REMARK    4  A    between atoms: C17_22  and  C18_23 
REMARK       I    between atoms: C18_23  and  N3_25 
REMARK    5  A    between atoms: N3_25  and  C19_27 
REMARK    6  A    between atoms: C19_27  and  C20_28 
REMARK    7  A    between atoms: C20_28  and  C21_29 
ROOT
HETATM    1  O1  UNL     1      -1.454  -0.300  -0.343  1.00  0.00    -0.247 OA
HETATM    2  C1  UNL     1      -1.556  -1.390   0.237  1.00  0.00     0.325 C 
HETATM    3  N1  UNL     1      -2.772  -1.938   0.625  1.00  0.00    -0.309 N 
ATOM      4  H1  UNL     1      -2.720  -2.841   1.097  1.00  0.00     0.170 HD
HETATM    5  N2  UNL     1      -0.341  -2.107   0.510  1.00  0.00    -0.303 N 
ATOM      6  H2  UNL     1      -0.362  -3.010   0.984  1.00  0.00     0.171 HD
ENDROOT
BRANCH   5   7
HETATM    7  C14 UNL     1       0.908  -1.518   0.097  1.00  0.00     0.078 A 
HETATM    8  C15 UNL     1       2.173  -2.009   0.248  1.00  0.00     0.039 A 
HETATM    9  C16 UNL     1       3.183  -1.273  -0.222  1.00  0.00     0.027 A 
HETATM   10  C17 UNL     1       2.878  -0.080  -0.821  1.00  0.00     0.074 A 
HETATM   11  S1  UNL     1       1.179  -0.024  -0.708  1.00  0.00    -0.067 SA
BRANCH  10  12
HETATM   12  C18 UNL     1       3.778   0.904  -1.412  1.00  0.00     0.258 C 
HETATM   13  O2  UNL     1       3.307   1.946  -1.922  1.00  0.00    -0.267 OA
HETATM   14  N3  UNL     1       5.180   0.700  -1.420  1.00  0.00    -0.356 N 
ATOM     15  H3  UNL     1       5.559  -0.150  -1.003  1.00  0.00     0.162 HD
BRANCH  14  16
HETATM   16  C19 UNL     1       6.082   1.655  -1.997  1.00  0.00     0.127 C 
BRANCH  16  17
HETATM   17  C20 UNL     1       7.517   1.258  -1.890  1.00  0.00     0.058 C 
BRANCH  17  18
HETATM   18  C21 UNL     1       7.932   1.117  -0.480  1.00  0.00    -0.057 A 
HETATM   19  C22 UNL     1       7.919  -0.103   0.146  1.00  0.00     0.007 A 
HETATM   20  C23 UNL     1       8.310  -0.166   1.481  1.00  0.00     0.001 A 
HETATM   21  C24 UNL     1       8.702   0.955   2.165  1.00  0.00     0.000 A 
HETATM   22  C25 UNL     1       8.707   2.167   1.512  1.00  0.00     0.001 A 
HETATM   23  C26 UNL     1       8.326   2.255   0.200  1.00  0.00     0.007 A 
ENDBRANCH  17  18
ENDBRANCH  16  17
ENDBRANCH  14  16
ENDBRANCH  10  12
ENDBRANCH   5   7
BRANCH   3  24
HETATM   24  C2  UNL     1      -4.073  -1.411   0.453  1.00  0.00     0.036 A 
HETATM   25  C3  UNL     1      -5.132  -1.989   1.165  1.00  0.00     0.030 A 
HETATM   26  C4  UNL     1      -6.388  -1.500   0.993  1.00  0.00     0.014 A 
HETATM   27  C5  UNL     1      -6.661  -0.452   0.141  1.00  0.00    -0.026 A 
HETATM   28  C12 UNL     1      -5.642   0.107  -0.547  1.00  0.00     0.014 A 
HETATM   29  C13 UNL     1      -4.340  -0.375  -0.391  1.00  0.00     0.030 A 
BRANCH  27  30
HETATM   30  C6  UNL     1      -8.046   0.043  -0.012  1.00  0.00    -0.026 A 
HETATM   31  C7  UNL     1      -8.322   1.367  -0.290  1.00  0.00     0.012 A 
HETATM   32  C8  UNL     1      -9.619   1.832  -0.436  1.00  0.00     0.001 A 
HETATM   33  C9  UNL     1     -10.653   0.929  -0.295  1.00  0.00     0.000 A 
HETATM   34  C10 UNL     1     -10.374  -0.392  -0.017  1.00  0.00     0.001 A 
HETATM   35  C11 UNL     1      -9.067  -0.870   0.131  1.00  0.00     0.012 A 
ENDBRANCH  27  30
ENDBRANCH   3  24
TORSDOF 7
