REMARK  6 active torsions:
REMARK  status: ('A' for Active; 'I' for Inactive)
REMARK    1  A    between atoms: C2_2  and  C4_4 
REMARK    2  A    between atoms: C4_4  and  C5_5 
REMARK    3  A    between atoms: C5_5  and  C8_8 
REMARK    4  A    between atoms: C10_11  and  O2_12 
REMARK    5  A    between atoms: C13_15  and  C14_16 
REMARK    6  A    between atoms: C17_19  and  O3_20 
ROOT
HETATM    1  C8  UNL     1       1.709  -1.247   0.023  1.00  0.00     0.071 C 
HETATM    2  O1  UNL     1       0.572  -0.686   0.403  1.00  0.00    -0.308 OA
HETATM    3  C9  UNL     1      -0.661  -0.241   0.170  1.00  0.00     0.145 A 
HETATM    4  C10 UNL     1      -1.358   0.357   1.242  1.00  0.00     0.105 A 
HETATM    5  C12 UNL     1      -2.627   0.877   1.153  1.00  0.00     0.050 A 
HETATM    6  C13 UNL     1      -3.267   0.827  -0.046  1.00  0.00    -0.016 A 
HETATM    7  C17 UNL     1      -2.609   0.247  -1.109  1.00  0.00     0.108 A 
HETATM    8  C18 UNL     1      -1.342  -0.290  -1.042  1.00  0.00     0.139 A 
HETATM    9  O4  UNL     1      -0.832  -0.865  -2.184  1.00  0.00    -0.345 OA
HETATM   10  C19 UNL     1      -0.619  -2.188  -2.496  1.00  0.00     0.179 C 
HETATM   11  C20 UNL     1       0.779  -2.606  -2.762  1.00  0.00     0.054 C 
HETATM   12  C21 UNL     1       1.432  -3.194  -1.571  1.00  0.00    -0.015 C 
HETATM   13  C22 UNL     1       1.806  -2.642  -0.453  1.00  0.00    -0.035 C 
HETATM   14  C23 UNL     1       2.441  -3.671   0.506  1.00  0.00     0.050 C 
ENDROOT
BRANCH   1  15
HETATM   15  C5  UNL     1       2.820  -0.370  -0.477  1.00  0.00     0.021 C 
HETATM   16  C6  UNL     1       2.468   0.475  -1.697  1.00  0.00     0.026 C 
HETATM   17  C7  UNL     1       4.015  -1.257  -0.933  1.00  0.00     0.026 C 
BRANCH  15  18
HETATM   18  C4  UNL     1       3.427   0.597   0.476  1.00  0.00    -0.005 C 
BRANCH  18  19
HETATM   19  C2  UNL     1       2.714   1.728   1.014  1.00  0.00    -0.074 C 
HETATM   20  C1  UNL     1       2.887   1.932   2.367  1.00  0.00     0.018 C 
HETATM   21  C3  UNL     1       1.815   2.674   0.339  1.00  0.00     0.047 C 
ENDBRANCH  18  19
ENDBRANCH  15  18
ENDBRANCH   1  15
BRANCH   4  22
HETATM   22  O2  UNL     1      -0.756   0.453   2.492  1.00  0.00    -0.353 OA
HETATM   23  C11 UNL     1      -1.262   1.016   3.646  1.00  0.00     0.210 C 
ENDBRANCH   4  22
BRANCH   7  24
HETATM   24  O3  UNL     1      -3.387   0.270  -2.289  1.00  0.00    -0.357 OA
ATOM     25  H3  UNL     1      -2.933  -0.130  -3.022  1.00  0.00     0.217 HD
ENDBRANCH   7  24
BRANCH   6  26
HETATM   26  C14 UNL     1      -4.552   1.545  -0.237  1.00  0.00     0.013 C 
HETATM   27  C15 UNL     1      -5.581   0.909   0.707  1.00  0.00     0.015 C 
HETATM   28  C16 UNL     1      -4.409   2.981   0.415  1.00  0.00     0.015 C 
ENDBRANCH   6  26
TORSDOF 6
