REMARK  3 active torsions:
REMARK  status: ('A' for Active; 'I' for Inactive)
REMARK    1  A    between atoms: C2_2  and  C5_7 
REMARK    2  A    between atoms: C3_3  and  C4_4 
REMARK    3  A    between atoms: C4_4  and  O1_5 
ROOT
HETATM    1  C5  UNL     1       1.961   0.439  -0.433  1.00  0.00     0.019 C 
HETATM    2  C6  UNL     1       1.823   1.120   0.893  1.00  0.00     0.010 C 
HETATM    3  C7  UNL     1       0.451   1.787   0.691  1.00  0.00     0.010 C 
HETATM    4  C8  UNL     1      -0.262   0.984  -0.377  1.00  0.00    -0.035 C 
HETATM    5  C9  UNL     1      -0.186   1.771  -1.669  1.00  0.00     0.016 C 
HETATM    6  C10 UNL     1       0.644  -0.231  -0.580  1.00  0.00     0.002 C 
HETATM    7  C11 UNL     1       0.326  -1.307   0.407  1.00  0.00     0.007 C 
HETATM    8  C12 UNL     1      -1.136  -1.707   0.217  1.00  0.00     0.011 C 
HETATM    9  C13 UNL     1      -1.975  -0.565   0.680  1.00  0.00    -0.026 C 
HETATM   10  C14 UNL     1      -1.928  -0.428   2.171  1.00  0.00     0.016 C 
HETATM   11  C15 UNL     1      -3.439  -0.917   0.357  1.00  0.00     0.067 C 
HETATM   12  S1  UNL     1      -3.589  -1.255  -1.423  1.00  0.00    -0.092 SA
HETATM   13  C16 UNL     1      -4.355   0.215   0.710  1.00  0.00     0.017 C 
HETATM   14  C17 UNL     1      -3.875   1.569   0.320  1.00  0.00     0.002 C 
HETATM   15  C18 UNL     1      -2.403   1.811   0.579  1.00  0.00     0.006 C 
HETATM   16  C19 UNL     1      -1.665   0.655  -0.097  1.00  0.00     0.003 C 
ENDROOT
BRANCH   1  17
HETATM   17  C2  UNL     1       3.182  -0.255  -0.728  1.00  0.00    -0.081 C 
HETATM   18  C1  UNL     1       4.474   0.490  -0.456  1.00  0.00     0.043 C 
HETATM   19  C3  UNL     1       3.309  -1.475  -1.190  1.00  0.00     0.002 C 
BRANCH  19  20
HETATM   20  C4  UNL     1       4.652  -2.069  -1.423  1.00  0.00     0.191 C 
BRANCH  20  21
HETATM   21  O1  UNL     1       4.713  -3.215  -0.597  1.00  0.00    -0.397 OA
ATOM     22  H1  UNL     1       5.571  -3.595  -0.746  1.00  0.00     0.209 HD
ENDBRANCH  20  21
ENDBRANCH  19  20
ENDBRANCH   1  17
TORSDOF 3
