REMARK  3 active torsions:
REMARK  status: ('A' for Active; 'I' for Inactive)
REMARK    1  A    between atoms: C2_2  and  C3_3 
REMARK    2  A    between atoms: C11_14  and  C12_15 
REMARK    3  A    between atoms: C12_15  and  O1_17 
ROOT
HETATM    1  C3  UNL     1      -3.539  -0.273   0.721  1.00  0.00     0.075 C 
HETATM    2  C4  UNL     1      -3.986   0.269   2.091  1.00  0.00     0.050 C 
HETATM    3  C5  UNL     1      -3.188  -1.713   0.944  1.00  0.00     0.042 C 
HETATM    4  C6  UNL     1      -1.719  -1.709   1.320  1.00  0.00     0.011 C 
HETATM    5  C7  UNL     1      -1.029  -1.251   0.016  1.00  0.00     0.025 C 
HETATM    6  C8  UNL     1       0.400  -1.585   0.208  1.00  0.00     0.059 C 
HETATM    7  C9  UNL     1       1.248  -1.681  -0.975  1.00  0.00    -0.019 C 
HETATM    8  N1  UNL     1       1.000  -2.621  -1.816  1.00  0.00    -0.406 N 
ATOM      9  H11 UNL     1       1.593  -2.688  -2.643  1.00  0.00     0.155 HD
ATOM     10  H12 UNL     1       0.212  -3.214  -1.555  1.00  0.00     0.155 HD
HETATM   11  C10 UNL     1       2.394  -0.819  -1.354  1.00  0.00     0.063 C 
HETATM   12  C11 UNL     1       2.806   0.190  -0.320  1.00  0.00     0.047 C 
HETATM   13  C14 UNL     1       2.680   1.582  -0.824  1.00  0.00    -0.081 C 
HETATM   14  C15 UNL     1       3.947   2.409  -0.914  1.00  0.00     0.043 C 
HETATM   15  C16 UNL     1       1.587   2.180  -1.244  1.00  0.00    -0.024 C 
HETATM   16  C17 UNL     1       0.204   1.679  -1.347  1.00  0.00     0.030 C 
HETATM   17  C18 UNL     1      -0.457   1.225  -0.101  1.00  0.00     0.042 C 
HETATM   18  C19 UNL     1      -1.464   0.088  -0.348  1.00  0.00     0.063 C 
HETATM   19  C20 UNL     1      -1.841   0.082  -1.847  1.00  0.00     0.046 C 
HETATM   20  O2  UNL     1      -2.643   0.532   0.210  1.00  0.00    -0.366 OA
ENDROOT
BRANCH  12  21
HETATM   21  C12 UNL     1       4.257  -0.179   0.048  1.00  0.00     0.122 C 
HETATM   22  C13 UNL     1       4.849   0.677   1.102  1.00  0.00     0.040 C 
BRANCH  21  23
HETATM   23  O1  UNL     1       4.151  -1.484   0.568  1.00  0.00    -0.395 OA
ATOM     24  H1  UNL     1       5.045  -1.711   0.795  1.00  0.00     0.210 HD
ENDBRANCH  21  23
ENDBRANCH  12  21
BRANCH   1  25
HETATM   25  C2  UNL     1      -4.790  -0.265  -0.112  1.00  0.00     0.000 C 
HETATM   26  C1  UNL     1      -5.694   0.668   0.042  1.00  0.00     0.010 C 
ENDBRANCH   1  25
TORSDOF 3
