REMARK  1 active torsions:
REMARK  status: ('A' for Active; 'I' for Inactive)
REMARK    1  A    between atoms: C15_16  and  C16_17 
ROOT
HETATM    1  C1  UNL     1      -2.947  -1.164  -1.199  1.00  0.00     0.020 C 
HETATM    2  C2  UNL     1      -2.540   0.170  -0.594  1.00  0.00    -0.020 C 
HETATM    3  C3  UNL     1      -3.231   1.239  -1.384  1.00  0.00     0.020 C 
HETATM    4  C4  UNL     1      -3.000   0.158   0.838  1.00  0.00    -0.062 C 
HETATM    5  C5  UNL     1      -4.044   0.907   1.150  1.00  0.00     0.097 C 
HETATM    6  C6  UNL     1      -4.531   0.937   2.504  1.00  0.00     0.088 C 
HETATM    7  N1  UNL     1      -4.915   0.976   3.607  1.00  0.00    -0.192 NA
HETATM    8  C7  UNL     1      -2.286  -0.664   1.807  1.00  0.00     0.036 C 
HETATM    9  C8  UNL     1      -0.796  -0.722   1.628  1.00  0.00     0.010 C 
HETATM   10  C9  UNL     1      -0.451  -0.844   0.141  1.00  0.00    -0.004 C 
HETATM   11  C10 UNL     1      -1.059   0.353  -0.519  1.00  0.00     0.002 C 
HETATM   12  C11 UNL     1      -0.375   0.699  -1.793  1.00  0.00     0.007 C 
HETATM   13  C12 UNL     1       1.027   1.149  -1.278  1.00  0.00     0.015 C 
HETATM   14  C13 UNL     1       1.797  -0.009  -0.761  1.00  0.00    -0.008 C 
HETATM   15  C14 UNL     1       2.486  -0.551  -2.043  1.00  0.00     0.021 C 
HETATM   16  C15 UNL     1       2.925   0.476   0.071  1.00  0.00     0.012 C 
HETATM   17  C17 UNL     1       3.544  -0.343   0.927  1.00  0.00    -0.014 C 
HETATM   18  C18 UNL     1       3.092  -1.736   1.033  1.00  0.00     0.028 C 
HETATM   19  C19 UNL     1       1.569  -1.637   1.154  1.00  0.00     0.010 C 
HETATM   20  C20 UNL     1       0.977  -1.088  -0.131  1.00  0.00     0.003 C 
ENDROOT
BRANCH  16  21
HETATM   21  C16 UNL     1       3.470   1.822   0.046  1.00  0.00     0.261 C 
HETATM   22  N2  UNL     1       4.568   2.221   0.876  1.00  0.00    -0.057 NA
HETATM   23  O1  UNL     1       3.009   2.699  -0.702  1.00  0.00    -0.271 OA
ENDBRANCH  16  21
TORSDOF 1
