REMARK  2 active torsions:
REMARK  status: ('A' for Active; 'I' for Inactive)
REMARK       I    between atoms: C1_2  and  N1_3 
REMARK    1  A    between atoms: C1_2  and  C5_12 
REMARK    2  A    between atoms: N1_3  and  N2_5 
ROOT
HETATM    1  C5  UNL     1       1.083  -0.992   0.633  1.00  0.00     0.141 C 
HETATM    2  C6  UNL     1       0.437  -1.832  -0.476  1.00  0.00     0.025 C 
HETATM    3  C7  UNL     1      -0.577  -2.786   0.050  1.00  0.00     0.002 C 
HETATM    4  C8  UNL     1      -1.986  -2.305  -0.002  1.00  0.00     0.000 C 
HETATM    5  C9  UNL     1      -2.308  -1.520  -1.251  1.00  0.00     0.000 C 
HETATM    6  C10 UNL     1      -3.797  -1.302  -1.346  1.00  0.00     0.000 C 
HETATM    7  C11 UNL     1      -4.291  -0.296  -0.337  1.00  0.00     0.000 C 
HETATM    8  C12 UNL     1      -3.851   1.100  -0.609  1.00  0.00     0.000 C 
HETATM    9  C13 UNL     1      -3.839   1.870   0.682  1.00  0.00     0.000 C 
HETATM   10  C14 UNL     1      -2.602   1.638   1.504  1.00  0.00     0.001 C 
HETATM   11  C15 UNL     1      -1.427   2.459   1.069  1.00  0.00     0.010 C 
HETATM   12  C16 UNL     1      -0.303   1.637   0.488  1.00  0.00     0.075 C 
HETATM   13  S1  UNL     1      -0.106   0.099   1.424  1.00  0.00    -0.155 SA
ENDROOT
BRANCH   1  14
HETATM   14  C1  UNL     1       2.201  -0.220   0.017  1.00  0.00     0.249 C 
HETATM   15  O1  UNL     1       2.476  -0.319  -1.207  1.00  0.00    -0.271 OA
HETATM   16  N1  UNL     1       2.991   0.656   0.813  1.00  0.00    -0.268 N 
ATOM     17  H1  UNL     1       2.778   0.745   1.807  1.00  0.00     0.190 HD
BRANCH  16  18
HETATM   18  N2  UNL     1       4.032   1.387   0.288  1.00  0.00    -0.287 N 
HETATM   19  C2  UNL     1       5.126   0.901  -0.154  1.00  0.00     0.093 C 
HETATM   20  C3  UNL     1       6.395   1.375  -0.757  1.00  0.00     0.097 C 
HETATM   21  N3  UNL     1       5.627  -0.426  -0.258  1.00  0.00    -0.378 N 
HETATM   22  C4  UNL     1       6.961   0.129  -0.085  1.00  0.00     0.128 C 
ATOM     23  H3  UNL     1       5.228  -1.355  -0.394  1.00  0.00     0.160 HD
ATOM     24  H2  UNL     1       3.920   2.400   0.249  1.00  0.00     0.188 HD
ENDBRANCH  16  18
ENDBRANCH   1  14
TORSDOF 2
