REMARK  3 active torsions:
REMARK  status: ('A' for Active; 'I' for Inactive)
REMARK    1  A    between atoms: C2_2  and  C3_3 
REMARK    2  A    between atoms: C10_10  and  C11_11 
REMARK    3  A    between atoms: C19_22  and  O1_23 
ROOT
HETATM    1  C11 UNL     1      -1.357   0.752   0.140  1.00  0.00     0.072 C 
HETATM    2  C12 UNL     1      -1.886   2.145   0.092  1.00  0.00     0.017 C 
HETATM    3  C13 UNL     1      -3.205   2.375   0.727  1.00  0.00    -0.018 C 
HETATM    4  C14 UNL     1      -3.066   2.883   2.153  1.00  0.00     0.010 C 
HETATM    5  C15 UNL     1      -4.136   1.217   0.743  1.00  0.00     0.009 C 
HETATM    6  C16 UNL     1      -3.500  -0.103   1.038  1.00  0.00     0.070 C 
HETATM    7  C17 UNL     1      -2.405  -0.320   0.037  1.00  0.00     0.235 C 
HETATM    8  N1  UNL     1      -2.864  -0.428  -1.313  1.00  0.00    -0.038 N 
ATOM      9  H11 UNL     1      -2.402   0.218  -1.953  1.00  0.00     0.281 HD
ATOM     10  H12 UNL     1      -3.813  -0.080  -1.450  1.00  0.00     0.281 HD
HETATM   11  C18 UNL     1      -2.700  -1.824  -1.679  1.00  0.00     0.296 C 
HETATM   12  C19 UNL     1      -2.574  -2.468  -0.314  1.00  0.00     0.285 C 
HETATM   13  O2  UNL     1      -1.792  -1.543   0.357  1.00  0.00    -0.321 OA
ENDROOT
BRANCH   1  14
HETATM   14  C10 UNL     1      -0.403   0.547  -0.983  1.00  0.00    -0.014 C 
HETATM   15  C9  UNL     1       0.894   0.311  -0.830  1.00  0.00    -0.079 C 
HETATM   16  C7  UNL     1       1.760   0.120  -2.009  1.00  0.00     0.010 C 
HETATM   17  C20 UNL     1       1.394   0.255   0.580  1.00  0.00     0.043 C 
HETATM   18  C6  UNL     1       3.205   0.364  -1.798  1.00  0.00     0.009 C 
HETATM   19  C8  UNL     1       1.511  -1.242  -2.652  1.00  0.00     0.015 C 
HETATM   20  C5  UNL     1       3.653   0.648  -0.426  1.00  0.00     0.010 C 
HETATM   21  C3  UNL     1       2.867   0.044   0.677  1.00  0.00    -0.041 C 
HETATM   22  C4  UNL     1       3.325   0.733   1.972  1.00  0.00     0.015 C 
BRANCH  21  23
HETATM   23  C2  UNL     1       3.205  -1.437   0.897  1.00  0.00     0.005 C 
HETATM   24  C1  UNL     1       4.690  -1.606   1.125  1.00  0.00     0.006 C 
ENDBRANCH  21  23
ENDBRANCH   1  14
BRANCH  12  25
HETATM   25  O1  UNL     1      -1.976  -3.719  -0.383  1.00  0.00    -0.369 OA
ATOM     26  H1  UNL     1      -1.897  -4.123   0.473  1.00  0.00     0.212 HD
ENDBRANCH  12  25
TORSDOF 3
