REMARK  6 active torsions:
REMARK  status: ('A' for Active; 'I' for Inactive)
REMARK    1  A    between atoms: C2_2  and  C3_3 
REMARK    2  A    between atoms: C3_3  and  C4_4 
REMARK    3  A    between atoms: C4_4  and  C5_5 
REMARK    4  A    between atoms: C5_5  and  N1_6 
REMARK    5  A    between atoms: C17_20  and  C18_21 
REMARK    6  A    between atoms: C18_21  and  C19_22 
ROOT
HETATM    1  N1  UNL     1      -1.176  -0.098   0.385  1.00  0.00    -0.315 N 
HETATM    2  C6  UNL     1      -0.299  -0.724  -0.419  1.00  0.00     0.056 A 
HETATM    3  C7  UNL     1      -0.226  -2.136  -0.385  1.00  0.00     0.002 A 
HETATM    4  C8  UNL     1      -1.009  -2.876   0.441  1.00  0.00    -0.036 A 
HETATM    5  C9  UNL     1      -1.893  -2.230   1.257  1.00  0.00     0.017 A 
HETATM    6  C10 UNL     1      -1.941  -0.869   1.195  1.00  0.00     0.254 A 
HETATM    7  O1  UNL     1      -2.750  -0.266   1.939  1.00  0.00    -0.267 OA
HETATM    8  C11 UNL     1      -2.753  -3.006   2.166  1.00  0.00     0.045 C 
HETATM    9  C12 UNL     1      -3.157  -4.345   1.670  1.00  0.00     0.005 C 
HETATM   10  C13 UNL     1      -2.298  -4.961   0.633  1.00  0.00     0.005 C 
HETATM   11  C14 UNL     1      -0.934  -4.345   0.482  1.00  0.00     0.040 C 
HETATM   12  C15 UNL     1       0.708  -2.632  -1.437  1.00  0.00     0.314 C 
HETATM   13  N2  UNL     1       0.690  -1.496  -2.335  1.00  0.00     0.098 N 
HETATM   14  C16 UNL     1       1.794  -1.506  -3.247  1.00  0.00     0.311 C 
HETATM   15  C17 UNL     1       0.765  -0.371  -1.391  1.00  0.00     0.273 C 
ENDROOT
BRANCH  15  16
HETATM   16  C18 UNL     1       2.100  -0.375  -0.759  1.00  0.00     0.046 C 
BRANCH  16  17
HETATM   17  C19 UNL     1       2.452   0.565   0.315  1.00  0.00    -0.012 C 
HETATM   18  C20 UNL     1       2.447   2.024  -0.066  1.00  0.00     0.005 C 
HETATM   19  C21 UNL     1       3.827   2.629   0.174  1.00  0.00     0.000 C 
HETATM   20  C22 UNL     1       4.116   2.481   1.627  1.00  0.00     0.000 C 
HETATM   21  C23 UNL     1       4.303   1.026   1.952  1.00  0.00     0.000 C 
HETATM   22  C24 UNL     1       3.805   0.150   0.866  1.00  0.00     0.005 C 
ENDBRANCH  16  17
ENDBRANCH  15  16
BRANCH   1  23
HETATM   23  C5  UNL     1      -1.331   1.303   0.303  1.00  0.00     0.132 C 
BRANCH  23  24
HETATM   24  C4  UNL     1      -2.387   1.774  -0.664  1.00  0.00     0.020 C 
BRANCH  24  25
HETATM   25  C3  UNL     1      -2.378   3.299  -0.587  1.00  0.00     0.001 C 
BRANCH  25  26
HETATM   26  C2  UNL     1      -3.447   3.770  -1.566  1.00  0.00    -0.004 C 
HETATM   27  C1  UNL     1      -3.549   5.275  -1.594  1.00  0.00     0.005 C 
ENDBRANCH  25  26
ENDBRANCH  24  25
ENDBRANCH  23  24
ENDBRANCH   1  23
TORSDOF 6
