REMARK  7 active torsions:
REMARK  status: ('A' for Active; 'I' for Inactive)
REMARK    1  A    between atoms: N1_10  and  C10_11 
REMARK    2  A    between atoms: C10_11  and  C11_12 
REMARK    3  A    between atoms: C11_12  and  C12_13 
REMARK    4  A    between atoms: C12_13  and  N2_14 
REMARK    5  A    between atoms: N2_14  and  C13_15 
REMARK    6  A    between atoms: N2_14  and  C15_17 
REMARK    7  A    between atoms: C24_26  and  O1_27 
ROOT
HETATM    1  C1  UNL     1      -5.341  -0.626   2.116  1.00  0.00     0.017 C 
HETATM    2  C2  UNL     1      -4.445   0.158   1.572  1.00  0.00    -0.054 C 
HETATM    3  C3  UNL     1      -2.974   0.108   1.880  1.00  0.00     0.039 C 
HETATM    4  C4  UNL     1      -2.176  -0.803   1.052  1.00  0.00     0.039 C 
HETATM    5  C5  UNL     1      -0.813  -0.241   0.578  1.00  0.00     0.050 C 
HETATM    6  C6  UNL     1      -0.020  -0.112   1.870  1.00  0.00     0.035 C 
HETATM    7  C7  UNL     1       0.623  -1.295   2.415  1.00  0.00     0.004 C 
HETATM    8  C8  UNL     1       0.585  -2.585   1.684  1.00  0.00     0.020 C 
HETATM    9  C9  UNL     1      -0.127  -2.527   0.359  1.00  0.00     0.123 C 
HETATM   10  N1  UNL     1      -0.149  -1.205  -0.206  1.00  0.00    -0.381 N 
HETATM   11  C17 UNL     1      -0.901   1.106  -0.014  1.00  0.00     0.000 C 
HETATM   12  C18 UNL     1      -1.490   1.398  -1.301  1.00  0.00    -0.028 C 
HETATM   13  C19 UNL     1      -2.395   0.464  -1.992  1.00  0.00     0.032 C 
HETATM   14  C20 UNL     1      -3.840   0.638  -1.692  1.00  0.00    -0.003 C 
HETATM   15  C21 UNL     1      -4.202   0.878  -0.562  1.00  0.00     0.036 A 
HETATM   16  C22 UNL     1      -5.665   0.945  -0.611  1.00  0.00     0.033 A 
HETATM   17  C23 UNL     1      -5.272   0.836  -2.065  1.00  0.00     0.014 C 
HETATM   18  C24 UNL     1      -4.887   1.179   0.579  1.00  0.00     0.089 A 
ENDROOT
BRANCH  10  19
HETATM   19  C10 UNL     1       0.902  -0.895  -1.052  1.00  0.00     0.061 C 
BRANCH  19  20
HETATM   20  C11 UNL     1       2.242  -0.509  -0.486  1.00  0.00     0.074 C 
BRANCH  20  21
HETATM   21  C12 UNL     1       3.155  -0.258  -1.709  1.00  0.00     0.277 C 
BRANCH  21  22
HETATM   22  N2  UNL     1       4.483   0.116  -1.316  1.00  0.00     0.088 N 
BRANCH  22  23
HETATM   23  C13 UNL     1       5.213  -0.948  -0.689  1.00  0.00     0.268 C 
HETATM   24  C14 UNL     1       6.605  -0.458  -0.367  1.00  0.00     0.037 C 
ENDBRANCH  22  23
BRANCH  22  25
HETATM   25  C15 UNL     1       4.579   1.373  -0.653  1.00  0.00     0.268 C 
HETATM   26  C16 UNL     1       4.258   2.534  -1.583  1.00  0.00     0.037 C 
ENDBRANCH  22  25
ENDBRANCH  21  22
ENDBRANCH  20  21
ENDBRANCH  19  20
ENDBRANCH  10  19
BRANCH  18  27
HETATM   27  O1  UNL     1      -5.033   2.485   1.126  1.00  0.00    -0.384 OA
ATOM     28  H1  UNL     1      -5.315   3.135   0.493  1.00  0.00     0.211 HD
ENDBRANCH  18  27
TORSDOF 7
