REMARK  7 active torsions:
REMARK  status: ('A' for Active; 'I' for Inactive)
REMARK    1  A    between atoms: C9_9  and  C10_10 
REMARK    2  A    between atoms: C10_10  and  C11_11 
REMARK    3  A    between atoms: C11_11  and  C12_12 
REMARK    4  A    between atoms: C12_12  and  C13_14 
REMARK    5  A    between atoms: C13_14  and  C14_15 
REMARK    6  A    between atoms: C14_15  and  C15_16 
REMARK    7  A    between atoms: C15_16  and  C16_17 
ROOT
HETATM    1  C1  UNL     1      -7.097  -0.152   0.103  1.00  0.00     0.018 C 
HETATM    2  C2  UNL     1      -5.620   0.201   0.182  1.00  0.00     0.051 C 
HETATM    3  C3  UNL     1      -4.871  -0.623  -0.820  1.00  0.00     0.017 C 
HETATM    4  C4  UNL     1      -3.645  -1.198  -0.091  1.00  0.00    -0.001 C 
HETATM    5  C5  UNL     1      -2.884  -2.135  -0.951  1.00  0.00     0.008 C 
HETATM    6  C6  UNL     1      -2.412  -3.306  -0.079  1.00  0.00     0.014 C 
HETATM    7  C7  UNL     1      -1.737  -1.569  -1.650  1.00  0.00    -0.025 C 
HETATM    8  C8  UNL     1      -1.171  -0.453  -1.201  1.00  0.00    -0.016 C 
HETATM    9  C9  UNL     1      -1.608   0.295  -0.021  1.00  0.00     0.003 A 
HETATM   10  C21 UNL     1      -2.808   1.154  -0.259  1.00  0.00     0.008 A 
HETATM   11  C22 UNL     1      -3.079   2.380   0.585  1.00  0.00     0.013 C 
HETATM   12  C23 UNL     1      -4.549   2.735   0.606  1.00  0.00     0.079 C 
HETATM   13  C24 UNL     1      -5.400   1.664   0.037  1.00  0.00     0.130 C 
HETATM   14  O2  UNL     1      -6.152   2.111  -0.810  1.00  0.00    -0.298 OA
HETATM   15  C25 UNL     1      -2.921  -0.084   0.527  1.00  0.00     0.012 A 
ENDROOT
BRANCH   9  16
HETATM   16  C10 UNL     1      -0.589   0.683   0.979  1.00  0.00    -0.009 C 
BRANCH  16  17
HETATM   17  C11 UNL     1       0.518   1.574   0.664  1.00  0.00     0.047 C 
BRANCH  17  18
HETATM   18  C12 UNL     1       1.517   1.274  -0.327  1.00  0.00     0.149 C 
HETATM   19  O1  UNL     1       1.552   1.828  -1.409  1.00  0.00    -0.293 OA
BRANCH  18  20
HETATM   20  C13 UNL     1       2.592   0.246  -0.066  1.00  0.00     0.083 C 
BRANCH  20  21
HETATM   21  C14 UNL     1       3.669   0.827   0.796  1.00  0.00     0.008 C 
BRANCH  21  22
HETATM   22  C15 UNL     1       4.740  -0.182   1.064  1.00  0.00     0.005 C 
BRANCH  22  23
HETATM   23  C16 UNL     1       5.417  -0.628  -0.185  1.00  0.00    -0.014 C 
HETATM   24  C17 UNL     1       6.503  -1.644   0.200  1.00  0.00     0.004 C 
HETATM   25  C18 UNL     1       7.788  -0.819   0.219  1.00  0.00     0.000 C 
HETATM   26  C19 UNL     1       7.560   0.043  -1.025  1.00  0.00     0.000 C 
HETATM   27  C20 UNL     1       6.137   0.504  -0.878  1.00  0.00     0.004 C 
ENDBRANCH  22  23
ENDBRANCH  21  22
ENDBRANCH  20  21
ENDBRANCH  18  20
ENDBRANCH  17  18
ENDBRANCH  16  17
ENDBRANCH   9  16
TORSDOF 7
