REMARK  7 active torsions:
REMARK  status: ('A' for Active; 'I' for Inactive)
REMARK    1  A    between atoms: C2_2  and  O1_3 
REMARK    2  A    between atoms: O1_3  and  C3_4 
REMARK    3  A    between atoms: C12_15  and  C13_16 
REMARK    4  A    between atoms: C14_17  and  C15_18 
REMARK    5  A    between atoms: C15_18  and  C16_19 
REMARK    6  A    between atoms: C16_19  and  C18_21 
REMARK    7  A    between atoms: C19_22  and  C20_23 
ROOT
HETATM    1  C3  UNL     1      -3.933   0.913   0.610  1.00  0.00     0.134 C 
HETATM    2  C4  UNL     1      -4.600   1.996  -0.250  1.00  0.00     0.112 C 
HETATM    3  C5  UNL     1      -4.062   1.706  -1.598  1.00  0.00     0.145 C 
HETATM    4  O2  UNL     1      -4.620   1.707  -2.638  1.00  0.00    -0.297 OA
HETATM    5  C6  UNL     1      -2.612   1.398  -1.358  1.00  0.00     0.084 C 
HETATM    6  C7  UNL     1      -1.917   2.769  -1.414  1.00  0.00     0.032 C 
HETATM    7  C8  UNL     1      -2.119   0.609  -2.484  1.00  0.00     0.143 C 
HETATM    8  O3  UNL     1      -1.948   1.183  -3.560  1.00  0.00    -0.297 OA
HETATM    9  C9  UNL     1      -1.801  -0.845  -2.442  1.00  0.00     0.084 C 
HETATM   10  C10 UNL     1      -2.528  -1.397  -1.243  1.00  0.00    -0.004 C 
HETATM   11  C11 UNL     1      -2.397  -2.856  -1.069  1.00  0.00     0.011 C 
HETATM   12  C12 UNL     1      -2.095  -0.668   0.039  1.00  0.00     0.021 C 
HETATM   13  C24 UNL     1      -2.524   0.765  -0.028  1.00  0.00     0.046 C 
ENDROOT
BRANCH  12  14
HETATM   14  C13 UNL     1      -0.669  -0.888   0.295  1.00  0.00    -0.013 C 
HETATM   15  C14 UNL     1       0.295   0.050   0.360  1.00  0.00     0.052 C 
BRANCH  15  16
HETATM   16  C15 UNL     1       1.591  -0.307   0.624  1.00  0.00    -0.122 C 
BRANCH  16  17
HETATM   17  C16 UNL     1       2.794  -0.631   0.867  1.00  0.00    -0.017 C 
HETATM   18  C17 UNL     1       3.133  -2.087   1.185  1.00  0.00     0.057 C 
BRANCH  17  19
HETATM   19  C18 UNL     1       3.939   0.260   0.825  1.00  0.00     0.011 C 
HETATM   20  C19 UNL     1       5.175  -0.081   1.096  1.00  0.00    -0.021 C 
BRANCH  20  21
HETATM   21  C20 UNL     1       6.231   0.984   0.991  1.00  0.00     0.012 A 
HETATM   22  C21 UNL     1       7.622   0.805   1.408  1.00  0.00     0.013 A 
HETATM   23  C22 UNL     1       7.278   0.580  -0.038  1.00  0.00    -0.010 A 
HETATM   24  C23 UNL     1       7.700   1.622  -1.036  1.00  0.00     0.010 C 
ENDBRANCH  20  21
ENDBRANCH  17  19
ENDBRANCH  16  17
ENDBRANCH  15  16
ENDBRANCH  12  14
BRANCH   1  25
HETATM   25  O1  UNL     1      -4.588  -0.259   0.559  1.00  0.00    -0.385 OA
BRANCH  25  26
HETATM   26  C2  UNL     1      -5.150  -0.827   1.638  1.00  0.00     0.163 C 
HETATM   27  C1  UNL     1      -5.791  -2.136   1.162  1.00  0.00     0.033 C 
ENDBRANCH  25  26
ENDBRANCH   1  25
TORSDOF 7
