REMARK  5 active torsions:
REMARK  status: ('A' for Active; 'I' for Inactive)
REMARK    1  A    between atoms: S1_2  and  C2_3 
REMARK    2  A    between atoms: C2_3  and  N1_5 
REMARK    3  A    between atoms: C8_11  and  C9_12 
REMARK    4  A    between atoms: C9_12  and  S3_13 
REMARK    5  A    between atoms: S3_13  and  C10_16 
ROOT
HETATM    1  N1  UNL     1       2.675  -0.519  -0.340  1.00  0.00    -0.366 N 
HETATM    2  C3  UNL     1       2.771  -1.893  -0.746  1.00  0.00     0.124 C 
HETATM    3  C4  UNL     1       1.507  -2.646  -0.845  1.00  0.00     0.025 C 
HETATM    4  C5  UNL     1       0.300  -2.074  -0.183  1.00  0.00    -0.002 C 
HETATM    5  C6  UNL     1       0.293  -2.419   1.293  1.00  0.00     0.006 C 
HETATM    6  C7  UNL     1       0.812  -1.026   1.562  1.00  0.00     0.013 C 
HETATM    7  C8  UNL     1       0.348  -0.654   0.171  1.00  0.00    -0.007 C 
HETATM    8  C14 UNL     1       1.414   0.146  -0.533  1.00  0.00     0.135 C 
ENDROOT
BRANCH   7   9
HETATM    9  C9  UNL     1      -0.957   0.057   0.251  1.00  0.00     0.152 C 
BRANCH   9  10
HETATM   10  S3  UNL     1      -1.923   0.124  -1.190  1.00  0.00     0.152 S 
HETATM   11  O1  UNL     1      -1.191   0.998  -2.201  1.00  0.00    -0.227 OA
HETATM   12  O2  UNL     1      -2.236  -1.160  -1.840  1.00  0.00    -0.227 OA
BRANCH  10  13
HETATM   13  C10 UNL     1      -3.418   1.040  -0.790  1.00  0.00     0.053 C 
HETATM   14  C11 UNL     1      -4.320   1.152  -1.977  1.00  0.00     0.031 C 
HETATM   15  C12 UNL     1      -4.112   0.424   0.400  1.00  0.00     0.031 C 
HETATM   16  C13 UNL     1      -2.978   2.439  -0.410  1.00  0.00     0.031 C 
ENDBRANCH  10  13
ENDBRANCH   9  10
ENDBRANCH   7   9
BRANCH   1  17
HETATM   17  C2  UNL     1       3.822   0.144   0.233  1.00  0.00     0.136 C 
HETATM   18  S2  UNL     1       5.232  -0.611   0.439  1.00  0.00    -0.053 SA
BRANCH  17  19
HETATM   19  S1  UNL     1       3.608   1.851   0.708  1.00  0.00    -0.105 SA
HETATM   20  C1  UNL     1       5.155   2.453   1.388  1.00  0.00     0.098 C 
ENDBRANCH  17  19
ENDBRANCH   1  17
TORSDOF 5
