REMARK  3 active torsions:
REMARK  status: ('A' for Active; 'I' for Inactive)
REMARK    1  A    between atoms: C2_2  and  N1_5 
REMARK       I    between atoms: N2_11  and  C9_13 
REMARK    2  A    between atoms: C9_13  and  C10_15 
REMARK    3  A    between atoms: C10_15  and  C11_16 
ROOT
HETATM    1  N1  UNL     1      -2.108  -0.146  -0.394  1.00  0.00    -0.353 N 
HETATM    2  C5  UNL     1      -2.724  -0.977  -1.411  1.00  0.00     0.126 C 
HETATM    3  C6  UNL     1      -3.017  -2.316  -0.775  1.00  0.00     0.030 C 
HETATM    4  C7  UNL     1      -1.805  -3.159  -0.561  1.00  0.00     0.084 C 
HETATM    5  S1  UNL     1      -0.314  -2.199  -0.175  1.00  0.00    -0.094 SA
HETATM    6  C8  UNL     1      -0.831  -0.512   0.042  1.00  0.00     0.145 C 
HETATM    7  N2  UNL     1      -0.065   0.333   0.574  1.00  0.00    -0.307 N 
ATOM      8  H2  UNL     1      -0.375   1.298   0.691  1.00  0.00     0.171 HD
HETATM    9  C9  UNL     1       1.228  -0.052   1.012  1.00  0.00     0.225 C 
HETATM   10  O1  UNL     1       1.352  -1.187   1.530  1.00  0.00    -0.273 OA
ENDROOT
BRANCH   9  11
HETATM   11  C10 UNL     1       2.389   0.846   0.865  1.00  0.00     0.134 C 
BRANCH  11  12
HETATM   12  C11 UNL     1       3.606   0.148   1.423  1.00  0.00     0.178 C 
HETATM   13  S2  UNL     1       3.857  -1.386   0.478  1.00  0.00    -0.147 SA
HETATM   14  C12 UNL     1       5.110  -0.971  -0.720  1.00  0.00     0.090 C 
HETATM   15  C13 UNL     1       5.393   0.482  -0.654  1.00  0.00     0.151 C 
HETATM   16  S3  UNL     1       5.103   1.036   0.995  1.00  0.00     0.158 S 
HETATM   17  O2  UNL     1       6.222   0.712   1.912  1.00  0.00    -0.227 OA
HETATM   18  O3  UNL     1       4.744   2.499   0.997  1.00  0.00    -0.227 OA
ENDBRANCH  11  12
ENDBRANCH   9  11
BRANCH   1  19
HETATM   19  C2  UNL     1      -2.809   0.966   0.097  1.00  0.00     0.023 C 
HETATM   20  C1  UNL     1      -2.198   1.811   1.141  1.00  0.00     0.037 C 
HETATM   21  C3  UNL     1      -3.099   1.887  -1.097  1.00  0.00     0.037 C 
HETATM   22  C4  UNL     1      -4.207   0.580   0.615  1.00  0.00     0.037 C 
ENDBRANCH   1  19
TORSDOF 3
