REMARK  2 active torsions:
REMARK  status: ('A' for Active; 'I' for Inactive)
REMARK    1  A    between atoms: C10_14  and  O2_15 
REMARK    2  A    between atoms: O2_15  and  C11_16 
ROOT
HETATM    1  O1  UNL     1       6.590   1.668  -0.726  1.00  0.00    -0.298 OA
HETATM    2  C1  UNL     1       5.460   1.270  -0.616  1.00  0.00     0.127 C 
HETATM    3  C2  UNL     1       4.459   1.889   0.325  1.00  0.00     0.083 C 
HETATM    4  C3  UNL     1       3.575   0.792   0.928  1.00  0.00    -0.005 C 
HETATM    5  C4  UNL     1       4.385  -0.486   0.845  1.00  0.00     0.010 C 
HETATM    6  C5  UNL     1       4.374  -0.973  -0.584  1.00  0.00    -0.005 C 
HETATM    7  C6  UNL     1       4.993   0.110  -1.436  1.00  0.00     0.083 C 
HETATM    8  C7  UNL     1       2.957  -1.295  -1.044  1.00  0.00     0.048 C 
HETATM    9  C8  UNL     1       1.921  -0.739  -0.093  1.00  0.00     0.180 A 
HETATM   10  C9  UNL     1       2.268   0.688   0.189  1.00  0.00     0.048 C 
HETATM   11  N1  UNL     1       1.544  -1.551   1.050  1.00  0.00    -0.033 N 
ATOM     12  H11 UNL     1       1.565  -1.417   2.061  1.00  0.00     0.281 HD
ATOM     13  H12 UNL     1       1.922  -2.392   1.485  1.00  0.00     0.281 HD
HETATM   14  C10 UNL     1       0.590  -1.302   0.037  1.00  0.00     0.360 A 
ENDROOT
BRANCH  14  15
HETATM   15  O2  UNL     1      -0.480  -0.458   0.187  1.00  0.00    -0.317 OA
BRANCH  15  16
HETATM   16  C11 UNL     1      -1.620  -0.841  -0.480  1.00  0.00     0.394 C 
HETATM   17  C12 UNL     1      -2.083   0.116  -1.518  1.00  0.00     0.075 C 
HETATM   18  C13 UNL     1      -3.593   0.152  -1.680  1.00  0.00    -0.007 C 
HETATM   19  C14 UNL     1      -4.086  -1.261  -1.502  1.00  0.00     0.041 C 
HETATM   20  C20 UNL     1      -4.272   1.047  -0.706  1.00  0.00     0.010 C 
HETATM   21  C15 UNL     1      -3.810  -1.790  -0.138  1.00  0.00     0.315 C 
HETATM   22  N2  UNL     1      -2.622  -1.227   0.482  1.00  0.00     0.041 N 
HETATM   23  O3  UNL     1      -2.055  -2.276   1.176  1.00  0.00    -0.062 OA
HETATM   24  C16 UNL     1      -2.953  -0.234   1.444  1.00  0.00     0.320 C 
HETATM   25  C17 UNL     1      -2.561   1.154   1.130  1.00  0.00     0.024 A 
HETATM   26  C18 UNL     1      -3.601   2.271   1.475  1.00  0.00     0.012 A 
HETATM   27  C19 UNL     1      -3.290   1.851   0.086  1.00  0.00    -0.007 A 
ENDBRANCH  15  16
ENDBRANCH  14  15
TORSDOF 2
