REMARK  2 active torsions:
REMARK  status: ('A' for Active; 'I' for Inactive)
REMARK    1  A    between atoms: C2_2  and  C3_4 
REMARK       I    between atoms: N2_7  and  C4_8 
REMARK       I    between atoms: N3_14  and  C9_15 
REMARK    2  A    between atoms: C9_15  and  C10_17 
ROOT
HETATM    1  C3  UNL     1      -4.122   0.376  -0.379  1.00  0.00     0.073 C 
HETATM    2  N1  UNL     1      -3.841  -0.826  -0.705  1.00  0.00    -0.296 N 
ATOM      3  H1  UNL     1      -4.327  -1.356  -1.428  1.00  0.00     0.187 HD
HETATM    4  N2  UNL     1      -2.762  -1.328   0.072  1.00  0.00    -0.251 N 
HETATM    5  C4  UNL     1      -2.590  -2.702   0.338  1.00  0.00     0.235 C 
HETATM    6  C5  UNL     1      -3.533  -3.745  -0.169  1.00  0.00     0.119 C 
HETATM    7  O2  UNL     1      -1.632  -3.113   1.016  1.00  0.00    -0.272 OA
HETATM    8  C6  UNL     1      -2.027  -0.144   0.427  1.00  0.00     0.065 C 
HETATM    9  C7  UNL     1      -1.349   0.458  -0.803  1.00  0.00     0.053 C 
HETATM   10  C8  UNL     1      -0.366   1.476  -0.322  1.00  0.00     0.128 C 
HETATM   11  N3  UNL     1       0.739   0.779   0.324  1.00  0.00    -0.352 N 
HETATM   12  C9  UNL     1       2.071   1.216   0.135  1.00  0.00     0.224 C 
HETATM   13  O3  UNL     1       2.281   2.228  -0.609  1.00  0.00    -0.273 OA
HETATM   14  C16 UNL     1       0.366  -0.354   1.145  1.00  0.00     0.128 C 
HETATM   15  C17 UNL     1      -1.103  -0.238   1.574  1.00  0.00     0.053 C 
HETATM   16  C18 UNL     1      -3.210   0.796   0.711  1.00  0.00     0.095 C 
ENDROOT
BRANCH   1  17
HETATM   17  C2  UNL     1      -5.187   1.155  -1.007  1.00  0.00     0.169 C 
HETATM   18  C1  UNL     1      -5.423   2.536  -0.550  1.00  0.00     0.098 C 
HETATM   19  O1  UNL     1      -5.891   0.676  -1.915  1.00  0.00    -0.292 OA
ENDBRANCH   1  17
BRANCH  12  20
HETATM   20  C10 UNL     1       3.234   0.565   0.751  1.00  0.00     0.078 C 
HETATM   21  C11 UNL     1       3.321  -0.851   0.285  1.00  0.00     0.014 C 
HETATM   22  C12 UNL     1       4.712  -1.350   0.096  1.00  0.00     0.001 C 
HETATM   23  C13 UNL     1       5.611  -0.488  -0.718  1.00  0.00     0.000 C 
HETATM   24  C14 UNL     1       4.929   0.843  -0.955  1.00  0.00     0.001 C 
HETATM   25  C15 UNL     1       4.517   1.342   0.436  1.00  0.00     0.014 C 
ENDBRANCH  12  20
TORSDOF 2
