REMARK  4 active torsions:
REMARK  status: ('A' for Active; 'I' for Inactive)
REMARK       I    between atoms: N1_5  and  C5_6 
REMARK    1  A    between atoms: C5_6  and  O2_8 
REMARK    2  A    between atoms: O2_8  and  C6_9 
REMARK    3  A    between atoms: N2_15  and  S1_16 
REMARK    4  A    between atoms: S1_16  and  C12_19 
ROOT
HETATM    1  C1  UNL     1      -2.037  -2.330   1.778  1.00  0.00     0.027 C 
HETATM    2  C2  UNL     1      -1.293  -1.285   1.039  1.00  0.00     0.071 C 
HETATM    3  C3  UNL     1       0.188  -1.661   1.175  1.00  0.00     0.040 C 
HETATM    4  C4  UNL     1       0.975  -1.221  -0.039  1.00  0.00     0.129 C 
HETATM    5  N1  UNL     1       1.470   0.142   0.200  1.00  0.00    -0.327 N 
HETATM    6  C5  UNL     1       2.705   0.540  -0.317  1.00  0.00     0.363 C 
HETATM    7  O1  UNL     1       3.087   1.707  -0.090  1.00  0.00    -0.238 OA
HETATM    8  C10 UNL     1       0.679   1.110   0.984  1.00  0.00     0.143 C 
HETATM    9  C11 UNL     1      -0.724   0.940   0.534  1.00  0.00     0.127 C 
HETATM   10  N2  UNL     1      -1.553   0.064   1.340  1.00  0.00    -0.204 NA
ENDROOT
BRANCH   6  11
HETATM   11  O2  UNL     1       3.469  -0.322  -1.047  1.00  0.00    -0.294 OA
BRANCH  11  12
HETATM   12  C6  UNL     1       4.724   0.098  -1.566  1.00  0.00     0.061 C 
HETATM   13  C7  UNL     1       4.577   1.275  -2.503  1.00  0.00     0.046 C 
HETATM   14  C8  UNL     1       5.605   0.482  -0.413  1.00  0.00     0.046 C 
HETATM   15  C9  UNL     1       5.324  -1.043  -2.381  1.00  0.00     0.046 C 
ENDBRANCH  11  12
ENDBRANCH   6  11
BRANCH  10  16
HETATM   16  S1  UNL     1      -3.116   0.640   1.481  1.00  0.00     0.219 S 
HETATM   17  O3  UNL     1      -3.801   0.110   2.719  1.00  0.00    -0.210 OA
HETATM   18  O4  UNL     1      -2.992   2.147   1.775  1.00  0.00    -0.210 OA
BRANCH  16  19
HETATM   19  C12 UNL     1      -4.153   0.551   0.069  1.00  0.00     0.067 C 
HETATM   20  C13 UNL     1      -3.605   1.307  -1.114  1.00  0.00     0.033 C 
HETATM   21  C14 UNL     1      -5.505   1.255   0.352  1.00  0.00     0.033 C 
HETATM   22  C15 UNL     1      -4.544  -0.860  -0.223  1.00  0.00     0.033 C 
ENDBRANCH  16  19
ENDBRANCH  10  16
TORSDOF 4
