REMARK  2 active torsions:
REMARK  status: ('A' for Active; 'I' for Inactive)
REMARK    1  A    between atoms: C7_8  and  C8_9 
REMARK    2  A    between atoms: C8_9  and  C9_10 
REMARK       I    between atoms: C9_10  and  N1_12 
ROOT
HETATM    1  C9  UNL     1      -0.580  -1.007   0.271  1.00  0.00     0.220 C 
HETATM    2  O1  UNL     1      -0.782  -2.193  -0.061  1.00  0.00    -0.273 OA
HETATM    3  N1  UNL     1       0.717  -0.660   0.714  1.00  0.00    -0.348 N 
HETATM    4  C10 UNL     1       0.951   0.720   1.093  1.00  0.00     0.145 C 
HETATM    5  C11 UNL     1       2.059   1.399   0.344  1.00  0.00     0.141 C 
HETATM    6  N2  UNL     1       3.347   1.093   0.845  1.00  0.00    -0.389 N 
HETATM    7  C12 UNL     1       4.454   1.591   0.165  1.00  0.00     0.058 C 
HETATM    8  C13 UNL     1       4.854   0.944  -1.119  1.00  0.00     0.046 C 
HETATM    9  C14 UNL     1       5.524  -0.390  -0.980  1.00  0.00     0.031 C 
HETATM   10  C15 UNL     1       4.639  -1.570  -1.168  1.00  0.00     0.168 C 
HETATM   11  O2  UNL     1       3.964  -2.015  -0.058  1.00  0.00    -0.383 OA
HETATM   12  C16 UNL     1       2.962  -1.159   0.252  1.00  0.00     0.157 C 
HETATM   13  C17 UNL     1       3.437  -0.235   1.356  1.00  0.00     0.155 C 
HETATM   14  C18 UNL     1       1.673  -1.775   0.732  1.00  0.00     0.159 C 
ENDROOT
BRANCH   1  15
HETATM   15  C8  UNL     1      -1.673  -0.025   0.194  1.00  0.00     0.109 C 
BRANCH  15  16
HETATM   16  C7  UNL     1      -2.995  -0.573  -0.265  1.00  0.00     0.011 C 
HETATM   17  C2  UNL     1      -4.049   0.545  -0.324  1.00  0.00    -0.042 C 
HETATM   18  C1  UNL     1      -4.715   0.765   1.004  1.00  0.00     0.015 C 
HETATM   19  C3  UNL     1      -3.336   1.867  -0.657  1.00  0.00     0.015 C 
HETATM   20  C4  UNL     1      -5.036   0.326  -1.417  1.00  0.00     0.019 C 
HETATM   21  C5  UNL     1      -5.668  -1.010  -1.463  1.00  0.00     0.074 C 
HETATM   22  S1  UNL     1      -5.147  -2.161  -0.214  1.00  0.00    -0.169 SA
HETATM   23  C6  UNL     1      -3.587  -1.631   0.600  1.00  0.00     0.079 C 
ENDBRANCH  15  16
ENDBRANCH   1  15
TORSDOF 2
