REMARK  3 active torsions:
REMARK  status: ('A' for Active; 'I' for Inactive)
REMARK    1  A    between atoms: C2_2  and  N2_5 
REMARK       I    between atoms: N3_11  and  C9_12 
REMARK    2  A    between atoms: C9_12  and  C10_14 
REMARK    3  A    between atoms: N5_18  and  C12_19 
ROOT
HETATM    1  C1  UNL     1      -7.132  -0.548  -0.749  1.00  0.00     0.059 C 
HETATM    2  C2  UNL     1      -6.254  -0.656   0.492  1.00  0.00     0.324 C 
HETATM    3  C3  UNL     1      -6.450  -1.903   1.198  1.00  0.00     0.095 C 
HETATM    4  N1  UNL     1      -6.603  -2.894   1.775  1.00  0.00    -0.195 NA
ENDROOT
BRANCH   2   5
HETATM    5  N2  UNL     1      -4.884  -0.509   0.087  1.00  0.00     0.106 N 
HETATM    6  C4  UNL     1      -4.618   0.759  -0.484  1.00  0.00     0.275 C 
HETATM    7  C5  UNL     1      -3.456   1.499   0.044  1.00  0.00     0.041 C 
HETATM    8  C6  UNL     1      -2.240   0.663   0.332  1.00  0.00    -0.019 C 
HETATM    9  C7  UNL     1      -1.520   1.315   1.490  1.00  0.00     0.031 C 
HETATM   10  C17 UNL     1      -1.222   0.723  -0.779  1.00  0.00     0.135 C 
HETATM   11  C18 UNL     1      -2.546  -0.753   0.657  1.00  0.00     0.041 C 
HETATM   12  C8  UNL     1      -0.072   1.104   1.234  1.00  0.00     0.127 C 
HETATM   13  N3  UNL     1       0.086   0.693  -0.115  1.00  0.00    -0.347 N 
HETATM   14  C9  UNL     1       1.277   0.312  -0.772  1.00  0.00     0.256 C 
HETATM   15  O1  UNL     1       1.162  -0.030  -2.014  1.00  0.00    -0.267 OA
HETATM   16  C19 UNL     1      -3.974  -0.960   1.083  1.00  0.00     0.275 C 
BRANCH  14  17
HETATM   17  C10 UNL     1       2.617   0.259  -0.218  1.00  0.00     0.066 A 
HETATM   18  C11 UNL     1       3.081   0.562   1.035  1.00  0.00     0.126 A 
HETATM   19  N4  UNL     1       4.420   0.343   1.054  1.00  0.00    -0.308 N 
HETATM   20  N5  UNL     1       4.824  -0.083  -0.123  1.00  0.00    -0.294 N 
ATOM     21  H4  UNL     1       5.025   0.488   1.863  1.00  0.00     0.186 HD
HETATM   22  C16 UNL     1       3.760  -0.147  -0.922  1.00  0.00     0.129 A 
BRANCH  20  23
HETATM   23  C12 UNL     1       6.201  -0.427  -0.492  1.00  0.00     0.042 C 
HETATM   24  C13 UNL     1       6.408  -0.237  -1.980  1.00  0.00     0.039 C 
HETATM   25  C14 UNL     1       6.459  -1.878  -0.170  1.00  0.00     0.039 C 
HETATM   26  C15 UNL     1       7.132   0.508   0.234  1.00  0.00     0.039 C 
ENDBRANCH  20  23
ENDBRANCH  14  17
ENDBRANCH   2   5
TORSDOF 3
