REMARK  7 active torsions:
REMARK  status: ('A' for Active; 'I' for Inactive)
REMARK    1  A    between atoms: C5_6  and  O1_7 
REMARK    2  A    between atoms: O1_7  and  C6_8 
REMARK    3  A    between atoms: C9_11  and  N1_12 
REMARK    4  A    between atoms: N1_12  and  C10_14 
REMARK    5  A    between atoms: C10_14  and  C11_15 
REMARK    6  A    between atoms: C11_15  and  N2_16 
REMARK    7  A    between atoms: N2_16  and  C12_18 
ROOT
HETATM    1  C6  UNL     1       3.108  -1.170  -0.398  1.00  0.00     0.076 A 
HETATM    2  C7  UNL     1       2.065  -0.658  -1.142  1.00  0.00     0.039 A 
HETATM    3  C8  UNL     1       0.742  -0.920  -0.815  1.00  0.00     0.032 A 
HETATM    4  C9  UNL     1       0.424  -1.704   0.272  1.00  0.00     0.028 A 
HETATM    5  C18 UNL     1       1.471  -2.212   1.011  1.00  0.00     0.032 A 
HETATM    6  C19 UNL     1       2.794  -1.956   0.691  1.00  0.00     0.039 A 
ENDROOT
BRANCH   4   7
HETATM    7  N1  UNL     1      -0.941  -1.980   0.618  1.00  0.00    -0.388 N 
ATOM      8  H1  UNL     1      -1.151  -2.564   1.428  1.00  0.00     0.159 HD
BRANCH   7   9
HETATM    9  C10 UNL     1      -2.017  -1.437  -0.172  1.00  0.00     0.139 C 
BRANCH   9  10
HETATM   10  C11 UNL     1      -3.330  -1.890   0.424  1.00  0.00     0.139 C 
BRANCH  10  11
HETATM   11  N2  UNL     1      -4.476  -1.403  -0.278  1.00  0.00    -0.388 N 
ATOM     12  H2  UNL     1      -5.068  -2.074  -0.768  1.00  0.00     0.159 HD
BRANCH  11  13
HETATM   13  C12 UNL     1      -4.825  -0.041  -0.324  1.00  0.00     0.028 A 
HETATM   14  C13 UNL     1      -5.842   0.368  -1.195  1.00  0.00     0.029 A 
HETATM   15  C14 UNL     1      -6.208   1.689  -1.248  1.00  0.00     0.002 A 
HETATM   16  C15 UNL     1      -5.589   2.637  -0.451  1.00  0.00     0.000 A 
HETATM   17  C16 UNL     1      -4.584   2.265   0.418  1.00  0.00     0.002 A 
HETATM   18  C17 UNL     1      -4.234   0.920   0.450  1.00  0.00     0.029 A 
ENDBRANCH  11  13
ENDBRANCH  10  11
ENDBRANCH   9  10
ENDBRANCH   7   9
ENDBRANCH   4   7
BRANCH   1  19
HETATM   19  O1  UNL     1       4.437  -0.902  -0.733  1.00  0.00    -0.311 OA
BRANCH  19  20
HETATM   20  C5  UNL     1       5.033   0.212  -0.180  1.00  0.00     0.079 A 
HETATM   21  C4  UNL     1       6.339   0.500  -0.492  1.00  0.00     0.037 A 
HETATM   22  C3  UNL     1       6.979   1.597   0.032  1.00  0.00     0.006 A 
HETATM   23  C2  UNL     1       6.324   2.433   0.883  1.00  0.00     0.042 A 
HETATM   24  C1  UNL     1       5.008   2.153   1.204  1.00  0.00     0.119 A 
HETATM   25  F1  UNL     1       4.342   2.991   2.060  1.00  0.00    -0.206 F 
HETATM   26  C20 UNL     1       4.359   1.062   0.688  1.00  0.00     0.079 A 
ENDBRANCH  19  20
ENDBRANCH   1  19
TORSDOF 7
