REMARK  6 active torsions:
REMARK  status: ('A' for Active; 'I' for Inactive)
REMARK    1  A    between atoms: C4_5  and  N1_6 
REMARK    2  A    between atoms: N1_6  and  C5_8 
REMARK    3  A    between atoms: C9_12  and  C10_13 
REMARK    4  A    between atoms: C10_13  and  N2_14 
REMARK    5  A    between atoms: N2_14  and  C11_17 
REMARK    6  A    between atoms: C11_17  and  C12_18 
ROOT
HETATM    1  C5  UNL     1       1.430  -0.341  -0.093  1.00  0.00     0.082 C 
HETATM    2  C6  UNL     1       2.129  -1.626  -0.321  1.00  0.00     0.025 C 
HETATM    3  C7  UNL     1       1.373  -2.810   0.237  1.00  0.00     0.002 C 
HETATM    4  C8  UNL     1       0.023  -2.780  -0.448  1.00  0.00     0.006 C 
HETATM    5  C9  UNL     1      -0.739  -1.645   0.187  1.00  0.00     0.013 C 
HETATM    6  C16 UNL     1       0.002  -0.382   0.306  1.00  0.00     0.031 C 
ENDROOT
BRANCH   5   7
HETATM    7  C10 UNL     1      -1.987  -1.427  -0.653  1.00  0.00     0.237 C 
BRANCH   7   8
HETATM    8  N2  UNL     1      -2.797  -0.360  -0.143  1.00  0.00    -0.070 N 
ATOM      9  H22 UNL     1      -3.044  -0.488   0.838  1.00  0.00     0.277 HD
ATOM     10  H21 UNL     1      -2.280   0.513  -0.042  1.00  0.00     0.277 HD
BRANCH   8  11
HETATM   11  C11 UNL     1      -3.962  -0.226  -1.002  1.00  0.00     0.278 C 
BRANCH  11  12
HETATM   12  C12 UNL     1      -4.805   0.898  -0.449  1.00  0.00     0.008 A 
HETATM   13  C13 UNL     1      -5.796   0.812   0.493  1.00  0.00     0.017 A 
HETATM   14  C14 UNL     1      -6.418   1.950   0.838  1.00  0.00     0.008 A 
HETATM   15  C15 UNL     1      -6.012   3.099   0.223  1.00  0.00     0.050 A 
HETATM   16  S1  UNL     1      -4.776   2.563  -0.820  1.00  0.00    -0.105 SA
ENDBRANCH  11  12
ENDBRANCH   8  11
ENDBRANCH   7   8
ENDBRANCH   5   7
BRANCH   1  17
HETATM   17  N1  UNL     1       2.228   0.513   0.773  1.00  0.00    -0.385 N 
ATOM     18  H1  UNL     1       1.826   0.780   1.671  1.00  0.00     0.160 HD
BRANCH  17  19
HETATM   19  C4  UNL     1       3.519   1.001   0.464  1.00  0.00     0.028 A 
HETATM   20  C3  UNL     1       4.169   0.769  -0.730  1.00  0.00     0.032 A 
HETATM   21  C2  UNL     1       5.430   1.242  -1.028  1.00  0.00     0.044 A 
HETATM   22  C1  UNL     1       6.104   1.998  -0.087  1.00  0.00     0.116 A 
HETATM   23  F1  UNL     1       7.339   2.453  -0.399  1.00  0.00    -0.206 F 
HETATM   24  C18 UNL     1       5.484   2.246   1.110  1.00  0.00     0.044 A 
HETATM   25  C17 UNL     1       4.221   1.762   1.386  1.00  0.00     0.032 A 
ENDBRANCH  17  19
ENDBRANCH   1  17
TORSDOF 6
