REMARK  6 active torsions:
REMARK  status: ('A' for Active; 'I' for Inactive)
REMARK    1  A    between atoms: C2_2  and  C3_3 
REMARK    2  A    between atoms: C2_2  and  N2_19 
REMARK    3  A    between atoms: C3_3  and  N1_4 
REMARK    4  A    between atoms: N1_4  and  C4_6 
REMARK    5  A    between atoms: C7_9  and  C8_10 
REMARK    6  A    between atoms: N2_19  and  C16_21 
ROOT
HETATM    1  N1  UNL     1       0.686  -0.495   0.182  1.00  0.00    -0.388 N 
ATOM      2  H1  UNL     1       1.106  -1.217  -0.403  1.00  0.00     0.159 HD
ENDROOT
BRANCH   1   3
HETATM    3  C3  UNL     1       1.516   0.359   0.992  1.00  0.00     0.144 C 
BRANCH   3   4
HETATM    4  C2  UNL     1       2.986   0.030   0.836  1.00  0.00     0.095 C 
HETATM    5  C1  UNL     1       3.260  -1.390   1.245  1.00  0.00     0.034 C 
BRANCH   4   6
HETATM    6  N2  UNL     1       3.443   0.370  -0.475  1.00  0.00    -0.383 N 
ATOM      7  H2  UNL     1       2.740   0.647  -1.160  1.00  0.00     0.160 HD
BRANCH   6   8
HETATM    8  C16 UNL     1       4.799   0.352  -0.898  1.00  0.00     0.043 A 
HETATM    9  C17 UNL     1       5.135   0.630  -2.225  1.00  0.00     0.032 A 
HETATM   10  C18 UNL     1       6.442   0.620  -2.648  1.00  0.00     0.019 A 
HETATM   11  C19 UNL     1       7.406   0.323  -1.707  1.00  0.00     0.088 A 
HETATM   12  N3  UNL     1       7.062   0.058  -0.436  1.00  0.00    -0.373 N 
HETATM   13  C20 UNL     1       5.779   0.062   0.007  1.00  0.00     0.116 A 
ATOM     14  H3  UNL     1       7.803  -0.157   0.231  1.00  0.00     0.164 HD
ENDBRANCH   6   8
ENDBRANCH   4   6
ENDBRANCH   3   4
ENDBRANCH   1   3
BRANCH   1  15
HETATM   15  C4  UNL     1      -0.724  -0.321   0.207  1.00  0.00     0.028 A 
HETATM   16  C5  UNL     1      -1.304   0.646   0.992  1.00  0.00     0.030 A 
HETATM   17  C6  UNL     1      -2.666   0.811   1.014  1.00  0.00     0.014 A 
HETATM   18  C7  UNL     1      -3.532   0.024   0.256  1.00  0.00    -0.026 A 
HETATM   19  C14 UNL     1      -2.928  -0.949  -0.533  1.00  0.00     0.014 A 
HETATM   20  C15 UNL     1      -1.560  -1.128  -0.566  1.00  0.00     0.030 A 
BRANCH  18  21
HETATM   21  C8  UNL     1      -4.958   0.218   0.296  1.00  0.00    -0.026 A 
HETATM   22  C9  UNL     1      -5.723  -0.044  -0.806  1.00  0.00     0.015 A 
HETATM   23  C10 UNL     1      -7.090   0.143  -0.764  1.00  0.00     0.043 A 
HETATM   24  C11 UNL     1      -7.707   0.587   0.361  1.00  0.00     0.116 A 
HETATM   25  F1  UNL     1      -9.057   0.755   0.351  1.00  0.00    -0.206 F 
HETATM   26  C12 UNL     1      -6.959   0.857   1.481  1.00  0.00     0.043 A 
HETATM   27  C13 UNL     1      -5.573   0.667   1.436  1.00  0.00     0.015 A 
ENDBRANCH  18  21
ENDBRANCH   1  15
TORSDOF 6
