REMARK  6 active torsions:
REMARK  status: ('A' for Active; 'I' for Inactive)
REMARK    1  A    between atoms: C5_6  and  N1_7 
REMARK    2  A    between atoms: N1_7  and  C6_9 
REMARK    3  A    between atoms: C8_11  and  C9_12 
REMARK    4  A    between atoms: C9_12  and  S1_13 
REMARK    5  A    between atoms: S1_13  and  C10_14 
REMARK    6  A    between atoms: C10_14  and  C11_15 
ROOT
HETATM    1  C6  UNL     1       1.922   1.165  -0.741  1.00  0.00     0.122 A 
HETATM    2  C7  UNL     1       1.384   0.342   0.212  1.00  0.00     0.077 A 
HETATM    3  C8  UNL     1       0.047   0.665   0.362  1.00  0.00     0.038 A 
HETATM    4  N2  UNL     1      -0.195   1.662  -0.491  1.00  0.00    -0.302 N 
ATOM      5  H2  UNL     1      -1.099   2.118  -0.613  1.00  0.00     0.186 HD
HETATM    6  N3  UNL     1       0.897   1.972  -1.152  1.00  0.00    -0.285 N 
ATOM      7  H3  UNL     1       0.969   2.701  -1.862  1.00  0.00     0.188 HD
ENDROOT
BRANCH   1   8
HETATM    8  N1  UNL     1       3.239   1.262  -1.245  1.00  0.00    -0.341 N 
ATOM      9  H1  UNL     1       3.412   1.898  -2.024  1.00  0.00     0.167 HD
BRANCH   8  10
HETATM   10  C5  UNL     1       4.323   0.529  -0.730  1.00  0.00     0.036 A 
HETATM   11  C4  UNL     1       4.443   0.295   0.602  1.00  0.00     0.029 A 
HETATM   12  C3  UNL     1       5.519  -0.461   1.088  1.00  0.00     0.005 A 
HETATM   13  C2  UNL     1       6.431  -0.946   0.176  1.00  0.00     0.042 A 
HETATM   14  C1  UNL     1       6.318  -0.712  -1.181  1.00  0.00     0.118 A 
HETATM   15  F1  UNL     1       7.218  -1.193  -2.058  1.00  0.00    -0.206 F 
HETATM   16  C17 UNL     1       5.259   0.029  -1.634  1.00  0.00     0.071 A 
ENDBRANCH   8  10
ENDBRANCH   1   8
BRANCH   3  17
HETATM   17  C9  UNL     1      -0.867  -0.022   1.313  1.00  0.00     0.132 C 
BRANCH  17  18
HETATM   18  S1  UNL     1      -1.678  -1.443   0.581  1.00  0.00    -0.158 SA
BRANCH  18  19
HETATM   19  C10 UNL     1      -2.872  -1.041  -0.690  1.00  0.00     0.112 C 
BRANCH  19  20
HETATM   20  C11 UNL     1      -4.076  -0.362  -0.160  1.00  0.00    -0.049 A 
HETATM   21  C12 UNL     1      -5.159  -1.147   0.248  1.00  0.00     0.008 A 
HETATM   22  C13 UNL     1      -6.308  -0.576   0.752  1.00  0.00     0.001 A 
HETATM   23  C14 UNL     1      -6.439   0.801   0.877  1.00  0.00     0.000 A 
HETATM   24  C15 UNL     1      -5.368   1.564   0.472  1.00  0.00     0.001 A 
HETATM   25  C16 UNL     1      -4.210   0.997  -0.035  1.00  0.00     0.008 A 
ENDBRANCH  19  20
ENDBRANCH  18  19
ENDBRANCH  17  18
ENDBRANCH   3  17
TORSDOF 6
