REMARK  6 active torsions:
REMARK  status: ('A' for Active; 'I' for Inactive)
REMARK    1  A    between atoms: C4_5  and  C5_6 
REMARK    2  A    between atoms: C5_6  and  C6_7 
REMARK    3  A    between atoms: C5_6  and  N2_16 
REMARK    4  A    between atoms: C6_7  and  N1_8 
REMARK    5  A    between atoms: N1_8  and  C7_10 
REMARK    6  A    between atoms: N2_16  and  C13_18 
ROOT
HETATM    1  C5  UNL     1      -0.866  -0.732  -0.212  1.00  0.00     0.134 C 
ENDROOT
BRANCH   1   2
HETATM    2  C4  UNL     1      -0.960  -2.085   0.401  1.00  0.00    -0.018 A 
HETATM    3  C3  UNL     1      -2.177  -2.733   0.188  1.00  0.00     0.014 A 
HETATM    4  C2  UNL     1      -2.363  -3.980   0.728  1.00  0.00     0.043 A 
HETATM    5  C1  UNL     1      -1.361  -4.573   1.466  1.00  0.00     0.103 A 
HETATM    6 CL1  UNL     1      -1.637  -6.175   2.143  1.00  0.00    -0.065 Cl
HETATM    7  N3  UNL     1      -0.214  -3.912   1.642  1.00  0.00    -0.356 N 
HETATM    8  C19 UNL     1       0.015  -2.693   1.135  1.00  0.00     0.098 A 
ATOM      9  H3  UNL     1       0.523  -4.357   2.189  1.00  0.00     0.166 HD
ENDBRANCH   1   2
BRANCH   1  10
HETATM   10  C6  UNL     1       0.411  -0.027  -0.058  1.00  0.00     0.150 C 
BRANCH  10  11
HETATM   11  N1  UNL     1       1.543  -0.755  -0.653  1.00  0.00    -0.388 N 
ATOM     12  H1  UNL     1       1.423  -1.659  -1.111  1.00  0.00     0.159 HD
BRANCH  11  13
HETATM   13  C7  UNL     1       2.813  -0.125  -0.552  1.00  0.00     0.028 A 
HETATM   14  C8  UNL     1       3.961  -0.729  -1.066  1.00  0.00     0.029 A 
HETATM   15  C9  UNL     1       5.206  -0.146  -0.986  1.00  0.00     0.002 A 
HETATM   16  C10 UNL     1       5.347   1.086  -0.376  1.00  0.00     0.000 A 
HETATM   17  C11 UNL     1       4.233   1.711   0.143  1.00  0.00     0.002 A 
HETATM   18  C12 UNL     1       3.000   1.102   0.047  1.00  0.00     0.029 A 
ENDBRANCH  11  13
ENDBRANCH  10  11
ENDBRANCH   1  10
BRANCH   1  19
HETATM   19  N2  UNL     1      -1.984   0.034   0.263  1.00  0.00    -0.380 N 
ATOM     20  H2  UNL     1      -2.645  -0.495   0.832  1.00  0.00     0.160 HD
BRANCH  19  21
HETATM   21  C13 UNL     1      -2.322   1.369   0.083  1.00  0.00     0.028 A 
HETATM   22  C14 UNL     1      -1.518   2.429   0.336  1.00  0.00     0.029 A 
HETATM   23  C15 UNL     1      -1.903   3.761   0.105  1.00  0.00     0.002 A 
HETATM   24  C16 UNL     1      -3.157   3.993  -0.401  1.00  0.00     0.000 A 
HETATM   25  C17 UNL     1      -4.021   2.936  -0.677  1.00  0.00     0.002 A 
HETATM   26  C18 UNL     1      -3.594   1.650  -0.432  1.00  0.00     0.029 A 
ENDBRANCH  19  21
ENDBRANCH   1  19
TORSDOF 6
