REMARK  7 active torsions:
REMARK  status: ('A' for Active; 'I' for Inactive)
REMARK    1  A    between atoms: C2_2  and  C3_3 
REMARK    2  A    between atoms: C3_3  and  C4_4 
REMARK    3  A    between atoms: C4_4  and  C5_5 
REMARK    4  A    between atoms: C5_5  and  O1_6 
REMARK    5  A    between atoms: C5_5  and  C6_8 
REMARK    6  A    between atoms: C6_8  and  O2_9 
REMARK    7  A    between atoms: O2_9  and  C7_10 
ROOT
HETATM    1  O2  UNL     1       0.195  -0.472   0.639  1.00  0.00    -0.349 OA
ENDROOT
BRANCH   1   2
HETATM    2  C6  UNL     1       0.738  -1.713   0.400  1.00  0.00     0.207 C 
BRANCH   2   3
HETATM    3  C5  UNL     1       2.156  -1.804   0.874  1.00  0.00     0.142 C 
BRANCH   3   4
HETATM    4  C4  UNL     1       3.132  -0.918   0.171  1.00  0.00     0.037 C 
BRANCH   4   5
HETATM    5  C3  UNL     1       2.812   0.529   0.336  1.00  0.00     0.029 C 
BRANCH   5   6
HETATM    6  C2  UNL     1       3.891   1.334  -0.347  1.00  0.00    -0.037 C 
HETATM    7  C1  UNL     1       4.868   0.722  -0.951  1.00  0.00     0.007 C 
ENDBRANCH   5   6
ENDBRANCH   4   5
ENDBRANCH   3   4
BRANCH   3   8
HETATM    8  O1  UNL     1       2.555  -3.167   0.660  1.00  0.00    -0.393 OA
ATOM      9  H1  UNL     1       1.934  -3.730   1.107  1.00  0.00     0.210 HD
ENDBRANCH   3   8
ENDBRANCH   2   3
ENDBRANCH   1   2
BRANCH   1  10
HETATM   10  C7  UNL     1      -1.081  -0.057   0.334  1.00  0.00     0.069 A 
HETATM   11  C8  UNL     1      -1.425   1.237   0.660  1.00  0.00     0.043 A 
HETATM   12  C9  UNL     1      -2.674   1.764   0.404  1.00  0.00    -0.059 A 
HETATM   13  C10 UNL     1      -2.995   3.180   0.781  1.00  0.00     0.048 C 
HETATM   14  C11 UNL     1      -3.602   0.944  -0.207  1.00  0.00     0.013 A 
HETATM   15  C12 UNL     1      -3.312  -0.358  -0.556  1.00  0.00    -0.059 A 
HETATM   16  C13 UNL     1      -4.350  -1.196  -1.212  1.00  0.00     0.048 C 
HETATM   17  C14 UNL     1      -2.039  -0.838  -0.274  1.00  0.00     0.043 A 
ENDBRANCH   1  10
TORSDOF 7
