REMARK  9 active torsions:
REMARK  status: ('A' for Active; 'I' for Inactive)
REMARK    1  A    between atoms: C2_2  and  C3_3 
REMARK    2  A    between atoms: C3_3  and  C4_4 
REMARK    3  A    between atoms: C4_4  and  C5_5 
REMARK    4  A    between atoms: C5_5  and  C6_6 
REMARK    5  A    between atoms: C6_6  and  C7_7 
REMARK    6  A    between atoms: C7_7  and  C8_8 
REMARK    7  A    between atoms: C8_8  and  O1_9 
REMARK    8  A    between atoms: O1_9  and  C9_10 
REMARK    9  A    between atoms: C14_15  and  O2_16 
ROOT
HETATM    1  O1  UNL     1      -2.122   0.509   1.573  1.00  0.00    -0.348 OA
ENDROOT
BRANCH   1   2
HETATM    2  C8  UNL     1      -1.473  -0.452   2.307  1.00  0.00     0.176 C 
BRANCH   2   3
HETATM    3  C7  UNL     1      -0.561  -1.280   1.438  1.00  0.00     0.027 C 
BRANCH   3   4
HETATM    4  C6  UNL     1       0.451  -0.294   0.852  1.00  0.00     0.002 C 
BRANCH   4   5
HETATM    5  C5  UNL     1       1.435  -1.024  -0.053  1.00  0.00     0.000 C 
BRANCH   5   6
HETATM    6  C4  UNL     1       2.388   0.055  -0.576  1.00  0.00     0.000 C 
BRANCH   6   7
HETATM    7  C3  UNL     1       3.377  -0.643  -1.478  1.00  0.00    -0.000 C 
BRANCH   7   8
HETATM    8  C2  UNL     1       4.348   0.406  -2.020  1.00  0.00    -0.005 C 
HETATM    9  C1  UNL     1       5.036   1.028  -0.822  1.00  0.00     0.005 C 
ENDBRANCH   7   8
ENDBRANCH   6   7
ENDBRANCH   5   6
ENDBRANCH   4   5
ENDBRANCH   3   4
ENDBRANCH   2   3
ENDBRANCH   1   2
BRANCH   1  10
HETATM   10  C9  UNL     1      -3.061   0.329   0.595  1.00  0.00     0.101 A 
HETATM   11  C10 UNL     1      -3.596  -0.870   0.184  1.00  0.00     0.039 A 
HETATM   12  C11 UNL     1      -4.554  -0.962  -0.835  1.00  0.00     0.003 A 
HETATM   13  C12 UNL     1      -5.014   0.159  -1.483  1.00  0.00     0.003 A 
HETATM   14  C13 UNL     1      -4.491   1.367  -1.084  1.00  0.00     0.039 A 
HETATM   15  C14 UNL     1      -3.554   1.464  -0.089  1.00  0.00     0.099 A 
BRANCH  15  16
HETATM   16  O2  UNL     1      -3.022   2.687   0.318  1.00  0.00    -0.358 OA
ATOM     17  H2  UNL     1      -3.353   3.450  -0.142  1.00  0.00     0.217 HD
ENDBRANCH  15  16
ENDBRANCH   1  10
TORSDOF 9
