REMARK  4 active torsions:
REMARK  status: ('A' for Active; 'I' for Inactive)
REMARK    1  A    between atoms: C2_3  and  C3_4 
REMARK    2  A    between atoms: C3_4  and  N2_5 
REMARK    3  A    between atoms: N2_5  and  C4_7 
REMARK    4  A    between atoms: C5_10  and  C6_11 
ROOT
HETATM    1  N1  UNL     1      -3.948   3.966   1.097  1.00  0.00    -0.197 NA
HETATM    2  C1  UNL     1      -3.592   2.865   1.091  1.00  0.00     0.060 C 
HETATM    3  C2  UNL     1      -3.158   1.472   1.076  1.00  0.00     0.143 C 
ENDROOT
BRANCH   3   4
HETATM    4  C3  UNL     1      -3.031   1.030  -0.385  1.00  0.00     0.135 C 
BRANCH   4   5
HETATM    5  N2  UNL     1      -2.601  -0.348  -0.466  1.00  0.00    -0.373 N 
ATOM      6  H2  UNL     1      -3.321  -1.055  -0.612  1.00  0.00     0.161 HD
BRANCH   5   7
HETATM    7  C4  UNL     1      -1.398  -0.751  -0.370  1.00  0.00     0.132 A 
HETATM    8  N3  UNL     1      -0.337   0.096  -0.174  1.00  0.00    -0.326 N 
HETATM    9  C5  UNL     1       0.910  -0.355  -0.078  1.00  0.00     0.117 A 
ATOM     10  H3  UNL     1      -0.509   1.099  -0.100  1.00  0.00     0.169 HD
HETATM   11  N4  UNL     1       1.170  -1.670  -0.172  1.00  0.00    -0.340 N 
HETATM   12  C12 UNL     1       0.146  -2.537  -0.366  1.00  0.00     0.065 A 
ATOM     13  H4  UNL     1       2.128  -2.012  -0.098  1.00  0.00     0.167 HD
HETATM   14  C13 UNL     1       0.118  -3.907  -0.496  1.00  0.00     0.049 A 
HETATM   15  C15 UNL     1      -1.142  -2.098  -0.467  1.00  0.00     0.103 A 
HETATM   16  C14 UNL     1      -1.196  -4.275  -0.675  1.00  0.00     0.091 A 
HETATM   17  N5  UNL     1      -1.954  -3.141  -0.654  1.00  0.00    -0.361 N 
ATOM     18  H5  UNL     1      -2.967  -3.097  -0.763  1.00  0.00     0.165 HD
BRANCH   9  19
HETATM   19  C6  UNL     1       2.035   0.544   0.130  1.00  0.00     0.008 A 
HETATM   20  C7  UNL     1       3.335   0.041   0.226  1.00  0.00     0.015 A 
HETATM   21  C8  UNL     1       4.443   0.835   0.423  1.00  0.00     0.001 A 
HETATM   22  C9  UNL     1       4.290   2.200   0.533  1.00  0.00     0.000 A 
HETATM   23  C10 UNL     1       3.032   2.747   0.445  1.00  0.00     0.001 A 
HETATM   24  C11 UNL     1       1.928   1.914   0.245  1.00  0.00     0.015 A 
ENDBRANCH   9  19
ENDBRANCH   5   7
ENDBRANCH   4   5
ENDBRANCH   3   4
TORSDOF 4
