REMARK  4 active torsions:
REMARK  status: ('A' for Active; 'I' for Inactive)
REMARK    1  A    between atoms: C5_9  and  C6_10 
REMARK    2  A    between atoms: C9_15  and  N4_16 
REMARK    3  A    between atoms: N4_16  and  C10_18 
REMARK    4  A    between atoms: C10_18  and  C11_19 
ROOT
HETATM    1  C6  UNL     1      -0.962   0.162  -0.021  1.00  0.00     0.061 A 
HETATM    2  C7  UNL     1      -0.772   1.309   0.679  1.00  0.00     0.118 A 
HETATM    3  N3  UNL     1       0.440   1.912   0.666  1.00  0.00    -0.370 N 
ATOM      4  H3  UNL     1       0.582   2.775   1.190  1.00  0.00     0.164 HD
HETATM    5  C8  UNL     1       1.451   1.383  -0.030  1.00  0.00     0.136 A 
HETATM    6  C9  UNL     1       1.295   0.212  -0.755  1.00  0.00     0.117 A 
HETATM    7  N5  UNL     1       0.091  -0.357  -0.724  1.00  0.00    -0.340 N 
ATOM      8  H5  UNL     1      -0.053  -1.220  -1.249  1.00  0.00     0.167 HD
ENDROOT
BRANCH   1   9
HETATM    9  C5  UNL     1      -2.201  -0.626  -0.049  1.00  0.00     0.021 A 
HETATM   10  C4  UNL     1      -2.285  -1.973  -0.404  1.00  0.00     0.104 A 
HETATM   11  N2  UNL     1      -3.536  -2.413  -0.386  1.00  0.00    -0.351 N 
HETATM   12  C3  UNL     1      -4.301  -1.358  -0.019  1.00  0.00     0.116 A 
ATOM     13  H2  UNL     1      -3.857  -3.356  -0.605  1.00  0.00     0.166 HD
HETATM   14  N1  UNL     1      -5.640  -1.304   0.124  1.00  0.00    -0.352 N 
HETATM   15  C14 UNL     1      -3.485  -0.239   0.192  1.00  0.00     0.022 A 
HETATM   16  C2  UNL     1      -6.249  -0.161   0.478  1.00  0.00     0.090 A 
ATOM     17  H1  UNL     1      -6.198  -2.142  -0.039  1.00  0.00     0.166 HD
HETATM   18  C1  UNL     1      -5.494   0.969   0.696  1.00  0.00     0.018 A 
HETATM   19  C15 UNL     1      -4.109   0.942   0.556  1.00  0.00     0.017 A 
ENDBRANCH   1   9
BRANCH   6  20
HETATM   20  N4  UNL     1       2.279  -0.294  -1.426  1.00  0.00    -0.375 N 
ATOM     21  H4  UNL     1       2.131  -1.157  -1.950  1.00  0.00     0.161 HD
BRANCH  20  22
HETATM   22  C10 UNL     1       3.555   0.317  -1.453  1.00  0.00     0.126 C 
BRANCH  22  23
HETATM   23  C11 UNL     1       4.389   0.089  -0.208  1.00  0.00     0.003 A 
HETATM   24  C12 UNL     1       5.746   0.749  -0.258  1.00  0.00     0.007 A 
HETATM   25  C13 UNL     1       5.626  -0.727  -0.291  1.00  0.00     0.007 A 
ENDBRANCH  22  23
ENDBRANCH  20  22
ENDBRANCH   6  20
TORSDOF 4
