REMARK  17 active torsions:
REMARK  status: ('A' for Active; 'I' for Inactive)
REMARK    1  A    between atoms: N1_1  and  C1_4 
REMARK       I    between atoms: N5_14  and  C5_15 
REMARK    2  A    between atoms: C5_15  and  C6_17 
REMARK    3  A    between atoms: C6_17  and  O2_18 
REMARK    4  A    between atoms: C6_17  and  C7_21 
REMARK    5  A    between atoms: C7_21  and  C8_22 
REMARK    6  A    between atoms: C7_21  and  N9_41 
REMARK    7  A    between atoms: C8_22  and  N6_23 
REMARK    8  A    between atoms: C9_24  and  O3_25 
REMARK    9  A    between atoms: C10_27  and  C11_28 
REMARK   10  A    between atoms: C11_28  and  O4_29 
REMARK   11  A    between atoms: C11_28  and  O5_31 
REMARK   12  A    between atoms: N9_41  and  C16_43 
REMARK   13  A    between atoms: C16_43  and  C17_44 
REMARK   14  A    between atoms: C17_44  and  C18_45 
REMARK   15  A    between atoms: C18_45  and  N10_46 
REMARK   16  A    between atoms: N10_46  and  C19_48 
REMARK   17  A    between atoms: C20_54  and  C21_55 
ROOT
HETATM    1  C7  UNL     1       0.169   0.038  -0.259  1.00  0.00     0.070 C 
ENDROOT
BRANCH   1   2
HETATM    2  C6  UNL     1       0.397   1.437   0.297  1.00  0.00     0.183 C 
HETATM    3  S1  UNL     1       0.783   1.574   1.995  1.00  0.00    -0.049 SA
BRANCH   2   4
HETATM    4  C5  UNL     1      -0.833   2.234  -0.050  1.00  0.00     0.308 C 
HETATM    5  N5  UNL     1      -1.845   2.603   0.821  1.00  0.00    -0.207 N 
HETATM    6  N2  UNL     1      -2.890   3.524   0.493  1.00  0.00    -0.057 N 
HETATM    7  C23 UNL     1      -2.271   2.208   2.165  1.00  0.00     0.331 C 
HETATM    8  C3  UNL     1      -4.027   3.044   1.080  1.00  0.00     0.187 A 
HETATM    9  C4  UNL     1      -2.985   4.618  -0.262  1.00  0.00     0.701 A 
HETATM   10  C2  UNL     1      -5.238   3.656   0.898  1.00  0.00     0.107 A 
HETATM   11  O9  UNL     1      -3.659   1.932   1.813  1.00  0.00    -0.312 OA
HETATM   12  C1  UNL     1      -5.321   4.800   0.096  1.00  0.00     0.118 A 
HETATM   13  N4  UNL     1      -4.197   5.244  -0.455  1.00  0.00    -0.175 N 
ATOM     14  H4  UNL     1      -4.232   6.078  -1.042  1.00  0.00     0.186 HD
HETATM   15  N3  UNL     1      -1.971   5.180  -0.732  1.00  0.00    -0.233 N 
ATOM     16  H32 UNL     1      -1.074   4.717  -0.589  1.00  0.00     0.174 HD
ATOM     17  H31 UNL     1      -2.044   6.017  -1.310  1.00  0.00     0.174 HD
HETATM   18  O1  UNL     1      -0.815   2.540  -1.309  1.00  0.00    -0.262 OA
BRANCH  12  19
HETATM   19  N1  UNL     1      -6.473   5.395  -0.104  1.00  0.00    -0.385 N 
ATOM     20  H12 UNL     1      -7.336   5.054   0.319  1.00  0.00     0.157 HD
ATOM     21  H11 UNL     1      -6.533   6.229  -0.688  1.00  0.00     0.157 HD
ENDBRANCH  12  19
ENDBRANCH   2   4
BRANCH   2  22
HETATM   22  O2  UNL     1       1.428   2.037  -0.489  1.00  0.00    -0.348 OA
ATOM     23  H2  UNL     1       2.204   1.534  -0.270  1.00  0.00     0.218 HD
ENDBRANCH   2  22
ENDBRANCH   1   2
BRANCH   1  24
HETATM   24  C8  UNL     1      -1.174  -0.442   0.100  1.00  0.00     0.196 C 
BRANCH  24  25
HETATM   25  N6  UNL     1      -1.569  -1.740  -0.387  1.00  0.00    -0.273 N 
HETATM   26  C9  UNL     1      -1.489  -2.847   0.336  1.00  0.00     0.161 A 
HETATM   27  C10 UNL     1      -1.837  -4.104  -0.144  1.00  0.00     0.092 A 
HETATM   28  C12 UNL     1      -2.287  -4.172  -1.443  1.00  0.00     0.131 A 
HETATM   29  N7  UNL     1      -2.689  -5.232  -2.166  1.00  0.00    -0.350 N 
HETATM   30  N8  UNL     1      -2.368  -3.046  -2.174  1.00  0.00    -0.258 N 
HETATM   31  C13 UNL     1      -3.039  -4.792  -3.391  1.00  0.00     0.107 A 
ATOM     32  H7  UNL     1      -2.723  -6.199  -1.844  1.00  0.00     0.166 HD
HETATM   33  C14 UNL     1      -2.840  -3.427  -3.397  1.00  0.00     0.120 A 
HETATM   34  C15 UNL     1      -2.021  -1.842  -1.675  1.00  0.00     0.336 A 
HETATM   35  O6  UNL     1      -2.127  -0.838  -2.424  1.00  0.00    -0.246 OA
BRANCH  26  36
HETATM   36  O3  UNL     1      -1.049  -2.825   1.647  1.00  0.00    -0.345 OA
ATOM     37  H3  UNL     1      -0.992  -3.619   2.166  1.00  0.00     0.219 HD
ENDBRANCH  26  36
BRANCH  27  38
HETATM   38  C11 UNL     1      -1.732  -5.323   0.706  1.00  0.00     0.296 C 
BRANCH  38  39
HETATM   39  O4  UNL     1      -2.881  -6.115   0.579  1.00  0.00    -0.367 OA
ATOM     40  H4  UNL     1      -2.814  -6.892   1.121  1.00  0.00     0.213 HD
ENDBRANCH  38  39
BRANCH  38  41
HETATM   41  O5  UNL     1      -0.565  -6.017   0.513  1.00  0.00    -0.367 OA
ATOM     42  H5  UNL     1      -0.498  -6.794   1.055  1.00  0.00     0.213 HD
ENDBRANCH  38  41
ENDBRANCH  27  38
ENDBRANCH  24  25
ENDBRANCH   1  24
BRANCH   1  43
HETATM   43  N9  UNL     1       1.281  -0.794  -0.247  1.00  0.00    -0.389 N 
ATOM     44  H9  UNL     1       1.598  -1.179  -1.137  1.00  0.00     0.159 HD
BRANCH  43  45
HETATM   45  C16 UNL     1       1.991  -1.136   0.901  1.00  0.00     0.121 C 
BRANCH  45  46
HETATM   46  C17 UNL     1       3.086  -2.138   0.489  1.00  0.00     0.039 C 
BRANCH  46  47
HETATM   47  C18 UNL     1       4.005  -1.506  -0.529  1.00  0.00     0.123 C 
BRANCH  47  48
HETATM   48  N10 UNL     1       4.682  -0.334  -0.075  1.00  0.00    -0.373 N 
ATOM     49  H10 UNL     1       4.982  -0.289   0.899  1.00  0.00     0.161 HD
BRANCH  48  50
HETATM   50  C19 UNL     1       4.933   0.683  -0.855  1.00  0.00     0.156 A 
HETATM   51  N11 UNL     1       4.648   0.865  -2.145  1.00  0.00    -0.223 N 
HETATM   52  O7  UNL     1       5.092   2.034  -2.507  1.00  0.00    -0.155 OA
ATOM     53  H11 UNL     1       4.163   0.200  -2.747  1.00  0.00     0.198 HD
HETATM   54  N12 UNL     1       5.665   2.649  -1.519  1.00  0.00    -0.234 N 
HETATM   55  C20 UNL     1       5.587   1.830  -0.453  1.00  0.00     0.154 A 
ATOM     56  H12 UNL     1       6.092   3.575  -1.545  1.00  0.00     0.197 HD
BRANCH  55  57
HETATM   57  C21 UNL     1       6.097   2.098   0.875  1.00  0.00     0.196 A 
HETATM   58  N13 UNL     1       6.737   3.220   1.260  1.00  0.00    -0.276 N 
HETATM   59  N14 UNL     1       7.049   3.101   2.533  1.00  0.00    -0.288 N 
ATOM     60  H13 UNL     1       6.944   4.023   0.667  1.00  0.00     0.189 HD
HETATM   61  C22 UNL     1       6.597   1.898   2.926  1.00  0.00     0.251 A 
ATOM     62  H14 UNL     1       7.538   3.787   3.108  1.00  0.00     0.188 HD
HETATM   63  O8  UNL     1       6.029   1.317   1.909  1.00  0.00    -0.284 OA
ENDBRANCH  55  57
ENDBRANCH  48  50
ENDBRANCH  47  48
ENDBRANCH  46  47
ENDBRANCH  45  46
ENDBRANCH  43  45
ENDBRANCH   1  43
TORSDOF 17
