REMARK  21 active torsions:
REMARK  status: ('A' for Active; 'I' for Inactive)
REMARK    1  A    between atoms: C2_2  and  O1_4 
REMARK    2  A    between atoms: C2_2  and  C4_6 
REMARK    3  A    between atoms: C4_6  and  O2_7 
REMARK    4  A    between atoms: C6_10  and  O3_11 
REMARK    5  A    between atoms: O3_11  and  C7_12 
REMARK    6  A    between atoms: C7_12  and  C8_14 
REMARK    7  A    between atoms: C8_14  and  C9_15 
REMARK    8  A    between atoms: C9_15  and  O5_16 
REMARK    9  A    between atoms: O5_16  and  C10_17 
REMARK   10  A    between atoms: C10_17  and  C11_19 
REMARK   11  A    between atoms: C14_22  and  N1_23 
REMARK   12  A    between atoms: N1_23  and  O7_25 
REMARK   13  A    between atoms: C15_29  and  N3_30 
REMARK   14  A    between atoms: C18_38  and  O9_39 
REMARK   15  A    between atoms: C19_41  and  O10_42 
REMARK   16  A    between atoms: O10_42  and  S1_43 
REMARK   17  A    between atoms: S1_43  and  O13_46 
REMARK   18  A    between atoms: O13_46  and  N5_47 
REMARK   19  A    between atoms: C20_50  and  O16_51 
REMARK   20  A    between atoms: C21_53  and  C22_54 
REMARK   21  A    between atoms: C22_54  and  O17_55 
ROOT
HETATM    1  C11 UNL     1      -3.939  -0.049   0.447  1.00  0.00     0.078 A 
HETATM    2  C12 UNL     1      -4.650  -0.540  -0.653  1.00  0.00     0.037 A 
HETATM    3  C13 UNL     1      -5.980  -0.880  -0.577  1.00  0.00     0.030 A 
HETATM    4  C14 UNL     1      -6.505  -1.345  -1.773  1.00  0.00     0.151 A 
HETATM    5  N2  UNL     1      -7.781  -1.739  -2.011  1.00  0.00    -0.174 N 
ATOM      6  H2  UNL     1      -7.943  -2.074  -2.961  1.00  0.00     0.186 HD
HETATM    7  C15 UNL     1      -8.872  -1.769  -1.226  1.00  0.00     0.680 A 
HETATM    8  N4  UNL     1      -8.921  -1.483   0.086  1.00  0.00    -0.156 N 
ATOM      9  H4  UNL     1      -9.824  -1.643   0.533  1.00  0.00     0.187 HD
HETATM   10  C16 UNL     1      -7.941  -1.011   0.906  1.00  0.00     0.273 A 
HETATM   11  O8  UNL     1      -8.279  -0.797   2.097  1.00  0.00    -0.267 OA
HETATM   12  C17 UNL     1      -6.620  -0.726   0.631  1.00  0.00     0.082 A 
HETATM   13  C18 UNL     1      -5.908  -0.235   1.730  1.00  0.00     0.118 A 
HETATM   14  C19 UNL     1      -4.566   0.112   1.659  1.00  0.00     0.142 A 
ENDROOT
BRANCH   1  15
HETATM   15  C10 UNL     1      -2.520   0.242   0.325  1.00  0.00     0.296 C 
HETATM   16  O6  UNL     1      -1.870   0.604   1.319  1.00  0.00    -0.259 OA
BRANCH  15  17
HETATM   17  O5  UNL     1      -1.834   0.134  -0.871  1.00  0.00    -0.317 OA
BRANCH  17  18
HETATM   18  C9  UNL     1      -0.491   0.383  -1.099  1.00  0.00     0.189 C 
BRANCH  18  19
HETATM   19  C8  UNL     1       0.467  -0.464  -0.327  1.00  0.00     0.138 C 
BRANCH  19  20
HETATM   20  C7  UNL     1       1.885  -0.107  -0.656  1.00  0.00     0.265 C 
HETATM   21  O4  UNL     1       2.095   0.808  -1.492  1.00  0.00    -0.265 OA
BRANCH  20  22
HETATM   22  O3  UNL     1       2.961  -0.734  -0.085  1.00  0.00    -0.281 OA
BRANCH  22  23
HETATM   23  C6  UNL     1       4.281  -0.414  -0.380  1.00  0.00     0.089 C 
HETATM   24  C5  UNL     1       4.980   0.478   0.256  1.00  0.00     0.079 C 
HETATM   25  C4  UNL     1       6.362   0.767  -0.103  1.00  0.00     0.215 C 
HETATM   26  O18 UNL     1       7.056  -0.215  -0.717  1.00  0.00    -0.339 OA
HETATM   27  C21 UNL     1       6.391  -1.329  -1.123  1.00  0.00     0.184 C 
HETATM   28  C20 UNL     1       4.944  -1.135  -1.493  1.00  0.00     0.206 C 
BRANCH  25  29
HETATM   29  C2  UNL     1       7.099   1.154   1.187  1.00  0.00     0.111 C 
HETATM   30  C1  UNL     1       8.501   1.520   0.798  1.00  0.00     0.051 C 
HETATM   31  C3  UNL     1       7.103  -0.014   2.140  1.00  0.00     0.051 C 
BRANCH  29  32
HETATM   32  O1  UNL     1       6.454   2.253   1.775  1.00  0.00    -0.385 OA
ATOM     33  H1  UNL     1       5.566   2.021   2.021  1.00  0.00     0.210 HD
ENDBRANCH  29  32
ENDBRANCH  25  29
BRANCH  25  34
HETATM   34  O2  UNL     1       6.428   1.916  -0.927  1.00  0.00    -0.360 OA
ATOM     35  H2  UNL     1       5.972   1.677  -1.725  1.00  0.00     0.213 HD
ENDBRANCH  25  34
BRANCH  27  36
HETATM   36  C22 UNL     1       7.090  -1.858  -2.371  1.00  0.00     0.199 C 
BRANCH  36  37
HETATM   37  O17 UNL     1       7.026  -0.842  -3.323  1.00  0.00    -0.398 OA
ATOM     38  H17 UNL     1       7.461  -1.172  -4.100  1.00  0.00     0.209 HD
ENDBRANCH  36  37
ENDBRANCH  27  36
BRANCH  28  39
HETATM   39  O16 UNL     1       4.753  -0.531  -2.711  1.00  0.00    -0.386 OA
ATOM     40  H16 UNL     1       5.178  -0.993  -3.424  1.00  0.00     0.210 HD
ENDBRANCH  28  39
ENDBRANCH  22  23
ENDBRANCH  20  22
ENDBRANCH  19  20
ENDBRANCH  18  19
ENDBRANCH  17  18
ENDBRANCH  15  17
ENDBRANCH   1  15
BRANCH  14  41
HETATM   41  O10 UNL     1      -3.903   0.612   2.800  1.00  0.00    -0.206 OA
BRANCH  41  42
HETATM   42  S1  UNL     1      -3.889   2.284   3.095  1.00  0.00     0.432 S 
HETATM   43  O11 UNL     1      -2.596   2.730   3.750  1.00  0.00    -0.166 OA
HETATM   44  O12 UNL     1      -4.062   3.082   1.820  1.00  0.00    -0.166 OA
BRANCH  42  45
HETATM   45  O13 UNL     1      -5.206   2.740   4.100  1.00  0.00    -0.065 OA
BRANCH  45  46
HETATM   46  N5  UNL     1      -6.327   3.354   3.605  1.00  0.00     0.022 N 
HETATM   47  O14 UNL     1      -7.437   3.197   4.128  1.00  0.00    -0.510 OA
HETATM   48  O15 UNL     1      -6.226   4.166   2.502  1.00  0.00    -0.510 OA
ENDBRANCH  45  46
ENDBRANCH  42  45
ENDBRANCH  41  42
ENDBRANCH  14  41
BRANCH  13  49
HETATM   49  O9  UNL     1      -6.601  -0.113   2.898  1.00  0.00    -0.357 OA
ATOM     50  H9  UNL     1      -6.117   0.221   3.645  1.00  0.00     0.217 HD
ENDBRANCH  13  49
BRANCH   4  51
HETATM   51  N1  UNL     1      -5.667  -1.396  -2.733  1.00  0.00    -0.252 N 
ATOM     52  H1  UNL     1      -4.704  -1.103  -2.566  1.00  0.00     0.196 HD
BRANCH  51  53
HETATM   53  O7  UNL     1      -6.022  -1.833  -3.981  1.00  0.00    -0.288 OA
ATOM     54  H7  UNL     1      -5.398  -1.871  -4.696  1.00  0.00     0.244 HD
ENDBRANCH  51  53
ENDBRANCH   4  51
BRANCH   7  55
HETATM   55  N3  UNL     1      -9.994  -2.114  -1.810  1.00  0.00    -0.234 N 
ATOM     56  H32 UNL     1      -9.957  -2.331  -2.806  1.00  0.00     0.174 HD
ATOM     57  H31 UNL     1     -10.822  -2.137  -1.214  1.00  0.00     0.174 HD
ENDBRANCH   7  55
TORSDOF 21
