REMARK  8 active torsions:
REMARK  status: ('A' for Active; 'I' for Inactive)
REMARK    1  A    between atoms: C2_2  and  C3_3 
REMARK    2  A    between atoms: C3_3  and  C4_4 
REMARK    3  A    between atoms: C4_4  and  N1_5 
REMARK    4  A    between atoms: C5_6  and  O1_7 
REMARK    5  A    between atoms: N2_13  and  N3_15 
REMARK       I    between atoms: N3_15  and  C8_17 
REMARK    6  A    between atoms: C8_17  and  C9_19 
REMARK    7  A    between atoms: C11_21  and  O4_22 
REMARK    8  A    between atoms: C14_26  and  C15_27 
ROOT
HETATM    1  N3  UNL     1       0.853  -0.943  -0.428  1.00  0.00    -0.266 N 
ATOM      2  H3  UNL     1       0.467  -1.237   0.469  1.00  0.00     0.190 HD
HETATM    3  C8  UNL     1       0.017  -0.268  -1.366  1.00  0.00     0.270 C 
HETATM    4  O3  UNL     1       0.519   0.087  -2.471  1.00  0.00    -0.266 OA
ENDROOT
BRANCH   1   5
HETATM    5  N2  UNL     1       2.146  -1.198  -0.711  1.00  0.00    -0.304 N 
HETATM    6  C3  UNL     1       3.263  -0.889  -0.257  1.00  0.00     0.021 C 
ATOM      7  H2  UNL     1       2.233  -1.814  -1.520  1.00  0.00     0.186 HD
BRANCH   6   8
HETATM    8  C2  UNL     1       3.486  -0.024   0.897  1.00  0.00     0.051 C 
HETATM    9  C1  UNL     1       2.266   0.503   1.578  1.00  0.00     0.011 C 
ENDBRANCH   6   8
BRANCH   6  10
HETATM   10  C4  UNL     1       4.462  -1.464  -0.970  1.00  0.00     0.189 C 
BRANCH  10  11
HETATM   11  N1  UNL     1       5.335  -0.377  -1.477  1.00  0.00    -0.283 N 
HETATM   12  C5  UNL     1       6.344   0.095  -0.778  1.00  0.00     0.152 A 
HETATM   13  C6  UNL     1       7.075   1.109  -1.335  1.00  0.00     0.111 A 
HETATM   14  S1  UNL     1       6.295   1.345  -2.828  1.00  0.00    -0.036 SA
HETATM   15  C7  UNL     1       5.089   0.155  -2.673  1.00  0.00     0.292 A 
HETATM   16  O2  UNL     1       4.152  -0.175  -3.494  1.00  0.00    -0.259 OA
BRANCH  12  17
HETATM   17  O1  UNL     1       6.739  -0.371   0.520  1.00  0.00    -0.345 OA
ATOM     18  H1  UNL     1       7.468  -0.030   1.025  1.00  0.00     0.219 HD
ENDBRANCH  12  17
ENDBRANCH  10  11
ENDBRANCH   6  10
ENDBRANCH   1   5
BRANCH   3  19
HETATM   19  C9  UNL     1      -1.369   0.025  -1.105  1.00  0.00     0.037 A 
HETATM   20  C10 UNL     1      -2.095   0.712  -2.056  1.00  0.00     0.057 A 
HETATM   21  C11 UNL     1      -3.408   1.001  -1.836  1.00  0.00     0.108 A 
HETATM   22  C13 UNL     1      -4.069   0.634  -0.681  1.00  0.00     0.156 A 
HETATM   23  F1  UNL     1      -5.387   0.944  -0.499  1.00  0.00    -0.203 F 
HETATM   24  C14 UNL     1      -3.345  -0.045   0.254  1.00  0.00    -0.008 A 
HETATM   25  C19 UNL     1      -2.007  -0.343   0.035  1.00  0.00     0.028 A 
BRANCH  21  26
HETATM   26  O4  UNL     1      -4.151   1.698  -2.794  1.00  0.00    -0.353 OA
HETATM   27  C12 UNL     1      -3.534   2.100  -3.992  1.00  0.00     0.210 C 
ENDBRANCH  21  26
BRANCH  24  28
HETATM   28  C15 UNL     1      -3.991  -0.472   1.520  1.00  0.00    -0.021 C 
HETATM   29  C16 UNL     1      -2.994  -1.205   2.395  1.00  0.00     0.019 C 
HETATM   30  C17 UNL     1      -4.454   0.740   2.294  1.00  0.00     0.019 C 
HETATM   31  C18 UNL     1      -5.137  -1.436   1.252  1.00  0.00     0.019 C 
ENDBRANCH  24  28
ENDBRANCH   3  19
TORSDOF 8
