REMARK  11 active torsions:
REMARK  status: ('A' for Active; 'I' for Inactive)
REMARK    1  A    between atoms: O1_2  and  N1_3 
REMARK    2  A    between atoms: N1_3  and  S1_5 
REMARK    3  A    between atoms: C3_8  and  C4_9 
REMARK    4  A    between atoms: C5_10  and  C6_11 
REMARK    5  A    between atoms: C6_11  and  C7_12 
REMARK    6  A    between atoms: C7_12  and  C8_13 
REMARK    7  A    between atoms: C8_13  and  N2_14 
REMARK    8  A    between atoms: C11_17  and  O3_18 
REMARK    9  A    between atoms: N3_20  and  N4_21 
REMARK   10  A    between atoms: N4_21  and  C12_23 
REMARK   11  A    between atoms: C12_23  and  C13_27 
ROOT
HETATM    1  S1  UNL     1      -1.050  -0.498  -2.990  1.00  0.00     0.094 SA
HETATM    2  C2  UNL     1       0.725  -0.402  -2.873  1.00  0.00     0.255 A 
HETATM    3  O2  UNL     1       1.514  -0.432  -3.839  1.00  0.00    -0.277 OA
HETATM    4  C3  UNL     1       0.962  -0.287  -1.413  1.00  0.00     0.077 A 
HETATM    5  C11 UNL     1      -0.220  -0.290  -0.618  1.00  0.00     0.184 A 
HETATM    6  N3  UNL     1      -1.474  -0.398  -1.276  1.00  0.00    -0.186 N 
ENDROOT
BRANCH   6   7
HETATM    7  N4  UNL     1      -2.759  -0.420  -0.700  1.00  0.00    -0.269 N 
ATOM      8  H4  UNL     1      -3.407  -1.169  -0.945  1.00  0.00     0.190 HD
BRANCH   7   9
HETATM    9  C12 UNL     1      -3.166   0.585   0.216  1.00  0.00     0.124 C 
HETATM   10  N5  UNL     1      -2.547   1.690   0.326  1.00  0.00    -0.384 N 
ATOM     11  H52 UNL     1      -1.730   1.849  -0.264  1.00  0.00     0.157 HD
ATOM     12  H51 UNL     1      -2.839   2.412   0.984  1.00  0.00     0.157 HD
BRANCH   9  13
HETATM   13  C13 UNL     1      -4.349   0.355   1.070  1.00  0.00     0.009 A 
HETATM   14  C14 UNL     1      -5.072  -0.831   1.025  1.00  0.00     0.017 A 
HETATM   15  C15 UNL     1      -6.189  -1.033   1.824  1.00  0.00     0.025 A 
HETATM   16  C16 UNL     1      -6.615  -0.055   2.690  1.00  0.00     0.034 A 
HETATM   17 CL1  UNL     1      -8.014  -0.247   3.720  1.00  0.00    -0.084 Cl
HETATM   18  C17 UNL     1      -5.921   1.134   2.759  1.00  0.00     0.025 A 
HETATM   19  C18 UNL     1      -4.810   1.308   1.951  1.00  0.00     0.017 A 
ENDBRANCH   9  13
ENDBRANCH   7   9
ENDBRANCH   6   7
BRANCH   1  20
HETATM   20  N1  UNL     1      -2.060  -0.544  -4.245  1.00  0.00    -0.224 N 
ATOM     21  H1  UNL     1      -1.651  -0.515  -5.179  1.00  0.00     0.204 HD
BRANCH  20  22
HETATM   22  O1  UNL     1      -3.415  -0.618  -4.157  1.00  0.00    -0.278 OA
HETATM   23  C1  UNL     1      -4.182  -0.611  -5.339  1.00  0.00     0.238 C 
ENDBRANCH  20  22
ENDBRANCH   1  20
BRANCH   5  24
HETATM   24  O3  UNL     1      -0.229  -0.198   0.688  1.00  0.00    -0.344 OA
ATOM     25  H3  UNL     1      -1.017  -0.200   1.218  1.00  0.00     0.219 HD
ENDBRANCH   5  24
BRANCH   4  26
HETATM   26  C4  UNL     1       2.243  -0.200  -0.993  1.00  0.00     0.020 C 
HETATM   27  C5  UNL     1       2.616  -0.084   0.381  1.00  0.00     0.001 C 
BRANCH  27  28
HETATM   28  C6  UNL     1       3.890  -0.007   0.726  1.00  0.00     0.001 C 
BRANCH  28  29
HETATM   29  C7  UNL     1       4.956  -0.034  -0.227  1.00  0.00     0.017 C 
BRANCH  29  30
HETATM   30  C8  UNL     1       6.226   0.048   0.219  1.00  0.00     0.084 C 
BRANCH  30  31
HETATM   31  N2  UNL     1       6.447   0.158   1.611  1.00  0.00    -0.398 N 
HETATM   32  C9  UNL     1       6.703   1.484   2.153  1.00  0.00     0.148 C 
HETATM   33  C10 UNL     1       6.421  -1.035   2.471  1.00  0.00     0.148 C 
ENDBRANCH  30  31
ENDBRANCH  29  30
ENDBRANCH  28  29
ENDBRANCH  27  28
ENDBRANCH   4  26
TORSDOF 11
