REMARK  10 active torsions:
REMARK  status: ('A' for Active; 'I' for Inactive)
REMARK    1  A    between atoms: C2_2  and  O1_3 
REMARK    2  A    between atoms: O1_3  and  C3_4 
REMARK    3  A    between atoms: C3_4  and  C4_6 
REMARK    4  A    between atoms: C4_6  and  C6_9 
REMARK    5  A    between atoms: C6_9  and  C18_28 
REMARK    6  A    between atoms: N2_10  and  N3_12 
REMARK    7  A    between atoms: N3_12  and  C7_14 
REMARK    8  A    between atoms: C10_17  and  C11_18 
REMARK    9  A    between atoms: C12_19  and  C13_20 
REMARK   10  A    between atoms: C17_25  and  O4_26 
ROOT
HETATM    1  C4  UNL     1      -2.684   0.720  -1.219  1.00  0.00     0.244 C 
HETATM    2  C5  UNL     1      -2.751   0.329  -2.619  1.00  0.00     0.080 C 
HETATM    3  N1  UNL     1      -2.809   0.012  -3.733  1.00  0.00    -0.196 NA
ENDROOT
BRANCH   1   4
HETATM    4  C3  UNL     1      -4.011   1.153  -0.703  1.00  0.00     0.282 C 
HETATM    5  O2  UNL     1      -5.005   1.384  -1.434  1.00  0.00    -0.263 OA
BRANCH   4   6
HETATM    6  O1  UNL     1      -4.193   1.325   0.671  1.00  0.00    -0.321 OA
BRANCH   6   7
HETATM    7  C2  UNL     1      -5.459   1.730   1.159  1.00  0.00     0.174 C 
HETATM    8  C1  UNL     1      -5.811   3.044   0.538  1.00  0.00     0.034 C 
ENDBRANCH   6   7
ENDBRANCH   4   6
ENDBRANCH   1   4
BRANCH   1   9
HETATM    9  C6  UNL     1      -2.113  -0.391  -0.434  1.00  0.00     0.063 C 
HETATM   10  N2  UNL     1      -0.982  -0.209   0.135  1.00  0.00    -0.302 N 
ATOM     11  H2  UNL     1      -0.624  -1.000   0.670  1.00  0.00     0.186 HD
BRANCH  10  12
HETATM   12  N3  UNL     1      -0.183   0.914   0.122  1.00  0.00    -0.298 N 
ATOM     13  H3  UNL     1      -0.572   1.854   0.191  1.00  0.00     0.187 HD
BRANCH  12  14
HETATM   14  C7  UNL     1       1.218   0.685   0.006  1.00  0.00     0.081 A 
HETATM   15  C8  UNL     1       1.752   0.191  -1.158  1.00  0.00     0.035 A 
HETATM   16  C9  UNL     1       3.105  -0.049  -1.260  1.00  0.00     0.024 A 
HETATM   17  C10 UNL     1       3.980   0.192  -0.212  1.00  0.00     0.026 A 
HETATM   18  C15 UNL     1       3.409   0.691   0.944  1.00  0.00    -0.008 A 
HETATM   19  C16 UNL     1       4.321   0.971   2.091  1.00  0.00     0.052 C 
HETATM   20  C17 UNL     1       2.046   0.939   1.064  1.00  0.00     0.101 A 
BRANCH  17  21
HETATM   21  C11 UNL     1       5.395  -0.083  -0.322  1.00  0.00    -0.058 C 
HETATM   22  C12 UNL     1       6.578  -0.341  -0.406  1.00  0.00    -0.024 C 
BRANCH  22  23
HETATM   23  C13 UNL     1       7.974  -0.648  -0.478  1.00  0.00     0.198 C 
HETATM   24  C14 UNL     1       8.985   0.350  -0.897  1.00  0.00     0.106 C 
HETATM   25  O3  UNL     1       8.347  -1.805  -0.175  1.00  0.00    -0.284 OA
ENDBRANCH  22  23
ENDBRANCH  17  21
BRANCH  20  26
HETATM   26  O4  UNL     1       1.611   1.439   2.279  1.00  0.00    -0.358 OA
ATOM     27  H4  UNL     1       2.186   1.615   3.014  1.00  0.00     0.217 HD
ENDBRANCH  20  26
ENDBRANCH  12  14
ENDBRANCH  10  12
BRANCH   9  28
HETATM   28  C18 UNL     1      -2.734  -1.696  -0.262  1.00  0.00    -0.010 A 
HETATM   29  C19 UNL     1      -2.129  -2.666   0.519  1.00  0.00     0.016 A 
HETATM   30  C20 UNL     1      -2.665  -3.910   0.702  1.00  0.00     0.043 A 
HETATM   31  C21 UNL     1      -3.853  -4.238   0.098  1.00  0.00     0.116 A 
HETATM   32  F1  UNL     1      -4.417  -5.480   0.262  1.00  0.00    -0.206 F 
HETATM   33  C22 UNL     1      -4.479  -3.299  -0.682  1.00  0.00     0.043 A 
HETATM   34  C23 UNL     1      -3.919  -2.028  -0.863  1.00  0.00     0.016 A 
ENDBRANCH   9  28
ENDBRANCH   1   9
TORSDOF 10
