REMARK  5 active torsions:
REMARK  status: ('A' for Active; 'I' for Inactive)
REMARK       I    between atoms: C1_2  and  N2_4 
REMARK    1  A    between atoms: N2_4  and  N3_6 
REMARK    2  A    between atoms: C5_15  and  C6_16 
REMARK    3  A    between atoms: N6_17  and  N7_19 
REMARK    4  A    between atoms: N7_19  and  C7_21 
REMARK    5  A    between atoms: C9_25  and  C10_26 
ROOT
HETATM    1  N3  UNL     1       3.774   1.351   0.860  1.00  0.00    -0.126 N 
ATOM      2  H3  UNL     1       3.116   2.126   0.785  1.00  0.00     0.206 HD
HETATM    3  C2  UNL     1       3.359   0.192   0.540  1.00  0.00     0.720 A 
HETATM    4  N4  UNL     1       4.160  -0.890   0.608  1.00  0.00    -0.185 N 
ATOM      5  H4  UNL     1       5.125  -0.786   0.923  1.00  0.00     0.185 HD
HETATM    6  C3  UNL     1       3.696  -2.113   0.262  1.00  0.00     0.200 A 
HETATM    7  N5  UNL     1       2.424  -2.252  -0.154  1.00  0.00    -0.335 N 
ATOM      8  H5  UNL     1       2.068  -3.171  -0.416  1.00  0.00     0.168 HD
HETATM    9  C4  UNL     1       1.614  -1.160  -0.224  1.00  0.00     0.159 A 
HETATM   10  C5  UNL     1       0.275  -0.976  -0.607  1.00  0.00     0.044 A 
HETATM   11  C11 UNL     1      -0.009   0.362  -0.473  1.00  0.00     0.125 A 
HETATM   12  N10 UNL     1       1.132   0.946  -0.023  1.00  0.00    -0.288 N 
ATOM     13  H10 UNL     1       1.237   1.941   0.175  1.00  0.00     0.187 HD
HETATM   14  N11 UNL     1       2.084   0.046   0.122  1.00  0.00    -0.068 N 
ENDROOT
BRANCH  10  15
HETATM   15  C6  UNL     1      -0.566  -2.081  -1.050  1.00  0.00     0.124 C 
HETATM   16  N6  UNL     1      -1.757  -1.951  -1.397  1.00  0.00    -0.308 N 
ATOM     17  H6  UNL     1      -2.195  -2.828  -1.679  1.00  0.00     0.186 HD
BRANCH  16  18
HETATM   18  N7  UNL     1      -2.598  -0.874  -1.478  1.00  0.00    -0.272 N 
ATOM     19  H7  UNL     1      -2.460  -0.177  -2.210  1.00  0.00     0.190 HD
BRANCH  18  20
HETATM   20  C7  UNL     1      -3.662  -0.720  -0.549  1.00  0.00     0.191 C 
HETATM   21  N8  UNL     1      -4.705  -1.480  -0.561  1.00  0.00    -0.359 N 
HETATM   22  C8  UNL     1      -5.626  -1.111   0.482  1.00  0.00     0.159 C 
ATOM     23  H8  UNL     1      -4.857  -2.242  -1.222  1.00  0.00     0.162 HD
HETATM   24  C9  UNL     1      -5.181   0.286   0.850  1.00  0.00     0.203 C 
HETATM   25  N9  UNL     1      -3.776   0.239   0.501  1.00  0.00    -0.345 N 
ATOM     26  H9  UNL     1      -3.021   0.782   0.921  1.00  0.00     0.163 HD
BRANCH  24  27
HETATM   27  C10 UNL     1      -5.869   1.274   0.010  1.00  0.00     0.198 C 
HETATM   28  O2  UNL     1      -5.225   1.923  -0.853  1.00  0.00    -0.646 OA
HETATM   29  O3  UNL     1      -7.227   1.536   0.121  1.00  0.00    -0.646 OA
ENDBRANCH  24  27
ENDBRANCH  18  20
ENDBRANCH  16  18
ENDBRANCH  10  15
BRANCH   1  30
HETATM   30  N2  UNL     1       5.059   1.638   1.305  1.00  0.00    -0.240 N 
HETATM   31  C1  UNL     1       6.190   1.693   0.461  1.00  0.00     0.347 C 
HETATM   32  N1  UNL     1       7.458   1.994   1.005  1.00  0.00    -0.038 NA
HETATM   33  O1  UNL     1       6.066   1.475  -0.765  1.00  0.00    -0.249 OA
ATOM     34  H2  UNL     1       5.193   1.820   2.300  1.00  0.00     0.192 HD
ENDBRANCH   1  30
TORSDOF 5
