REMARK  6 active torsions:
REMARK  status: ('A' for Active; 'I' for Inactive)
REMARK    1  A    between atoms: C2_2  and  N1_3 
REMARK    2  A    between atoms: N1_3  and  O1_5 
REMARK    3  A    between atoms: C5_11  and  S1_12 
REMARK    4  A    between atoms: S1_12  and  N3_13 
REMARK    5  A    between atoms: N5_21  and  N6_23 
REMARK       I    between atoms: N6_23  and  C7_25 
REMARK    6  A    between atoms: C7_25  and  C8_27 
ROOT
HETATM    1  C1  UNL     1      -2.963  -2.805  -1.614  1.00  0.00     0.071 C 
HETATM    2  C2  UNL     1      -1.687  -2.091  -1.353  1.00  0.00     0.043 C 
HETATM    3  C3  UNL     1      -1.641  -0.948  -0.475  1.00  0.00     0.049 A 
HETATM    4  C4  UNL     1      -2.799  -0.509   0.134  1.00  0.00     0.107 A 
HETATM    5  N2  UNL     1      -2.726   0.557   0.946  1.00  0.00    -0.340 N 
ATOM      6  H2  UNL     1      -3.569   0.899   1.407  1.00  0.00     0.167 HD
HETATM    7  C5  UNL     1      -1.554   1.177   1.157  1.00  0.00     0.225 A 
HETATM    8  N4  UNL     1      -0.431   0.743   0.560  1.00  0.00    -0.316 N 
ATOM      9  H4  UNL     1       0.444   1.235   0.741  1.00  0.00     0.169 HD
HETATM   10  C6  UNL     1      -0.420  -0.309  -0.261  1.00  0.00     0.135 A 
HETATM   11  N5  UNL     1       0.634  -0.762  -0.856  1.00  0.00    -0.282 N 
ATOM     12  H5  UNL     1       0.592  -1.571  -1.475  1.00  0.00     0.188 HD
ENDROOT
BRANCH  11  13
HETATM   13  N6  UNL     1       1.834  -0.089  -0.610  1.00  0.00    -0.262 N 
HETATM   14  C7  UNL     1       2.964  -0.711  -0.029  1.00  0.00     0.306 C 
HETATM   15  O4  UNL     1       2.900  -1.932   0.289  1.00  0.00    -0.262 OA
ATOM     16  H6  UNL     1       1.898   0.897  -0.861  1.00  0.00     0.190 HD
BRANCH  14  17
HETATM   17  C8  UNL     1       4.171   0.068   0.190  1.00  0.00     0.208 A 
HETATM   18  N7  UNL     1       5.318  -0.384   0.730  1.00  0.00    -0.264 N 
HETATM   19  N8  UNL     1       6.184   0.639   0.758  1.00  0.00    -0.226 N 
ATOM     20  H7  UNL     1       5.496  -1.333   1.058  1.00  0.00     0.190 HD
HETATM   21  N9  UNL     1       5.600   1.706   0.249  1.00  0.00    -0.226 N 
ATOM     22  H8  UNL     1       7.139   0.599   1.115  1.00  0.00     0.210 HD
HETATM   23  N10 UNL     1       4.395   1.355  -0.088  1.00  0.00    -0.264 N 
ATOM     24  H9  UNL     1       6.015   2.631   0.140  1.00  0.00     0.210 HD
ATOM     25  H10 UNL     1       3.709   1.981  -0.510  1.00  0.00     0.190 HD
ENDBRANCH  14  17
ENDBRANCH  11  13
BRANCH   2  26
HETATM   26  N1  UNL     1      -0.630  -2.534  -1.942  1.00  0.00    -0.273 N 
ATOM     27  H1  UNL     1       0.247  -2.044  -1.765  1.00  0.00     0.194 HD
BRANCH  26  28
HETATM   28  O1  UNL     1      -0.592  -3.596  -2.776  1.00  0.00    -0.290 OA
ATOM     29  H1  UNL     1       0.187  -3.923  -3.210  1.00  0.00     0.244 HD
ENDBRANCH  26  28
ENDBRANCH   2  26
BRANCH   7  30
HETATM   30  S1  UNL     1      -1.469   2.564   2.216  1.00  0.00     0.289 S 
HETATM   31  O2  UNL     1      -0.438   2.274   3.297  1.00  0.00    -0.198 OA
HETATM   32  O3  UNL     1      -2.788   2.815   2.872  1.00  0.00    -0.198 OA
BRANCH  30  33
HETATM   33  N3  UNL     1      -0.896   3.963   1.370  1.00  0.00    -0.322 N 
ATOM     34  H32 UNL     1      -0.645   3.961   0.381  1.00  0.00     0.169 HD
ATOM     35  H31 UNL     1      -0.846   4.773   1.988  1.00  0.00     0.169 HD
ENDBRANCH  30  33
ENDBRANCH   7  30
TORSDOF 6
