REMARK  7 active torsions:
REMARK  status: ('A' for Active; 'I' for Inactive)
REMARK    1  A    between atoms: N1_1  and  C1_4 
REMARK    2  A    between atoms: N6_16  and  C5_17 
REMARK    3  A    between atoms: C5_17  and  C10_30 
REMARK    4  A    between atoms: N7_18  and  N8_20 
REMARK    5  A    between atoms: N8_20  and  C6_22 
REMARK    6  A    between atoms: C10_30  and  N11_31 
REMARK    7  A    between atoms: C10_30  and  C11_35 
ROOT
HETATM    1  C5  UNL     1      -0.376  -1.666  -0.225  1.00  0.00     0.161 C 
HETATM    2  N7  UNL     1       0.392  -1.730   0.810  1.00  0.00    -0.271 N 
ATOM      3  H7  UNL     1       0.667  -2.656   1.139  1.00  0.00     0.189 HD
ENDROOT
BRANCH   1   4
HETATM    4  N6  UNL     1      -0.794  -0.430  -0.733  1.00  0.00    -0.207 N 
HETATM    5  C3  UNL     1      -1.632   0.396  -0.056  1.00  0.00     0.163 A 
HETATM    6  N3  UNL     1      -2.244   0.320   1.136  1.00  0.00    -0.335 N 
HETATM    7  C4  UNL     1      -1.852   1.527  -0.816  1.00  0.00     0.139 A 
HETATM    8  C2  UNL     1      -3.052   1.272   1.628  1.00  0.00     0.183 A 
ATOM      9  H3  UNL     1      -2.085  -0.513   1.703  1.00  0.00     0.168 HD
HETATM   10  N2  UNL     1      -3.256   2.368   0.876  1.00  0.00    -0.337 N 
HETATM   11  C1  UNL     1      -2.687   2.531  -0.327  1.00  0.00     0.132 A 
ATOM     12  H2  UNL     1      -3.866   3.103   1.234  1.00  0.00     0.168 HD
HETATM   13  N4  UNL     1      -1.148   1.364  -1.931  1.00  0.00    -0.279 N 
HETATM   14  N5  UNL     1      -0.531   0.196  -1.855  1.00  0.00    -0.232 N 
ATOM     15  H4  UNL     1      -1.093   2.023  -2.708  1.00  0.00     0.189 HD
ATOM     16  H5  UNL     1       0.078  -0.174  -2.584  1.00  0.00     0.209 HD
BRANCH  11  17
HETATM   17  N1  UNL     1      -2.855   3.559  -1.077  1.00  0.00    -0.383 N 
ATOM     18  H12 UNL     1      -3.466   4.293  -0.719  1.00  0.00     0.157 HD
ATOM     19  H11 UNL     1      -2.422   3.683  -1.992  1.00  0.00     0.157 HD
ENDBRANCH  11  17
ENDBRANCH   1   4
BRANCH   1  20
HETATM   20  C10 UNL     1      -0.792  -2.952  -0.845  1.00  0.00     0.342 C 
BRANCH  20  21
HETATM   21  N11 UNL     1      -0.237  -4.090  -0.148  1.00  0.00    -0.060 N 
ATOM     22 3H11 UNL     1       0.778  -4.023  -0.078  1.00  0.00     0.275 HD
ATOM     23 2H11 UNL     1      -0.468  -4.065   0.845  1.00  0.00     0.275 HD
ATOM     24 1H11 UNL     1      -0.522  -4.972  -0.573  1.00  0.00     0.275 HD
ENDBRANCH  20  21
BRANCH  20  25
HETATM   25  C11 UNL     1      -2.266  -3.095  -0.875  1.00  0.00     0.269 C 
HETATM   26  N12 UNL     1      -3.121  -2.137  -1.491  1.00  0.00    -0.060 NA
HETATM   27  O1  UNL     1      -2.805  -4.094  -0.341  1.00  0.00    -0.274 OA
ENDBRANCH  20  25
ENDBRANCH   1  20
BRANCH   2  28
HETATM   28  N8  UNL     1       0.869  -0.635   1.505  1.00  0.00    -0.131 N 
ATOM     29  H8  UNL     1       0.424  -0.381   2.387  1.00  0.00     0.205 HD
BRANCH  28  30
HETATM   30  C6  UNL     1       1.971   0.160   1.030  1.00  0.00     0.688 C 
HETATM   31  N9  UNL     1       2.040   1.408   1.270  1.00  0.00    -0.225 N 
HETATM   32  C7  UNL     1       3.079   2.295   0.854  1.00  0.00     0.139 C 
ATOM     33  H9  UNL     1       1.278   1.815   1.813  1.00  0.00     0.177 HD
HETATM   34  C8  UNL     1       4.309   1.564   0.362  1.00  0.00     0.040 C 
HETATM   35  C9  UNL     1       3.939   0.360  -0.452  1.00  0.00     0.139 C 
HETATM   36  N10 UNL     1       2.991  -0.474   0.283  1.00  0.00    -0.225 N 
ATOM     37  H10 UNL     1       3.063  -1.491   0.258  1.00  0.00     0.177 HD
ENDBRANCH  28  30
ENDBRANCH   2  28
TORSDOF 7
