REMARK  9 active torsions:
REMARK  status: ('A' for Active; 'I' for Inactive)
REMARK    1  A    between atoms: C2_2  and  C4_4 
REMARK       I    between atoms: C4_4  and  N1_6 
REMARK    2  A    between atoms: N1_6  and  S1_8 
REMARK    3  A    between atoms: S1_8  and  N2_11 
REMARK       I    between atoms: N3_14  and  C7_15 
REMARK    4  A    between atoms: C7_15  and  C8_17 
REMARK    5  A    between atoms: C8_17  and  N4_18 
REMARK    6  A    between atoms: C8_17  and  C10_27 
REMARK    7  A    between atoms: N4_18  and  C9_20 
REMARK    8  A    between atoms: C9_20  and  O5_21 
REMARK    9  A    between atoms: N5_23  and  O6_25 
ROOT
HETATM    1  N2  UNL     1       1.869  -1.640  -0.227  1.00  0.00    -0.190 NA
HETATM    2  C5  UNL     1       1.361  -0.283  -0.270  1.00  0.00     0.129 C 
HETATM    3  C6  UNL     1      -0.066  -0.372  -0.835  1.00  0.00     0.141 C 
HETATM    4  N3  UNL     1      -0.847  -0.988   0.191  1.00  0.00    -0.348 N 
HETATM    5  C7  UNL     1      -2.039  -0.426   0.687  1.00  0.00     0.243 C 
HETATM    6  O4  UNL     1      -2.560  -1.120   1.640  1.00  0.00    -0.271 OA
HETATM    7  C14 UNL     1      -0.314  -2.266   0.697  1.00  0.00     0.141 C 
HETATM    8  C15 UNL     1       0.848  -2.640  -0.194  1.00  0.00     0.129 C 
ENDROOT
BRANCH   5   9
HETATM    9  C8  UNL     1      -2.680   0.819   0.221  1.00  0.00     0.184 C 
BRANCH   9  10
HETATM   10  N4  UNL     1      -3.180   1.656   1.294  1.00  0.00    -0.341 N 
ATOM     11  H4  UNL     1      -2.687   2.540   1.417  1.00  0.00     0.164 HD
BRANCH  10  12
HETATM   12  C9  UNL     1      -4.230   1.438   2.182  1.00  0.00     0.237 C 
HETATM   13  N5  UNL     1      -5.041   2.450   2.418  1.00  0.00    -0.233 N 
ATOM     14  H5  UNL     1      -5.816   2.311   3.066  1.00  0.00     0.198 HD
BRANCH  12  15
HETATM   15  O5  UNL     1      -4.570   0.302   2.879  1.00  0.00    -0.331 OA
ATOM     16  H5  UNL     1      -5.286   0.153   3.485  1.00  0.00     0.221 HD
ENDBRANCH  12  15
BRANCH  13  17
HETATM   17  O6  UNL     1      -4.892   3.678   1.835  1.00  0.00    -0.287 OA
ATOM     18  H6  UNL     1      -5.476   4.407   2.005  1.00  0.00     0.244 HD
ENDBRANCH  13  17
ENDBRANCH  10  12
ENDBRANCH   9  10
BRANCH   9  19
HETATM   19  C10 UNL     1      -3.779   0.568  -0.802  1.00  0.00    -0.022 C 
HETATM   20  C11 UNL     1      -3.281  -0.133  -2.039  1.00  0.00     0.017 C 
HETATM   21  C12 UNL     1      -4.922  -0.243  -0.237  1.00  0.00     0.017 C 
HETATM   22  C13 UNL     1      -4.390   1.868  -1.282  1.00  0.00     0.017 C 
ENDBRANCH   9  19
ENDBRANCH   5   9
BRANCH   1  23
HETATM   23  S1  UNL     1       2.944  -1.836  -1.563  1.00  0.00     0.305 S 
HETATM   24  O2  UNL     1       2.248  -1.551  -2.879  1.00  0.00    -0.188 OA
HETATM   25  O3  UNL     1       3.431  -3.260  -1.655  1.00  0.00    -0.188 OA
BRANCH  23  26
HETATM   26  N1  UNL     1       4.256  -0.732  -1.401  1.00  0.00    -0.241 N 
HETATM   27  C4  UNL     1       4.705  -0.328  -0.123  1.00  0.00     0.235 C 
HETATM   28  O1  UNL     1       4.172  -0.753   0.945  1.00  0.00    -0.272 OA
ATOM     29  H1  UNL     1       4.714  -0.366  -2.236  1.00  0.00     0.182 HD
BRANCH  27  30
HETATM   30  C2  UNL     1       5.831   0.619  -0.016  1.00  0.00     0.071 C 
HETATM   31  C1  UNL     1       7.038  -0.042  -0.682  1.00  0.00     0.019 C 
HETATM   32  C3  UNL     1       6.110   0.955   1.423  1.00  0.00     0.019 C 
ENDBRANCH  27  30
ENDBRANCH  23  26
ENDBRANCH   1  23
TORSDOF 9
