REMARK  8 active torsions:
REMARK  status: ('A' for Active; 'I' for Inactive)
REMARK       I    between atoms: C1_2  and  N1_3 
REMARK    1  A    between atoms: C1_2  and  C5_13 
REMARK    2  A    between atoms: N1_3  and  N2_5 
REMARK    3  A    between atoms: N2_5  and  S1_7 
REMARK    4  A    between atoms: S1_7  and  C2_10 
REMARK    5  A    between atoms: N3_18  and  C10_19 
REMARK    6  A    between atoms: C10_19  and  O4_20 
REMARK    7  A    between atoms: C10_19  and  C11_22 
REMARK    8  A    between atoms: C13_24  and  C14_25 
ROOT
HETATM    1  C5  UNL     1       1.103   0.001   0.176  1.00  0.00     0.179 C 
HETATM    2  C6  UNL     1       1.161  -1.046   1.236  1.00  0.00     0.035 C 
HETATM    3  C7  UNL     1       0.100  -2.081   1.216  1.00  0.00     0.007 C 
HETATM    4  C8  UNL     1      -0.402  -2.463  -0.128  1.00  0.00     0.044 C 
HETATM    5  C9  UNL     1      -0.271  -1.426  -1.202  1.00  0.00     0.062 C 
HETATM    6  N3  UNL     1       0.056  -0.144  -0.791  1.00  0.00    -0.352 N 
ENDROOT
BRANCH   6   7
HETATM    7  C10 UNL     1      -0.778   0.954  -1.053  1.00  0.00     0.251 C 
BRANCH   7   8
HETATM    8  O4  UNL     1       0.109   2.054  -1.311  1.00  0.00    -0.374 OA
ATOM      9  H4  UNL     1      -0.456   2.797  -1.488  1.00  0.00     0.212 HD
ENDBRANCH   7   8
BRANCH   7  10
HETATM   10  C11 UNL     1      -1.642   1.350   0.127  1.00  0.00     0.236 C 
HETATM   11  C12 UNL     1      -2.794   2.273  -0.170  1.00  0.00     0.070 C 
HETATM   12  C13 UNL     1      -3.566   1.357   0.713  1.00  0.00     0.192 C 
HETATM   13  N4  UNL     1      -2.643   0.311   0.446  1.00  0.00    -0.062 N 
ATOM     14  H42 UNL     1      -2.865  -0.426  -0.223  1.00  0.00     0.278 HD
ATOM     15  H41 UNL     1      -2.449  -0.407   1.143  1.00  0.00     0.278 HD
BRANCH  12  16
HETATM   16  C14 UNL     1      -5.015   1.115   0.394  1.00  0.00     0.016 C 
HETATM   17  C15 UNL     1      -5.274   0.587  -0.983  1.00  0.00     0.007 C 
HETATM   18  C16 UNL     1      -6.351  -0.468  -0.856  1.00  0.00     0.000 C 
HETATM   19  C17 UNL     1      -6.305  -0.944   0.576  1.00  0.00     0.000 C 
HETATM   20  C18 UNL     1      -5.474   0.025   1.353  1.00  0.00     0.007 C 
ENDBRANCH  12  16
ENDBRANCH   7  10
ENDBRANCH   6   7
BRANCH   1  21
HETATM   21  C1  UNL     1       2.395  -0.104  -0.582  1.00  0.00     0.259 C 
HETATM   22  O1  UNL     1       2.419  -0.359  -1.813  1.00  0.00    -0.269 OA
HETATM   23  N1  UNL     1       3.613   0.094   0.126  1.00  0.00    -0.259 N 
ATOM     24  H1  UNL     1       3.610   0.318   1.121  1.00  0.00     0.190 HD
BRANCH  23  25
HETATM   25  N2  UNL     1       4.838  -0.029  -0.593  1.00  0.00    -0.224 N 
ATOM     26  H2  UNL     1       4.986   0.364  -1.522  1.00  0.00     0.200 HD
BRANCH  25  27
HETATM   27  S1  UNL     1       6.024  -0.896   0.254  1.00  0.00     0.248 S 
HETATM   28  O2  UNL     1       6.326  -2.246  -0.367  1.00  0.00    -0.204 OA
HETATM   29  O3  UNL     1       5.547  -1.118   1.687  1.00  0.00    -0.204 OA
BRANCH  27  30
HETATM   30  C2  UNL     1       7.583  -0.044   0.385  1.00  0.00     0.131 A 
HETATM   31  C3  UNL     1       8.162   0.536  -0.863  1.00  0.00     0.023 A 
HETATM   32  C4  UNL     1       7.716   1.403   0.292  1.00  0.00     0.023 A 
ENDBRANCH  27  30
ENDBRANCH  25  27
ENDBRANCH  23  25
ENDBRANCH   1  21
TORSDOF 8
