REMARK  7 active torsions:
REMARK  status: ('A' for Active; 'I' for Inactive)
REMARK    1  A    between atoms: C2_2  and  N3_14 
REMARK    2  A    between atoms: N1_3  and  C3_5 
REMARK    3  A    between atoms: C3_5  and  C4_6 
REMARK       I    between atoms: C4_6  and  N2_8 
REMARK    4  A    between atoms: N2_8  and  S1_10 
REMARK    5  A    between atoms: N3_14  and  S2_16 
REMARK    6  A    between atoms: S2_16  and  N4_19 
REMARK       I    between atoms: N4_19  and  C6_21 
REMARK       I    between atoms: C6_21  and  N5_23 
REMARK    7  A    between atoms: N5_23  and  C7_25 
ROOT
HETATM    1  N3  UNL     1       1.318   0.422  -1.362  1.00  0.00    -0.281 N 
ATOM      2  H3  UNL     1       0.739   0.141  -2.154  1.00  0.00     0.179 HD
ENDROOT
BRANCH   1   3
HETATM    3  C2  UNL     1       2.596   1.002  -1.609  1.00  0.00     0.082 C 
HETATM    4  C1  UNL     1       3.108   2.175  -0.874  1.00  0.00     0.089 C 
HETATM    5  N1  UNL     1       3.294   0.471  -2.539  1.00  0.00    -0.371 N 
ATOM      6  H1  UNL     1       2.860  -0.336  -2.987  1.00  0.00     0.161 HD
BRANCH   5   7
HETATM    7  C3  UNL     1       4.566   0.815  -3.051  1.00  0.00     0.224 C 
BRANCH   7   8
HETATM    8  C4  UNL     1       5.648   0.159  -2.310  1.00  0.00     0.248 C 
HETATM    9  O1  UNL     1       6.835   0.397  -2.705  1.00  0.00    -0.271 OA
HETATM   10  N2  UNL     1       5.489  -0.711  -1.206  1.00  0.00    -0.253 N 
ATOM     11  H2  UNL     1       4.550  -0.915  -0.863  1.00  0.00     0.181 HD
BRANCH  10  12
HETATM   12  S1  UNL     1       6.834  -1.428  -0.433  1.00  0.00     0.229 S 
HETATM   13  C5  UNL     1       7.110  -0.879   1.214  1.00  0.00     0.186 C 
HETATM   14  O2  UNL     1       8.059  -1.139  -1.267  1.00  0.00    -0.206 OA
HETATM   15  O3  UNL     1       6.662  -2.922  -0.403  1.00  0.00    -0.206 OA
ENDBRANCH  10  12
ENDBRANCH   7   8
ENDBRANCH   5   7
ENDBRANCH   1   3
BRANCH   1  16
HETATM   16  S2  UNL     1       0.731   0.186   0.217  1.00  0.00     0.184 S 
HETATM   17  O4  UNL     1       0.602   1.484   0.971  1.00  0.00    -0.215 OA
HETATM   18  S3  UNL     1       1.761  -0.900   1.032  1.00  0.00     0.052 SA
BRANCH  16  19
HETATM   19  N4  UNL     1      -0.866  -0.522   0.155  1.00  0.00    -0.243 N 
HETATM   20  C6  UNL     1      -1.899   0.009   0.940  1.00  0.00     0.329 C 
HETATM   21  O5  UNL     1      -1.744   0.988   1.742  1.00  0.00    -0.246 OA
HETATM   22  N5  UNL     1      -3.206  -0.535   0.870  1.00  0.00    -0.338 N 
ATOM     23  H5  UNL     1      -3.370  -1.317   0.237  1.00  0.00     0.164 HD
ATOM     24  H4  UNL     1      -1.046  -1.321  -0.452  1.00  0.00     0.182 HD
BRANCH  22  25
HETATM   25  C7  UNL     1      -4.333  -0.034   1.658  1.00  0.00     0.086 C 
HETATM   26  C8  UNL     1      -4.989   1.002   0.771  1.00  0.00     0.025 C 
HETATM   27  C9  UNL     1      -5.990   0.415  -0.193  1.00  0.00     0.002 C 
HETATM   28  C10 UNL     1      -7.085  -0.201   0.699  1.00  0.00     0.000 C 
HETATM   29  C11 UNL     1      -6.481  -1.368   1.385  1.00  0.00     0.002 C 
HETATM   30  C12 UNL     1      -5.179  -1.150   2.081  1.00  0.00     0.025 C 
ENDBRANCH  22  25
ENDBRANCH  16  19
ENDBRANCH   1  16
TORSDOF 7
