REMARK  2 active torsions:
REMARK  status: ('A' for Active; 'I' for Inactive)
REMARK    1  A    between atoms: C2_2  and  C4_5 
REMARK    2  A    between atoms: C4_5  and  C5_7 
ROOT
HETATM    1  C5  UNL     1      -0.139  -0.129  -0.162  1.00  0.00     0.138 C 
HETATM    2  C6  UNL     1       0.173   0.910  -1.193  1.00  0.00     0.044 C 
HETATM    3  S1  UNL     1      -0.427   0.546   1.499  1.00  0.00    -0.066 SA
HETATM    4  C7  UNL     1      -2.151   0.178   1.649  1.00  0.00     0.198 C 
HETATM    5  O2  UNL     1      -2.798   0.188   2.638  1.00  0.00    -0.285 OA
HETATM    6  C8  UNL     1      -2.576  -0.135   0.277  1.00  0.00     0.134 C 
HETATM    7  C9  UNL     1      -3.001   1.183  -0.380  1.00  0.00     0.027 C 
HETATM    8  C10 UNL     1      -1.482  -0.761  -0.456  1.00  0.00     0.165 C 
HETATM    9  O3  UNL     1      -1.568  -1.691  -1.233  1.00  0.00    -0.295 OA
ENDROOT
BRANCH   1  10
HETATM   10  C4  UNL     1       0.893  -1.176  -0.036  1.00  0.00     0.182 C 
HETATM   11  O1  UNL     1       0.624  -2.407  -0.171  1.00  0.00    -0.290 OA
BRANCH  10  12
HETATM   12  C2  UNL     1       2.269  -0.835   0.251  1.00  0.00    -0.003 C 
HETATM   13  C1  UNL     1       2.749   0.563   0.411  1.00  0.00     0.053 C 
HETATM   14  C3  UNL     1       3.175  -1.819   0.369  1.00  0.00     0.095 C 
HETATM   15 CL1  UNL     1       4.850  -1.491   0.695  1.00  0.00    -0.096 Cl
ENDBRANCH  10  12
ENDBRANCH   1  10
TORSDOF 2
