REMARK  2 active torsions:
REMARK  status: ('A' for Active; 'I' for Inactive)
REMARK    1  A    between atoms: S1_2  and  C2_3 
REMARK    2  A    between atoms: C8_10  and  C9_11 
ROOT
HETATM    1  C2  UNL     1       1.588  -0.826  -0.158  1.00  0.00     0.186 C 
HETATM    2  C3  UNL     1       0.913  -0.145  -1.272  1.00  0.00     0.148 C 
HETATM    3  O1  UNL     1       1.530   0.507  -2.061  1.00  0.00    -0.296 OA
HETATM    4  C4  UNL     1      -0.546  -0.291  -1.387  1.00  0.00     0.089 C 
HETATM    5  C5  UNL     1      -1.296   0.179  -0.158  1.00  0.00    -0.023 C 
HETATM    6  C6  UNL     1      -1.369   1.690  -0.243  1.00  0.00     0.016 C 
HETATM    7  C7  UNL     1      -2.721  -0.331  -0.205  1.00  0.00     0.016 C 
HETATM    8  C8  UNL     1      -0.575  -0.284   1.081  1.00  0.00     0.151 C 
HETATM    9  C10 UNL     1       0.495  -1.258   0.768  1.00  0.00     0.161 C 
HETATM   10  O3  UNL     1       0.508  -2.375   1.232  1.00  0.00    -0.295 OA
ENDROOT
BRANCH   8  11
HETATM   11  C9  UNL     1      -1.496  -0.877   2.083  1.00  0.00     0.231 C 
HETATM   12  O2  UNL     1      -1.439  -2.016   2.500  1.00  0.00    -0.279 OA
HETATM   13 CL1  UNL     1      -2.802   0.117   2.760  1.00  0.00    -0.043 Cl
ENDBRANCH   8  11
BRANCH   1  14
HETATM   14  S1  UNL     1       2.715   0.208   0.767  1.00  0.00    -0.153 SA
HETATM   15  C1  UNL     1       4.152   0.744  -0.171  1.00  0.00     0.091 C 
ENDBRANCH   1  14
TORSDOF 2
