REMARK  3 active torsions:
REMARK  status: ('A' for Active; 'I' for Inactive)
REMARK    1  A    between atoms: C2_2  and  O1_3 
REMARK    2  A    between atoms: O1_3  and  C3_4 
REMARK       I    between atoms: C3_4  and  N1_6 
REMARK    3  A    between atoms: C4_8  and  C5_10 
ROOT
HETATM    1  C5  UNL     1      -0.081  -1.464   0.598  1.00  0.00     0.271 C 
HETATM    2  O3  UNL     1      -1.045  -0.569   0.980  1.00  0.00    -0.358 OA
HETATM    3  C6  UNL     1      -2.023  -0.529   0.003  1.00  0.00     0.069 C 
HETATM    4  C7  UNL     1      -1.749   0.614  -0.942  1.00  0.00     0.038 C 
HETATM    5  C8  UNL     1      -2.258   1.799  -0.159  1.00  0.00     0.003 C 
HETATM    6  C9  UNL     1      -3.446   1.279   0.586  1.00  0.00     0.003 C 
HETATM    7  C10 UNL     1      -3.395  -0.231   0.531  1.00  0.00     0.038 C 
HETATM    8  C11 UNL     1      -1.969  -1.873  -0.694  1.00  0.00     0.119 C 
HETATM    9  C12 UNL     1      -0.525  -2.155  -0.621  1.00  0.00     0.166 C 
HETATM   10  O4  UNL     1       0.124  -2.801  -1.387  1.00  0.00    -0.295 OA
ENDROOT
BRANCH   1  11
HETATM   11  C4  UNL     1       1.272  -0.880   0.483  1.00  0.00     0.205 C 
HETATM   12  N1  UNL     1       1.938  -0.882  -0.619  1.00  0.00    -0.280 N 
HETATM   13  C3  UNL     1       3.242  -0.311  -0.700  1.00  0.00     0.371 C 
ATOM     14  H1  UNL     1       1.524  -1.301  -1.452  1.00  0.00     0.173 HD
HETATM   15  O2  UNL     1       3.765  -0.043  -1.820  1.00  0.00    -0.238 OA
HETATM   16  F1  UNL     1       1.867  -0.312   1.560  1.00  0.00    -0.188 F 
BRANCH  13  17
HETATM   17  O1  UNL     1       3.995  -0.024   0.426  1.00  0.00    -0.274 OA
BRANCH  17  18
HETATM   18  C2  UNL     1       5.251   0.529   0.257  1.00  0.00     0.137 C 
HETATM   19  C1  UNL     1       5.400   1.834   0.214  1.00  0.00     0.038 C 
ENDBRANCH  17  18
ENDBRANCH  13  17
ENDBRANCH   1  11
TORSDOF 3
