REMARK  2 active torsions:
REMARK  status: ('A' for Active; 'I' for Inactive)
REMARK    1  A    between atoms: C3_4  and  C4_5 
REMARK    2  A    between atoms: C6_9  and  N1_10 
ROOT
HETATM    1  C1  UNL     1      -2.194  -1.128  -0.723  1.00  0.00     0.059 C 
HETATM    2  C2  UNL     1      -0.804  -0.614  -0.476  1.00  0.00     0.014 A 
HETATM    3  S1  UNL     1       0.655  -1.065  -1.276  1.00  0.00    -0.088 SA
HETATM    4  C3  UNL     1       1.732  -0.048  -0.427  1.00  0.00     0.062 A 
HETATM    5  C5  UNL     1       0.930   0.607   0.446  1.00  0.00     0.065 A 
HETATM    6 BR1  UNL     1       1.738   1.904   1.650  1.00  0.00    -0.047 Br
HETATM    7  C6  UNL     1      -0.368   0.320   0.424  1.00  0.00     0.134 A 
ENDROOT
BRANCH   7   8
HETATM    8  N1  UNL     1      -1.349   0.937   1.301  1.00  0.00    -0.113 N 
HETATM    9  O2  UNL     1      -1.788   0.245   2.216  1.00  0.00    -0.532 OA
HETATM   10  O3  UNL     1      -1.760   2.215   1.121  1.00  0.00    -0.532 OA
ENDBRANCH   7   8
BRANCH   4  11
HETATM   11  C4  UNL     1       3.193   0.051  -0.639  1.00  0.00     0.278 C 
HETATM   12  O1  UNL     1       3.894   0.836   0.042  1.00  0.00    -0.301 OA
ENDBRANCH   4  11
TORSDOF 2
