REMARK  4 active torsions:
REMARK  status: ('A' for Active; 'I' for Inactive)
REMARK    1  A    between atoms: C3_4  and  C4_5 
REMARK    2  A    between atoms: C4_5  and  O2_7 
REMARK    3  A    between atoms: O2_7  and  C5_8 
REMARK    4  A    between atoms: C5_8  and  C6_9 
ROOT
HETATM    1  C6  UNL     1       1.565   0.763  -0.378  1.00  0.00     0.049 A 
HETATM    2  C7  UNL     1       2.071   0.081   0.705  1.00  0.00     0.062 A 
HETATM    3  C8  UNL     1       1.137  -0.324   1.783  1.00  0.00     0.077 C 
HETATM    4  O3  UNL     1       3.346  -0.216   0.778  1.00  0.00    -0.316 OA
HETATM    5  C9  UNL     1       4.216   0.089  -0.130  1.00  0.00     0.092 A 
HETATM    6  C10 UNL     1       5.660  -0.302   0.050  1.00  0.00     0.080 C 
HETATM    7  C11 UNL     1       3.788   0.778  -1.263  1.00  0.00     0.196 A 
HETATM    8  F1  UNL     1       4.674   1.110  -2.213  1.00  0.00    -0.199 F 
HETATM    9  C12 UNL     1       2.427   1.119  -1.381  1.00  0.00     0.223 A 
HETATM   10  O4  UNL     1       2.104   1.732  -2.412  1.00  0.00    -0.284 OA
ENDROOT
BRANCH   1  11
HETATM   11  C5  UNL     1       0.147   1.195  -0.435  1.00  0.00     0.224 C 
BRANCH  11  12
HETATM   12  O2  UNL     1      -0.743   0.156  -0.204  1.00  0.00    -0.313 OA
BRANCH  12  13
HETATM   13  C4  UNL     1      -2.102   0.323  -0.207  1.00  0.00     0.284 C 
HETATM   14  O1  UNL     1      -2.553   1.443  -0.459  1.00  0.00    -0.260 OA
BRANCH  13  15
HETATM   15  C3  UNL     1      -3.000  -0.816   0.094  1.00  0.00     0.103 C 
HETATM   16  C2  UNL     1      -4.279  -0.668   0.100  1.00  0.00     0.026 C 
HETATM   17  C1  UNL     1      -5.186  -1.842   0.415  1.00  0.00     0.065 C 
HETATM   18  N1  UNL     1      -4.892   0.553  -0.197  1.00  0.00    -0.107 NA
ENDBRANCH  13  15
ENDBRANCH  12  13
ENDBRANCH  11  12
ENDBRANCH   1  11
TORSDOF 4
