REMARK  4 active torsions:
REMARK  status: ('A' for Active; 'I' for Inactive)
REMARK    1  A    between atoms: O1_2  and  C2_3 
REMARK    2  A    between atoms: C2_3  and  C3_5 
REMARK    3  A    between atoms: C7_11  and  O3_12 
REMARK    4  A    between atoms: O3_12  and  C8_13 
ROOT
HETATM    1  C3  UNL     1       1.579   0.173   0.442  1.00  0.00     0.065 A 
HETATM    2  C4  UNL     1       2.091  -0.154  -0.795  1.00  0.00     0.049 A 
HETATM    3  C5  UNL     1       1.316  -0.183  -1.896  1.00  0.00     0.088 A 
HETATM    4  N1  UNL     1       1.892  -0.527  -3.151  1.00  0.00    -0.099 NA
HETATM    5  C6  UNL     1      -0.028   0.123  -1.781  1.00  0.00     0.175 A 
HETATM    6  F1  UNL     1      -0.751   0.073  -2.938  1.00  0.00    -0.201 F 
HETATM    7  C7  UNL     1      -0.595   0.457  -0.575  1.00  0.00     0.131 A 
HETATM    8  C11 UNL     1       0.220   0.479   0.537  1.00  0.00     0.097 A 
HETATM    9  C12 UNL     1      -0.298   0.825   1.834  1.00  0.00     0.103 C 
HETATM   10  N2  UNL     1      -0.752   1.116   2.886  1.00  0.00    -0.191 NA
ENDROOT
BRANCH   1  11
HETATM   11  C2  UNL     1       2.491   0.176   1.564  1.00  0.00     0.294 C 
HETATM   12  O2  UNL     1       2.064   0.466   2.702  1.00  0.00    -0.259 OA
BRANCH  11  13
HETATM   13  O1  UNL     1       3.824  -0.139   1.374  1.00  0.00    -0.322 OA
HETATM   14  C1  UNL     1       4.678  -0.123   2.498  1.00  0.00     0.213 C 
ENDBRANCH  11  13
ENDBRANCH   1  11
BRANCH   7  15
HETATM   15  O3  UNL     1      -1.910   0.752  -0.490  1.00  0.00    -0.342 OA
BRANCH  15  16
HETATM   16  C8  UNL     1      -2.985  -0.119  -0.261  1.00  0.00     0.121 C 
HETATM   17  C9  UNL     1      -3.844   0.228   0.914  1.00  0.00     0.040 C 
HETATM   18  C10 UNL     1      -3.882  -0.265  -1.472  1.00  0.00     0.040 C 
ENDBRANCH  15  16
ENDBRANCH   7  15
TORSDOF 4
