REMARK  5 active torsions:
REMARK  status: ('A' for Active; 'I' for Inactive)
REMARK    1  A    between atoms: C2_2  and  O1_3 
REMARK    2  A    between atoms: O1_3  and  C3_4 
REMARK    3  A    between atoms: C3_4  and  C4_6 
REMARK    4  A    between atoms: C7_12  and  C8_13 
REMARK    5  A    between atoms: C8_13  and  O4_15 
ROOT
HETATM    1  C4  UNL     1      -0.456  -1.733  -0.025  1.00  0.00     0.149 C 
HETATM    2  C5  UNL     1      -0.046  -1.089  -1.328  1.00  0.00    -0.004 C 
HETATM    3  N1  UNL     1      -0.195  -1.573  -2.500  1.00  0.00    -0.405 N 
ATOM      4  H11 UNL     1       0.082  -1.138  -3.380  1.00  0.00     0.155 HD
ATOM      5  H12 UNL     1      -0.609  -2.466  -2.769  1.00  0.00     0.155 HD
HETATM    6  C6  UNL     1       0.553   0.204  -0.938  1.00  0.00     0.069 C 
HETATM    7  C7  UNL     1       1.118   0.030   0.456  1.00  0.00     0.110 C 
HETATM    8  C10 UNL     1       0.678  -1.349   0.880  1.00  0.00     0.115 C 
HETATM    9 CL1  UNL     1       0.047  -1.350   2.557  1.00  0.00    -0.123 Cl
ENDROOT
BRANCH   1  10
HETATM   10  C3  UNL     1      -1.731  -1.084   0.392  1.00  0.00     0.270 C 
HETATM   11  O2  UNL     1      -2.787  -1.754   0.545  1.00  0.00    -0.264 OA
BRANCH  10  12
HETATM   12  O1  UNL     1      -1.815   0.280   0.631  1.00  0.00    -0.321 OA
BRANCH  12  13
HETATM   13  C2  UNL     1      -3.064   0.853   1.030  1.00  0.00     0.174 C 
HETATM   14  C1  UNL     1      -4.121   0.629   0.000  1.00  0.00     0.034 C 
ENDBRANCH  12  13
ENDBRANCH  10  12
ENDBRANCH   1  10
BRANCH   7  15
HETATM   15  C8  UNL     1       2.599   0.163   0.419  1.00  0.00     0.264 C 
HETATM   16  O3  UNL     1       3.369  -0.765   0.783  1.00  0.00    -0.265 OA
BRANCH  15  17
HETATM   17  O4  UNL     1       3.155   1.330  -0.023  1.00  0.00    -0.326 OA
HETATM   18  C9  UNL     1       4.546   1.581  -0.106  1.00  0.00     0.213 C 
ENDBRANCH  15  17
ENDBRANCH   7  15
TORSDOF 5
