REMARK  5 active torsions:
REMARK  status: ('A' for Active; 'I' for Inactive)
REMARK    1  A    between atoms: S1_2  and  C2_3 
REMARK    2  A    between atoms: C3_6  and  C4_7 
REMARK    3  A    between atoms: C4_7  and  N2_8 
REMARK    4  A    between atoms: N2_8  and  C6_10 
REMARK    5  A    between atoms: C6_10  and  C8_12 
ROOT
HETATM    1  C2  UNL     1      -2.591   0.261  -0.610  1.00  0.00     0.141 A 
HETATM    2  N1  UNL     1      -1.451   0.190  -1.184  1.00  0.00    -0.358 N 
ATOM      3  H1  UNL     1      -1.090   0.903  -1.818  1.00  0.00     0.162 HD
HETATM    4  C3  UNL     1      -0.739  -1.001  -0.837  1.00  0.00     0.176 A 
HETATM    5  C9  UNL     1      -1.698  -1.670   0.090  1.00  0.00     0.119 A 
HETATM    6  N3  UNL     1      -1.558  -2.905   0.767  1.00  0.00    -0.085 NA
HETATM    7  N4  UNL     1      -2.716  -0.914   0.179  1.00  0.00    -0.327 N 
ATOM      8  H4  UNL     1      -3.532  -1.127   0.753  1.00  0.00     0.169 HD
ENDROOT
BRANCH   4   9
HETATM    9  C4  UNL     1       0.518  -0.759  -0.029  1.00  0.00     0.304 C 
BRANCH   9  10
HETATM   10  N2  UNL     1       1.487   0.077  -0.714  1.00  0.00     0.091 N 
HETATM   11  C5  UNL     1       1.009   1.440  -0.830  1.00  0.00     0.310 C 
BRANCH  10  12
HETATM   12  C6  UNL     1       2.740  -0.006   0.011  1.00  0.00     0.232 C 
HETATM   13  C7  UNL     1       2.667   0.577   1.403  1.00  0.00     0.044 C 
BRANCH  12  14
HETATM   14  C8  UNL     1       3.878   0.574  -0.787  1.00  0.00     0.150 C 
HETATM   15 CL1  UNL     1       4.045  -0.335  -2.327  1.00  0.00    -0.128 Cl
ENDBRANCH  12  14
ENDBRANCH  10  12
ENDBRANCH   9  10
ENDBRANCH   4   9
BRANCH   1  16
HETATM   16  S1  UNL     1      -3.742   1.608  -0.812  1.00  0.00    -0.099 SA
HETATM   17  C1  UNL     1      -5.195   1.279   0.189  1.00  0.00     0.099 C 
ENDBRANCH   1  16
TORSDOF 5
