REMARK  4 active torsions:
REMARK  status: ('A' for Active; 'I' for Inactive)
REMARK    1  A    between atoms: N1_2  and  N2_4 
REMARK       I    between atoms: N2_4  and  C3_6 
REMARK    2  A    between atoms: C3_6  and  C4_8 
REMARK    3  A    between atoms: C5_11  and  C6_12 
REMARK    4  A    between atoms: C6_12  and  C7_13 
ROOT
HETATM    1  C4  UNL     1       1.094   0.106  -0.946  1.00  0.00     0.161 A 
HETATM    2  N3  UNL     1       0.245  -0.020   0.052  1.00  0.00    -0.334 N 
ATOM      3  H3  UNL     1       0.576  -0.177   1.004  1.00  0.00     0.168 HD
HETATM    4  C5  UNL     1      -1.042   0.062  -0.209  1.00  0.00     0.089 A 
HETATM    5  N4  UNL     1      -1.402   0.269  -1.476  1.00  0.00    -0.314 N 
ATOM      6  H4  UNL     1      -2.341   0.359  -1.863  1.00  0.00     0.175 HD
HETATM    7  S1  UNL     1       0.074   0.345  -2.280  1.00  0.00     0.011 SA
ENDROOT
BRANCH   1   8
HETATM    8  C3  UNL     1       2.569   0.055  -0.923  1.00  0.00     0.291 C 
HETATM    9  N2  UNL     1       3.265  -0.152   0.297  1.00  0.00    -0.284 N 
ATOM     10  H2  UNL     1       2.706  -0.263   1.143  1.00  0.00     0.184 HD
HETATM   11  O1  UNL     1       3.186   0.196  -1.986  1.00  0.00    -0.264 OA
BRANCH   9  12
HETATM   12  N1  UNL     1       4.647  -0.216   0.430  1.00  0.00    -0.237 NA
HETATM   13  C1  UNL     1       5.130  -1.300  -0.399  1.00  0.00     0.135 C 
HETATM   14  C2  UNL     1       5.325   0.993   0.069  1.00  0.00     0.135 C 
ENDBRANCH   9  12
ENDBRANCH   1   8
BRANCH   4  15
HETATM   15  C6  UNL     1      -2.044  -0.080   0.934  1.00  0.00     0.085 C 
BRANCH  15  16
HETATM   16  C7  UNL     1      -3.424   0.041   0.404  1.00  0.00    -0.045 C 
HETATM   17  C8  UNL     1      -4.365  -0.108   1.604  1.00  0.00     0.015 C 
HETATM   18  C9  UNL     1      -3.790  -1.045  -0.579  1.00  0.00     0.015 C 
HETATM   19  C10 UNL     1      -3.717   1.398  -0.193  1.00  0.00     0.015 C 
ENDBRANCH  15  16
ENDBRANCH   4  15
TORSDOF 4
