REMARK  5 active torsions:
REMARK  status: ('A' for Active; 'I' for Inactive)
REMARK    1  A    between atoms: C2_2  and  O1_4 
REMARK    2  A    between atoms: O1_4  and  C4_5 
REMARK    3  A    between atoms: C4_5  and  C5_7 
REMARK    4  A    between atoms: C5_7  and  O3_8 
REMARK    5  A    between atoms: O3_8  and  C6_9 
ROOT
HETATM    1  C6  UNL     1      -1.227   0.851   0.399  1.00  0.00     0.253 C 
HETATM    2  C7  UNL     1      -0.503   1.417   1.563  1.00  0.00     0.082 C 
HETATM    3  N1  UNL     1      -2.342   1.806   0.128  1.00  0.00    -0.031 N 
ATOM      4  H11 UNL     1      -2.087   2.540  -0.533  1.00  0.00     0.281 HD
ATOM      5  H12 UNL     1      -2.551   2.411   0.922  1.00  0.00     0.281 HD
HETATM    6  C8  UNL     1      -3.473   1.032  -0.301  1.00  0.00     0.246 C 
HETATM    7  C9  UNL     1      -3.088  -0.256  -1.009  1.00  0.00     0.204 C 
HETATM    8  O4  UNL     1      -2.357  -1.098  -0.201  1.00  0.00    -0.379 OA
HETATM    9  C10 UNL     1      -1.928  -0.422   0.921  1.00  0.00     0.187 C 
HETATM   10  C11 UNL     1      -3.094  -0.103   1.795  1.00  0.00     0.076 C 
HETATM   11  C12 UNL     1      -4.191   0.583   0.982  1.00  0.00     0.205 C 
HETATM   12  F1  UNL     1      -4.647   1.725   1.604  1.00  0.00    -0.247 F 
ENDROOT
BRANCH   1  13
HETATM   13  O3  UNL     1      -0.636   0.647  -0.771  1.00  0.00    -0.316 OA
BRANCH  13  14
HETATM   14  C5  UNL     1       0.382  -0.142  -1.050  1.00  0.00     0.220 C 
BRANCH  14  15
HETATM   15  C4  UNL     1       1.737   0.115  -0.547  1.00  0.00     0.305 C 
HETATM   16  O2  UNL     1       2.074   1.123   0.062  1.00  0.00    -0.258 OA
BRANCH  15  17
HETATM   17  O1  UNL     1       2.713  -0.873  -0.785  1.00  0.00    -0.312 OA
BRANCH  17  18
HETATM   18  C2  UNL     1       4.025  -0.708  -0.340  1.00  0.00     0.124 C 
HETATM   19  C1  UNL     1       4.447  -1.790   0.640  1.00  0.00     0.040 C 
HETATM   20  C3  UNL     1       5.027  -0.700  -1.480  1.00  0.00     0.040 C 
ENDBRANCH  17  18
ENDBRANCH  15  17
ENDBRANCH  14  15
ENDBRANCH  13  14
ENDBRANCH   1  13
TORSDOF 5
