REMARK  2 active torsions:
REMARK  status: ('A' for Active; 'I' for Inactive)
REMARK    1  A    between atoms: N1_2  and  C3_4 
REMARK    2  A    between atoms: S1_7  and  N3_8 
ROOT
HETATM    1  C3  UNL     1       0.686   0.559   0.213  1.00  0.00     0.106 C 
HETATM    2  N2  UNL     1       0.200   1.583   0.722  1.00  0.00    -0.308 N 
ATOM      3  H2  UNL     1       0.635   2.382   1.184  1.00  0.00     0.176 HD
HETATM    4  S1  UNL     1      -2.008   1.084   0.279  1.00  0.00    -0.005 SA
HETATM    5  C4  UNL     1      -1.390  -0.759   0.060  1.00  0.00     0.051 C 
HETATM    6  C5  UNL     1      -2.141  -1.469  -1.048  1.00  0.00     0.034 C 
HETATM    7  C6  UNL     1      -1.469  -1.584   1.301  1.00  0.00     0.034 C 
HETATM    8  C7  UNL     1       0.008  -0.507  -0.430  1.00  0.00     0.044 C 
ENDROOT
BRANCH   1   9
HETATM    9  N1  UNL     1       2.161   0.526   0.314  1.00  0.00    -0.376 N 
HETATM   10  C1  UNL     1       2.847   0.684   1.553  1.00  0.00     0.150 C 
HETATM   11  C2  UNL     1       2.893   0.327  -0.892  1.00  0.00     0.150 C 
ENDBRANCH   1   9
BRANCH   4  12
HETATM   12  N3  UNL     1      -2.528   2.119  -1.189  1.00  0.00    -0.264 N 
HETATM   13 CL1  UNL     1      -1.292   2.389  -2.365  1.00  0.00     0.018 Cl
ATOM     14  H3  UNL     1      -3.471   2.496  -1.288  1.00  0.00     0.189 HD
ENDBRANCH   4  12
TORSDOF 2
