REMARK  2 active torsions:
REMARK  status: ('A' for Active; 'I' for Inactive)
REMARK    1  A    between atoms: N2_8  and  C4_9 
REMARK    2  A    between atoms: C4_9  and  C5_10 
ROOT
HETATM    1  N1  UNL     1       4.192  -0.428   0.254  1.00  0.00    -0.388 N 
ATOM      2  H11 UNL     1       4.532  -1.389   0.242  1.00  0.00     0.157 HD
ATOM      3  H12 UNL     1       4.556   0.449   0.627  1.00  0.00     0.157 HD
HETATM    4  C1  UNL     1       3.074  -0.292  -0.316  1.00  0.00     0.101 C 
HETATM    5  S1  UNL     1       2.484   1.374  -0.295  1.00  0.00    -0.104 SA
HETATM    6  C2  UNL     1       1.138   1.459   0.920  1.00  0.00     0.100 C 
HETATM    7  C3  UNL     1      -0.216   1.324   0.264  1.00  0.00     0.127 C 
HETATM    8  N2  UNL     1      -0.655  -0.031   0.164  1.00  0.00    -0.409 N 
HETATM    9  C6  UNL     1      -0.123  -0.783  -0.924  1.00  0.00     0.127 C 
HETATM   10  C7  UNL     1       0.708  -1.977  -0.453  1.00  0.00     0.100 C 
HETATM   11  S2  UNL     1       2.443  -1.810  -0.961  1.00  0.00    -0.104 SA
ENDROOT
BRANCH   8  12
HETATM   12  C4  UNL     1      -2.034  -0.254   0.449  1.00  0.00     0.148 C 
BRANCH  12  13
HETATM   13  C5  UNL     1      -2.997   0.319  -0.543  1.00  0.00     0.241 C 
HETATM   14  F1  UNL     1      -4.282  -0.007  -0.084  1.00  0.00    -0.254 F 
ENDBRANCH  12  13
ENDBRANCH   8  12
TORSDOF 2
