REMARK  3 active torsions:
REMARK  status: ('A' for Active; 'I' for Inactive)
REMARK    1  A    between atoms: C2_2  and  C3_4 
REMARK    2  A    between atoms: C4_7  and  C5_8 
REMARK    3  A    between atoms: C5_8  and  O2_10 
ROOT
HETATM    1  C3  UNL     1      -1.026  -0.185   0.611  1.00  0.00     0.119 C 
HETATM    2  N1  UNL     1       0.082  -0.477   1.179  1.00  0.00    -0.360 N 
ATOM      3  H1  UNL     1       0.235  -0.486   2.187  1.00  0.00     0.162 HD
HETATM    4  C4  UNL     1       1.097  -0.796   0.179  1.00  0.00     0.205 C 
HETATM    5  C7  UNL     1       0.251  -1.142  -1.023  1.00  0.00     0.111 C 
HETATM    6  C8  UNL     1      -0.259  -2.559  -0.981  1.00  0.00     0.034 C 
HETATM    7  N2  UNL     1      -0.889  -0.267  -0.793  1.00  0.00    -0.368 N 
ATOM      8  H2  UNL     1      -1.468   0.191  -1.497  1.00  0.00     0.161 HD
ENDROOT
BRANCH   4   9
HETATM    9  C5  UNL     1       1.896   0.413  -0.060  1.00  0.00     0.283 C 
HETATM   10  O1  UNL     1       2.845   0.410  -0.883  1.00  0.00    -0.263 OA
BRANCH   9  11
HETATM   11  O2  UNL     1       1.635   1.595   0.609  1.00  0.00    -0.325 OA
HETATM   12  C6  UNL     1       2.401   2.780   0.390  1.00  0.00     0.213 C 
ENDBRANCH   9  11
ENDBRANCH   4   9
BRANCH   1  13
HETATM   13  C2  UNL     1      -2.254   0.183   1.300  1.00  0.00     0.068 C 
HETATM   14  C1  UNL     1      -3.369   0.475   0.661  1.00  0.00     0.041 C 
HETATM   15 CL1  UNL     1      -2.280   0.249   3.051  1.00  0.00    -0.081 Cl
ENDBRANCH   1  13
TORSDOF 3
