REMARK  3 active torsions:
REMARK  status: ('A' for Active; 'I' for Inactive)
REMARK    1  A    between atoms: C6_6  and  C7_7 
REMARK    2  A    between atoms: C7_7  and  N1_8 
REMARK    3  A    between atoms: N2_12  and  O3_14 
ROOT
HETATM    1  C1  UNL     1      -2.448  -0.969  -0.932  1.00  0.00     0.015 C 
HETATM    2  C2  UNL     1      -1.471  -0.165  -0.059  1.00  0.00    -0.043 C 
HETATM    3  C3  UNL     1      -2.366   0.862   0.651  1.00  0.00     0.015 C 
HETATM    4  C4  UNL     1      -0.802  -1.060   0.903  1.00  0.00     0.010 C 
HETATM    5  C5  UNL     1       0.666  -1.083   0.917  1.00  0.00     0.013 C 
HETATM    6  C6  UNL     1       1.377   0.155   0.541  1.00  0.00     0.057 C 
HETATM    7  C8  UNL     1       0.565   1.124  -0.226  1.00  0.00     0.016 C 
HETATM    8  N2  UNL     1       0.852   2.397  -0.217  1.00  0.00    -0.277 N 
ATOM      9  H2  UNL     1       1.645   2.743   0.323  1.00  0.00     0.193 HD
HETATM   10  C9  UNL     1      -0.573   0.578  -0.991  1.00  0.00     0.063 C 
ENDROOT
BRANCH   6  11
HETATM   11  C7  UNL     1       2.586  -0.186  -0.339  1.00  0.00     0.211 C 
BRANCH  11  12
HETATM   12  N1  UNL     1       3.494  -1.051   0.386  1.00  0.00    -0.155 N 
HETATM   13  O1  UNL     1       3.802  -2.202  -0.013  1.00  0.00    -0.537 OA
HETATM   14  O2  UNL     1       4.079  -0.656   1.572  1.00  0.00    -0.537 OA
ENDBRANCH  11  12
ENDBRANCH   6  11
BRANCH   8  15
HETATM   15  O3  UNL     1       0.074   3.266  -0.942  1.00  0.00    -0.290 OA
ATOM     16  H3  UNL     1       0.283   4.193  -0.935  1.00  0.00     0.244 HD
ENDBRANCH   8  15
TORSDOF 3
