REMARK  7 active torsions:
REMARK  status: ('A' for Active; 'I' for Inactive)
REMARK    1  A    between atoms: N1_1  and  C1_4 
REMARK    2  A    between atoms: C3_9  and  N3_10 
REMARK    3  A    between atoms: C4_13  and  C5_14 
REMARK    4  A    between atoms: N4_15  and  N5_17 
REMARK    5  A    between atoms: N8_22  and  C7_23 
REMARK    6  A    between atoms: C8_27  and  O4_28 
REMARK    7  A    between atoms: C9_30  and  O5_31 
ROOT
HETATM    1  C1  UNL     1      -2.016  -1.789  -0.150  1.00  0.00     0.685 A 
HETATM    2  N2  UNL     1      -1.760  -3.116  -0.281  1.00  0.00    -0.154 N 
ATOM      3  H2  UNL     1      -2.513  -3.779  -0.465  1.00  0.00     0.187 HD
HETATM    4  C2  UNL     1      -0.510  -3.524  -0.163  1.00  0.00     0.295 A 
HETATM    5  O1  UNL     1      -0.244  -4.760  -0.282  1.00  0.00    -0.265 OA
HETATM    6  C3  UNL     1       0.566  -2.663   0.089  1.00  0.00     0.200 A 
HETATM    7  C4  UNL     1       0.283  -1.318   0.220  1.00  0.00     0.111 A 
HETATM    8  N8  UNL     1      -1.017  -0.905   0.097  1.00  0.00    -0.126 N 
ENDROOT
BRANCH   8   9
HETATM    9  C7  UNL     1      -1.322   0.477   0.237  1.00  0.00     0.456 C 
HETATM   10  N9  UNL     1      -1.943   1.080  -0.939  1.00  0.00     0.001 N 
HETATM   11  C8  UNL     1      -2.254   2.401  -0.425  1.00  0.00     0.379 C 
ATOM     12  H92 UNL     1      -1.386   1.058  -1.793  1.00  0.00     0.285 HD
ATOM     13  H91 UNL     1      -2.728   0.565  -1.337  1.00  0.00     0.285 HD
HETATM   14  C9  UNL     1      -2.642   2.080   1.004  1.00  0.00     0.318 C 
HETATM   15  O6  UNL     1      -2.353   0.717   1.191  1.00  0.00    -0.308 OA
BRANCH  11  16
HETATM   16  O4  UNL     1      -3.291   3.007  -1.124  1.00  0.00    -0.366 OA
ATOM     17  H4  UNL     1      -3.495   3.872  -0.788  1.00  0.00     0.212 HD
ENDBRANCH  11  16
BRANCH  14  18
HETATM   18  O5  UNL     1      -4.006   2.346   1.119  1.00  0.00    -0.367 OA
ATOM     19  H5  UNL     1      -4.249   2.145   2.015  1.00  0.00     0.212 HD
ENDBRANCH  14  18
ENDBRANCH   8   9
BRANCH   1  20
HETATM   20  N1  UNL     1      -3.232  -1.436  -0.278  1.00  0.00    -0.234 N 
ATOM     21  H12 UNL     1      -3.983  -2.101  -0.464  1.00  0.00     0.174 HD
ATOM     22  H11 UNL     1      -3.424  -0.439  -0.180  1.00  0.00     0.174 HD
ENDBRANCH   1  20
BRANCH   7  23
HETATM   23  C5  UNL     1       1.381  -0.426   0.516  1.00  0.00     0.140 C 
HETATM   24  N4  UNL     1       2.584  -0.844   0.683  1.00  0.00    -0.308 N 
ATOM     25  H4  UNL     1       2.749  -1.847   0.599  1.00  0.00     0.186 HD
BRANCH  24  26
HETATM   26  N5  UNL     1       3.673  -0.042   0.967  1.00  0.00    -0.276 N 
HETATM   27  C6  UNL     1       4.001   0.918   0.184  1.00  0.00     0.215 C 
HETATM   28  N6  UNL     1       5.111   1.760   0.444  1.00  0.00    -0.065 NA
HETATM   29  N7  UNL     1       3.236   1.152  -0.982  1.00  0.00    -0.065 NA
ATOM     30  H5  UNL     1       4.222  -0.216   1.809  1.00  0.00     0.189 HD
ENDBRANCH  24  26
ENDBRANCH   7  23
BRANCH   6  31
HETATM   31  N3  UNL     1       1.864  -3.229   0.150  1.00  0.00    -0.107 N 
HETATM   32  O2  UNL     1       2.256  -3.771   1.193  1.00  0.00    -0.531 OA
HETATM   33  O3  UNL     1       2.705  -3.198  -0.929  1.00  0.00    -0.531 OA
ENDBRANCH   6  31
TORSDOF 7
