REMARK  8 active torsions:
REMARK  status: ('A' for Active; 'I' for Inactive)
REMARK    1  A    between atoms: C2_3  and  N2_4 
REMARK    2  A    between atoms: N7_16  and  C4_17 
REMARK    3  A    between atoms: C4_17  and  C5_18 
REMARK    4  A    between atoms: C6_19  and  N8_20 
REMARK    5  A    between atoms: N8_20  and  O1_21 
REMARK    6  A    between atoms: N8_20  and  N9_23 
REMARK    7  A    between atoms: N9_23  and  N10_25 
REMARK    8  A    between atoms: C9_35  and  O3_36 
ROOT
HETATM    1  C5  UNL     1      -0.922  -0.659  -0.944  1.00  0.00     0.063 A 
HETATM    2  C6  UNL     1      -2.009  -0.446  -0.126  1.00  0.00     0.104 A 
HETATM    3  C7  UNL     1      -2.861  -1.532   0.101  1.00  0.00     0.109 A 
HETATM    4  C8  UNL     1      -2.689  -2.786  -0.436  1.00  0.00     0.249 A 
HETATM    5  O2  UNL     1      -3.470  -3.735  -0.209  1.00  0.00    -0.268 OA
HETATM    6  N12 UNL     1      -1.633  -2.957  -1.225  1.00  0.00    -0.303 N 
ATOM      7  H12 UNL     1      -1.465  -3.870  -1.647  1.00  0.00     0.171 HD
HETATM    8  C9  UNL     1      -0.797  -1.962  -1.472  1.00  0.00     0.157 A 
ENDROOT
BRANCH   1   9
HETATM    9  C4  UNL     1       0.004   0.373  -1.328  1.00  0.00     0.138 C 
BRANCH   9  10
HETATM   10  N7  UNL     1       0.749   1.268  -0.554  1.00  0.00    -0.232 N 
HETATM   11  N6  UNL     1       0.351   2.588  -0.357  1.00  0.00    -0.233 N 
HETATM   12  N5  UNL     1       1.183   3.265   0.322  1.00  0.00    -0.266 N 
ATOM     13  H6  UNL     1      -0.521   2.972  -0.721  1.00  0.00     0.209 HD
HETATM   14  C3  UNL     1       2.206   2.443   0.630  1.00  0.00     0.184 A 
ATOM     15  H5  UNL     1       1.094   4.246   0.585  1.00  0.00     0.190 HD
HETATM   16  N4  UNL     1       3.340   2.658   1.321  1.00  0.00    -0.267 N 
HETATM   17  C10 UNL     1       1.921   1.205   0.076  1.00  0.00     0.192 A 
HETATM   18  N3  UNL     1       4.221   1.660   1.482  1.00  0.00    -0.131 N 
ATOM     19  H4  UNL     1       3.529   3.577   1.721  1.00  0.00     0.189 HD
HETATM   20  C2  UNL     1       3.943   0.464   0.944  1.00  0.00     0.694 A 
ATOM     21  H3  UNL     1       5.085   1.808   2.003  1.00  0.00     0.205 HD
HETATM   22  N1  UNL     1       2.820   0.190   0.240  1.00  0.00    -0.166 N 
HETATM   23  C1  UNL     1       2.609  -1.089  -0.329  1.00  0.00     0.177 C 
BRANCH  20  24
HETATM   24  N2  UNL     1       4.800  -0.489   1.108  1.00  0.00    -0.233 N 
ATOM     25  H22 UNL     1       4.588  -1.399   0.699  1.00  0.00     0.174 HD
ATOM     26  H21 UNL     1       5.646  -0.283   1.639  1.00  0.00     0.174 HD
ENDBRANCH  20  24
ENDBRANCH   9  10
ENDBRANCH   1   9
BRANCH   2  27
HETATM   27  N8  UNL     1      -2.385   0.769   0.460  1.00  0.00    -0.147 N 
BRANCH  27  28
HETATM   28  O1  UNL     1      -2.699   1.796  -0.333  1.00  0.00    -0.266 OA
ATOM     29  H1  UNL     1      -2.954   2.620   0.065  1.00  0.00     0.247 HD
ENDBRANCH  27  28
BRANCH  27  30
HETATM   30  N9  UNL     1      -1.861   1.053   1.714  1.00  0.00    -0.202 N 
ATOM     31  H9  UNL     1      -1.111   0.500   2.130  1.00  0.00     0.212 HD
BRANCH  30  32
HETATM   32  N10 UNL     1      -2.441   2.166   2.377  1.00  0.00    -0.233 N 
HETATM   33  N11 UNL     1      -3.705   2.260   2.374  1.00  0.00    -0.330 N 
ATOM     34 2H11 UNL     1      -4.271   1.552   1.907  1.00  0.00     0.178 HD
ATOM     35 1H11 UNL     1      -4.122   3.060   2.850  1.00  0.00     0.178 HD
ATOM     36  H10 UNL     1      -1.861   2.866   2.840  1.00  0.00     0.209 HD
ENDBRANCH  30  32
ENDBRANCH  27  30
ENDBRANCH   2  27
BRANCH   8  37
HETATM   37  O3  UNL     1       0.273  -2.274  -2.340  1.00  0.00    -0.345 OA
ATOM     38  H3  UNL     1       0.357  -3.151  -2.695  1.00  0.00     0.219 HD
ENDBRANCH   8  37
TORSDOF 8
