REMARK  11 active torsions:
REMARK  status: ('A' for Active; 'I' for Inactive)
REMARK       I    between atoms: N1_2  and  C2_3 
REMARK    1  A    between atoms: N1_2  and  C24_30 
REMARK    2  A    between atoms: C2_3  and  C3_5 
REMARK    3  A    between atoms: C3_5  and  C4_6 
REMARK    4  A    between atoms: C4_6  and  C5_7 
REMARK    5  A    between atoms: C5_7  and  C6_8 
REMARK    6  A    between atoms: C6_8  and  C7_9 
REMARK    7  A    between atoms: C8_10  and  C9_11 
REMARK    8  A    between atoms: C12_14  and  C13_15 
REMARK    9  A    between atoms: C13_15  and  C14_16 
REMARK   10  A    between atoms: C20_22  and  C21_23 
REMARK   11  A    between atoms: C21_23  and  C22_24 
ROOT
HETATM    1  C9  UNL     1       0.681  -0.262  -0.932  1.00  0.00     0.087 A 
HETATM    2  C10 UNL     1       0.854  -1.625  -0.835  1.00  0.00     0.041 A 
HETATM    3  C11 UNL     1       2.211  -1.831  -0.765  1.00  0.00     0.028 A 
HETATM    4  C12 UNL     1       2.875  -0.625  -0.817  1.00  0.00     0.011 A 
HETATM    5  N2  UNL     1       1.898   0.296  -0.919  1.00  0.00    -0.353 N 
ATOM      6  H2  UNL     1       2.065   1.300  -0.979  1.00  0.00     0.166 HD
ENDROOT
BRANCH   1   7
HETATM    7  C8  UNL     1      -0.604   0.370  -1.027  1.00  0.00    -0.049 C 
HETATM    8  C7  UNL     1      -1.674   0.910  -1.123  1.00  0.00    -0.100 C 
BRANCH   8   9
HETATM    9  C6  UNL     1      -3.008   1.612  -1.235  1.00  0.00     0.094 C 
BRANCH   9  10
HETATM   10  C5  UNL     1      -3.149   2.592  -0.143  1.00  0.00     0.012 C 
BRANCH  10  11
HETATM   11  C4  UNL     1      -4.383   3.400  -0.114  1.00  0.00     0.010 C 
BRANCH  11  12
HETATM   12  C3  UNL     1      -5.688   2.706   0.003  1.00  0.00     0.103 C 
BRANCH  12  13
HETATM   13  C2  UNL     1      -6.091   1.945  -1.169  1.00  0.00     0.219 C 
HETATM   14  N1  UNL     1      -6.846   0.766  -1.091  1.00  0.00    -0.350 N 
HETATM   15  C1  UNL     1      -7.181   0.068  -2.336  1.00  0.00     0.153 C 
HETATM   16  O1  UNL     1      -5.744   2.378  -2.326  1.00  0.00    -0.273 OA
BRANCH  14  17
HETATM   17  C24 UNL     1      -7.307   0.239   0.147  1.00  0.00     0.113 C 
HETATM   18  C25 UNL     1      -6.773  -1.183   0.385  1.00  0.00     0.054 C 
HETATM   19  C26 UNL     1      -7.865  -1.750   1.266  1.00  0.00     0.234 C 
HETATM   20  N3  UNL     1      -9.084  -1.279   0.654  1.00  0.00    -0.073 N 
HETATM   21  C27 UNL     1      -8.796  -0.029   0.025  1.00  0.00     0.257 C 
ATOM     22  H32 UNL     1      -9.496  -1.959   0.016  1.00  0.00     0.277 HD
ATOM     23  H31 UNL     1      -9.862  -1.223   1.311  1.00  0.00     0.277 HD
ENDBRANCH  14  17
ENDBRANCH  12  13
ENDBRANCH  11  12
ENDBRANCH  10  11
ENDBRANCH   9  10
ENDBRANCH   8   9
ENDBRANCH   1   7
BRANCH   4  24
HETATM   24  C13 UNL     1       4.340  -0.372  -0.782  1.00  0.00     0.067 C 
BRANCH  24  25
HETATM   25  C14 UNL     1       4.898  -0.205   0.575  1.00  0.00    -0.031 C 
HETATM   26  C15 UNL     1       4.297   0.938   1.325  1.00  0.00     0.016 C 
HETATM   27  C16 UNL     1       4.941  -1.480   1.397  1.00  0.00    -0.005 C 
HETATM   28  C17 UNL     1       5.756  -1.006   2.586  1.00  0.00     0.006 C 
HETATM   29  C23 UNL     1       5.865  -2.315   0.536  1.00  0.00     0.011 C 
HETATM   30  C18 UNL     1       6.589   0.181   2.095  1.00  0.00     0.006 C 
HETATM   31  C19 UNL     1       6.424   0.004   0.571  1.00  0.00    -0.001 C 
HETATM   32  C20 UNL     1       6.981  -1.330   0.260  1.00  0.00     0.001 C 
BRANCH  32  33
HETATM   33  C21 UNL     1       7.677  -1.509  -1.035  1.00  0.00     0.118 C 
BRANCH  33  34
HETATM   34  C22 UNL     1       8.839  -0.585  -1.101  1.00  0.00     0.172 C 
HETATM   35  O2  UNL     1       8.652   0.597  -1.479  1.00  0.00    -0.648 OA
HETATM   36  O3  UNL     1      10.134  -0.952  -0.767  1.00  0.00    -0.648 OA
ENDBRANCH  33  34
ENDBRANCH  32  33
ENDBRANCH  24  25
ENDBRANCH   4  24
TORSDOF 11
