REMARK  11 active torsions:
REMARK  status: ('A' for Active; 'I' for Inactive)
REMARK    1  A    between atoms: C2_2  and  C3_3 
REMARK    2  A    between atoms: C3_3  and  C4_4 
REMARK    3  A    between atoms: C4_4  and  N1_5 
REMARK    4  A    between atoms: C4_4  and  C21_30 
REMARK    5  A    between atoms: N1_5  and  C5_7 
REMARK    6  A    between atoms: C9_13  and  N3_14 
REMARK    7  A    between atoms: C10_16  and  C11_17 
REMARK    8  A    between atoms: C14_20  and  C15_21 
REMARK    9  A    between atoms: C15_21  and  N4_22 
REMARK   10  A    between atoms: C21_30  and  N6_32 
REMARK   11  A    between atoms: N6_32  and  C23_34 
ROOT
HETATM    1  C5  UNL     1      -1.349  -1.363  -0.877  1.00  0.00     0.119 A 
HETATM    2  C6  UNL     1      -0.705  -2.051  -1.913  1.00  0.00     0.073 A 
HETATM    3  C7  UNL     1       0.624  -2.359  -1.799  1.00  0.00     0.026 A 
HETATM    4  C8  UNL     1       1.335  -3.098  -2.908  1.00  0.00     0.069 C 
HETATM    5  N2  UNL     1       1.305  -2.003  -0.697  1.00  0.00    -0.196 N 
ATOM      6  H2  UNL     1       2.294  -2.243  -0.631  1.00  0.00     0.184 HD
HETATM    7  C9  UNL     1       0.730  -1.344   0.318  1.00  0.00     0.683 A 
HETATM    8  N5  UNL     1      -0.613  -1.048   0.172  1.00  0.00    -0.177 N 
ATOM      9  H5  UNL     1      -1.070  -0.547   0.934  1.00  0.00     0.186 HD
ENDROOT
BRANCH   1  10
HETATM   10  N1  UNL     1      -2.601  -1.087  -1.015  1.00  0.00    -0.369 N 
ATOM     11  H1  UNL     1      -3.080  -1.375  -1.868  1.00  0.00     0.161 HD
BRANCH  10  12
HETATM   12  C4  UNL     1      -3.328  -0.398  -0.019  1.00  0.00     0.108 C 
BRANCH  12  13
HETATM   13  C3  UNL     1      -3.848  -1.279   1.094  1.00  0.00     0.053 C 
BRANCH  13  14
HETATM   14  C2  UNL     1      -4.759  -2.325   0.599  1.00  0.00    -0.035 C 
HETATM   15  C1  UNL     1      -4.436  -3.599   0.808  1.00  0.00     0.007 C 
ENDBRANCH  13  14
ENDBRANCH  12  13
BRANCH  12  16
HETATM   16  C21 UNL     1      -4.504   0.415  -0.625  1.00  0.00     0.095 C 
HETATM   17  C22 UNL     1      -3.890   1.245  -1.704  1.00  0.00     0.034 C 
BRANCH  16  18
HETATM   18  N6  UNL     1      -5.061   1.112   0.473  1.00  0.00    -0.411 N 
ATOM     19  H6  UNL     1      -4.493   1.292   1.301  1.00  0.00     0.154 HD
BRANCH  18  20
HETATM   20  C23 UNL     1      -6.390   1.557   0.429  1.00  0.00     0.077 C 
HETATM   21  C24 UNL     1      -6.571   2.565  -0.669  1.00  0.00     0.024 C 
HETATM   22  C25 UNL     1      -7.950   3.200  -0.632  1.00  0.00     0.002 C 
HETATM   23  C26 UNL     1      -8.920   2.026  -0.821  1.00  0.00     0.000 C 
HETATM   24  C27 UNL     1      -8.813   1.175   0.421  1.00  0.00     0.002 C 
HETATM   25  C28 UNL     1      -7.463   0.507   0.447  1.00  0.00     0.024 C 
ENDBRANCH  18  20
ENDBRANCH  16  18
ENDBRANCH  12  16
ENDBRANCH  10  12
ENDBRANCH   1  10
BRANCH   7  26
HETATM   26  N3  UNL     1       1.320  -0.993   1.352  1.00  0.00    -0.205 N 
HETATM   27  C10 UNL     1       2.488  -0.968   2.045  1.00  0.00     0.083 C 
ATOM     28  H3  UNL     1       0.629  -0.518   1.932  1.00  0.00     0.183 HD
BRANCH  27  29
HETATM   29  C11 UNL     1       3.809  -0.967   1.321  1.00  0.00     0.025 C 
HETATM   30  C12 UNL     1       3.982   0.192   0.396  1.00  0.00     0.010 C 
HETATM   31  C13 UNL     1       5.430   0.674   0.358  1.00  0.00     0.007 C 
HETATM   32  C14 UNL     1       6.425  -0.430   0.421  1.00  0.00     0.014 C 
HETATM   33  C19 UNL     1       6.211  -1.251   1.670  1.00  0.00     0.007 C 
HETATM   34  C20 UNL     1       4.953  -0.804   2.360  1.00  0.00     0.010 C 
BRANCH  32  35
HETATM   35  C15 UNL     1       7.853   0.076   0.372  1.00  0.00     0.277 C 
BRANCH  35  36
HETATM   36  N4  UNL     1       8.126   0.795  -0.841  1.00  0.00     0.088 N 
HETATM   37  C16 UNL     1       9.557   1.083  -0.954  1.00  0.00     0.274 C 
HETATM   38  C17 UNL     1       9.341   2.396  -0.282  1.00  0.00     0.060 C 
HETATM   39  C18 UNL     1       7.920   2.227  -0.804  1.00  0.00     0.274 C 
ENDBRANCH  35  36
ENDBRANCH  32  35
ENDBRANCH  27  29
ENDBRANCH   7  26
TORSDOF 11
