REMARK  11 active torsions:
REMARK  status: ('A' for Active; 'I' for Inactive)
REMARK    1  A    between atoms: C2_2  and  C4_4 
REMARK    2  A    between atoms: C4_4  and  C5_5 
REMARK    3  A    between atoms: C5_5  and  N1_6 
REMARK    4  A    between atoms: C5_5  and  C13_16 
REMARK       I    between atoms: N1_6  and  C6_8 
REMARK    5  A    between atoms: C6_8  and  C7_10 
REMARK       I    between atoms: C13_16  and  N2_18 
REMARK    6  A    between atoms: N2_18  and  C14_20 
REMARK    7  A    between atoms: C14_20  and  C15_21 
REMARK    8  A    between atoms: C14_20  and  C22_32 
REMARK    9  A    between atoms: C15_21  and  O3_22 
REMARK   10  A    between atoms: C15_21  and  N3_24 
REMARK   11  A    between atoms: N3_24  and  C16_26 
ROOT
HETATM    1  C13 UNL     1       0.704   0.388   0.208  1.00  0.00     0.241 C 
HETATM    2  O2  UNL     1       1.052  -0.654  -0.371  1.00  0.00    -0.271 OA
HETATM    3  N2  UNL     1      -0.563   0.587   0.669  1.00  0.00    -0.347 N 
ATOM      4  H2  UNL     1      -0.667   1.505   1.102  1.00  0.00     0.163 HD
ENDROOT
BRANCH   3   5
HETATM    5  C14 UNL     1      -1.787  -0.158   0.704  1.00  0.00     0.163 C 
BRANCH   5   6
HETATM    6  C15 UNL     1      -2.724   0.222  -0.313  1.00  0.00     0.135 C 
BRANCH   6   7
HETATM    7  O3  UNL     1      -2.230   1.053  -1.215  1.00  0.00    -0.348 OA
ATOM      8  H3  UNL     1      -2.851   1.305  -1.889  1.00  0.00     0.219 HD
ENDBRANCH   6   7
BRANCH   6   9
HETATM    9  N3  UNL     1      -4.057  -0.072  -0.590  1.00  0.00    -0.368 N 
ATOM     10  H3  UNL     1      -4.548  -0.700   0.046  1.00  0.00     0.161 HD
BRANCH   9  11
HETATM   11  C16 UNL     1      -4.807   0.464  -1.741  1.00  0.00     0.083 C 
HETATM   12  C17 UNL     1      -5.886   1.318  -1.196  1.00  0.00     0.025 C 
HETATM   13  C18 UNL     1      -7.104   1.448  -2.038  1.00  0.00     0.002 C 
HETATM   14  C19 UNL     1      -6.772   1.147  -3.477  1.00  0.00     0.000 C 
HETATM   15  C20 UNL     1      -6.373  -0.312  -3.542  1.00  0.00     0.002 C 
HETATM   16  C21 UNL     1      -5.220  -0.630  -2.641  1.00  0.00     0.025 C 
ENDBRANCH   9  11
ENDBRANCH   6   9
ENDBRANCH   5   6
BRANCH   5  17
HETATM   17  C22 UNL     1      -1.411  -1.639   0.795  1.00  0.00     0.016 C 
HETATM   18  C23 UNL     1      -2.597  -2.566   0.860  1.00  0.00     0.007 C 
HETATM   19  C24 UNL     1      -3.420  -2.481   2.094  1.00  0.00     0.000 C 
HETATM   20  C25 UNL     1      -2.582  -2.366   3.352  1.00  0.00     0.000 C 
HETATM   21  C26 UNL     1      -1.197  -2.831   3.019  1.00  0.00     0.000 C 
HETATM   22  C27 UNL     1      -0.589  -1.801   2.056  1.00  0.00     0.007 C 
ENDBRANCH   5  17
ENDBRANCH   3   5
BRANCH   1  23
HETATM   23  C5  UNL     1       1.821   1.393   0.343  1.00  0.00     0.177 C 
BRANCH  23  24
HETATM   24  C4  UNL     1       1.917   2.004   1.671  1.00  0.00     0.038 C 
BRANCH  24  25
HETATM   25  C2  UNL     1       2.425   1.250   2.826  1.00  0.00    -0.020 C 
HETATM   26  C1  UNL     1       2.365   2.227   4.023  1.00  0.00     0.009 C 
HETATM   27  C3  UNL     1       3.829   0.769   2.767  1.00  0.00     0.009 C 
ENDBRANCH  24  25
ENDBRANCH  23  24
BRANCH  23  28
HETATM   28  N1  UNL     1       3.047   0.917  -0.242  1.00  0.00    -0.347 N 
HETATM   29  C6  UNL     1       3.591   1.459  -1.446  1.00  0.00     0.222 C 
HETATM   30  O1  UNL     1       2.977   2.400  -2.037  1.00  0.00    -0.273 OA
ATOM     31  H1  UNL     1       3.549   0.160   0.223  1.00  0.00     0.163 HD
BRANCH  29  32
HETATM   32  C7  UNL     1       4.849   0.972  -2.044  1.00  0.00     0.078 C 
HETATM   33  C8  UNL     1       6.013   1.171  -1.096  1.00  0.00     0.014 C 
HETATM   34  C9  UNL     1       7.286   0.539  -1.628  1.00  0.00     0.001 C 
HETATM   35  C10 UNL     1       7.046  -0.931  -1.948  1.00  0.00     0.000 C 
HETATM   36  C11 UNL     1       5.620  -1.314  -1.585  1.00  0.00     0.001 C 
HETATM   37  C12 UNL     1       4.704  -0.480  -2.416  1.00  0.00     0.014 C 
ENDBRANCH  29  32
ENDBRANCH  23  28
ENDBRANCH   1  23
TORSDOF 11
