REMARK  10 active torsions:
REMARK  status: ('A' for Active; 'I' for Inactive)
REMARK    1  A    between atoms: C2_2  and  N1_3 
REMARK       I    between atoms: N1_3  and  C3_4 
REMARK    2  A    between atoms: N1_3  and  C15_22 
REMARK    3  A    between atoms: C3_4  and  C4_6 
REMARK    4  A    between atoms: C7_9  and  N2_10 
REMARK       I    between atoms: N2_10  and  C8_12 
REMARK       I    between atoms: C8_12  and  N3_14 
REMARK    5  A    between atoms: N3_14  and  C9_16 
REMARK    6  A    between atoms: C15_22  and  C16_23 
REMARK    7  A    between atoms: C15_22  and  C24_34 
REMARK       I    between atoms: C16_23  and  N4_25 
REMARK    8  A    between atoms: N4_25  and  C17_27 
REMARK    9  A    between atoms: C17_27  and  C19_29 
REMARK   10  A    between atoms: C17_27  and  C21_31 
ROOT
HETATM    1  N1  UNL     1      -0.781  -0.465  -0.406  1.00  0.00    -0.338 N 
HETATM    2  C3  UNL     1      -0.432  -0.891  -1.683  1.00  0.00     0.226 C 
HETATM    3  O1  UNL     1      -1.248  -1.673  -2.305  1.00  0.00    -0.273 OA
ENDROOT
BRANCH   1   4
HETATM    4  C2  UNL     1       0.231   0.405   0.268  1.00  0.00     0.122 C 
HETATM    5  C1  UNL     1       1.127  -0.430   1.127  1.00  0.00     0.026 C 
ENDBRANCH   1   4
BRANCH   1   6
HETATM    6  C15 UNL     1      -1.942  -0.699   0.404  1.00  0.00     0.182 C 
BRANCH   6   7
HETATM    7  C16 UNL     1      -3.145  -0.060  -0.194  1.00  0.00     0.241 C 
HETATM    8  O3  UNL     1      -3.254   0.147  -1.444  1.00  0.00    -0.271 OA
HETATM    9  N4  UNL     1      -4.216   0.352   0.621  1.00  0.00    -0.350 N 
ATOM     10  H4  UNL     1      -4.150   0.193   1.626  1.00  0.00     0.163 HD
BRANCH   9  11
HETATM   11  C17 UNL     1      -5.404   0.989   0.104  1.00  0.00     0.032 C 
HETATM   12  C18 UNL     1      -4.912   2.238  -0.663  1.00  0.00     0.039 C 
BRANCH  11  13
HETATM   13  C19 UNL     1      -6.227   0.195  -0.832  1.00  0.00     0.026 C 
HETATM   14  C20 UNL     1      -6.779  -1.102  -0.288  1.00  0.00     0.007 C 
ENDBRANCH  11  13
BRANCH  11  15
HETATM   15  C21 UNL     1      -6.183   1.580   1.267  1.00  0.00     0.005 C 
HETATM   16  C22 UNL     1      -5.259   2.600   1.961  1.00  0.00     0.012 C 
HETATM   17  C23 UNL     1      -6.631   0.604   2.290  1.00  0.00     0.012 C 
ENDBRANCH  11  15
ENDBRANCH   9  11
ENDBRANCH   6   7
BRANCH   6  18
HETATM   18  C24 UNL     1      -2.136  -2.067   0.932  1.00  0.00     0.009 C 
HETATM   19  C25 UNL     1      -2.338  -3.208   0.009  1.00  0.00     0.012 C 
HETATM   20  C26 UNL     1      -3.152  -2.169   2.041  1.00  0.00     0.012 C 
ENDBRANCH   6  18
ENDBRANCH   1   6
BRANCH   2  21
HETATM   21  C4  UNL     1       0.769  -0.559  -2.456  1.00  0.00     0.101 A 
HETATM   22  C5  UNL     1       0.712  -1.253  -3.831  1.00  0.00     0.018 A 
HETATM   23  C6  UNL     1       2.082  -1.772  -3.563  1.00  0.00     0.027 A 
HETATM   24  C7  UNL     1       2.101  -1.110  -2.174  1.00  0.00     0.099 A 
BRANCH  24  25
HETATM   25  N2  UNL     1       3.194  -0.143  -2.203  1.00  0.00    -0.338 N 
HETATM   26  C8  UNL     1       4.235  -0.226  -1.258  1.00  0.00     0.316 C 
HETATM   27  O2  UNL     1       4.283  -1.110  -0.373  1.00  0.00    -0.247 OA
HETATM   28  N3  UNL     1       5.316   0.712  -1.252  1.00  0.00    -0.339 N 
ATOM     29  H3  UNL     1       5.325   1.433  -1.974  1.00  0.00     0.164 HD
ATOM     30  H2  UNL     1       3.204   0.594  -2.908  1.00  0.00     0.164 HD
BRANCH  28  31
HETATM   31  C9  UNL     1       6.387   0.707  -0.300  1.00  0.00     0.086 C 
HETATM   32  C10 UNL     1       6.589   2.033   0.362  1.00  0.00     0.025 C 
HETATM   33  C11 UNL     1       7.832   2.126   1.191  1.00  0.00     0.002 C 
HETATM   34  C12 UNL     1       9.028   1.510   0.532  1.00  0.00     0.000 C 
HETATM   35  C13 UNL     1       8.695   0.060   0.184  1.00  0.00     0.002 C 
HETATM   36  C14 UNL     1       7.652   0.143  -0.911  1.00  0.00     0.025 C 
ENDBRANCH  28  31
ENDBRANCH  24  25
ENDBRANCH   2  21
TORSDOF 10
