REMARK  10 active torsions:
REMARK  status: ('A' for Active; 'I' for Inactive)
REMARK    1  A    between atoms: C3_3  and  O1_4 
REMARK    2  A    between atoms: C9_11  and  C10_12 
REMARK    3  A    between atoms: C10_12  and  C11_13 
REMARK    4  A    between atoms: C11_13  and  C12_14 
REMARK    5  A    between atoms: C12_14  and  C13_15 
REMARK    6  A    between atoms: C13_15  and  C14_16 
REMARK    7  A    between atoms: C14_16  and  C15_17 
REMARK    8  A    between atoms: C15_17  and  N1_18 
REMARK       I    between atoms: N1_18  and  C16_19 
REMARK    9  A    between atoms: C16_19  and  C17_21 
REMARK       I    between atoms: C17_21  and  N2_23 
REMARK   10  A    between atoms: N2_23  and  C18_25 
ROOT
HETATM    1  C1  UNL     1      -4.402  -4.619   1.613  1.00  0.00     0.015 C 
HETATM    2  C2  UNL     1      -4.445  -3.435   1.578  1.00  0.00    -0.079 C 
HETATM    3  C3  UNL     1      -4.525  -1.973   1.513  1.00  0.00     0.124 C 
HETATM    4  C4  UNL     1      -5.442  -1.543   0.374  1.00  0.00     0.057 C 
HETATM    5  C5  UNL     1      -4.655  -0.867  -0.747  1.00  0.00    -0.002 C 
HETATM    6  C6  UNL     1      -3.593  -1.861  -1.162  1.00  0.00     0.006 C 
HETATM    7  C7  UNL     1      -2.658  -2.029  -0.004  1.00  0.00     0.009 C 
HETATM    8  C8  UNL     1      -3.171  -1.352   1.239  1.00  0.00     0.037 C 
HETATM    9  C9  UNL     1      -3.403   0.135   1.058  1.00  0.00     0.002 C 
HETATM   10  C23 UNL     1      -4.048   0.457  -0.251  1.00  0.00    -0.033 C 
HETATM   11  C24 UNL     1      -5.241   1.412  -0.104  1.00  0.00     0.010 C 
HETATM   12  C25 UNL     1      -5.143   2.631  -0.955  1.00  0.00     0.001 C 
HETATM   13  C26 UNL     1      -5.118   2.219  -2.395  1.00  0.00     0.000 C 
HETATM   14  C27 UNL     1      -4.053   1.197  -2.592  1.00  0.00     0.001 C 
HETATM   15  C28 UNL     1      -3.200   1.006  -1.324  1.00  0.00     0.010 C 
ENDROOT
BRANCH   3  16
HETATM   16  O1  UNL     1      -5.058  -1.544   2.739  1.00  0.00    -0.377 OA
ATOM     17  H1  UNL     1      -5.110  -0.596   2.697  1.00  0.00     0.211 HD
ENDBRANCH   3  16
BRANCH   9  18
HETATM   18  C10 UNL     1      -2.349   1.002   1.581  1.00  0.00     0.006 C 
BRANCH  18  19
HETATM   19  C11 UNL     1      -0.963   0.917   1.078  1.00  0.00     0.000 C 
BRANCH  19  20
HETATM   20  C12 UNL     1      -0.084   1.941   1.757  1.00  0.00     0.000 C 
BRANCH  20  21
HETATM   21  C13 UNL     1       1.344   1.911   1.159  1.00  0.00     0.006 C 
BRANCH  21  22
HETATM   22  C14 UNL     1       1.194   2.180  -0.306  1.00  0.00     0.060 C 
BRANCH  22  23
HETATM   23  C15 UNL     1       2.448   2.322  -1.104  1.00  0.00     0.159 C 
BRANCH  23  24
HETATM   24  N1  UNL     1       3.315   1.277  -1.171  1.00  0.00    -0.380 NA
HETATM   25  C16 UNL     1       4.181   0.228  -1.240  1.00  0.00     0.383 C 
HETATM   26  O2  UNL     1       3.916  -0.967  -1.601  1.00  0.00    -0.246 OA
BRANCH  25  27
HETATM   27  C17 UNL     1       5.611   0.401  -0.870  1.00  0.00     0.324 C 
HETATM   28  O3  UNL     1       6.036   1.579  -0.652  1.00  0.00    -0.261 OA
HETATM   29  N2  UNL     1       6.441  -0.705  -0.771  1.00  0.00    -0.347 N 
ATOM     30  H2  UNL     1       6.012  -1.614  -0.942  1.00  0.00     0.163 HD
BRANCH  29  31
HETATM   31  C18 UNL     1       7.857  -0.705  -0.449  1.00  0.00     0.085 C 
HETATM   32  C19 UNL     1       8.474  -2.039  -0.566  1.00  0.00     0.025 C 
HETATM   33  C20 UNL     1       8.890  -2.453   0.812  1.00  0.00     0.002 C 
HETATM   34  C21 UNL     1       8.165  -1.560   1.787  1.00  0.00     0.002 C 
HETATM   35  C22 UNL     1       7.929  -0.289   1.031  1.00  0.00     0.025 C 
ENDBRANCH  29  31
ENDBRANCH  25  27
ENDBRANCH  23  24
ENDBRANCH  22  23
ENDBRANCH  21  22
ENDBRANCH  20  21
ENDBRANCH  19  20
ENDBRANCH  18  19
ENDBRANCH   9  18
TORSDOF 10
