REMARK  9 active torsions:
REMARK  status: ('A' for Active; 'I' for Inactive)
REMARK    1  A    between atoms: C2_2  and  C4_4 
REMARK    2  A    between atoms: C4_4  and  C5_5 
REMARK    3  A    between atoms: C5_5  and  N1_6 
REMARK    4  A    between atoms: C5_5  and  C12_16 
REMARK       I    between atoms: N1_6  and  C6_8 
REMARK       I    between atoms: C6_8  and  N2_10 
REMARK       I    between atoms: C12_16  and  N3_18 
REMARK    5  A    between atoms: N3_18  and  C13_20 
REMARK    6  A    between atoms: C13_20  and  C14_21 
REMARK       I    between atoms: C14_21  and  N4_23 
REMARK    7  A    between atoms: N4_23  and  C15_25 
REMARK    8  A    between atoms: C15_25  and  C16_26 
REMARK    9  A    between atoms: C15_25  and  C20_32 
ROOT
HETATM    1  C13 UNL     1      -1.522  -1.434  -0.705  1.00  0.00     0.117 C 
HETATM    2  C23 UNL     1      -2.123  -2.234  -1.876  1.00  0.00     0.046 C 
HETATM    3  C24 UNL     1      -2.230  -3.634  -1.368  1.00  0.00    -0.011 C 
HETATM    4  C25 UNL     1      -3.415  -3.673  -0.429  1.00  0.00     0.005 C 
HETATM    5  C26 UNL     1      -2.913  -2.938   0.811  1.00  0.00     0.008 C 
HETATM    6  C27 UNL     1      -1.578  -2.420   0.434  1.00  0.00     0.024 C 
HETATM    7  C28 UNL     1      -1.074  -3.666  -0.352  1.00  0.00     0.012 C 
ENDROOT
BRANCH   1   8
HETATM    8  N3  UNL     1      -0.095  -1.225  -0.952  1.00  0.00    -0.341 N 
HETATM    9  C12 UNL     1       0.824  -0.664  -0.071  1.00  0.00     0.241 C 
HETATM   10  O2  UNL     1       0.522  -0.262   1.086  1.00  0.00    -0.271 OA
ATOM     11  H3  UNL     1       0.262  -1.520  -1.861  1.00  0.00     0.163 HD
BRANCH   9  12
HETATM   12  C5  UNL     1       2.254  -0.512  -0.475  1.00  0.00     0.178 C 
BRANCH  12  13
HETATM   13  C4  UNL     1       2.765  -1.854  -0.877  1.00  0.00     0.038 C 
BRANCH  13  14
HETATM   14  C2  UNL     1       4.179  -1.842  -1.399  1.00  0.00    -0.020 C 
HETATM   15  C1  UNL     1       4.560  -3.284  -1.767  1.00  0.00     0.009 C 
HETATM   16  C3  UNL     1       4.323  -1.024  -2.654  1.00  0.00     0.009 C 
ENDBRANCH  13  14
ENDBRANCH  12  13
BRANCH  12  17
HETATM   17  N1  UNL     1       3.048   0.090   0.578  1.00  0.00    -0.330 N 
HETATM   18  C6  UNL     1       3.674   1.344   0.454  1.00  0.00     0.319 C 
HETATM   19  O1  UNL     1       3.520   1.955  -0.640  1.00  0.00    -0.247 OA
HETATM   20  N2  UNL     1       4.447   1.932   1.471  1.00  0.00    -0.334 N 
HETATM   21  C7  UNL     1       4.692   1.329   2.757  1.00  0.00     0.127 C 
HETATM   22  C11 UNL     1       5.064   3.245   1.256  1.00  0.00     0.127 C 
HETATM   23  C8  UNL     1       6.185   1.332   3.112  1.00  0.00     0.020 C 
HETATM   24  C9  UNL     1       6.801   2.681   2.928  1.00  0.00     0.003 C 
HETATM   25  C10 UNL     1       5.803   3.721   2.462  1.00  0.00     0.020 C 
ATOM     26  H1  UNL     1       3.158  -0.422   1.453  1.00  0.00     0.165 HD
ENDBRANCH  12  17
ENDBRANCH   9  12
ENDBRANCH   1   8
BRANCH   1  27
HETATM   27  C14 UNL     1      -2.185  -0.161  -0.498  1.00  0.00     0.247 C 
HETATM   28  O3  UNL     1      -1.469   0.908  -0.490  1.00  0.00    -0.271 OA
HETATM   29  N4  UNL     1      -3.566   0.084  -0.299  1.00  0.00    -0.348 N 
ATOM     30  H4  UNL     1      -4.207  -0.710  -0.298  1.00  0.00     0.163 HD
BRANCH  29  31
HETATM   31  C15 UNL     1      -4.114   1.427  -0.095  1.00  0.00     0.138 C 
BRANCH  31  32
HETATM   32  C16 UNL     1      -4.997   1.835  -1.209  1.00  0.00     0.032 A 
HETATM   33  C17 UNL     1      -5.985   1.080  -1.815  1.00  0.00     0.028 A 
HETATM   34  C18 UNL     1      -6.602   1.796  -2.823  1.00  0.00     0.019 A 
HETATM   35  C19 UNL     1      -5.955   3.033  -2.819  1.00  0.00     0.088 A 
HETATM   36  N5  UNL     1      -5.013   3.032  -1.859  1.00  0.00    -0.367 N 
ATOM     37  H5  UNL     1      -4.397   3.817  -1.647  1.00  0.00     0.165 HD
ENDBRANCH  31  32
BRANCH  31  38
HETATM   38  C20 UNL     1      -4.733   1.587   1.264  1.00  0.00     0.006 C 
HETATM   39  C21 UNL     1      -5.862   0.659   1.550  1.00  0.00     0.012 C 
HETATM   40  C22 UNL     1      -5.080   3.041   1.462  1.00  0.00     0.012 C 
ENDBRANCH  31  38
ENDBRANCH  29  31
ENDBRANCH   1  27
TORSDOF 9
