REMARK  10 active torsions:
REMARK  status: ('A' for Active; 'I' for Inactive)
REMARK    1  A    between atoms: C2_2  and  N1_3 
REMARK    2  A    between atoms: N1_3  and  C3_6 
REMARK    3  A    between atoms: C3_6  and  C4_7 
REMARK    4  A    between atoms: C3_6  and  C7_12 
REMARK    5  A    between atoms: C4_7  and  C5_8 
REMARK    6  A    between atoms: C5_8  and  C6_9 
REMARK       I    between atoms: C7_12  and  N3_14 
REMARK    7  A    between atoms: N3_14  and  C8_16 
REMARK    8  A    between atoms: C8_16  and  C9_17 
REMARK    9  A    between atoms: C10_18  and  C11_19 
REMARK   10  A    between atoms: C23_31  and  N4_32 
REMARK       I    between atoms: N4_32  and  C24_34 
ROOT
HETATM    1  C11 UNL     1      -0.623   0.864   1.457  1.00  0.00    -0.022 C 
HETATM    2  C12 UNL     1      -0.100   0.146   2.682  1.00  0.00     0.020 C 
HETATM    3  C13 UNL     1      -0.737   2.327   1.815  1.00  0.00     0.013 C 
HETATM    4  C14 UNL     1      -1.215   3.158   0.672  1.00  0.00     0.002 C 
HETATM    5  C15 UNL     1      -2.077   2.373  -0.308  1.00  0.00     0.010 C 
HETATM    6  C16 UNL     1      -2.882   1.354   0.464  1.00  0.00    -0.035 C 
HETATM    7  C17 UNL     1      -3.698   2.089   1.458  1.00  0.00     0.016 C 
HETATM    8  C18 UNL     1      -1.941   0.315   0.967  1.00  0.00     0.006 C 
HETATM    9  C19 UNL     1      -2.642  -0.597   1.912  1.00  0.00     0.007 C 
HETATM   10  C20 UNL     1      -3.693  -1.339   1.150  1.00  0.00     0.012 C 
HETATM   11  C21 UNL     1      -4.457  -0.591   0.143  1.00  0.00    -0.019 C 
HETATM   12  C22 UNL     1      -5.848  -0.260   0.698  1.00  0.00     0.018 C 
HETATM   13  C23 UNL     1      -4.695  -1.467  -1.071  1.00  0.00     0.093 C 
HETATM   14  C26 UNL     1      -4.347  -0.696  -2.294  1.00  0.00     0.026 C 
HETATM   15  C27 UNL     1      -3.302   0.283  -1.792  1.00  0.00     0.008 C 
HETATM   16  C28 UNL     1      -3.847   0.622  -0.448  1.00  0.00     0.004 C 
ENDROOT
BRANCH   1  17
HETATM   17  C10 UNL     1       0.402   0.737   0.392  1.00  0.00    -0.019 C 
HETATM   18  C9  UNL     1       1.459   1.469   0.209  1.00  0.00    -0.011 C 
BRANCH  18  19
HETATM   19  C8  UNL     1       2.441   1.267  -0.897  1.00  0.00     0.149 C 
BRANCH  19  20
HETATM   20  N3  UNL     1       3.760   1.007  -0.429  1.00  0.00    -0.356 N 
HETATM   21  C7  UNL     1       4.813   0.806  -1.344  1.00  0.00     0.248 C 
HETATM   22  O2  UNL     1       4.570   0.858  -2.574  1.00  0.00    -0.271 OA
ATOM     23  H3  UNL     1       3.944   0.966   0.573  1.00  0.00     0.162 HD
BRANCH  21  24
HETATM   24  C3  UNL     1       6.198   0.540  -0.918  1.00  0.00     0.277 C 
BRANCH  24  25
HETATM   25  N1  UNL     1       7.153   1.040  -1.886  1.00  0.00    -0.063 N 
ATOM     26  H12 UNL     1       6.913   1.986  -2.183  1.00  0.00     0.278 HD
ATOM     27  H11 UNL     1       7.056   0.558  -2.780  1.00  0.00     0.278 HD
BRANCH  25  28
HETATM   28  C2  UNL     1       8.503   0.976  -1.411  1.00  0.00     0.229 C 
HETATM   29  C1  UNL     1       8.743   1.937  -0.261  1.00  0.00     0.034 C 
ENDBRANCH  25  28
ENDBRANCH  24  25
BRANCH  24  30
HETATM   30  C4  UNL     1       6.425  -0.915  -0.675  1.00  0.00     0.052 C 
BRANCH  30  31
HETATM   31  C5  UNL     1       5.431  -1.467   0.322  1.00  0.00     0.102 C 
BRANCH  31  32
HETATM   32  C6  UNL     1       5.762  -2.912   0.494  1.00  0.00     0.231 C 
HETATM   33  N2  UNL     1       4.983  -3.723   1.361  1.00  0.00    -0.062 NA
HETATM   34  O1  UNL     1       6.720  -3.444  -0.110  1.00  0.00    -0.277 OA
ENDBRANCH  31  32
ENDBRANCH  30  31
ENDBRANCH  24  30
ENDBRANCH  21  24
ENDBRANCH  19  20
ENDBRANCH  18  19
ENDBRANCH   1  17
BRANCH  13  35
HETATM   35  N4  UNL     1      -6.062  -1.935  -1.143  1.00  0.00    -0.356 N 
HETATM   36  C24 UNL     1      -6.435  -3.284  -1.112  1.00  0.00     0.213 C 
HETATM   37  C25 UNL     1      -7.851  -3.714  -1.191  1.00  0.00     0.117 C 
HETATM   38  O3  UNL     1      -5.553  -4.175  -1.014  1.00  0.00    -0.274 OA
ATOM     39  H4  UNL     1      -6.802  -1.237  -1.221  1.00  0.00     0.162 HD
ENDBRANCH  13  35
TORSDOF 10
