REMARK  11 active torsions:
REMARK  status: ('A' for Active; 'I' for Inactive)
REMARK    1  A    between atoms: C2_2  and  C3_3 
REMARK    2  A    between atoms: C3_3  and  C4_4 
REMARK    3  A    between atoms: C5_5  and  C6_6 
REMARK    4  A    between atoms: C9_9  and  C10_10 
REMARK    5  A    between atoms: C10_10  and  C11_11 
REMARK    6  A    between atoms: C10_10  and  N4_19 
REMARK    7  A    between atoms: C11_11  and  N1_12 
REMARK       I    between atoms: N1_12  and  C12_14 
REMARK    8  A    between atoms: C15_22  and  N5_23 
REMARK    9  A    between atoms: C18_26  and  C19_27 
REMARK   10  A    between atoms: C18_26  and  C21_29 
REMARK   11  A    between atoms: C21_29  and  C22_30 
ROOT
HETATM    1  N4  UNL     1       0.845  -0.202  -0.258  1.00  0.00    -0.301 N 
HETATM    2  C13 UNL     1      -0.142  -1.046   0.392  1.00  0.00     0.136 C 
HETATM    3  C14 UNL     1      -0.994  -1.756  -0.594  1.00  0.00     0.057 C 
HETATM    4  C15 UNL     1      -2.033  -0.978  -1.304  1.00  0.00     0.242 C 
HETATM    5  C26 UNL     1      -1.539  -0.014  -2.347  1.00  0.00     0.160 C 
HETATM    6  N6  UNL     1      -0.127  -0.114  -2.638  1.00  0.00    -0.341 N 
ATOM      7  H6  UNL     1       0.141  -0.265  -3.610  1.00  0.00     0.164 HD
HETATM    8  C27 UNL     1       0.927  -0.018  -1.672  1.00  0.00     0.322 C 
HETATM    9  O1  UNL     1       2.074   0.261  -2.091  1.00  0.00    -0.247 OA
ENDROOT
BRANCH   1  10
HETATM   10  C10 UNL     1       1.817   0.530   0.574  1.00  0.00     0.044 C 
BRANCH  10  11
HETATM   11  C9  UNL     1       3.165   0.051   0.542  1.00  0.00    -0.011 A 
HETATM   12  C8  UNL     1       4.211   0.745  -0.013  1.00  0.00     0.015 A 
HETATM   13  C7  UNL     1       5.507   0.326  -0.055  1.00  0.00     0.021 A 
HETATM   14  C6  UNL     1       5.824  -0.916   0.509  1.00  0.00     0.017 A 
HETATM   15  C29 UNL     1       4.813  -1.652   1.077  1.00  0.00     0.021 A 
HETATM   16  C28 UNL     1       3.518  -1.190   1.098  1.00  0.00     0.015 A 
BRANCH  14  17
HETATM   17  C5  UNL     1       7.194  -1.372   0.474  1.00  0.00    -0.067 C 
HETATM   18  C4  UNL     1       8.346  -1.730   0.441  1.00  0.00    -0.101 C 
BRANCH  18  19
HETATM   19  C3  UNL     1       9.760  -2.141   0.397  1.00  0.00     0.094 C 
BRANCH  19  20
HETATM   20  C2  UNL     1      10.573  -1.232  -0.498  1.00  0.00     0.007 C 
HETATM   21  C1  UNL     1      10.555   0.204  -0.050  1.00  0.00     0.006 C 
ENDBRANCH  19  20
ENDBRANCH  18  19
ENDBRANCH  14  17
ENDBRANCH  10  11
BRANCH  10  22
HETATM   22  C11 UNL     1       1.473   1.957   0.685  1.00  0.00     0.180 C 
BRANCH  22  23
HETATM   23  N1  UNL     1       1.849   2.667   1.863  1.00  0.00    -0.359 N 
HETATM   24  C12 UNL     1       3.154   3.019   2.241  1.00  0.00     0.182 C 
HETATM   25  N2  UNL     1       3.794   2.468   3.215  1.00  0.00    -0.374 N 
HETATM   26  N3  UNL     1       3.805   4.070   1.535  1.00  0.00    -0.064 NA
ATOM     27  H22 UNL     1       3.328   1.715   3.721  1.00  0.00     0.158 HD
ATOM     28  H21 UNL     1       4.742   2.724   3.490  1.00  0.00     0.158 HD
ATOM     29  H1  UNL     1       1.096   2.946   2.492  1.00  0.00     0.162 HD
ENDBRANCH  22  23
ENDBRANCH  10  22
ENDBRANCH   1  10
BRANCH   4  30
HETATM   30  N5  UNL     1      -2.996  -0.304  -0.463  1.00  0.00     0.094 N 
HETATM   31  C16 UNL     1      -3.764  -1.240   0.339  1.00  0.00     0.273 C 
HETATM   32  C17 UNL     1      -5.108  -1.576  -0.235  1.00  0.00     0.039 C 
HETATM   33  C18 UNL     1      -6.056  -0.352  -0.208  1.00  0.00    -0.037 C 
HETATM   34  C24 UNL     1      -5.191   0.808  -0.537  1.00  0.00     0.039 C 
HETATM   35  C25 UNL     1      -4.002   0.313  -1.345  1.00  0.00     0.273 C 
BRANCH  33  36
HETATM   36  C19 UNL     1      -7.205  -0.585  -1.120  1.00  0.00     0.005 C 
HETATM   37  C20 UNL     1      -6.836  -0.816  -2.568  1.00  0.00     0.006 C 
ENDBRANCH  33  36
BRANCH  33  38
HETATM   38  C21 UNL     1      -6.563  -0.181   1.202  1.00  0.00     0.009 C 
BRANCH  38  39
HETATM   39  C22 UNL     1      -7.472   0.997   1.290  1.00  0.00    -0.004 C 
HETATM   40  C23 UNL     1      -7.966   1.195   2.741  1.00  0.00     0.005 C 
ENDBRANCH  38  39
ENDBRANCH  33  38
ENDBRANCH   4  30
TORSDOF 11
