REMARK  7 active torsions:
REMARK  status: ('A' for Active; 'I' for Inactive)
REMARK    1  A    between atoms: O1_1  and  C1_3 
REMARK    2  A    between atoms: C1_3  and  C2_4 
REMARK    3  A    between atoms: C2_4  and  C3_5 
REMARK    4  A    between atoms: C2_4  and  N1_8 
REMARK    5  A    between atoms: C3_5  and  O2_6 
REMARK    6  A    between atoms: C4_10  and  C5_11 
REMARK    7  A    between atoms: C5_11  and  N2_12 
ROOT
HETATM    1  C5  UNL     1      -0.700  -0.019  -0.301  1.00  0.00     0.171 C 
ENDROOT
BRANCH   1   2
HETATM    2  C4  UNL     1      -1.211  -0.972   0.698  1.00  0.00     0.076 C 
HETATM    3  N1  UNL     1      -2.492  -1.095   0.822  1.00  0.00    -0.392 N 
ATOM      4  H1  UNL     1      -2.865  -1.751   1.508  1.00  0.00     0.159 HD
BRANCH   3   5
HETATM    5  C2  UNL     1      -3.400  -0.331   0.017  1.00  0.00     0.128 C 
BRANCH   5   6
HETATM    6  C1  UNL     1      -3.867   0.832   0.890  1.00  0.00     0.191 C 
BRANCH   6   7
HETATM    7  O1  UNL     1      -4.760   1.649   0.207  1.00  0.00    -0.399 OA
ATOM      8  H1  UNL     1      -5.050   2.372   0.750  1.00  0.00     0.209 HD
ENDBRANCH   6   7
ENDBRANCH   5   6
BRANCH   5   9
HETATM    9  C3  UNL     1      -4.600  -1.239  -0.273  1.00  0.00     0.191 C 
BRANCH   9  10
HETATM   10  O2  UNL     1      -4.184  -2.376  -0.951  1.00  0.00    -0.399 OA
ATOM     11  H2  UNL     1      -4.928  -2.939  -1.131  1.00  0.00     0.209 HD
ENDBRANCH   9  10
ENDBRANCH   5   9
ENDBRANCH   3   5
ENDBRANCH   1   2
BRANCH   1  12
HETATM   12  N2  UNL     1       0.704   0.260  -0.074  1.00  0.00    -0.361 N 
HETATM   13  C6  UNL     1       1.062   1.276   0.731  1.00  0.00     0.091 A 
HETATM   14  C7  UNL     1       2.379   1.593   0.988  1.00  0.00     0.029 A 
HETATM   15  C8  UNL     1       3.402   0.845   0.402  1.00  0.00    -0.023 A 
HETATM   16  C9  UNL     1       4.728   1.128   0.633  1.00  0.00     0.012 A 
HETATM   17  C13 UNL     1       3.008  -0.192  -0.419  1.00  0.00    -0.010 A 
HETATM   18  C10 UNL     1       5.673   0.349   0.022  1.00  0.00     0.001 A 
HETATM   19  C11 UNL     1       5.317  -0.696  -0.805  1.00  0.00     0.001 A 
HETATM   20  C12 UNL     1       3.985  -0.977  -1.033  1.00  0.00     0.013 A 
HETATM   21  C14 UNL     1       1.678  -0.471  -0.645  1.00  0.00     0.103 A 
ENDBRANCH   1  12
TORSDOF 7
