REMARK  5 active torsions:
REMARK  status: ('A' for Active; 'I' for Inactive)
REMARK    1  A    between atoms: C2_2  and  N1_3 
REMARK    2  A    between atoms: N1_3  and  C3_5 
REMARK    3  A    between atoms: C3_5  and  C4_6 
REMARK    4  A    between atoms: C4_6  and  N2_7 
REMARK    5  A    between atoms: N2_7  and  C5_9 
ROOT
HETATM    1  C5  UNL     1      -0.006  -2.188  -0.134  1.00  0.00     0.678 A 
HETATM    2  N3  UNL     1      -0.775  -1.093  -0.183  1.00  0.00    -0.191 N 
ATOM      3  H3  UNL     1      -0.339  -0.204  -0.428  1.00  0.00     0.184 HD
HETATM    4  C6  UNL     1      -2.093  -1.108   0.075  1.00  0.00     0.060 A 
HETATM    5  C7  UNL     1      -2.885   0.096   0.016  1.00  0.00    -0.009 A 
HETATM    6  C8  UNL     1      -2.252   1.293  -0.296  1.00  0.00     0.014 A 
HETATM    7  C9  UNL     1      -2.954   2.471  -0.369  1.00  0.00     0.001 A 
HETATM    8  C10 UNL     1      -4.305   2.458  -0.128  1.00  0.00     0.000 A 
HETATM    9  C11 UNL     1      -4.978   1.302   0.185  1.00  0.00     0.001 A 
HETATM   10  C12 UNL     1      -4.227   0.131   0.248  1.00  0.00     0.014 A 
HETATM   11  C13 UNL     1      -2.674  -2.301   0.404  1.00  0.00     0.048 A 
HETATM   12  C14 UNL     1      -1.885  -3.435   0.456  1.00  0.00     0.108 A 
HETATM   13  N4  UNL     1      -0.565  -3.371   0.189  1.00  0.00    -0.202 N 
ATOM     14  H4  UNL     1       0.008  -4.214   0.231  1.00  0.00     0.183 HD
ENDROOT
BRANCH   1  15
HETATM   15  N2  UNL     1       1.270  -2.151  -0.390  1.00  0.00    -0.224 N 
ATOM     16  H2  UNL     1       1.802  -3.019  -0.336  1.00  0.00     0.177 HD
BRANCH  15  17
HETATM   17  C4  UNL     1       1.969  -0.933  -0.748  1.00  0.00     0.157 C 
BRANCH  17  18
HETATM   18  C3  UNL     1       3.249  -0.906   0.032  1.00  0.00     0.134 C 
BRANCH  18  19
HETATM   19  N1  UNL     1       4.084   0.223  -0.189  1.00  0.00    -0.420 N 
ATOM     20  H1  UNL     1       4.987   0.144  -0.657  1.00  0.00     0.153 HD
BRANCH  19  21
HETATM   21  C2  UNL     1       3.586   1.471   0.281  1.00  0.00     0.109 C 
HETATM   22  C1  UNL     1       4.630   2.551  -0.027  1.00  0.00     0.026 C 
ENDBRANCH  19  21
ENDBRANCH  18  19
ENDBRANCH  17  18
ENDBRANCH  15  17
ENDBRANCH   1  15
TORSDOF 5
