REMARK  15 active torsions:
REMARK  status: ('A' for Active; 'I' for Inactive)
REMARK    1  A    between atoms: C2_2  and  C3_3 
REMARK    2  A    between atoms: C3_3  and  O1_4 
REMARK    3  A    between atoms: O1_4  and  C4_5 
REMARK    4  A    between atoms: C4_5  and  C5_7 
REMARK    5  A    between atoms: C5_7  and  O3_8 
REMARK    6  A    between atoms: C5_7  and  C6_10 
REMARK    7  A    between atoms: C7_11  and  C8_12 
REMARK    8  A    between atoms: C9_13  and  C10_14 
REMARK    9  A    between atoms: N1_15  and  N2_17 
REMARK   10  A    between atoms: C11_20  and  C13_22 
REMARK   11  A    between atoms: C13_22  and  O4_23 
REMARK   12  A    between atoms: C13_22  and  C14_25 
REMARK   13  A    between atoms: C14_25  and  N3_26 
REMARK   14  A    between atoms: C14_25  and  C15_30 
REMARK   15  A    between atoms: C15_30  and  C16_31 
ROOT
HETATM    1  C8  UNL     1       0.307  -1.816  -1.001  1.00  0.00     0.029 A 
HETATM    2  C9  UNL     1      -0.382  -3.082  -1.041  1.00  0.00     0.045 A 
HETATM    3  C11 UNL     1      -0.976  -1.873  -0.262  1.00  0.00     0.000 A 
HETATM    4  C12 UNL     1      -1.055  -2.125   1.229  1.00  0.00     0.019 C 
ENDROOT
BRANCH   3   5
HETATM    5  C13 UNL     1      -2.243  -1.344  -0.833  1.00  0.00     0.158 C 
BRANCH   5   6
HETATM    6  O4  UNL     1      -2.554  -2.029  -2.039  1.00  0.00    -0.393 OA
ATOM      7  H4  UNL     1      -3.363  -1.691  -2.404  1.00  0.00     0.210 HD
ENDBRANCH   5   6
BRANCH   5   8
HETATM    8  C14 UNL     1      -2.401   0.111  -1.017  1.00  0.00     0.213 C 
BRANCH   8   9
HETATM    9  N3  UNL     1      -1.555   0.671  -2.052  1.00  0.00    -0.073 N 
ATOM     10  H33 UNL     1      -0.577   0.436  -1.881  1.00  0.00     0.274 HD
ATOM     11  H32 UNL     1      -1.698   0.181  -2.935  1.00  0.00     0.274 HD
ATOM     12  H31 UNL     1      -1.664   1.677  -2.179  1.00  0.00     0.274 HD
ENDBRANCH   8   9
BRANCH   8  13
HETATM   13  C15 UNL     1      -2.326   0.964   0.200  1.00  0.00     0.039 C 
BRANCH  13  14
HETATM   14  C16 UNL     1      -2.533   2.439  -0.038  1.00  0.00    -0.021 C 
HETATM   15  C17 UNL     1      -3.890   2.695  -0.656  1.00  0.00     0.009 C 
HETATM   16  C18 UNL     1      -1.411   3.172  -0.661  1.00  0.00     0.009 C 
ENDBRANCH  13  14
ENDBRANCH   8  13
ENDBRANCH   5   8
ENDBRANCH   3   5
BRANCH   1  17
HETATM   17  C7  UNL     1       1.540  -1.435  -0.366  1.00  0.00    -0.021 C 
HETATM   18  C6  UNL     1       1.889  -1.054   0.817  1.00  0.00     0.011 C 
BRANCH  18  19
HETATM   19  C5  UNL     1       3.318  -0.711   1.197  1.00  0.00     0.240 C 
BRANCH  19  20
HETATM   20  C4  UNL     1       3.462   0.776   1.204  1.00  0.00     0.291 C 
HETATM   21  O2  UNL     1       2.739   1.491   1.935  1.00  0.00    -0.262 OA
BRANCH  20  22
HETATM   22  O1  UNL     1       4.403   1.386   0.395  1.00  0.00    -0.316 OA
BRANCH  22  23
HETATM   23  C3  UNL     1       4.588   2.774   0.354  1.00  0.00     0.205 C 
BRANCH  23  24
HETATM   24  C2  UNL     1       3.334   3.444  -0.081  1.00  0.00    -0.011 C 
HETATM   25  C1  UNL     1       2.717   4.319   0.684  1.00  0.00     0.009 C 
ENDBRANCH  23  24
ENDBRANCH  22  23
ENDBRANCH  20  22
ENDBRANCH  19  20
BRANCH  19  26
HETATM   26  O3  UNL     1       4.208  -1.306   0.320  1.00  0.00    -0.382 OA
ATOM     27  H3  UNL     1       4.116  -2.252   0.316  1.00  0.00     0.211 HD
ENDBRANCH  19  26
ENDBRANCH  18  19
ENDBRANCH   1  17
BRANCH   2  28
HETATM   28  C10 UNL     1       0.021  -4.273  -0.246  1.00  0.00     0.085 C 
HETATM   29  N1  UNL     1      -0.792  -5.237  -0.062  1.00  0.00    -0.322 N 
ATOM     30  H1  UNL     1      -1.728  -5.190  -0.465  1.00  0.00     0.185 HD
BRANCH  29  31
HETATM   31  N2  UNL     1      -0.423  -6.347   0.677  1.00  0.00    -0.346 N 
ATOM     32  H22 UNL     1       0.516  -6.378   1.073  1.00  0.00     0.176 HD
ATOM     33  H21 UNL     1      -1.074  -7.119   0.824  1.00  0.00     0.176 HD
ENDBRANCH  29  31
ENDBRANCH   2  28
TORSDOF 15
