REMARK  11 active torsions:
REMARK  status: ('A' for Active; 'I' for Inactive)
REMARK    1  A    between atoms: C2_2  and  C4_4 
REMARK    2  A    between atoms: C4_4  and  C5_5 
REMARK    3  A    between atoms: C5_5  and  N1_6 
REMARK    4  A    between atoms: C5_5  and  C16_27 
REMARK       I    between atoms: N1_6  and  C6_8 
REMARK    5  A    between atoms: C6_8  and  C7_10 
REMARK    6  A    between atoms: C7_10  and  C8_11 
REMARK    7  A    between atoms: C7_10  and  N2_15 
REMARK    8  A    between atoms: C8_11  and  C9_12 
REMARK       I    between atoms: N2_15  and  C12_17 
REMARK    9  A    between atoms: C12_17  and  C13_19 
REMARK   10  A    between atoms: C13_19  and  N3_21 
REMARK   11  A    between atoms: C13_19  and  C15_25 
ROOT
HETATM    1  C7  UNL     1      -1.126   0.401  -0.122  1.00  0.00     0.177 C 
ENDROOT
BRANCH   1   2
HETATM    2  C6  UNL     1       0.048  -0.336   0.410  1.00  0.00     0.241 C 
HETATM    3  N1  UNL     1       1.317   0.270   0.340  1.00  0.00    -0.346 N 
ATOM      4  H1  UNL     1       1.405   1.200  -0.069  1.00  0.00     0.163 HD
HETATM    5  O1  UNL     1      -0.163  -1.468   0.893  1.00  0.00    -0.271 OA
BRANCH   3   6
HETATM    6  C5  UNL     1       2.531  -0.420   0.850  1.00  0.00     0.174 C 
BRANCH   6   7
HETATM    7  C4  UNL     1       3.346  -0.653  -0.368  1.00  0.00     0.038 C 
BRANCH   7   8
HETATM    8  C2  UNL     1       4.642  -1.329  -0.284  1.00  0.00    -0.020 C 
HETATM    9  C1  UNL     1       5.723  -0.722   0.524  1.00  0.00     0.009 C 
HETATM   10  C3  UNL     1       5.166  -1.451  -1.731  1.00  0.00     0.009 C 
ENDBRANCH   7   8
ENDBRANCH   6   7
BRANCH   6  11
HETATM   11  C16 UNL     1       3.092   0.510   1.842  1.00  0.00     0.254 C 
HETATM   12  N4  UNL     1       3.815   0.116   2.997  1.00  0.00    -0.060 NA
HETATM   13  O4  UNL     1       2.913   1.752   1.652  1.00  0.00    -0.275 OA
ENDBRANCH   6  11
ENDBRANCH   3   6
ENDBRANCH   1   2
BRANCH   1  14
HETATM   14  C8  UNL     1      -1.192   1.696   0.624  1.00  0.00     0.038 C 
BRANCH  14  15
HETATM   15  C9  UNL     1      -2.331   2.595   0.221  1.00  0.00    -0.020 C 
HETATM   16  C10 UNL     1      -2.202   3.841   1.111  1.00  0.00     0.009 C 
HETATM   17  C11 UNL     1      -2.211   3.050  -1.213  1.00  0.00     0.009 C 
ENDBRANCH  14  15
ENDBRANCH   1  14
BRANCH   1  18
HETATM   18  N2  UNL     1      -2.305  -0.416   0.047  1.00  0.00    -0.345 N 
HETATM   19  C12 UNL     1      -2.945  -1.004  -1.068  1.00  0.00     0.261 C 
HETATM   20  O2  UNL     1      -2.446  -0.788  -2.216  1.00  0.00    -0.270 OA
ATOM     21  H2  UNL     1      -2.681  -0.571   0.983  1.00  0.00     0.163 HD
BRANCH  19  22
HETATM   22  C13 UNL     1      -4.152  -1.850  -0.948  1.00  0.00     0.251 C 
HETATM   23  C14 UNL     1      -3.946  -2.961   0.040  1.00  0.00     0.065 C 
BRANCH  22  24
HETATM   24  N3  UNL     1      -4.557  -2.419  -2.205  1.00  0.00    -0.055 N 
ATOM     25  H33 UNL     1      -4.687  -1.694  -2.910  1.00  0.00     0.276 HD
ATOM     26  H32 UNL     1      -3.790  -2.934  -2.638  1.00  0.00     0.276 HD
ATOM     27  H31 UNL     1      -5.390  -3.003  -2.122  1.00  0.00     0.276 HD
ENDBRANCH  22  24
BRANCH  22  28
HETATM   28  C15 UNL     1      -5.252  -0.956  -0.484  1.00  0.00     0.279 C 
HETATM   29  O3  UNL     1      -5.124  -0.353   0.570  1.00  0.00    -0.304 OA
ENDBRANCH  22  28
ENDBRANCH  19  22
ENDBRANCH   1  18
TORSDOF 11
