REMARK  10 active torsions:
REMARK  status: ('A' for Active; 'I' for Inactive)
REMARK    1  A    between atoms: C2_2  and  C3_3 
REMARK       I    between atoms: C3_3  and  N1_5 
REMARK    2  A    between atoms: N1_5  and  C4_7 
REMARK    3  A    between atoms: C4_7  and  C5_8 
REMARK    4  A    between atoms: C4_7  and  C7_11 
REMARK    5  A    between atoms: C7_11  and  N2_12 
REMARK    6  A    between atoms: C7_11  and  C10_18 
REMARK    7  A    between atoms: C8_14  and  C9_15 
REMARK    8  A    between atoms: C10_18  and  N3_19 
REMARK    9  A    between atoms: C10_18  and  C12_24 
REMARK       I    between atoms: N3_19  and  C11_21 
REMARK   10  A    between atoms: C12_24  and  C14_26 
ROOT
HETATM    1  C7  UNL     1      -0.094  -0.836  -0.144  1.00  0.00     0.158 C 
ENDROOT
BRANCH   1   2
HETATM    2  C4  UNL     1       1.193  -0.778   0.601  1.00  0.00     0.082 C 
BRANCH   2   3
HETATM    3  N1  UNL     1       2.261  -0.012   0.049  1.00  0.00    -0.326 N 
HETATM    4  C3  UNL     1       3.055   1.087   0.247  1.00  0.00     0.221 C 
HETATM    5  O1  UNL     1       2.934   1.852   1.219  1.00  0.00    -0.273 OA
ATOM      6  H1  UNL     1       2.541  -0.449  -0.829  1.00  0.00     0.168 HD
BRANCH   4   7
HETATM    7  C2  UNL     1       4.176   1.393  -0.743  1.00  0.00     0.098 C 
HETATM    8  C1  UNL     1       4.907   2.593  -0.241  1.00  0.00     0.014 C 
ENDBRANCH   4   7
ENDBRANCH   2   3
BRANCH   2   9
HETATM    9  C5  UNL     1       1.797  -2.007   1.137  1.00  0.00     0.170 C 
HETATM   10  C6  UNL     1       2.105  -3.232   0.300  1.00  0.00     0.098 C 
HETATM   11  O2  UNL     1       2.119  -2.146   2.308  1.00  0.00    -0.291 OA
ENDBRANCH   2   9
ENDBRANCH   1   2
BRANCH   1  12
HETATM   12  N2  UNL     1      -0.967  -1.731   0.549  1.00  0.00    -0.381 N 
HETATM   13  C8  UNL     1      -1.928  -2.507   0.013  1.00  0.00     0.169 C 
ATOM     14  H2  UNL     1      -0.849  -1.788   1.561  1.00  0.00     0.160 HD
BRANCH  13  15
HETATM   15  C9  UNL     1      -1.694  -3.652  -0.864  1.00  0.00     0.214 C 
HETATM   16  O3  UNL     1      -0.658  -3.240  -1.777  1.00  0.00    -0.644 OA
HETATM   17  O4  UNL     1      -2.067  -4.821  -1.059  1.00  0.00    -0.644 OA
ENDBRANCH  13  15
ENDBRANCH   1  12
BRANCH   1  18
HETATM   18  C10 UNL     1      -0.795   0.517   0.054  1.00  0.00     0.118 C 
BRANCH  18  19
HETATM   19  N3  UNL     1      -1.186   0.638   1.439  1.00  0.00    -0.338 N 
HETATM   20  C11 UNL     1      -0.856   1.275   2.577  1.00  0.00     0.329 C 
HETATM   21  N4  UNL     1      -1.698   1.036   3.762  1.00  0.00    -0.040 NA
HETATM   22  O5  UNL     1       0.080   2.066   2.772  1.00  0.00    -0.251 OA
ATOM     23  H3  UNL     1      -1.988   0.032   1.615  1.00  0.00     0.164 HD
ENDBRANCH  18  19
BRANCH  18  24
HETATM   24  C12 UNL     1      -1.977   0.804  -0.757  1.00  0.00     0.006 C 
HETATM   25  C13 UNL     1      -2.446   2.232  -0.363  1.00  0.00     0.012 C 
BRANCH  24  26
HETATM   26  C14 UNL     1      -1.970   0.756  -2.214  1.00  0.00     0.002 C 
HETATM   27  C15 UNL     1      -3.425   1.051  -2.670  1.00  0.00     0.005 C 
ENDBRANCH  24  26
ENDBRANCH  18  24
ENDBRANCH   1  18
TORSDOF 10
