REMARK  12 active torsions:
REMARK  status: ('A' for Active; 'I' for Inactive)
REMARK    1  A    between atoms: C2_2  and  C3_3 
REMARK    2  A    between atoms: C4_4  and  C5_5 
REMARK    3  A    between atoms: C5_5  and  C6_6 
REMARK    4  A    between atoms: C5_5  and  C10_16 
REMARK       I    between atoms: C6_6  and  N1_8 
REMARK    5  A    between atoms: N1_8  and  C7_10 
REMARK    6  A    between atoms: C7_10  and  C8_11 
REMARK    7  A    between atoms: C7_10  and  C9_13 
REMARK    8  A    between atoms: C9_13  and  O3_14 
REMARK    9  A    between atoms: C10_16  and  C11_17 
REMARK   10  A    between atoms: C10_16  and  N2_21 
REMARK   11  A    between atoms: C11_17  and  C12_18 
REMARK       I    between atoms: N2_21  and  C15_23 
REMARK   12  A    between atoms: C15_23  and  C16_25 
ROOT
HETATM    1  C5  UNL     1      -0.124   0.532  -0.200  1.00  0.00     0.123 C 
ENDROOT
BRANCH   1   2
HETATM    2  C4  UNL     1       0.098   1.739   0.632  1.00  0.00    -0.015 C 
HETATM    3  C3  UNL     1       0.155   2.947   0.099  1.00  0.00    -0.030 C 
BRANCH   3   4
HETATM    4  C2  UNL     1       0.376   4.157   0.920  1.00  0.00     0.022 C 
HETATM    5  C1  UNL     1      -0.795   5.125   0.779  1.00  0.00     0.009 C 
ENDBRANCH   3   4
ENDBRANCH   1   2
BRANCH   1   6
HETATM    6  C6  UNL     1      -1.358  -0.139   0.285  1.00  0.00     0.228 C 
HETATM    7  O1  UNL     1      -1.967   0.276   1.326  1.00  0.00    -0.273 OA
HETATM    8  N1  UNL     1      -1.891  -1.266  -0.409  1.00  0.00    -0.348 N 
ATOM      9  H1  UNL     1      -1.425  -1.622  -1.243  1.00  0.00     0.163 HD
BRANCH   8  10
HETATM   10  C7  UNL     1      -3.091  -1.897   0.075  1.00  0.00     0.169 C 
BRANCH  10  11
HETATM   11  C8  UNL     1      -2.973  -3.354   0.295  1.00  0.00     0.258 C 
HETATM   12  O2  UNL     1      -1.996  -4.027   0.099  1.00  0.00    -0.305 OA
ENDBRANCH  10  11
BRANCH  10  13
HETATM   13  C9  UNL     1      -4.252  -1.601  -0.888  1.00  0.00     0.196 C 
BRANCH  13  14
HETATM   14  O3  UNL     1      -5.364  -2.243  -0.347  1.00  0.00    -0.398 OA
ATOM     15  H3  UNL     1      -6.082  -2.060  -0.942  1.00  0.00     0.209 HD
ENDBRANCH  13  14
ENDBRANCH  10  13
ENDBRANCH   8  10
ENDBRANCH   1   6
BRANCH   1  16
HETATM   16  C10 UNL     1       1.023  -0.432  -0.067  1.00  0.00     0.101 C 
BRANCH  16  17
HETATM   17  C11 UNL     1       2.297   0.247  -0.540  1.00  0.00     0.030 C 
BRANCH  17  18
HETATM   18  C12 UNL     1       2.191   0.651  -1.971  1.00  0.00    -0.021 C 
HETATM   19  C13 UNL     1       3.492   1.333  -2.407  1.00  0.00     0.009 C 
HETATM   20  C14 UNL     1       2.039  -0.573  -2.891  1.00  0.00     0.009 C 
ENDBRANCH  17  18
ENDBRANCH  16  17
BRANCH  16  21
HETATM   21  N2  UNL     1       1.138  -0.854   1.312  1.00  0.00    -0.347 N 
HETATM   22  C15 UNL     1       1.196  -2.200   1.740  1.00  0.00     0.306 C 
HETATM   23  O4  UNL     1       1.155  -3.179   0.951  1.00  0.00    -0.263 OA
ATOM     24  H2  UNL     1       1.180  -0.128   2.027  1.00  0.00     0.163 HD
BRANCH  22  25
HETATM   25  C16 UNL     1       1.308  -2.526   3.156  1.00  0.00     0.322 C 
HETATM   26  N3  UNL     1       1.371  -3.844   3.656  1.00  0.00    -0.053 NA
HETATM   27  O5  UNL     1       1.355  -1.590   4.006  1.00  0.00    -0.266 OA
ENDBRANCH  22  25
ENDBRANCH  16  21
ENDBRANCH   1  16
TORSDOF 12
