REMARK  12 active torsions:
REMARK  status: ('A' for Active; 'I' for Inactive)
REMARK    1  A    between atoms: O1_2  and  N1_3 
REMARK    2  A    between atoms: N1_3  and  C2_4 
REMARK    3  A    between atoms: C2_4  and  C3_5 
REMARK    4  A    between atoms: C3_5  and  O2_6 
REMARK    5  A    between atoms: C3_5  and  C4_8 
REMARK    6  A    between atoms: C4_8  and  C5_9 
REMARK    7  A    between atoms: C4_8  and  N3_14 
REMARK    8  A    between atoms: C5_9  and  N2_10 
REMARK       I    between atoms: N3_14  and  C8_16 
REMARK    9  A    between atoms: C8_16  and  C9_18 
REMARK   10  A    between atoms: C9_18  and  N4_19 
REMARK   11  A    between atoms: C9_18  and  C10_23 
REMARK   12  A    between atoms: C10_23  and  C11_24 
ROOT
HETATM    1  N3  UNL     1      -0.488   0.105   0.199  1.00  0.00    -0.351 N 
ATOM      2  H3  UNL     1      -0.433   0.683   1.038  1.00  0.00     0.163 HD
HETATM    3  C8  UNL     1       0.638  -0.619  -0.206  1.00  0.00     0.249 C 
HETATM    4  O4  UNL     1       0.569  -1.333  -1.244  1.00  0.00    -0.271 OA
ENDROOT
BRANCH   1   5
HETATM    5  C4  UNL     1      -1.734   0.054  -0.547  1.00  0.00     0.132 C 
BRANCH   5   6
HETATM    6  C3  UNL     1      -2.836  -0.574   0.269  1.00  0.00     0.159 C 
BRANCH   6   7
HETATM    7  C2  UNL     1      -4.117  -0.610  -0.514  1.00  0.00     0.176 C 
BRANCH   7   8
HETATM    8  N1  UNL     1      -5.176  -1.280   0.257  1.00  0.00    -0.099 NA
BRANCH   8   9
HETATM    9  O1  UNL     1      -6.324  -1.323  -0.422  1.00  0.00    -0.291 OA
HETATM   10  C1  UNL     1      -7.437  -0.979   0.317  1.00  0.00     0.231 C 
ENDBRANCH   8   9
ENDBRANCH   7   8
ENDBRANCH   6   7
BRANCH   6  11
HETATM   11  O2  UNL     1      -2.421  -1.880   0.595  1.00  0.00    -0.392 OA
ATOM     12  H2  UNL     1      -1.611  -1.857   1.090  1.00  0.00     0.210 HD
ENDBRANCH   6  11
ENDBRANCH   5   6
BRANCH   5  13
HETATM   13  C5  UNL     1      -2.163   1.393  -1.040  1.00  0.00     0.154 C 
BRANCH  13  14
HETATM   14  N2  UNL     1      -1.131   2.053  -1.821  1.00  0.00    -0.340 N 
HETATM   15  C6  UNL     1      -0.509   2.306  -3.100  1.00  0.00     0.228 A 
HETATM   16  C7  UNL     1       0.008   2.921  -1.884  1.00  0.00     0.238 A 
HETATM   17  O3  UNL     1       0.848   3.669  -1.324  1.00  0.00    -0.272 OA
ENDBRANCH  13  14
ENDBRANCH   5  13
ENDBRANCH   1   5
BRANCH   3  18
HETATM   18  C9  UNL     1       1.936  -0.610   0.509  1.00  0.00     0.278 C 
BRANCH  18  19
HETATM   19  N4  UNL     1       1.942   0.211   1.676  1.00  0.00    -0.066 N 
ATOM     20  H43 UNL     1       1.650   1.161   1.449  1.00  0.00     0.275 HD
ATOM     21  H42 UNL     1       1.185  -0.054   2.307  1.00  0.00     0.275 HD
ATOM     22  H41 UNL     1       2.835   0.217   2.168  1.00  0.00     0.275 HD
ENDBRANCH  18  19
BRANCH  18  23
HETATM   23  C10 UNL     1       3.043  -0.278  -0.460  1.00  0.00     0.081 C 
BRANCH  23  24
HETATM   24  C11 UNL     1       4.368  -0.246   0.161  1.00  0.00    -0.056 A 
HETATM   25  C12 UNL     1       4.818   0.953   0.680  1.00  0.00     0.007 A 
HETATM   26  C13 UNL     1       6.058   1.066   1.282  1.00  0.00     0.001 A 
HETATM   27  C14 UNL     1       6.836  -0.068   1.346  1.00  0.00     0.000 A 
HETATM   28  C15 UNL     1       6.398  -1.287   0.827  1.00  0.00     0.001 A 
HETATM   29  C16 UNL     1       5.156  -1.373   0.231  1.00  0.00     0.007 A 
ENDBRANCH  23  24
ENDBRANCH  18  23
ENDBRANCH   3  18
TORSDOF 12
