REMARK  3 active torsions:
REMARK  status: ('A' for Active; 'I' for Inactive)
REMARK    1  A    between atoms: N2_5  and  C3_6 
REMARK    2  A    between atoms: C3_6  and  N3_7 
REMARK    3  A    between atoms: N4_10  and  C6_11 
ROOT
HETATM    1  N3  UNL     1       2.206  -0.365   0.710  1.00  0.00    -0.370 N 
HETATM    2  C4  UNL     1       1.905  -0.841  -0.575  1.00  0.00     0.090 C 
HETATM    3  C5  UNL     1       0.437  -0.944  -0.897  1.00  0.00     0.317 C 
HETATM    4  N4  UNL     1      -0.261  -0.191   0.129  1.00  0.00     0.103 N 
HETATM    5  C15 UNL     1      -0.093  -0.842   1.410  1.00  0.00     0.293 C 
HETATM    6  C16 UNL     1       1.337  -0.676   1.795  1.00  0.00     0.154 C 
ENDROOT
BRANCH   4   7
HETATM    7  C6  UNL     1      -1.606   0.098  -0.203  1.00  0.00     0.259 C 
HETATM    8  C7  UNL     1      -2.508  -1.082  -0.285  1.00  0.00     0.066 C 
HETATM    9  C8  UNL     1      -3.809  -0.691  -0.898  1.00  0.00     0.040 C 
HETATM   10  C9  UNL     1      -4.938  -1.277  -0.064  1.00  0.00     0.033 C 
HETATM   11 CL1  UNL     1      -3.918  -1.453  -2.510  1.00  0.00    -0.119 Cl
HETATM   12  C10 UNL     1      -3.976   0.790  -1.061  1.00  0.00     0.065 C 
HETATM   13  C11 UNL     1      -3.476   1.530   0.166  1.00  0.00    -0.041 A 
HETATM   14  C12 UNL     1      -4.118   2.514   0.857  1.00  0.00     0.057 A 
HETATM   15  C14 UNL     1      -2.248   1.169   0.598  1.00  0.00    -0.012 A 
HETATM   16  S1  UNL     1      -3.013   2.918   2.082  1.00  0.00    -0.113 SA
HETATM   17  C13 UNL     1      -1.759   1.832   1.695  1.00  0.00     0.059 A 
ENDBRANCH   4   7
BRANCH   1  18
HETATM   18  C3  UNL     1       2.941   0.850   0.808  1.00  0.00     0.301 C 
BRANCH  18  19
HETATM   19  N2  UNL     1       4.229   0.657   0.141  1.00  0.00    -0.172 N 
HETATM   20  N1  UNL     1       4.748   0.798  -1.054  1.00  0.00    -0.258 N 
HETATM   21  C2  UNL     1       5.922   0.367  -0.582  1.00  0.00     0.161 A 
ATOM     22  H1  UNL     1       4.402   1.107  -1.962  1.00  0.00     0.191 HD
HETATM   23  C1  UNL     1       7.288   0.128  -1.141  1.00  0.00     0.101 C 
HETATM   24  O1  UNL     1       5.359   0.246   0.577  1.00  0.00    -0.204 OA
ENDBRANCH  18  19
ENDBRANCH   1  18
TORSDOF 3
