REMARK  7 active torsions:
REMARK  status: ('A' for Active; 'I' for Inactive)
REMARK    1  A    between atoms: C3_3  and  C4_4 
REMARK    2  A    between atoms: C5_5  and  C6_6 
REMARK    3  A    between atoms: C6_6  and  O1_9 
REMARK    4  A    between atoms: O1_9  and  C9_10 
REMARK    5  A    between atoms: C9_10  and  C10_12 
REMARK    6  A    between atoms: C12_14  and  O3_15 
REMARK    7  A    between atoms: C16_20  and  N1_21 
ROOT
HETATM    1  C1  UNL     1       6.299  -0.997   3.137  1.00  0.00     0.113 C 
HETATM    2  C2  UNL     1       5.405  -0.596   2.042  1.00  0.00    -0.097 C 
HETATM    3  C3  UNL     1       4.651  -0.275   1.149  1.00  0.00    -0.015 C 
ENDROOT
BRANCH   3   4
HETATM    4  C4  UNL     1       3.752   0.117   0.117  1.00  0.00    -0.012 C 
HETATM    5  C5  UNL     1       2.979   0.462  -0.745  1.00  0.00    -0.054 C 
BRANCH   5   6
HETATM    6  C6  UNL     1       2.035   0.898  -1.776  1.00  0.00     0.127 C 
HETATM    7  C7  UNL     1       2.239   2.356  -2.133  1.00  0.00     0.061 C 
HETATM    8  C8  UNL     1       2.173  -0.000  -2.960  1.00  0.00     0.061 C 
BRANCH   6   9
HETATM    9  O1  UNL     1       0.738   0.774  -1.247  1.00  0.00    -0.294 OA
BRANCH   9  10
HETATM   10  C9  UNL     1       0.182  -0.415  -0.807  1.00  0.00     0.295 C 
HETATM   11  O2  UNL     1       0.862  -1.446  -0.878  1.00  0.00    -0.259 OA
BRANCH  10  12
HETATM   12  C10 UNL     1      -1.186  -0.402  -0.276  1.00  0.00     0.043 A 
HETATM   13  C11 UNL     1      -1.904   0.771  -0.216  1.00  0.00     0.057 A 
HETATM   14  C12 UNL     1      -3.194   0.813   0.279  1.00  0.00     0.103 A 
HETATM   15  C14 UNL     1      -3.803  -0.339   0.732  1.00  0.00     0.121 A 
HETATM   16  O4  UNL     1      -4.983  -0.544   1.230  1.00  0.00    -0.316 OA
HETATM   17  C17 UNL     1      -3.095  -1.531   0.680  1.00  0.00     0.036 A 
HETATM   18  C15 UNL     1      -5.093  -1.842   1.516  1.00  0.00     0.179 A 
HETATM   19  C16 UNL     1      -3.944  -2.489   1.190  1.00  0.00     0.138 A 
HETATM   20  C18 UNL     1      -1.802  -1.549   0.179  1.00  0.00     0.034 A 
BRANCH  14  21
HETATM   21  O3  UNL     1      -3.859   2.017   0.312  1.00  0.00    -0.353 OA
HETATM   22  C13 UNL     1      -3.236   3.180  -0.149  1.00  0.00     0.210 C 
ENDBRANCH  14  21
BRANCH  19  23
HETATM   23  N1  UNL     1      -3.619  -3.861   1.320  1.00  0.00    -0.113 N 
HETATM   24  O5  UNL     1      -4.175  -4.559   2.215  1.00  0.00    -0.532 OA
HETATM   25  O6  UNL     1      -2.722  -4.493   0.522  1.00  0.00    -0.532 OA
ENDBRANCH  19  23
ENDBRANCH  10  12
ENDBRANCH   9  10
ENDBRANCH   6   9
ENDBRANCH   5   6
ENDBRANCH   3   4
TORSDOF 7
