REMARK  4 active torsions:
REMARK  status: ('A' for Active; 'I' for Inactive)
REMARK    1  A    between atoms: O1_2  and  C2_3 
REMARK    2  A    between atoms: C2_3  and  O2_4 
REMARK    3  A    between atoms: O2_4  and  C3_5 
REMARK    4  A    between atoms: C3_5  and  O3_6 
ROOT
HETATM    1  C3  UNL     1       1.564  -0.181  -0.747  1.00  0.00     0.344 C 
HETATM    2  O4  UNL     1       0.568   0.173  -1.637  1.00  0.00    -0.167 OA
HETATM    3  O5  UNL     1      -0.526   0.634  -1.213  1.00  0.00    -0.220 OA
HETATM    4  C5  UNL     1      -1.292  -0.111  -0.407  1.00  0.00     0.135 C 
HETATM    5  C6  UNL     1      -1.548   0.538   0.906  1.00  0.00     0.031 C 
HETATM    6  C7  UNL     1      -0.542   0.394   1.959  1.00  0.00     0.011 C 
HETATM    7  C8  UNL     1       0.866   0.384   1.491  1.00  0.00     0.047 C 
HETATM    8  C9  UNL     1       1.125  -0.770   0.528  1.00  0.00     0.145 C 
HETATM    9  C10 UNL     1       2.295  -1.571   1.128  1.00  0.00     0.054 C 
HETATM   10  O6  UNL     1       0.080  -1.663   0.502  1.00  0.00    -0.358 OA
HETATM   11  C11 UNL     1      -0.906  -1.551  -0.383  1.00  0.00     0.097 C 
HETATM   12  C12 UNL     1      -0.750  -2.324  -1.607  1.00  0.00     0.050 C 
HETATM   13  C13 UNL     1      -2.365  -1.759   0.083  1.00  0.00     0.026 C 
HETATM   14  C14 UNL     1      -2.961  -3.099  -0.372  1.00  0.00     0.014 C 
HETATM   15  C15 UNL     1      -2.650  -0.613  -0.844  1.00  0.00     0.033 C 
HETATM   16  C16 UNL     1      -3.638   0.428  -0.488  1.00  0.00     0.009 C 
HETATM   17  C17 UNL     1      -3.065   1.846  -0.434  1.00  0.00     0.005 C 
HETATM   18  C18 UNL     1      -1.902   1.994   0.524  1.00  0.00    -0.012 C 
HETATM   19  C19 UNL     1      -2.460   2.667   1.773  1.00  0.00     0.010 C 
ENDROOT
BRANCH   1  20
HETATM   20  O2  UNL     1       2.285   0.982  -0.622  1.00  0.00    -0.304 OA
BRANCH  20  21
HETATM   21  C2  UNL     1       3.461   1.002   0.012  1.00  0.00     0.343 C 
BRANCH  21  22
HETATM   22  O1  UNL     1       3.927   2.344  -0.049  1.00  0.00    -0.372 OA
HETATM   23  C1  UNL     1       5.157   2.449   0.595  1.00  0.00     0.204 C 
ENDBRANCH  21  22
ENDBRANCH  20  21
ENDBRANCH   1  20
BRANCH   1  24
HETATM   24  O3  UNL     1       2.377  -1.100  -1.445  1.00  0.00    -0.334 OA
HETATM   25  C4  UNL     1       2.716  -0.621  -2.703  1.00  0.00     0.208 C 
ENDBRANCH   1  24
TORSDOF 4
