REMARK  4 active torsions:
REMARK  status: ('A' for Active; 'I' for Inactive)
REMARK    1  A    between atoms: O1_2  and  C2_3 
REMARK    2  A    between atoms: C2_3  and  C3_5 
REMARK    3  A    between atoms: C8_10  and  S1_11 
REMARK    4  A    between atoms: S1_11  and  C9_12 
ROOT
HETATM    1  C3  UNL     1      -0.860  -0.532   1.333  1.00  0.00     0.059 A 
HETATM    2  C4  UNL     1      -2.037  -1.232   1.170  1.00  0.00     0.058 A 
HETATM    3  C5  UNL     1      -2.656  -1.302  -0.037  1.00  0.00     0.101 A 
HETATM    4  C6  UNL     1      -2.093  -0.657  -1.129  1.00  0.00    -0.001 A 
HETATM    5  C7  UNL     1      -0.918   0.038  -0.955  1.00  0.00     0.031 A 
HETATM    6  C8  UNL     1      -0.270   0.126   0.253  1.00  0.00     0.018 A 
HETATM    7  C14 UNL     1      -3.006  -0.932  -2.253  1.00  0.00     0.122 C 
HETATM    8  C15 UNL     1      -3.364   0.286  -3.038  1.00  0.00     0.028 C 
HETATM    9  C16 UNL     1      -4.352   1.009  -2.128  1.00  0.00     0.019 C 
HETATM   10  C17 UNL     1      -4.832  -0.030  -1.144  1.00  0.00     0.122 C 
HETATM   11  N1  UNL     1      -4.249  -1.300  -1.589  1.00  0.00    -0.182 NA
HETATM   12  O5  UNL     1      -3.829  -1.934  -0.445  1.00  0.00    -0.260 OA
ENDROOT
BRANCH   6  13
HETATM   13  S1  UNL     1       1.251   1.021   0.492  1.00  0.00    -0.111 SA
BRANCH  13  14
HETATM   14  C9  UNL     1       2.649  -0.089   0.201  1.00  0.00     0.186 C 
HETATM   15  C10 UNL     1       2.690  -0.494  -1.227  1.00  0.00     0.277 C 
HETATM   16  O3  UNL     1       2.280  -1.439  -1.941  1.00  0.00    -0.264 OA
HETATM   17  O4  UNL     1       3.411   0.651  -1.526  1.00  0.00    -0.308 OA
HETATM   18  C11 UNL     1       3.933   0.575  -0.212  1.00  0.00     0.085 C 
HETATM   19  C12 UNL     1       5.092  -0.391  -0.140  1.00  0.00     0.048 C 
HETATM   20  C13 UNL     1       4.266   1.875   0.432  1.00  0.00     0.048 C 
ENDBRANCH  13  14
ENDBRANCH   6  13
BRANCH   1  21
HETATM   21  C2  UNL     1      -0.258  -0.502   2.655  1.00  0.00     0.294 C 
HETATM   22  O2  UNL     1      -0.818  -1.107   3.592  1.00  0.00    -0.259 OA
BRANCH  21  23
HETATM   23  O1  UNL     1       0.920   0.172   2.935  1.00  0.00    -0.322 OA
HETATM   24  C1  UNL     1       1.523   0.218   4.203  1.00  0.00     0.213 C 
ENDBRANCH  21  23
ENDBRANCH   1  21
TORSDOF 4
