REMARK  6 active torsions:
REMARK  status: ('A' for Active; 'I' for Inactive)
REMARK       I    between atoms: C1_2  and  N1_3 
REMARK    1  A    between atoms: C1_2  and  O2_9 
REMARK    2  A    between atoms: N1_3  and  C2_4 
REMARK    3  A    between atoms: O2_9  and  C7_10 
REMARK    4  A    between atoms: C10_14  and  C11_15 
REMARK    5  A    between atoms: C11_15  and  O4_16 
REMARK    6  A    between atoms: C15_21  and  N2_22 
ROOT
HETATM    1  C7  UNL     1       0.892  -0.427  -0.372  1.00  0.00     0.117 A 
HETATM    2  C8  UNL     1       1.981   0.389  -0.103  1.00  0.00     0.078 A 
HETATM    3  C9  UNL     1       3.291  -0.060  -0.146  1.00  0.00     0.088 A 
HETATM    4  O3  UNL     1       4.457   0.471   0.054  1.00  0.00    -0.312 OA
HETATM    5  C10 UNL     1       5.426  -0.393  -0.116  1.00  0.00     0.078 A 
HETATM    6  C12 UNL     1       4.838  -1.591  -0.456  1.00  0.00     0.049 A 
HETATM    7  C13 UNL     1       3.465  -1.401  -0.481  1.00  0.00     0.003 A 
HETATM    8  C14 UNL     1       2.385  -2.212  -0.748  1.00  0.00     0.053 A 
HETATM    9  C15 UNL     1       1.085  -1.769  -0.706  1.00  0.00     0.137 A 
ENDROOT
BRANCH   1  10
HETATM   10  O2  UNL     1      -0.417   0.014  -0.332  1.00  0.00    -0.248 OA
BRANCH  10  11
HETATM   11  C1  UNL     1      -1.098   0.218   0.936  1.00  0.00     0.440 C 
HETATM   12  O1  UNL     1      -0.312  -0.064   1.886  1.00  0.00    -0.221 OA
HETATM   13  N1  UNL     1      -2.380   0.648   0.940  1.00  0.00    -0.385 NA
BRANCH  13  14
HETATM   14  C2  UNL     1      -3.677   1.083   0.945  1.00  0.00     0.169 C 
HETATM   15  C3  UNL     1      -4.566   0.090   0.161  1.00  0.00     0.039 C 
HETATM   16  C4  UNL     1      -5.762   0.906  -0.249  1.00  0.00     0.003 C 
HETATM   17  C5  UNL     1      -5.312   2.320  -0.388  1.00  0.00     0.003 C 
HETATM   18  C6  UNL     1      -3.892   2.328   0.049  1.00  0.00     0.039 C 
ENDBRANCH  13  14
ENDBRANCH  10  11
ENDBRANCH   1  10
BRANCH   9  19
HETATM   19  N2  UNL     1      -0.025  -2.613  -0.986  1.00  0.00    -0.113 N 
HETATM   20  O5  UNL     1       0.012  -3.859  -0.798  1.00  0.00    -0.532 OA
HETATM   21  O6  UNL     1      -1.173  -2.041  -1.475  1.00  0.00    -0.532 OA
ENDBRANCH   9  19
BRANCH   5  22
HETATM   22  C11 UNL     1       6.909  -0.176   0.018  1.00  0.00     0.229 C 
BRANCH  22  23
HETATM   23  O4  UNL     1       7.322  -0.560   1.290  1.00  0.00    -0.394 OA
ATOM     24  H4  UNL     1       8.258  -0.423   1.375  1.00  0.00     0.209 HD
ENDBRANCH  22  23
ENDBRANCH   5  22
TORSDOF 6
