REMARK  9 active torsions:
REMARK  status: ('A' for Active; 'I' for Inactive)
REMARK    1  A    between atoms: C2_2  and  O1_3 
REMARK    2  A    between atoms: C2_2  and  C15_19 
REMARK    3  A    between atoms: O1_3  and  C3_4 
REMARK    4  A    between atoms: C3_4  and  C4_6 
REMARK    5  A    between atoms: C5_7  and  C6_8 
REMARK    6  A    between atoms: C6_8  and  O4_10 
REMARK    7  A    between atoms: O4_10  and  C7_11 
REMARK    8  A    between atoms: C15_19  and  O5_20 
REMARK    9  A    between atoms: N1_22  and  O6_24 
ROOT
HETATM    1  C4  UNL     1       0.668  -1.062   0.229  1.00  0.00     0.029 C 
HETATM    2  C5  UNL     1      -0.628  -1.001   0.306  1.00  0.00     0.029 C 
HETATM    3  C11 UNL     1      -1.359  -2.347   0.461  1.00  0.00     0.045 C 
HETATM    4  C12 UNL     1      -0.831  -3.186  -0.687  1.00  0.00     0.005 C 
HETATM    5  C13 UNL     1       0.634  -3.456  -0.483  1.00  0.00     0.005 C 
HETATM    6  C14 UNL     1       1.341  -2.397   0.293  1.00  0.00     0.045 C 
ENDROOT
BRANCH   1   7
HETATM    7  C3  UNL     1       1.491   0.099   0.084  1.00  0.00     0.290 C 
HETATM    8  O2  UNL     1       1.212   1.307   0.005  1.00  0.00    -0.260 OA
BRANCH   7   9
HETATM    9  O1  UNL     1       2.913  -0.082   0.009  1.00  0.00    -0.304 OA
BRANCH   9  10
HETATM   10  C2  UNL     1       3.797   1.008  -0.133  1.00  0.00     0.204 C 
HETATM   11  C1  UNL     1       4.540   1.093   1.211  1.00  0.00     0.049 C 
BRANCH  10  12
HETATM   12  C15 UNL     1       4.724   0.871  -1.250  1.00  0.00     0.165 C 
HETATM   13  N1  UNL     1       4.746   1.753  -2.179  1.00  0.00    -0.249 N 
ATOM     14  H1  UNL     1       5.402   1.636  -2.951  1.00  0.00     0.196 HD
BRANCH  12  15
HETATM   15  O5  UNL     1       5.589  -0.196  -1.337  1.00  0.00    -0.346 OA
ATOM     16  H5  UNL     1       6.193  -0.285  -2.065  1.00  0.00     0.219 HD
ENDBRANCH  12  15
BRANCH  13  17
HETATM   17  O6  UNL     1       3.916   2.854  -2.174  1.00  0.00    -0.288 OA
ATOM     18  H6  UNL     1       3.932   3.508  -2.863  1.00  0.00     0.244 HD
ENDBRANCH  13  17
ENDBRANCH  10  12
ENDBRANCH   9  10
ENDBRANCH   7   9
ENDBRANCH   1   7
BRANCH   2  19
HETATM   19  C6  UNL     1      -1.470   0.145   0.268  1.00  0.00     0.290 C 
HETATM   20  O3  UNL     1      -1.115   1.315   0.150  1.00  0.00    -0.260 OA
BRANCH  19  21
HETATM   21  O4  UNL     1      -2.861  -0.001   0.370  1.00  0.00    -0.307 OA
BRANCH  21  22
HETATM   22  C7  UNL     1      -3.721   1.129   0.335  1.00  0.00     0.060 C 
HETATM   23  C8  UNL     1      -3.432   2.104   1.452  1.00  0.00     0.046 C 
HETATM   24  C9  UNL     1      -3.701   1.866  -0.963  1.00  0.00     0.046 C 
HETATM   25  C10 UNL     1      -5.103   0.576   0.590  1.00  0.00     0.046 C 
ENDBRANCH  21  22
ENDBRANCH  19  21
ENDBRANCH   2  19
TORSDOF 9
