REMARK  5 active torsions:
REMARK  status: ('A' for Active; 'I' for Inactive)
REMARK    1  A    between atoms: O1_2  and  C2_3 
REMARK    2  A    between atoms: C2_3  and  C3_5 
REMARK    3  A    between atoms: C4_6  and  N1_7 
REMARK       I    between atoms: N1_7  and  C5_9 
REMARK    4  A    between atoms: C9_16  and  N3_17 
REMARK    5  A    between atoms: N3_17  and  C10_19 
ROOT
HETATM    1  C3  UNL     1       1.346  -0.096  -0.506  1.00  0.00     0.101 A 
HETATM    2  C4  UNL     1       2.328  -1.038  -0.355  1.00  0.00     0.096 A 
HETATM    3  S1  UNL     1       1.744  -2.359  -1.310  1.00  0.00    -0.058 SA
HETATM    4  C7  UNL     1       0.296  -1.675  -1.854  1.00  0.00     0.114 A 
HETATM    5  C8  UNL     1      -0.728  -2.255  -2.731  1.00  0.00     0.109 C 
HETATM    6  N2  UNL     1      -1.518  -2.728  -3.420  1.00  0.00    -0.191 NA
HETATM    7  C9  UNL     1       0.284  -0.432  -1.288  1.00  0.00     0.075 A 
ENDROOT
BRANCH   7   8
HETATM    8  N3  UNL     1      -0.890   0.430  -1.493  1.00  0.00    -0.383 N 
ATOM      9  H3  UNL     1      -0.799   1.246  -2.098  1.00  0.00     0.160 HD
BRANCH   8  10
HETATM   10  C10 UNL     1      -2.147   0.170  -0.880  1.00  0.00     0.082 C 
HETATM   11  C11 UNL     1      -2.102  -0.006   0.615  1.00  0.00     0.025 C 
HETATM   12  C12 UNL     1      -3.400  -0.702   1.015  1.00  0.00     0.002 C 
HETATM   13  C13 UNL     1      -4.533   0.130   0.473  1.00  0.00     0.000 C 
HETATM   14  C14 UNL     1      -4.064   1.501   0.019  1.00  0.00     0.002 C 
HETATM   15  C15 UNL     1      -3.050   1.396  -1.099  1.00  0.00     0.025 C 
ENDBRANCH   8  10
ENDBRANCH   7   8
BRANCH   2  16
HETATM   16  N1  UNL     1       3.557  -1.012   0.392  1.00  0.00    -0.321 N 
HETATM   17  C5  UNL     1       4.360  -2.190   0.323  1.00  0.00     0.218 C 
HETATM   18  C6  UNL     1       5.653  -2.305   1.043  1.00  0.00     0.117 C 
HETATM   19  O3  UNL     1       4.020  -3.208  -0.355  1.00  0.00    -0.274 OA
ATOM     20  H1  UNL     1       3.838  -0.199   0.939  1.00  0.00     0.169 HD
ENDBRANCH   2  16
BRANCH   1  21
HETATM   21  C2  UNL     1       1.470   1.257   0.133  1.00  0.00     0.298 C 
HETATM   22  O2  UNL     1       0.590   2.141  -0.003  1.00  0.00    -0.259 OA
BRANCH  21  23
HETATM   23  O1  UNL     1       2.552   1.606   0.902  1.00  0.00    -0.322 OA
HETATM   24  C1  UNL     1       2.671   2.880   1.504  1.00  0.00     0.213 C 
ENDBRANCH  21  23
ENDBRANCH   1  21
TORSDOF 5
