REMARK  4 active torsions:
REMARK  status: ('A' for Active; 'I' for Inactive)
REMARK    1  A    between atoms: N2_6  and  C4_7 
REMARK    2  A    between atoms: C4_7  and  C5_8 
REMARK    3  A    between atoms: C5_8  and  C6_9 
REMARK    4  A    between atoms: C6_9  and  N3_10 
ROOT
HETATM    1  C5  UNL     1      -0.387  -0.348   0.166  1.00  0.00     0.040 C 
ENDROOT
BRANCH   1   2
HETATM    2  C4  UNL     1       0.787  -1.106   0.737  1.00  0.00     0.130 C 
BRANCH   2   3
HETATM    3  N2  UNL     1       2.032  -0.442   0.404  1.00  0.00    -0.353 N 
HETATM    4  C3  UNL     1       2.702  -0.746  -0.732  1.00  0.00     0.182 A 
HETATM    5  N1  UNL     1       3.856  -0.155  -1.078  1.00  0.00    -0.362 N 
HETATM    6  C2  UNL     1       4.423   0.801  -0.284  1.00  0.00     0.090 A 
ATOM      7  H1  UNL     1       4.317  -0.424  -1.947  1.00  0.00     0.165 HD
HETATM    8  C1  UNL     1       3.732   1.103   0.872  1.00  0.00     0.034 A 
HETATM    9  C9  UNL     1       2.550   0.489   1.213  1.00  0.00     0.093 A 
ENDBRANCH   2   3
ENDBRANCH   1   2
BRANCH   1  10
HETATM   10  C6  UNL     1      -1.700  -0.981   0.473  1.00  0.00     0.132 C 
BRANCH  10  11
HETATM   11  N3  UNL     1      -2.745  -0.170  -0.121  1.00  0.00    -0.337 N 
HETATM   12  C7  UNL     1      -3.280  -0.270  -1.351  1.00  0.00     0.200 A 
HETATM   13  N4  UNL     1      -4.216   0.672  -1.498  1.00  0.00    -0.295 N 
HETATM   14  N5  UNL     1      -4.290   1.375  -0.382  1.00  0.00    -0.295 N 
ATOM     15  H4  UNL     1      -4.780   0.823  -2.334  1.00  0.00     0.187 HD
HETATM   16  C8  UNL     1      -3.396   0.864   0.456  1.00  0.00     0.200 A 
ATOM     17  H5  UNL     1      -4.915   2.160  -0.199  1.00  0.00     0.187 HD
ENDBRANCH  10  11
ENDBRANCH   1  10
TORSDOF 4
