REMARK  4 active torsions:
REMARK  status: ('A' for Active; 'I' for Inactive)
REMARK    1  A    between atoms: N1_4  and  C4_5 
REMARK    2  A    between atoms: C4_5  and  C5_6 
REMARK    3  A    between atoms: C5_6  and  C6_7 
REMARK    4  A    between atoms: C6_7  and  N2_8 
ROOT
HETATM    1  C5  UNL     1      -0.669  -0.336   0.316  1.00  0.00     0.042 C 
ENDROOT
BRANCH   1   2
HETATM    2  C4  UNL     1       0.447  -1.171   0.874  1.00  0.00     0.129 C 
BRANCH   2   3
HETATM    3  N1  UNL     1       1.698  -0.494   0.518  1.00  0.00    -0.366 N 
HETATM    4  C3  UNL     1       2.344  -0.753  -0.617  1.00  0.00     0.090 A 
HETATM    5  C2  UNL     1       3.527  -0.130  -0.980  1.00  0.00     0.017 A 
HETATM    6  C1  UNL     1       4.080   0.803  -0.150  1.00  0.00     0.003 A 
HETATM    7  C9  UNL     1       3.410   1.080   1.038  1.00  0.00     0.017 A 
HETATM    8  C8  UNL     1       2.231   0.426   1.350  1.00  0.00     0.090 A 
ENDBRANCH   2   3
ENDBRANCH   1   2
BRANCH   1   9
HETATM    9  C6  UNL     1      -2.032  -0.902   0.599  1.00  0.00     0.149 C 
BRANCH   9  10
HETATM   10  N2  UNL     1      -3.000   0.022  -0.008  1.00  0.00    -0.269 N 
HETATM   11  C7  UNL     1      -3.494  -0.024  -1.258  1.00  0.00     0.216 A 
HETATM   12  N3  UNL     1      -4.341   1.000  -1.397  1.00  0.00    -0.282 N 
HETATM   13  N4  UNL     1      -4.391   1.678  -0.284  1.00  0.00    -0.225 N 
ATOM     14  H3  UNL     1      -4.867   1.218  -2.243  1.00  0.00     0.189 HD
HETATM   15  N5  UNL     1      -3.569   1.074   0.559  1.00  0.00    -0.004 NA
ATOM     16  H4  UNL     1      -4.953   2.509  -0.100  1.00  0.00     0.205 HD
ENDBRANCH   9  10
ENDBRANCH   1   9
TORSDOF 4
