REMARK  5 active torsions:
REMARK  status: ('A' for Active; 'I' for Inactive)
REMARK    1  A    between atoms: C2_3  and  C3_4 
REMARK    2  A    between atoms: C3_4  and  N2_5 
REMARK    3  A    between atoms: N2_5  and  C4_6 
REMARK       I    between atoms: N2_5  and  C6_10 
REMARK    4  A    between atoms: C4_6  and  C5_7 
REMARK    5  A    between atoms: C6_10  and  C7_12 
ROOT
HETATM    1  N1  UNL     1       3.006   4.037  -1.533  1.00  0.00    -0.197 NA
HETATM    2  C1  UNL     1       2.409   3.309  -0.868  1.00  0.00     0.060 C 
HETATM    3  C2  UNL     1       1.648   2.365  -0.021  1.00  0.00     0.143 C 
ENDROOT
BRANCH   3   4
HETATM    4  C3  UNL     1       1.133   1.283  -0.939  1.00  0.00     0.140 C 
BRANCH   4   5
HETATM    5  N2  UNL     1       0.364   0.287  -0.229  1.00  0.00    -0.343 N 
HETATM    6  C6  UNL     1      -1.034   0.438  -0.070  1.00  0.00     0.224 C 
HETATM    7  O2  UNL     1      -1.585   1.455  -0.559  1.00  0.00    -0.273 OA
BRANCH   5   8
HETATM    8  C4  UNL     1       1.098  -0.849   0.296  1.00  0.00     0.225 C 
BRANCH   8   9
HETATM    9  C5  UNL     1       1.183  -1.960  -0.657  1.00  0.00     0.249 C 
HETATM   10  N3  UNL     1       1.862  -3.134  -0.299  1.00  0.00    -0.061 NA
HETATM   11  O1  UNL     1       0.665  -1.878  -1.775  1.00  0.00    -0.275 OA
ENDBRANCH   8   9
ENDBRANCH   5   8
BRANCH   6  12
HETATM   12  C7  UNL     1      -1.878  -0.552   0.650  1.00  0.00     0.078 A 
HETATM   13  C8  UNL     1      -3.309  -0.721   0.255  1.00  0.00     0.015 A 
HETATM   14  C9  UNL     1      -3.003   0.022   1.484  1.00  0.00     0.015 A 
ENDBRANCH   6  12
ENDBRANCH   4   5
ENDBRANCH   3   4
TORSDOF 5
