REMARK  5 active torsions:
REMARK  status: ('A' for Active; 'I' for Inactive)
REMARK    1  A    between atoms: C2_2  and  C3_3 
REMARK    2  A    between atoms: C3_3  and  N1_4 
REMARK    3  A    between atoms: C4_6  and  C5_7 
REMARK       I    between atoms: C5_7  and  N2_9 
REMARK    4  A    between atoms: N2_9  and  C6_10 
REMARK    5  A    between atoms: C6_10  and  C7_11 
ROOT
HETATM    1  C5  UNL     1       0.956  -0.179   0.499  1.00  0.00     0.330 C 
HETATM    2  O1  UNL     1       1.327   1.013   0.406  1.00  0.00    -0.250 OA
HETATM    3  N2  UNL     1      -0.304  -0.634   0.642  1.00  0.00    -0.380 NA
ENDROOT
BRANCH   1   4
HETATM    4  C4  UNL     1       2.086  -1.157   0.441  1.00  0.00     0.178 C 
HETATM    5  N1  UNL     1       3.291  -0.911   0.308  1.00  0.00    -0.370 N 
ATOM      6  H1  UNL     1       3.854  -1.761   0.299  1.00  0.00     0.164 HD
BRANCH   5   7
HETATM    7  C3  UNL     1       4.075   0.235   0.167  1.00  0.00     0.087 C 
BRANCH   7   8
HETATM    8  C2  UNL     1       4.692   0.599   1.496  1.00  0.00     0.007 C 
HETATM    9  C1  UNL     1       4.450   1.772   2.044  1.00  0.00     0.012 C 
ENDBRANCH   7   8
ENDBRANCH   5   7
ENDBRANCH   1   4
BRANCH   3  10
HETATM   10  C6  UNL     1      -1.600  -1.102   0.789  1.00  0.00     0.191 C 
BRANCH  10  11
HETATM   11  C7  UNL     1      -2.614  -0.788  -0.246  1.00  0.00     0.173 C 
HETATM   12  C8  UNL     1      -2.741   0.685  -0.548  1.00  0.00     0.040 C 
HETATM   13  C9  UNL     1      -3.763   0.586  -1.705  1.00  0.00     0.029 C 
HETATM   14  C10 UNL     1      -3.357  -0.737  -2.302  1.00  0.00     0.168 C 
HETATM   15  O2  UNL     1      -2.321  -1.264  -1.527  1.00  0.00    -0.380 OA
ENDBRANCH  10  11
ENDBRANCH   3  10
TORSDOF 5
