REMARK  5 active torsions:
REMARK  status: ('A' for Active; 'I' for Inactive)
REMARK    1  A    between atoms: C1_2  and  C2_4 
REMARK    2  A    between atoms: C2_4  and  C3_6 
REMARK    3  A    between atoms: C4_7  and  C5_8 
REMARK    4  A    between atoms: C5_8  and  S1_9 
REMARK    5  A    between atoms: S1_9  and  C6_11 
ROOT
HETATM    1  C3  UNL     1       1.631   0.422  -0.659  1.00  0.00     0.059 C 
HETATM    2  C4  UNL     1       1.120   0.032   0.481  1.00  0.00    -0.010 C 
ENDROOT
BRANCH   2   3
HETATM    3  C5  UNL     1      -0.336  -0.164   0.683  1.00  0.00     0.136 C 
BRANCH   3   4
HETATM    4  S1  UNL     1      -1.206   0.272  -0.750  1.00  0.00     0.022 S 
HETATM    5  O4  UNL     1      -0.965   1.873  -1.120  1.00  0.00    -0.257 OA
BRANCH   4   6
HETATM    6  C6  UNL     1      -2.911  -0.103  -0.734  1.00  0.00     0.080 A 
HETATM    7  C7  UNL     1      -3.426  -1.481  -0.576  1.00  0.00     0.019 A 
HETATM    8  C8  UNL     1      -3.509  -0.583   0.593  1.00  0.00     0.019 A 
ENDBRANCH   4   6
ENDBRANCH   3   4
ENDBRANCH   2   3
BRANCH   1   9
HETATM    9  C2  UNL     1       3.023   0.647  -0.969  1.00  0.00     0.247 C 
HETATM   10  O3  UNL     1       3.317   1.030  -2.159  1.00  0.00    -0.281 OA
BRANCH   9  11
HETATM   11  C1  UNL     1       4.135   0.484  -0.069  1.00  0.00     0.251 C 
HETATM   12  O1  UNL     1       4.065   0.119   1.131  1.00  0.00    -0.642 OA
HETATM   13  O2  UNL     1       5.448   0.749  -0.536  1.00  0.00    -0.642 OA
ENDBRANCH   9  11
ENDBRANCH   1   9
TORSDOF 5
