REMARK  8 active torsions:
REMARK  status: ('A' for Active; 'I' for Inactive)
REMARK    1  A    between atoms: N1_1  and  C1_4 
REMARK    2  A    between atoms: C2_7  and  N3_8 
REMARK    3  A    between atoms: N3_8  and  C3_10 
REMARK    4  A    between atoms: C3_10  and  C4_11 
REMARK    5  A    between atoms: C4_11  and  N4_12 
REMARK    6  A    between atoms: C12_23  and  N6_24 
REMARK    7  A    between atoms: N6_24  and  N7_26 
REMARK    8  A    between atoms: C13_28  and  C14_29 
ROOT
HETATM    1  C1  UNL     1       1.166   1.575   1.392  1.00  0.00     0.705 A 
HETATM    2  N2  UNL     1      -0.137   1.690   1.043  1.00  0.00    -0.022 N 
ATOM      3  H2  UNL     1      -0.704   2.418   1.477  1.00  0.00     0.203 HD
HETATM    4  C2  UNL     1      -0.703   0.873   0.142  1.00  0.00     0.707 A 
HETATM    5  N5  UNL     1       0.064  -0.080  -0.417  1.00  0.00    -0.020 N 
ATOM      6  H5  UNL     1      -0.354  -0.709  -1.103  1.00  0.00     0.203 HD
HETATM    7  C12 UNL     1       1.362  -0.233  -0.103  1.00  0.00     0.725 A 
HETATM    8  N9  UNL     1       1.888   0.606   0.803  1.00  0.00    -0.020 N 
ATOM      9  H9  UNL     1       2.871   0.505   1.054  1.00  0.00     0.203 HD
ENDROOT
BRANCH   4  10
HETATM   10  N3  UNL     1      -1.942   1.038  -0.142  1.00  0.00    -0.224 N 
ATOM     11  H3  UNL     1      -2.390   0.426  -0.825  1.00  0.00     0.177 HD
BRANCH  10  12
HETATM   12  C3  UNL     1      -2.698   2.066   0.486  1.00  0.00     0.158 C 
BRANCH  12  13
HETATM   13  C4  UNL     1      -4.092   2.218  -0.064  1.00  0.00     0.153 C 
BRANCH  13  14
HETATM   14  N4  UNL     1      -4.834   0.957   0.118  1.00  0.00    -0.311 N 
HETATM   15  C5  UNL     1      -5.651   0.433   1.144  1.00  0.00     0.260 A 
HETATM   16  O1  UNL     1      -6.080   0.789   2.281  1.00  0.00    -0.267 OA
HETATM   17  C6  UNL     1      -5.835  -0.764   0.345  1.00  0.00     0.059 A 
HETATM   18  C7  UNL     1      -6.407  -2.030   0.207  1.00  0.00     0.019 A 
HETATM   19  C11 UNL     1      -5.040  -0.226  -0.624  1.00  0.00     0.053 A 
HETATM   20  C8  UNL     1      -6.192  -2.785  -0.913  1.00  0.00     0.001 A 
HETATM   21  C9  UNL     1      -5.378  -2.236  -1.907  1.00  0.00     0.002 A 
HETATM   22  C10 UNL     1      -4.814  -0.985  -1.769  1.00  0.00     0.031 A 
ENDBRANCH  13  14
ENDBRANCH  12  13
ENDBRANCH  10  12
ENDBRANCH   4  10
BRANCH   1  23
HETATM   23  N1  UNL     1       1.666   2.393   2.271  1.00  0.00    -0.234 N 
ATOM     24  H12 UNL     1       1.118   3.128   2.718  1.00  0.00     0.174 HD
ATOM     25  H11 UNL     1       2.648   2.306   2.534  1.00  0.00     0.174 HD
ENDBRANCH   1  23
BRANCH   7  26
HETATM   26  N6  UNL     1       2.073  -1.169  -0.667  1.00  0.00    -0.131 N 
ATOM     27  H6  UNL     1       1.643  -1.790  -1.352  1.00  0.00     0.205 HD
BRANCH  26  28
HETATM   28  N7  UNL     1       3.407  -1.323  -0.341  1.00  0.00    -0.297 N 
HETATM   29  C13 UNL     1       4.351  -0.623  -0.899  1.00  0.00     0.120 C 
ATOM     30  H7  UNL     1       3.662  -2.013   0.365  1.00  0.00     0.186 HD
BRANCH  29  31
HETATM   31  C14 UNL     1       5.744  -0.813  -0.531  1.00  0.00    -0.004 A 
HETATM   32  C15 UNL     1       6.162  -1.723   0.411  1.00  0.00     0.015 A 
HETATM   33  C16 UNL     1       7.496  -1.865   0.726  1.00  0.00     0.018 A 
HETATM   34  C17 UNL     1       8.441  -1.071   0.076  1.00  0.00     0.087 A 
HETATM   35  N8  UNL     1       8.028  -0.186  -0.842  1.00  0.00    -0.374 N 
HETATM   36  C18 UNL     1       6.705  -0.045  -1.153  1.00  0.00     0.100 A 
ATOM     37  H8  UNL     1       8.717   0.395  -1.319  1.00  0.00     0.164 HD
ENDBRANCH  29  31
ENDBRANCH  26  28
ENDBRANCH   7  26
TORSDOF 8
