REMARK  7 active torsions:
REMARK  status: ('A' for Active; 'I' for Inactive)
REMARK    1  A    between atoms: C1_2  and  C2_4 
REMARK    2  A    between atoms: C2_4  and  O2_5 
REMARK    3  A    between atoms: N2_9  and  C5_10 
REMARK    4  A    between atoms: C9_20  and  N6_21 
REMARK    5  A    between atoms: N6_21  and  C10_23 
REMARK    6  A    between atoms: C10_23  and  C11_24 
REMARK    7  A    between atoms: C11_24  and  N7_25 
ROOT
HETATM    1  C5  UNL     1       1.668  -0.180  -0.253  1.00  0.00     0.683 A 
HETATM    2  N3  UNL     1       1.591  -1.131   0.691  1.00  0.00    -0.174 N 
ATOM      3  H3  UNL     1       2.463  -1.500   1.070  1.00  0.00     0.186 HD
HETATM    4  C6  UNL     1       0.430  -1.631   1.171  1.00  0.00     0.152 A 
HETATM    5  N4  UNL     1       0.094  -2.561   2.078  1.00  0.00    -0.336 N 
ATOM      6  H4  UNL     1       0.762  -3.105   2.623  1.00  0.00     0.168 HD
HETATM    7  C7  UNL     1      -1.239  -2.679   2.171  1.00  0.00     0.182 A 
HETATM    8  N5  UNL     1      -1.772  -1.803   1.302  1.00  0.00    -0.346 N 
ATOM      9  H5  UNL     1      -2.769  -1.659   1.144  1.00  0.00     0.167 HD
HETATM   10  C8  UNL     1      -0.767  -1.139   0.666  1.00  0.00     0.123 A 
HETATM   11  C9  UNL     1      -0.703  -0.166  -0.299  1.00  0.00     0.147 A 
HETATM   12  N8  UNL     1       0.503   0.293  -0.739  1.00  0.00    -0.174 N 
ATOM     13  H8  UNL     1       0.524   1.016  -1.458  1.00  0.00     0.186 HD
ENDROOT
BRANCH   1  14
HETATM   14  N2  UNL     1       2.868   0.361  -0.739  1.00  0.00    -0.217 N 
HETATM   15  C4  UNL     1       3.340   1.631  -0.286  1.00  0.00     0.145 C 
HETATM   16  C3  UNL     1       4.758   1.891  -0.757  1.00  0.00     0.068 C 
HETATM   17  C2  UNL     1       5.626   0.660  -0.619  1.00  0.00     0.139 C 
HETATM   18  C17 UNL     1       5.006  -0.617  -1.048  1.00  0.00     0.068 C 
HETATM   19  C16 UNL     1       3.666  -0.349  -1.701  1.00  0.00     0.145 C 
BRANCH  17  20
HETATM   20  C1  UNL     1       6.135   0.515   0.766  1.00  0.00     0.265 C 
HETATM   21  N1  UNL     1       7.506   0.698   1.034  1.00  0.00    -0.059 NA
HETATM   22  O1  UNL     1       5.331   0.232   1.684  1.00  0.00    -0.273 OA
ENDBRANCH  17  20
BRANCH  17  23
HETATM   23  O2  UNL     1       6.749   0.902  -1.451  1.00  0.00    -0.380 OA
ATOM     24  H2  UNL     1       6.423   0.995  -2.338  1.00  0.00     0.211 HD
ENDBRANCH  17  23
ENDBRANCH   1  14
BRANCH  11  25
HETATM   25  N6  UNL     1      -1.779   0.339  -0.764  1.00  0.00    -0.372 N 
ATOM     26  H6  UNL     1      -1.662   1.057  -1.479  1.00  0.00     0.161 HD
BRANCH  25  27
HETATM   27  C10 UNL     1      -3.131   0.024  -0.408  1.00  0.00     0.151 C 
BRANCH  27  28
HETATM   28  C11 UNL     1      -4.025   0.736  -1.404  1.00  0.00     0.292 C 
BRANCH  28  29
HETATM   29  N7  UNL     1      -5.421   0.563  -1.186  1.00  0.00     0.090 N 
HETATM   30  C12 UNL     1      -5.895   1.223   0.009  1.00  0.00     0.272 C 
HETATM   31  C13 UNL     1      -7.237   0.569   0.245  1.00  0.00     0.032 C 
HETATM   32  C14 UNL     1      -6.853  -0.905   0.023  1.00  0.00     0.032 C 
HETATM   33  C15 UNL     1      -5.906  -0.775  -1.180  1.00  0.00     0.272 C 
ENDBRANCH  28  29
ENDBRANCH  27  28
ENDBRANCH  25  27
ENDBRANCH  11  25
TORSDOF 7
