REMARK  6 active torsions:
REMARK  status: ('A' for Active; 'I' for Inactive)
REMARK    1  A    between atoms: C3_7  and  C4_8 
REMARK    2  A    between atoms: C4_8  and  N3_9 
REMARK    3  A    between atoms: N3_9  and  C5_11 
REMARK    4  A    between atoms: N4_13  and  C7_14 
REMARK    5  A    between atoms: C10_19  and  C11_20 
REMARK       I    between atoms: C11_20  and  N6_22 
REMARK    6  A    between atoms: C15_26  and  N7_27 
ROOT
HETATM    1  C5  UNL     1       1.445   0.363   1.030  1.00  0.00     0.079 A 
HETATM    2  C6  UNL     1       2.465   1.237   0.625  1.00  0.00     0.142 A 
HETATM    3  N4  UNL     1       1.873   2.206  -0.076  1.00  0.00    -0.296 N 
HETATM    4  N5  UNL     1       0.586   1.976  -0.119  1.00  0.00    -0.291 N 
ATOM      5  H5  UNL     1      -0.086   2.575  -0.598  1.00  0.00     0.187 HD
HETATM    6  C10 UNL     1       0.253   0.839   0.553  1.00  0.00     0.144 A 
ENDROOT
BRANCH   6   7
HETATM    7  C11 UNL     1      -1.084   0.310   0.670  1.00  0.00     0.274 C 
HETATM    8  O1  UNL     1      -1.162  -0.808   1.324  1.00  0.00    -0.266 OA
HETATM    9  N6  UNL     1      -2.261   0.861   0.165  1.00  0.00    -0.345 N 
HETATM   10  C12 UNL     1      -2.380   2.081  -0.553  1.00  0.00     0.126 C 
HETATM   11  C20 UNL     1      -3.533   0.112   0.344  1.00  0.00     0.161 C 
HETATM   12  C13 UNL     1      -2.573   1.753  -2.048  1.00  0.00     0.022 C 
HETATM   13  C14 UNL     1      -3.254   0.389  -2.075  1.00  0.00     0.039 C 
HETATM   14  C15 UNL     1      -4.274   0.329  -0.953  1.00  0.00     0.241 C 
BRANCH  14  15
HETATM   15  N7  UNL     1      -5.222  -0.670  -1.281  1.00  0.00     0.094 N 
HETATM   16  C16 UNL     1      -4.767  -2.002  -1.399  1.00  0.00     0.273 C 
HETATM   17  C17 UNL     1      -5.867  -2.898  -0.848  1.00  0.00     0.032 C 
HETATM   18  C18 UNL     1      -6.445  -2.030   0.245  1.00  0.00     0.032 C 
HETATM   19  C19 UNL     1      -6.302  -0.643  -0.319  1.00  0.00     0.273 C 
ENDBRANCH  14  15
ENDBRANCH   6   7
BRANCH   1  20
HETATM   20  N3  UNL     1       1.667  -0.784   1.810  1.00  0.00    -0.381 N 
ATOM     21  H3  UNL     1       0.870  -1.332   2.132  1.00  0.00     0.160 HD
BRANCH  20  22
HETATM   22  C4  UNL     1       3.029  -1.209   2.171  1.00  0.00     0.179 C 
BRANCH  22  23
HETATM   23  C3  UNL     1       3.787  -1.618   0.963  1.00  0.00     0.051 A 
HETATM   24  N2  UNL     1       3.415  -1.669  -0.325  1.00  0.00    -0.302 N 
HETATM   25  N1  UNL     1       4.375  -2.098  -1.101  1.00  0.00    -0.304 N 
ATOM     26  H2  UNL     1       2.489  -1.403  -0.660  1.00  0.00     0.186 HD
HETATM   27  C2  UNL     1       5.453  -2.355  -0.325  1.00  0.00     0.029 A 
ATOM     28  H1  UNL     1       4.321  -2.218  -2.113  1.00  0.00     0.186 HD
HETATM   29  C1  UNL     1       6.759  -2.857  -0.776  1.00  0.00     0.070 C 
HETATM   30  C21 UNL     1       5.105  -2.060   0.974  1.00  0.00    -0.013 A 
HETATM   31  C22 UNL     1       5.927  -2.166   2.218  1.00  0.00     0.052 C 
ENDBRANCH  22  23
ENDBRANCH  20  22
ENDBRANCH   1  20
BRANCH   3  32
HETATM   32  C7  UNL     1       2.607   3.327  -0.679  1.00  0.00     0.099 C 
HETATM   33  C8  UNL     1       2.144   4.638  -0.094  1.00  0.00     0.034 C 
HETATM   34  C9  UNL     1       2.298   3.347  -2.178  1.00  0.00     0.034 C 
ENDBRANCH   3  32
TORSDOF 6
