REMARK  9 active torsions:
REMARK  status: ('A' for Active; 'I' for Inactive)
REMARK    1  A    between atoms: C2_2  and  O2_4 
REMARK    2  A    between atoms: O2_4  and  C3_5 
REMARK    3  A    between atoms: C10_12  and  N1_13 
REMARK    4  A    between atoms: N1_13  and  C11_16 
REMARK    5  A    between atoms: C11_16  and  C12_17 
REMARK    6  A    between atoms: C12_17  and  C13_18 
REMARK    7  A    between atoms: C13_18  and  O3_19 
REMARK    8  A    between atoms: C21_28  and  O4_29 
REMARK    9  A    between atoms: O4_29  and  C22_30 
ROOT
HETATM    1  C3  UNL     1      -3.159   1.200  -0.249  1.00  0.00     0.161 C 
HETATM    2  C4  UNL     1      -3.028   0.888   1.213  1.00  0.00     0.040 C 
HETATM    3  C5  UNL     1      -1.560   0.626   1.535  1.00  0.00    -0.003 C 
HETATM    4  C6  UNL     1      -0.800   1.904   1.551  1.00  0.00     0.010 C 
HETATM    5  C7  UNL     1       0.310   2.019   0.581  1.00  0.00     0.035 C 
HETATM    6  C8  UNL     1       1.030   0.754   0.317  1.00  0.00    -0.073 C 
HETATM    7  C9  UNL     1       2.173   0.825  -0.343  1.00  0.00     0.009 C 
HETATM    8  C10 UNL     1       3.020  -0.344  -0.691  1.00  0.00     0.209 C 
HETATM    9  C14 UNL     1       2.555  -1.559   0.046  1.00  0.00     0.038 C 
HETATM   10  C15 UNL     1       1.031  -1.617  -0.126  1.00  0.00     0.017 C 
HETATM   11  C16 UNL     1       0.493  -0.523   0.770  1.00  0.00    -0.013 C 
HETATM   12  C17 UNL     1       0.956  -0.857   2.181  1.00  0.00     0.021 C 
HETATM   13  C18 UNL     1      -1.018  -0.451   0.683  1.00  0.00    -0.027 C 
HETATM   14  C19 UNL     1      -1.530  -1.787   1.223  1.00  0.00     0.016 C 
HETATM   15  C20 UNL     1      -1.392  -0.383  -0.769  1.00  0.00     0.045 C 
HETATM   16  C21 UNL     1      -2.864  -0.109  -0.994  1.00  0.00     0.162 C 
ENDROOT
BRANCH   8  17
HETATM   17  N1  UNL     1       4.389   0.015  -0.376  1.00  0.00    -0.068 N 
ATOM     18  H12 UNL     1       4.662   0.880  -0.842  1.00  0.00     0.277 HD
ATOM     19  H11 UNL     1       4.479   0.319   0.593  1.00  0.00     0.277 HD
BRANCH  17  20
HETATM   20  C11 UNL     1       5.313  -1.059  -0.678  1.00  0.00     0.235 C 
BRANCH  20  21
HETATM   21  C12 UNL     1       6.702  -0.580  -0.313  1.00  0.00     0.053 C 
BRANCH  21  22
HETATM   22  C13 UNL     1       7.070   0.656  -1.112  1.00  0.00     0.165 C 
BRANCH  22  23
HETATM   23  O3  UNL     1       8.345   1.077  -0.763  1.00  0.00    -0.401 OA
ATOM     24  H3  UNL     1       8.575   1.851  -1.263  1.00  0.00     0.209 HD
ENDBRANCH  22  23
ENDBRANCH  21  22
ENDBRANCH  20  21
ENDBRANCH  17  20
ENDBRANCH   8  17
BRANCH  16  25
HETATM   25  O4  UNL     1      -3.634  -1.103  -0.349  1.00  0.00    -0.314 OA
BRANCH  25  26
HETATM   26  C22 UNL     1      -4.538  -1.920  -0.965  1.00  0.00     0.255 C 
HETATM   27  C23 UNL     1      -5.327  -2.955  -0.243  1.00  0.00     0.126 C 
HETATM   28  O5  UNL     1      -4.720  -1.799  -2.201  1.00  0.00    -0.266 OA
ENDBRANCH  25  26
ENDBRANCH  16  25
BRANCH   1  29
HETATM   29  O2  UNL     1      -4.434   1.628  -0.611  1.00  0.00    -0.314 OA
BRANCH  29  30
HETATM   30  C2  UNL     1      -4.701   2.811  -1.287  1.00  0.00     0.255 C 
HETATM   31  C1  UNL     1      -6.082   3.222  -1.651  1.00  0.00     0.126 C 
HETATM   32  O1  UNL     1      -3.713   3.531  -1.585  1.00  0.00    -0.266 OA
ENDBRANCH  29  30
ENDBRANCH   1  29
TORSDOF 9
