REMARK  8 active torsions:
REMARK  status: ('A' for Active; 'I' for Inactive)
REMARK    1  A    between atoms: C8_8  and  C9_9 
REMARK    2  A    between atoms: C10_10  and  C11_11 
REMARK    3  A    between atoms: C11_11  and  C12_12 
REMARK    4  A    between atoms: C18_21  and  C19_22 
REMARK    5  A    between atoms: C19_22  and  N1_23 
REMARK    6  A    between atoms: N1_23  and  O4_24 
REMARK    7  A    between atoms: N1_23  and  C20_26 
REMARK    8  A    between atoms: C22_29  and  O6_30 
ROOT
HETATM    1  C1  UNL     1      -2.634  -1.787  -3.017  1.00  0.00     0.017 C 
HETATM    2  C2  UNL     1      -2.254  -2.136  -1.794  1.00  0.00    -0.060 C 
HETATM    3  C3  UNL     1      -1.378  -3.298  -1.597  1.00  0.00     0.036 C 
HETATM    4  C4  UNL     1      -0.318  -3.170  -0.554  1.00  0.00     0.007 C 
HETATM    5  C5  UNL     1       0.976  -2.614  -1.129  1.00  0.00     0.040 C 
HETATM    6  C6  UNL     1       1.487  -1.454  -0.280  1.00  0.00     0.078 A 
HETATM    7  C7  UNL     1       1.454  -1.518   1.185  1.00  0.00     0.051 A 
HETATM    8  C8  UNL     1       2.759  -1.648   0.450  1.00  0.00     0.046 A 
HETATM    9  O1  UNL     1       1.251  -0.219  -0.878  1.00  0.00    -0.307 OA
HETATM   10  C14 UNL     1       0.063   0.352  -1.221  1.00  0.00     0.289 C 
HETATM   11  O2  UNL     1      -0.117   0.763  -2.421  1.00  0.00    -0.262 OA
HETATM   12  C15 UNL     1      -1.098   0.555  -0.297  1.00  0.00     0.229 C 
HETATM   13  O3  UNL     1      -1.191   1.947  -0.099  1.00  0.00    -0.370 OA
HETATM   14  C16 UNL     1      -2.340   2.343  -0.794  1.00  0.00     0.128 C 
HETATM   15  C17 UNL     1      -2.743   3.718  -0.757  1.00  0.00     0.040 C 
HETATM   16  C18 UNL     1      -3.315   1.234  -0.499  1.00  0.00     0.065 C 
HETATM   17  C21 UNL     1      -2.399   0.103  -0.910  1.00  0.00     0.069 C 
HETATM   18  C22 UNL     1      -2.799  -1.273  -0.676  1.00  0.00     0.154 C 
ENDROOT
BRANCH   8  19
HETATM   19  C9  UNL     1       3.709  -0.513   0.634  1.00  0.00    -0.023 C 
HETATM   20  C10 UNL     1       4.902  -0.740   1.159  1.00  0.00    -0.030 C 
BRANCH  20  21
HETATM   21  C11 UNL     1       5.859   0.365   1.351  1.00  0.00     0.026 C 
BRANCH  21  22
HETATM   22  C12 UNL     1       5.266   1.667   0.875  1.00  0.00    -0.001 C 
HETATM   23  C13 UNL     1       6.293   2.787   1.099  1.00  0.00     0.005 C 
ENDBRANCH  21  22
ENDBRANCH  20  21
ENDBRANCH   8  19
BRANCH  18  24
HETATM   24  O6  UNL     1      -4.192  -1.429  -0.805  1.00  0.00    -0.391 OA
ATOM     25  H6  UNL     1      -4.534  -0.887  -0.103  1.00  0.00     0.210 HD
ENDBRANCH  18  24
BRANCH  16  26
HETATM   26  C19 UNL     1      -3.982   1.169   0.777  1.00  0.00     0.106 C 
BRANCH  26  27
HETATM   27  N1  UNL     1      -3.338   1.034   2.014  1.00  0.00    -0.214 N 
BRANCH  27  28
HETATM   28  O4  UNL     1      -3.116  -0.260   2.477  1.00  0.00    -0.281 OA
ATOM     29  H4  UNL     1      -2.679  -0.352   3.316  1.00  0.00     0.245 HD
ENDBRANCH  27  28
BRANCH  27  30
HETATM   30  C20 UNL     1      -2.884   2.020   2.910  1.00  0.00     0.380 C 
HETATM   31  O5  UNL     1      -3.070   3.228   2.662  1.00  0.00    -0.281 OA
ENDBRANCH  27  30
ENDBRANCH  26  27
ENDBRANCH  16  26
TORSDOF 8
