REMARK  8 active torsions:
REMARK  status: ('A' for Active; 'I' for Inactive)
REMARK    1  A    between atoms: C2_2  and  C3_3 
REMARK    2  A    between atoms: C3_3  and  N1_6 
REMARK    3  A    between atoms: N1_6  and  C6_8 
REMARK    4  A    between atoms: C7_9  and  O1_10 
REMARK    5  A    between atoms: C8_12  and  C9_13 
REMARK    6  A    between atoms: N2_14  and  N3_16 
REMARK    7  A    between atoms: N3_16  and  C10_18 
REMARK    8  A    between atoms: C13_24  and  O2_25 
ROOT
HETATM    1  C6  UNL     1      -0.450  -0.654  -0.922  1.00  0.00     0.098 A 
HETATM    2  C7  UNL     1       0.916  -0.307  -0.737  1.00  0.00     0.106 A 
HETATM    3  C8  UNL     1       1.906  -1.199  -0.515  1.00  0.00     0.018 A 
HETATM    4  C11 UNL     1       1.587  -2.561  -0.459  1.00  0.00     0.038 A 
HETATM    5  C12 UNL     1       0.284  -2.930  -0.634  1.00  0.00     0.047 A 
HETATM    6 BR1  UNL     1      -0.131  -4.789  -0.556  1.00  0.00    -0.048 Br
HETATM    7  C13 UNL     1      -0.736  -1.974  -0.865  1.00  0.00     0.114 A 
ENDROOT
BRANCH   3   8
HETATM    8  C9  UNL     1       3.307  -0.792  -0.328  1.00  0.00     0.121 C 
HETATM    9  N2  UNL     1       4.199  -1.675  -0.121  1.00  0.00    -0.309 N 
ATOM     10  H2  UNL     1       3.948  -2.663  -0.084  1.00  0.00     0.186 HD
BRANCH   9  11
HETATM   11  N3  UNL     1       5.528  -1.276   0.055  1.00  0.00    -0.279 N 
ATOM     12  H3  UNL     1       6.250  -1.592  -0.592  1.00  0.00     0.189 HD
BRANCH  11  13
HETATM   13  C10 UNL     1       5.863  -0.428   1.141  1.00  0.00     0.199 C 
HETATM   14  N4  UNL     1       4.861   0.029   2.065  1.00  0.00    -0.068 NA
HETATM   15  S1  UNL     1       7.417   0.022   1.322  1.00  0.00    -0.043 SA
ENDBRANCH  11  13
ENDBRANCH   9  11
ENDBRANCH   3   8
BRANCH   2  16
HETATM   16  O1  UNL     1       1.213   1.030  -0.798  1.00  0.00    -0.357 OA
ATOM     17  H1  UNL     1       2.126   1.262  -0.674  1.00  0.00     0.217 HD
ENDBRANCH   2  16
BRANCH   1  18
HETATM   18  N1  UNL     1      -1.342   0.403  -1.208  1.00  0.00    -0.377 N 
ATOM     19  H1  UNL     1      -1.546   0.527  -2.200  1.00  0.00     0.160 HD
BRANCH  18  20
HETATM   20  C3  UNL     1      -2.001   1.318  -0.356  1.00  0.00     0.023 C 
HETATM   21  C4  UNL     1      -1.241   1.803   0.834  1.00  0.00     0.038 C 
HETATM   22  C5  UNL     1      -3.315   0.741   0.157  1.00  0.00     0.038 C 
BRANCH  20  23
HETATM   23  C2  UNL     1      -2.437   2.506  -1.244  1.00  0.00     0.025 C 
HETATM   24  C1  UNL     1      -3.310   3.450  -0.498  1.00  0.00     0.007 C 
ENDBRANCH  20  23
ENDBRANCH  18  20
ENDBRANCH   1  18
BRANCH   7  25
HETATM   25  O2  UNL     1      -1.988  -2.493  -1.020  1.00  0.00    -0.352 OA
HETATM   26  C14 UNL     1      -2.929  -2.858  -0.074  1.00  0.00     0.210 C 
ENDBRANCH   7  25
TORSDOF 8
