REMARK  8 active torsions:
REMARK  status: ('A' for Active; 'I' for Inactive)
REMARK    1  A    between atoms: C3_3  and  C4_4 
REMARK    2  A    between atoms: C4_4  and  C5_5 
REMARK    3  A    between atoms: C5_5  and  C6_6 
REMARK    4  A    between atoms: C6_6  and  C7_7 
REMARK    5  A    between atoms: C10_13  and  C11_14 
REMARK    6  A    between atoms: C16_19  and  C17_20 
REMARK    7  A    between atoms: C19_24  and  N3_25 
REMARK    8  A    between atoms: C20_28  and  O1_29 
ROOT
HETATM    1  C1  UNL     1      -7.836   1.372   0.640  1.00  0.00     0.012 C 
HETATM    2  C2  UNL     1      -6.945   1.151  -0.138  1.00  0.00    -0.117 C 
HETATM    3  C3  UNL     1      -5.865   0.868  -1.056  1.00  0.00     0.093 C 
ENDROOT
BRANCH   3   4
HETATM    4  C4  UNL     1      -4.556   0.708  -0.218  1.00  0.00     0.012 C 
BRANCH   4   5
HETATM    5  C5  UNL     1      -3.461   0.419  -1.175  1.00  0.00     0.002 C 
BRANCH   5   6
HETATM    6  C6  UNL     1      -2.072   0.260  -0.678  1.00  0.00     0.017 C 
BRANCH   6   7
HETATM    7  C7  UNL     1      -1.860  -0.906   0.231  1.00  0.00     0.015 C 
HETATM    8  C8  UNL     1      -2.623  -0.847   1.527  1.00  0.00     0.023 C 
HETATM    9  C9  UNL     1      -2.701  -2.064  -0.528  1.00  0.00     0.150 C 
HETATM   10  N1  UNL     1      -2.198  -3.114   0.317  1.00  0.00    -0.140 NA
HETATM   11  N2  UNL     1      -0.842  -2.888   0.360  1.00  0.00    -0.306 N 
HETATM   12  C10 UNL     1      -0.576  -1.556   0.313  1.00  0.00     0.048 C 
ATOM     13  H2  UNL     1      -0.133  -3.619   0.419  1.00  0.00     0.182 HD
BRANCH  12  14
HETATM   14  C11 UNL     1       0.869  -1.251   0.305  1.00  0.00     0.063 A 
HETATM   15  C12 UNL     1       1.426  -0.014   0.339  1.00  0.00    -0.032 A 
HETATM   16  C13 UNL     1       0.707   1.201   0.748  1.00  0.00     0.050 C 
HETATM   17  C14 UNL     1       2.809   0.165   0.143  1.00  0.00     0.001 A 
HETATM   18  C15 UNL     1       3.169   1.492   0.172  1.00  0.00     0.027 C 
HETATM   19  C21 UNL     1       3.645  -0.916  -0.083  1.00  0.00     0.081 A 
HETATM   20  C16 UNL     1       4.423   1.994   0.525  1.00  0.00     0.009 C 
HETATM   21  C18 UNL     1       5.627   1.340   0.364  1.00  0.00     0.044 C 
HETATM   22  C19 UNL     1       5.877   0.096  -0.233  1.00  0.00     0.062 C 
HETATM   23  C20 UNL     1       5.021  -0.965  -0.286  1.00  0.00     0.119 C 
HETATM   24  N4  UNL     1       3.104  -2.134  -0.111  1.00  0.00    -0.320 N 
HETATM   25  C22 UNL     1       1.798  -2.285   0.072  1.00  0.00     0.258 A 
ATOM     26  H4  UNL     1       3.694  -2.950  -0.273  1.00  0.00     0.169 HD
HETATM   27  O2  UNL     1       1.368  -3.467   0.030  1.00  0.00    -0.267 OA
BRANCH  20  28
HETATM   28  C17 UNL     1       4.426   3.336   1.110  1.00  0.00     0.386 C 
HETATM   29  F1  UNL     1       4.951   3.255   2.408  1.00  0.00    -0.209 F 
HETATM   30  F2  UNL     1       5.279   4.205   0.432  1.00  0.00    -0.209 F 
ENDBRANCH  20  28
BRANCH  22  31
HETATM   31  N3  UNL     1       7.008  -0.019  -0.761  1.00  0.00    -0.397 N 
ATOM     32  H32 UNL     1       7.648   0.774  -0.721  1.00  0.00     0.156 HD
ATOM     33  H31 UNL     1       7.190  -0.924  -1.195  1.00  0.00     0.156 HD
ENDBRANCH  22  31
BRANCH  23  34
HETATM   34  O1  UNL     1       5.513  -2.215  -0.560  1.00  0.00    -0.356 OA
ATOM     35  H1  UNL     1       4.917  -2.954  -0.597  1.00  0.00     0.218 HD
ENDBRANCH  23  34
ENDBRANCH  12  14
ENDBRANCH   6   7
ENDBRANCH   5   6
ENDBRANCH   4   5
ENDBRANCH   3   4
TORSDOF 8
