REMARK  8 active torsions:
REMARK  status: ('A' for Active; 'I' for Inactive)
REMARK    1  A    between atoms: C2_2  and  C3_3 
REMARK    2  A    between atoms: C5_5  and  C6_6 
REMARK    3  A    between atoms: C6_6  and  N1_7 
REMARK    4  A    between atoms: C14_15  and  O1_16 
REMARK    5  A    between atoms: N2_18  and  C15_19 
REMARK    6  A    between atoms: C15_19  and  C16_20 
REMARK    7  A    between atoms: C16_20  and  O2_21 
REMARK    8  A    between atoms: C17_23  and  O3_24 
ROOT
HETATM    1  N1  UNL     1       0.241  -0.860  -0.599  1.00  0.00    -0.375 N 
HETATM    2  C7  UNL     1      -1.077  -1.168  -1.030  1.00  0.00     0.122 C 
HETATM    3  C8  UNL     1      -1.394  -2.618  -0.704  1.00  0.00     0.030 C 
HETATM    4  C9  UNL     1      -1.050  -3.041   0.674  1.00  0.00     0.003 C 
HETATM    5  C10 UNL     1      -1.308  -2.103   1.783  1.00  0.00     0.011 C 
HETATM    6  C11 UNL     1      -0.804  -0.680   1.588  1.00  0.00     0.046 C 
HETATM    7  C12 UNL     1      -1.947  -0.007   0.900  1.00  0.00     0.012 A 
HETATM    8  C13 UNL     1      -2.098  -0.275  -0.435  1.00  0.00     0.027 A 
HETATM    9  C14 UNL     1      -3.243   0.318  -0.838  1.00  0.00     0.153 A 
HETATM   10  N2  UNL     1      -3.806   0.946   0.231  1.00  0.00    -0.305 N 
HETATM   11  C17 UNL     1      -3.017   0.760   1.290  1.00  0.00     0.151 A 
HETATM   12  C18 UNL     1       0.443  -0.590   0.750  1.00  0.00     0.089 C 
HETATM   13  C19 UNL     1       1.551  -1.423   1.398  1.00  0.00     0.033 C 
ENDROOT
BRANCH   1  14
HETATM   14  C6  UNL     1       1.038  -0.313  -1.618  1.00  0.00     0.101 C 
BRANCH  14  15
HETATM   15  C5  UNL     1       2.463  -0.162  -1.359  1.00  0.00     0.018 A 
HETATM   16  C4  UNL     1       3.047   0.868  -0.702  1.00  0.00     0.026 A 
HETATM   17  C3  UNL     1       4.426   1.020  -0.669  1.00  0.00    -0.019 A 
HETATM   18  C22 UNL     1       5.257   0.128  -1.311  1.00  0.00     0.125 A 
HETATM   19  C21 UNL     1       4.695  -0.930  -1.981  1.00  0.00     0.086 A 
HETATM   20  F2  UNL     1       6.595   0.335  -1.279  1.00  0.00    -0.205 F 
HETATM   21  C20 UNL     1       3.350  -1.056  -1.996  1.00  0.00     0.131 A 
HETATM   22  F1  UNL     1       2.768  -2.106  -2.615  1.00  0.00    -0.205 F 
BRANCH  17  23
HETATM   23  C2  UNL     1       5.019   2.131   0.140  1.00  0.00     0.037 C 
HETATM   24  C1  UNL     1       5.393   1.529   1.498  1.00  0.00     0.010 C 
ENDBRANCH  17  23
ENDBRANCH  14  15
ENDBRANCH   1  14
BRANCH   9  25
HETATM   25  O1  UNL     1      -3.736   0.283  -2.112  1.00  0.00    -0.345 OA
ATOM     26  H1  UNL     1      -4.541   0.700  -2.395  1.00  0.00     0.219 HD
ENDBRANCH   9  25
BRANCH  11  27
HETATM   27  O3  UNL     1      -3.186   1.238   2.596  1.00  0.00    -0.345 OA
ATOM     28  H3  UNL     1      -3.926   1.769   2.866  1.00  0.00     0.219 HD
ENDBRANCH  11  27
BRANCH  10  29
HETATM   29  C15 UNL     1      -5.157   1.430   0.208  1.00  0.00     0.159 C 
BRANCH  29  30
HETATM   30  C16 UNL     1      -5.475   2.663  -0.528  1.00  0.00     0.184 C 
BRANCH  30  31
HETATM   31  O2  UNL     1      -4.939   3.848  -0.083  1.00  0.00    -0.399 OA
ATOM     32  H2  UNL     1      -5.144   4.644  -0.558  1.00  0.00     0.209 HD
ENDBRANCH  30  31
ENDBRANCH  29  30
ENDBRANCH  10  29
TORSDOF 8
