REMARK  8 active torsions:
REMARK  status: ('A' for Active; 'I' for Inactive)
REMARK    1  A    between atoms: O1_2  and  C2_3 
REMARK    2  A    between atoms: C4_5  and  C5_6 
REMARK    3  A    between atoms: N1_7  and  N2_9 
REMARK    4  A    between atoms: N2_9  and  C6_11 
REMARK    5  A    between atoms: C6_11  and  C8_21 
REMARK    6  A    between atoms: N3_12  and  N4_14 
REMARK       I    between atoms: N4_14  and  C7_16 
REMARK    7  A    between atoms: C13_28  and  O2_29 
REMARK    8  A    between atoms: O2_29  and  C14_30 
ROOT
HETATM    1  C5  UNL     1      -1.394  -0.905  -0.536  1.00  0.00     0.119 C 
HETATM    2  N1  UNL     1      -1.902  -2.016  -0.220  1.00  0.00    -0.310 N 
ATOM      3  H1  UNL     1      -1.264  -2.720   0.152  1.00  0.00     0.186 HD
ENDROOT
BRANCH   2   4
HETATM    4  N2  UNL     1      -3.223  -2.377  -0.324  1.00  0.00    -0.286 N 
ATOM      5  H2  UNL     1      -3.441  -3.292  -0.720  1.00  0.00     0.188 HD
BRANCH   4   6
HETATM    6  C6  UNL     1      -4.305  -1.552   0.087  1.00  0.00     0.150 C 
HETATM    7  N3  UNL     1      -4.353  -0.905   1.186  1.00  0.00    -0.283 N 
ATOM      8  H3  UNL     1      -5.175  -0.337   1.391  1.00  0.00     0.188 HD
BRANCH   7   9
HETATM    9  N4  UNL     1      -3.313  -0.951   2.117  1.00  0.00    -0.272 N 
HETATM   10  C7  UNL     1      -2.898   0.120   2.923  1.00  0.00     0.200 C 
HETATM   11  N5  UNL     1      -2.547  -0.058   4.139  1.00  0.00    -0.372 N 
HETATM   12  N6  UNL     1      -2.863   1.427   2.394  1.00  0.00    -0.062 NA
ATOM     13  H52 UNL     1      -2.572  -1.003   4.522  1.00  0.00     0.158 HD
ATOM     14  H51 UNL     1      -2.245   0.721   4.725  1.00  0.00     0.158 HD
ATOM     15  H4  UNL     1      -2.815  -1.835   2.219  1.00  0.00     0.189 HD
ENDBRANCH   7   9
BRANCH   6  16
HETATM   16  C8  UNL     1      -5.465  -1.444  -0.851  1.00  0.00     0.170 C 
HETATM   17  C9  UNL     1      -4.941  -0.874  -2.146  1.00  0.00     0.059 C 
HETATM   18 CL1  UNL     1      -6.085  -3.083  -1.203  1.00  0.00    -0.093 Cl
HETATM   19 CL2  UNL     1      -6.752  -0.437  -0.172  1.00  0.00    -0.093 Cl
ENDBRANCH   6  16
ENDBRANCH   4   6
ENDBRANCH   2   4
BRANCH   1  20
HETATM   20  C4  UNL     1       0.021  -0.628  -0.384  1.00  0.00    -0.011 A 
HETATM   21  C3  UNL     1       0.508   0.640  -0.760  1.00  0.00     0.053 A 
HETATM   22  C2  UNL     1       1.833   0.989  -0.651  1.00  0.00     0.102 A 
HETATM   23  C13 UNL     1       2.779   0.126  -0.166  1.00  0.00     0.103 A 
HETATM   24  C12 UNL     1       2.276  -1.134   0.205  1.00  0.00     0.047 A 
HETATM   25  C10 UNL     1       0.963  -1.496   0.102  1.00  0.00    -0.048 A 
HETATM   26  C11 UNL     1       0.511  -2.869   0.523  1.00  0.00     0.049 C 
BRANCH  22  27
HETATM   27  O1  UNL     1       2.166   2.261  -1.057  1.00  0.00    -0.353 OA
HETATM   28  C1  UNL     1       1.268   3.201  -1.563  1.00  0.00     0.210 C 
ENDBRANCH  22  27
BRANCH  23  29
HETATM   29  O2  UNL     1       4.090   0.407  -0.034  1.00  0.00    -0.344 OA
BRANCH  29  30
HETATM   30  C14 UNL     1       4.938   1.425  -0.256  1.00  0.00     0.121 C 
HETATM   31  C15 UNL     1       5.656   1.931   0.998  1.00  0.00     0.040 C 
HETATM   32  C16 UNL     1       6.019   1.019  -1.286  1.00  0.00     0.040 C 
ENDBRANCH  29  30
ENDBRANCH  23  29
ENDBRANCH   1  20
TORSDOF 8
