REMARK  9 active torsions:
REMARK  status: ('A' for Active; 'I' for Inactive)
REMARK    1  A    between atoms: C2_2  and  C3_3 
REMARK    2  A    between atoms: C3_3  and  N1_4 
REMARK    3  A    between atoms: N1_4  and  C4_6 
REMARK    4  A    between atoms: C4_6  and  O1_7 
REMARK    5  A    between atoms: C4_6  and  C5_9 
REMARK    6  A    between atoms: C6_12  and  S1_13 
REMARK    7  A    between atoms: S1_13  and  C7_14 
REMARK    8  A    between atoms: C8_17  and  N4_18 
REMARK    9  A    between atoms: N6_29  and  C15_30 
ROOT
HETATM    1  C7  UNL     1      -1.608   0.286  -0.411  1.00  0.00     0.161 A 
HETATM    2  N3  UNL     1      -2.154  -0.936  -0.396  1.00  0.00    -0.320 N 
ATOM      3  H3  UNL     1      -1.689  -1.705  -0.879  1.00  0.00     0.169 HD
HETATM    4  C8  UNL     1      -3.317  -1.157   0.255  1.00  0.00     0.150 A 
HETATM    5  C13 UNL     1      -3.944  -0.125   0.906  1.00  0.00     0.228 A 
HETATM    6  F1  UNL     1      -5.107  -0.244   1.585  1.00  0.00    -0.196 F 
HETATM    7  C14 UNL     1      -3.359   1.124   0.875  1.00  0.00     0.296 A 
HETATM    8  O2  UNL     1      -3.906   2.102   1.465  1.00  0.00    -0.264 OA
HETATM    9  N6  UNL     1      -2.222   1.326   0.233  1.00  0.00    -0.263 N 
ENDROOT
BRANCH   1  10
HETATM   10  S1  UNL     1      -0.070   0.449  -1.281  1.00  0.00    -0.035 SA
BRANCH  10  11
HETATM   11  C6  UNL     1       1.331   0.154  -0.227  1.00  0.00     0.080 A 
HETATM   12  N2  UNL     1       2.599   0.237  -0.662  1.00  0.00    -0.348 N 
HETATM   13  C5  UNL     1       3.479  -0.025   0.311  1.00  0.00     0.097 A 
ATOM     14  H2  UNL     1       2.860   0.472  -1.620  1.00  0.00     0.166 HD
HETATM   15  C22 UNL     1       2.743  -0.296   1.442  1.00  0.00     0.146 A 
HETATM   16  C21 UNL     1       1.413  -0.181   1.094  1.00  0.00     0.081 A 
HETATM   17  F2  UNL     1       3.275  -0.607   2.639  1.00  0.00    -0.204 F 
BRANCH  13  18
HETATM   18  C4  UNL     1       4.986  -0.021   0.194  1.00  0.00     0.268 C 
BRANCH  18  19
HETATM   19  N1  UNL     1       5.437  -0.689  -0.959  1.00  0.00    -0.392 N 
ATOM     20  H1  UNL     1       4.836  -1.328  -1.479  1.00  0.00     0.156 HD
BRANCH  19  21
HETATM   21  C3  UNL     1       6.781  -0.425  -1.363  1.00  0.00     0.116 C 
BRANCH  21  22
HETATM   22  C2  UNL     1       7.779  -0.992  -0.402  1.00  0.00     0.015 C 
HETATM   23  C1  UNL     1       7.581  -2.490  -0.286  1.00  0.00     0.006 C 
ENDBRANCH  21  22
ENDBRANCH  19  21
ENDBRANCH  18  19
BRANCH  18  24
HETATM   24  O1  UNL     1       5.537  -0.350   1.399  1.00  0.00    -0.371 OA
ATOM     25  H1  UNL     1       5.232   0.101   2.178  1.00  0.00     0.212 HD
ENDBRANCH  18  24
ENDBRANCH  13  18
ENDBRANCH  10  11
ENDBRANCH   1  10
BRANCH   9  26
HETATM   26  C15 UNL     1      -1.521   2.578   0.117  1.00  0.00    -0.000 C 
HETATM   27  C16 UNL     1      -1.791   3.671   1.033  1.00  0.00     0.053 C 
HETATM   28  C17 UNL     1      -2.665   4.807   0.618  1.00  0.00     0.006 C 
HETATM   29  C18 UNL     1      -1.944   5.437  -0.599  1.00  0.00     0.001 C 
HETATM   30  C19 UNL     1      -2.139   4.329  -1.645  1.00  0.00     0.006 C 
HETATM   31  C20 UNL     1      -1.430   3.073  -1.291  1.00  0.00     0.053 C 
ENDBRANCH   9  26
BRANCH   4  32
HETATM   32  N4  UNL     1      -3.910  -2.448   0.276  1.00  0.00    -0.361 N 
HETATM   33  C9  UNL     1      -4.189  -3.191   1.482  1.00  0.00     0.143 C 
HETATM   34  C10 UNL     1      -4.127  -4.681   1.261  1.00  0.00     0.133 C 
HETATM   35  N5  UNL     1      -4.823  -5.132   0.102  1.00  0.00    -0.418 N 
HETATM   36  C11 UNL     1      -5.304  -4.110  -0.773  1.00  0.00     0.133 C 
ATOM     37  H5  UNL     1      -4.969  -6.123  -0.091  1.00  0.00     0.153 HD
HETATM   38  C12 UNL     1      -4.252  -3.049  -0.995  1.00  0.00     0.143 C 
ENDBRANCH   4  32
TORSDOF 9
