REMARK  11 active torsions:
REMARK  status: ('A' for Active; 'I' for Inactive)
REMARK    1  A    between atoms: O1_2  and  C2_3 
REMARK    2  A    between atoms: C2_3  and  C3_5 
REMARK    3  A    between atoms: C3_5  and  C6_8 
REMARK    4  A    between atoms: C6_8  and  S1_9 
REMARK    5  A    between atoms: S1_9  and  N1_12 
REMARK    6  A    between atoms: N1_12  and  C7_14 
REMARK    7  A    between atoms: C11_18  and  N2_19 
REMARK    8  A    between atoms: N2_19  and  C12_21 
REMARK    9  A    between atoms: C16_27  and  C17_28 
REMARK   10  A    between atoms: C17_28  and  O6_33 
REMARK   11  A    between atoms: N4_29  and  O5_31 
ROOT
HETATM    1  C7  UNL     1      -0.494   1.918  -1.530  1.00  0.00     0.115 C 
HETATM    2  C8  UNL     1      -0.487   3.271  -2.299  1.00  0.00     0.028 C 
HETATM    3  C9  UNL     1       0.317   4.218  -1.432  1.00  0.00     0.004 C 
HETATM    4  C10 UNL     1       0.599   3.438  -0.165  1.00  0.00     0.027 C 
HETATM    5  C11 UNL     1       0.811   2.038  -0.796  1.00  0.00     0.105 C 
ENDROOT
BRANCH   5   6
HETATM    6  N2  UNL     1       1.062   1.063   0.198  1.00  0.00    -0.381 N 
ATOM      7  H2  UNL     1       0.308   0.428   0.461  1.00  0.00     0.160 HD
BRANCH   6   8
HETATM    8  C12 UNL     1       2.296   0.934   0.832  1.00  0.00     0.067 A 
HETATM    9  C13 UNL     1       3.401   1.675   0.492  1.00  0.00     0.119 A 
HETATM   10  N3  UNL     1       4.587   1.512   1.131  1.00  0.00    -0.366 N 
HETATM   11  C14 UNL     1       4.737   0.602   2.141  1.00  0.00     0.021 A 
ATOM     12  H3  UNL     1       5.386   2.082   0.851  1.00  0.00     0.165 HD
HETATM   13  C15 UNL     1       6.056   0.458   2.818  1.00  0.00     0.069 C 
HETATM   14  C16 UNL     1       3.669  -0.167   2.522  1.00  0.00     0.064 A 
HETATM   15  C18 UNL     1       2.482   0.013   1.866  1.00  0.00     0.078 A 
HETATM   16 CL2  UNL     1       1.091  -0.964   2.330  1.00  0.00    -0.081 Cl
BRANCH  14  17
HETATM   17  C17 UNL     1       3.807  -1.148   3.597  1.00  0.00     0.196 C 
HETATM   18  N4  UNL     1       2.744  -1.849   3.911  1.00  0.00    -0.245 N 
ATOM     19  H4  UNL     1       1.872  -1.690   3.406  1.00  0.00     0.196 HD
BRANCH  18  20
HETATM   20  O5  UNL     1       2.783  -2.792   4.907  1.00  0.00    -0.288 OA
ATOM     21  H5  UNL     1       2.013  -3.300   5.134  1.00  0.00     0.244 HD
ENDBRANCH  18  20
BRANCH  17  22
HETATM   22  O6  UNL     1       4.954  -1.396   4.301  1.00  0.00    -0.220 OA
HETATM   23 CL1  UNL     1       5.194  -2.852   5.199  1.00  0.00     0.069 Cl
ENDBRANCH  17  22
ENDBRANCH  14  17
ENDBRANCH   6   8
ENDBRANCH   5   6
BRANCH   1  24
HETATM   24  N1  UNL     1      -1.669   1.910  -0.734  1.00  0.00    -0.313 N 
ATOM     25  H1  UNL     1      -1.860   2.530   0.053  1.00  0.00     0.172 HD
BRANCH  24  26
HETATM   26  S1  UNL     1      -2.735   0.655  -1.333  1.00  0.00     0.228 S 
HETATM   27  O3  UNL     1      -3.054   0.928  -2.787  1.00  0.00    -0.206 OA
HETATM   28  O4  UNL     1      -3.980   0.793  -0.482  1.00  0.00    -0.206 OA
BRANCH  26  29
HETATM   29  C6  UNL     1      -1.954  -0.879  -1.194  1.00  0.00     0.182 C 
BRANCH  29  30
HETATM   30  C3  UNL     1      -2.655  -2.093  -1.654  1.00  0.00     0.055 C 
HETATM   31  C4  UNL     1      -1.670  -3.258  -1.385  1.00  0.00     0.026 C 
HETATM   32  C5  UNL     1      -2.924  -2.150  -3.134  1.00  0.00     0.026 C 
BRANCH  30  33
HETATM   33  C2  UNL     1      -3.919  -2.371  -0.963  1.00  0.00     0.267 C 
HETATM   34  O2  UNL     1      -3.953  -3.344  -0.133  1.00  0.00    -0.264 OA
BRANCH  33  35
HETATM   35  O1  UNL     1      -5.106  -1.689  -1.105  1.00  0.00    -0.326 OA
HETATM   36  C1  UNL     1      -6.288  -2.033  -0.388  1.00  0.00     0.213 C 
ENDBRANCH  33  35
ENDBRANCH  30  33
ENDBRANCH  29  30
ENDBRANCH  26  29
ENDBRANCH  24  26
ENDBRANCH   1  24
TORSDOF 11
