REMARK  11 active torsions:
REMARK  status: ('A' for Active; 'I' for Inactive)
REMARK    1  A    between atoms: C2_2  and  C3_3 
REMARK    2  A    between atoms: C5_8  and  C6_9 
REMARK    3  A    between atoms: N2_11  and  N3_13 
REMARK       I    between atoms: N3_13  and  C8_15 
REMARK    4  A    between atoms: C8_15  and  C9_17 
REMARK    5  A    between atoms: C9_17  and  N4_18 
REMARK    6  A    between atoms: N4_18  and  C10_19 
REMARK    7  A    between atoms: N4_18  and  C12_21 
REMARK    8  A    between atoms: C14_23  and  O2_24 
REMARK    9  A    between atoms: C15_26  and  N5_27 
REMARK   10  A    between atoms: N5_27  and  C16_29 
REMARK   11  A    between atoms: C16_29  and  C17_33 
ROOT
HETATM    1  C3  UNL     1      -4.156   2.751   0.260  1.00  0.00    -0.006 A 
HETATM    2  S1  UNL     1      -2.502   2.356   0.212  1.00  0.00    -0.075 SA
HETATM    3  C4  UNL     1      -2.201   0.717  -0.171  1.00  0.00     0.091 A 
HETATM    4  N1  UNL     1      -0.961   0.211  -0.272  1.00  0.00    -0.346 N 
ATOM      5  H1  UNL     1      -0.173   0.836  -0.100  1.00  0.00     0.167 HD
HETATM    6  C5  UNL     1      -0.693  -1.081  -0.589  1.00  0.00     0.092 A 
HETATM    7  C14 UNL     1      -1.755  -1.894  -0.813  1.00  0.00     0.122 A 
HETATM    8  C15 UNL     1      -3.047  -1.413  -0.718  1.00  0.00     0.086 A 
HETATM    9  C18 UNL     1      -3.298  -0.099  -0.397  1.00  0.00     0.078 A 
HETATM   10  C19 UNL     1      -4.575   0.412  -0.313  1.00  0.00     0.194 A 
HETATM   11  O3  UNL     1      -5.525  -0.414  -0.542  1.00  0.00    -0.287 OA
HETATM   12  C20 UNL     1      -4.973   1.670  -0.023  1.00  0.00     0.002 A 
HETATM   13  C21 UNL     1      -6.450   2.012   0.017  1.00  0.00     0.054 C 
ENDROOT
BRANCH   6  14
HETATM   14  C6  UNL     1       0.706  -1.527  -0.666  1.00  0.00     0.051 C 
HETATM   15  C7  UNL     1       1.024  -2.926  -0.972  1.00  0.00     0.072 C 
HETATM   16  N2  UNL     1       1.645  -0.671  -0.453  1.00  0.00    -0.300 N 
ATOM     17  H2  UNL     1       1.342   0.280  -0.241  1.00  0.00     0.186 HD
BRANCH  16  18
HETATM   18  N3  UNL     1       3.004  -0.878  -0.476  1.00  0.00    -0.268 N 
HETATM   19  C8  UNL     1       3.872  -0.119   0.392  1.00  0.00     0.264 C 
HETATM   20  O1  UNL     1       3.334   0.716   1.142  1.00  0.00    -0.270 OA
ATOM     21  H3  UNL     1       3.401  -1.572  -1.110  1.00  0.00     0.190 HD
BRANCH  19  22
HETATM   22  C9  UNL     1       5.312  -0.356   0.357  1.00  0.00     0.376 C 
BRANCH  22  23
HETATM   23  N4  UNL     1       6.148   0.459   1.174  1.00  0.00     0.096 N 
BRANCH  23  24
HETATM   24  C10 UNL     1       7.423  -0.239   1.450  1.00  0.00     0.268 C 
HETATM   25  C11 UNL     1       8.248  -0.382   0.220  1.00  0.00     0.037 C 
ENDBRANCH  23  24
BRANCH  23  26
HETATM   26  C12 UNL     1       6.607   1.678   0.505  1.00  0.00     0.268 C 
HETATM   27  C13 UNL     1       5.529   2.683   0.274  1.00  0.00     0.037 C 
ENDBRANCH  23  26
ENDBRANCH  22  23
ENDBRANCH  19  22
ENDBRANCH  16  18
ENDBRANCH   6  14
BRANCH   7  28
HETATM   28  O2  UNL     1      -1.549  -3.253  -1.153  1.00  0.00    -0.356 OA
ATOM     29  H2  UNL     1      -2.293  -3.823  -1.310  1.00  0.00     0.218 HD
ENDBRANCH   7  28
BRANCH   8  30
HETATM   30  N5  UNL     1      -4.106  -2.341  -0.959  1.00  0.00    -0.336 N 
ATOM     31  H5  UNL     1      -4.475  -2.367  -1.909  1.00  0.00     0.167 HD
BRANCH  30  32
HETATM   32  C16 UNL     1      -4.695  -3.218  -0.044  1.00  0.00     0.184 C 
HETATM   33  N6  UNL     1      -5.618  -4.018  -0.540  1.00  0.00    -0.382 N 
ATOM     34  H62 UNL     1      -5.801  -3.906  -1.537  1.00  0.00     0.157 HD
ATOM     35  H61 UNL     1      -6.048  -4.658   0.128  1.00  0.00     0.157 HD
BRANCH  32  36
HETATM   36  C17 UNL     1      -4.432  -3.379   1.389  1.00  0.00     0.448 C 
HETATM   37  F1  UNL     1      -5.348  -4.313   1.916  1.00  0.00    -0.163 F 
HETATM   38  F2  UNL     1      -4.615  -2.258   2.157  1.00  0.00    -0.163 F 
HETATM   39  F3  UNL     1      -3.198  -3.980   1.662  1.00  0.00    -0.163 F 
ENDBRANCH  32  36
ENDBRANCH  30  32
ENDBRANCH   8  30
BRANCH   1  40
HETATM   40  C2  UNL     1      -4.671   4.104   0.569  1.00  0.00     0.042 C 
HETATM   41  C1  UNL     1      -5.204   4.118   1.974  1.00  0.00     0.010 C 
ENDBRANCH   1  40
TORSDOF 11
