REMARK  0 active torsions:
REMARK  status: ('A' for Active; 'I' for Inactive)
ROOT
HETATM    1  N1  UNL     1       2.168   0.955   0.019  1.00  0.00    -0.380 N 
ATOM      2  H11 UNL     1       2.984   0.345  -0.037  1.00  0.00     0.157 HD
ATOM      3  H12 UNL     1       2.375   1.950   0.107  1.00  0.00     0.157 HD
HETATM    4  C1  UNL     1       0.959   0.437  -0.024  1.00  0.00     0.179 C 
HETATM    5  N2  UNL     1      -0.169   1.280   0.054  1.00  0.00    -0.248 N 
ATOM      6  H2  UNL     1      -0.184   2.300   0.053  1.00  0.00     0.182 HD
HETATM    7  S1  UNL     1      -1.522   0.206   0.152  1.00  0.00     0.327 S 
HETATM    8  O1  UNL     1      -2.079   0.179   1.548  1.00  0.00    -0.182 OA
HETATM    9  O2  UNL     1      -2.554   0.500  -0.879  1.00  0.00    -0.182 OA
HETATM   10  N3  UNL     1      -0.688  -1.272  -0.172  1.00  0.00    -0.230 N 
ATOM     11  H3  UNL     1      -1.103  -2.187  -0.346  1.00  0.00     0.183 HD
HETATM   12  C2  UNL     1       0.670  -0.955  -0.147  1.00  0.00     0.300 C 
HETATM   13  O3  UNL     1       1.573  -1.860  -0.230  1.00  0.00    -0.263 OA
ENDROOT
TORSDOF 0
