REMARK  1 active torsions:
REMARK  status: ('A' for Active; 'I' for Inactive)
REMARK    1  A    between atoms: N1_1  and  C1_4 
ROOT
HETATM    1  C1  UNL     1      -1.202  -0.651  -0.269  1.00  0.00     0.151 A 
HETATM    2  N2  UNL     1      -0.842   0.557   0.187  1.00  0.00    -0.289 N 
ATOM      3  H2  UNL     1      -1.596   1.207   0.411  1.00  0.00     0.172 HD
HETATM    4  C2  UNL     1       0.395   0.991   0.376  1.00  0.00     0.329 A 
HETATM    5  O1  UNL     1       0.518   2.188   0.823  1.00  0.00    -0.247 OA
HETATM    6  N3  UNL     1       1.533   0.327   0.156  1.00  0.00    -0.269 N 
ATOM      7  H3  UNL     1       2.405   0.816   0.357  1.00  0.00     0.174 HD
HETATM    8  C3  UNL     1       1.625  -0.936  -0.310  1.00  0.00     0.295 A 
HETATM    9  O2  UNL     1       2.731  -1.508  -0.497  1.00  0.00    -0.259 OA
HETATM   10  S1  UNL     1       0.119  -1.669  -0.616  1.00  0.00     0.007 SA
ENDROOT
BRANCH   1  11
HETATM   11  N1  UNL     1      -2.450  -1.002  -0.427  1.00  0.00    -0.379 N 
ATOM     12  H12 UNL     1      -3.241  -0.392  -0.219  1.00  0.00     0.158 HD
ATOM     13  H11 UNL     1      -2.724  -1.921  -0.774  1.00  0.00     0.158 HD
ENDBRANCH   1  11
TORSDOF 1
