REMARK  1 active torsions:
REMARK  status: ('A' for Active; 'I' for Inactive)
REMARK    1  A    between atoms: N1_1  and  C1_4 
ROOT
HETATM    1  C1  UNL     1      -1.005   0.948   0.202  1.00  0.00     0.131 A 
HETATM    2  N2  UNL     1      -1.901   0.281   0.922  1.00  0.00    -0.337 N 
ATOM      3  H2  UNL     1      -2.763   0.737   1.222  1.00  0.00     0.168 HD
HETATM    4  C2  UNL     1      -1.661  -1.003   1.252  1.00  0.00     0.182 A 
HETATM    5  N3  UNL     1      -0.527  -1.653   0.875  1.00  0.00    -0.346 N 
ATOM      6  H3  UNL     1      -0.385  -2.626   1.147  1.00  0.00     0.167 HD
HETATM    7  C3  UNL     1       0.405  -1.020   0.147  1.00  0.00     0.135 A 
HETATM    8  C4  UNL     1       1.625  -1.365  -0.386  1.00  0.00     0.289 A 
HETATM    9  O1  UNL     1       2.200  -2.496  -0.291  1.00  0.00    -0.264 OA
HETATM   10  N4  UNL     1       2.079  -0.277  -1.019  1.00  0.00    -0.264 N 
ATOM     11  H4  UNL     1       2.968  -0.222  -1.516  1.00  0.00     0.190 HD
HETATM   12  N5  UNL     1       1.210   0.721  -0.909  1.00  0.00    -0.292 N 
ATOM     13  H5  UNL     1       1.327   1.653  -1.306  1.00  0.00     0.187 HD
HETATM   14  C5  UNL     1       0.149   0.305  -0.189  1.00  0.00     0.124 A 
ENDROOT
BRANCH   1  15
HETATM   15  N1  UNL     1      -1.187   2.177  -0.140  1.00  0.00    -0.383 N 
ATOM     16  H12 UNL     1      -2.041   2.653   0.149  1.00  0.00     0.157 HD
ATOM     17  H11 UNL     1      -0.499   2.689  -0.693  1.00  0.00     0.157 HD
ENDBRANCH   1  15
TORSDOF 1
