REMARK  7 active torsions:
REMARK  status: ('A' for Active; 'I' for Inactive)
REMARK    1  A    between atoms: C2_2  and  C4_4 
REMARK    2  A    between atoms: C4_4  and  N1_5 
REMARK    3  A    between atoms: C4_4  and  C5_9 
REMARK       I    between atoms: C5_9  and  N2_11 
REMARK    4  A    between atoms: N2_11  and  C6_13 
REMARK    5  A    between atoms: C6_13  and  N3_14 
REMARK    6  A    between atoms: C6_13  and  C7_18 
REMARK       I    between atoms: C7_18  and  N4_20 
REMARK    7  A    between atoms: N4_20  and  C8_22 
ROOT
HETATM    1  C6  UNL     1       1.161  -1.021   0.864  1.00  0.00     0.377 C 
ENDROOT
BRANCH   1   2
HETATM    2  N2  UNL     1      -0.266  -0.934   1.056  1.00  0.00    -0.324 N 
HETATM    3  C5  UNL     1      -0.825   0.347   1.327  1.00  0.00     0.250 C 
HETATM    4  O1  UNL     1      -0.118   1.379   1.400  1.00  0.00    -0.271 OA
ATOM      5  H2  UNL     1      -0.856  -1.764   0.999  1.00  0.00     0.165 HD
BRANCH   3   6
HETATM    6  C4  UNL     1      -2.288   0.449   1.526  1.00  0.00     0.278 C 
BRANCH   6   7
HETATM    7  C2  UNL     1      -2.969  -0.103   0.275  1.00  0.00     0.017 C 
HETATM    8  C1  UNL     1      -4.469  -0.058   0.453  1.00  0.00     0.012 C 
HETATM    9  C3  UNL     1      -2.518   0.760  -0.885  1.00  0.00     0.012 C 
ENDBRANCH   6   7
BRANCH   6  10
HETATM   10  N1  UNL     1      -2.666   1.804   1.785  1.00  0.00    -0.066 N 
ATOM     11  H13 UNL     1      -2.492   2.399   0.975  1.00  0.00     0.275 HD
ATOM     12  H12 UNL     1      -3.680   1.902   1.841  1.00  0.00     0.275 HD
ATOM     13  H11 UNL     1      -2.211   2.173   2.620  1.00  0.00     0.275 HD
ENDBRANCH   6  10
ENDBRANCH   3   6
ENDBRANCH   1   2
BRANCH   1  14
HETATM   14  N3  UNL     1       1.743  -1.854   1.903  1.00  0.00    -0.049 N 
ATOM     15  H33 UNL     1       1.500  -1.528   2.838  1.00  0.00     0.277 HD
ATOM     16  H32 UNL     1       1.304  -2.774   1.949  1.00  0.00     0.277 HD
ATOM     17  H31 UNL     1       2.752  -1.916   1.767  1.00  0.00     0.277 HD
ENDBRANCH   1  14
BRANCH   1  18
HETATM   18  C7  UNL     1       1.442  -1.515  -0.485  1.00  0.00     0.286 C 
HETATM   19  O2  UNL     1       0.505  -1.788  -1.267  1.00  0.00    -0.268 OA
HETATM   20  N4  UNL     1       2.811  -1.680  -0.894  1.00  0.00    -0.156 N 
ATOM     21  H4  UNL     1       3.292  -2.575  -0.803  1.00  0.00     0.187 HD
BRANCH  20  22
HETATM   22  C8  UNL     1       3.399  -0.644  -1.381  1.00  0.00     0.684 A 
HETATM   23  N5  UNL     1       4.687  -0.627  -1.814  1.00  0.00    -0.200 N 
HETATM   24  C9  UNL     1       4.952   0.613  -2.252  1.00  0.00     0.123 A 
ATOM     25  H5  UNL     1       5.335  -1.415  -1.807  1.00  0.00     0.183 HD
HETATM   26  C10 UNL     1       3.829   1.363  -2.090  1.00  0.00     0.123 A 
HETATM   27  N6  UNL     1       2.894   0.589  -1.561  1.00  0.00    -0.200 N 
ATOM     28  H6  UNL     1       1.945   0.881  -1.328  1.00  0.00     0.183 HD
ENDBRANCH  20  22
ENDBRANCH   1  18
TORSDOF 7
