REMARK  17 active torsions:
REMARK  status: ('A' for Active; 'I' for Inactive)
REMARK    1  A    between atoms: O1_2  and  C2_3 
REMARK    2  A    between atoms: C2_3  and  C3_5 
REMARK    3  A    between atoms: C3_5  and  C5_7 
REMARK    4  A    between atoms: C5_7  and  C6_8 
REMARK    5  A    between atoms: C6_8  and  C7_10 
REMARK    6  A    between atoms: C10_13  and  C11_14 
REMARK    7  A    between atoms: C11_14  and  C12_15 
REMARK    8  A    between atoms: C12_15  and  C14_17 
REMARK    9  A    between atoms: C15_18  and  C17_20 
REMARK   10  A    between atoms: C17_20  and  C18_21 
REMARK   11  A    between atoms: C22_25  and  C23_26 
REMARK   12  A    between atoms: C23_26  and  C26_29 
REMARK   13  A    between atoms: C26_29  and  O4_30 
REMARK   14  A    between atoms: C27_33  and  O6_34 
REMARK   15  A    between atoms: O6_34  and  C28_35 
REMARK   16  A    between atoms: C30_38  and  C31_39 
REMARK   17  A    between atoms: C34_42  and  O8_43 
ROOT
HETATM    1  C7  UNL     1      -3.671  -1.107  -0.792  1.00  0.00     0.050 A 
HETATM    2  C8  UNL     1      -2.326  -1.282  -0.980  1.00  0.00    -0.032 A 
HETATM    3  C9  UNL     1      -1.868  -2.351  -1.912  1.00  0.00     0.050 C 
HETATM    4  C10 UNL     1      -1.431  -0.355  -0.421  1.00  0.00     0.006 A 
HETATM    5  C27 UNL     1      -1.932   0.728   0.301  1.00  0.00     0.099 A 
HETATM    6  C30 UNL     1      -3.303   0.942   0.505  1.00  0.00     0.014 A 
HETATM    7  C34 UNL     1      -4.167   0.008  -0.050  1.00  0.00     0.089 A 
ENDROOT
BRANCH   4   8
HETATM    8  C11 UNL     1       0.001  -0.563  -0.615  1.00  0.00     0.021 C 
BRANCH   8   9
HETATM    9  C12 UNL     1       0.820  -1.475   0.173  1.00  0.00    -0.061 C 
HETATM   10  C13 UNL     1       0.455  -2.929   0.285  1.00  0.00     0.048 C 
BRANCH   9  11
HETATM   11  C14 UNL     1       1.383  -1.070   1.458  1.00  0.00     0.009 C 
HETATM   12  C15 UNL     1       2.574  -0.632   1.776  1.00  0.00    -0.080 C 
HETATM   13  C16 UNL     1       2.836  -0.294   3.213  1.00  0.00     0.043 C 
BRANCH  12  14
HETATM   14  C17 UNL     1       3.681  -0.477   0.850  1.00  0.00     0.071 C 
BRANCH  14  15
HETATM   15  C18 UNL     1       4.278   0.885   0.679  1.00  0.00     0.061 C 
HETATM   16  C19 UNL     1       3.222   1.890   0.195  1.00  0.00     0.046 C 
HETATM   17  C20 UNL     1       5.108   1.407   1.780  1.00  0.00     0.040 C 
HETATM   18  C21 UNL     1       6.503   1.574   1.179  1.00  0.00     0.036 C 
HETATM   19  C22 UNL     1       6.416   0.507   0.097  1.00  0.00     0.132 C 
HETATM   20  O5  UNL     1       5.170   0.819  -0.441  1.00  0.00    -0.374 OA
BRANCH  19  21
HETATM   21  C23 UNL     1       7.481   0.599  -0.933  1.00  0.00    -0.000 C 
HETATM   22  C24 UNL     1       7.290  -0.527  -1.949  1.00  0.00     0.020 C 
HETATM   23  C25 UNL     1       7.475   1.876  -1.722  1.00  0.00     0.020 C 
BRANCH  21  24
HETATM   24  C26 UNL     1       8.844   0.398  -0.271  1.00  0.00     0.175 C 
BRANCH  24  25
HETATM   25  O4  UNL     1       9.828   0.491  -1.271  1.00  0.00    -0.400 OA
ATOM     26  H4  UNL     1      10.675   0.366  -0.860  1.00  0.00     0.209 HD
ENDBRANCH  24  25
ENDBRANCH  21  24
ENDBRANCH  19  21
ENDBRANCH  14  15
ENDBRANCH  12  14
ENDBRANCH   9  11
ENDBRANCH   8   9
ENDBRANCH   4   8
BRANCH   5  27
HETATM   27  O6  UNL     1      -1.108   1.684   0.875  1.00  0.00    -0.278 OA
BRANCH  27  28
HETATM   28  C28 UNL     1      -0.795   1.702   2.203  1.00  0.00     0.260 C 
HETATM   29  C29 UNL     1       0.095   2.756   2.804  1.00  0.00     0.126 C 
HETATM   30  O7  UNL     1      -1.221   0.846   3.034  1.00  0.00    -0.265 OA
ENDBRANCH  27  28
ENDBRANCH   5  27
BRANCH   1  31
HETATM   31  C6  UNL     1      -4.636  -2.084  -1.297  1.00  0.00     0.163 C 
HETATM   32  O3  UNL     1      -4.163  -3.070  -1.961  1.00  0.00    -0.292 OA
BRANCH  31  33
HETATM   33  C5  UNL     1      -6.088  -2.095  -1.149  1.00  0.00     0.098 C 
BRANCH  33  34
HETATM   34  C3  UNL     1      -6.861  -1.410  -2.236  1.00  0.00     0.088 C 
HETATM   35  C4  UNL     1      -6.651  -2.208  -3.531  1.00  0.00     0.021 C 
BRANCH  34  36
HETATM   36  C2  UNL     1      -8.312  -1.551  -1.874  1.00  0.00     0.262 C 
HETATM   37  O2  UNL     1      -9.127  -2.179  -2.606  1.00  0.00    -0.265 OA
BRANCH  36  38
HETATM   38  O1  UNL     1      -8.813  -0.991  -0.713  1.00  0.00    -0.326 OA
HETATM   39  C1  UNL     1     -10.155  -1.084  -0.308  1.00  0.00     0.213 C 
ENDBRANCH  36  38
ENDBRANCH  34  36
ENDBRANCH  33  34
ENDBRANCH  31  33
ENDBRANCH   1  31
BRANCH   6  40
HETATM   40  C31 UNL     1      -3.775   2.165   1.180  1.00  0.00     0.016 C 
HETATM   41  C32 UNL     1      -5.158   2.156   1.730  1.00  0.00     0.015 C 
HETATM   42  C33 UNL     1      -3.758   3.346   0.177  1.00  0.00     0.015 C 
ENDBRANCH   6  40
BRANCH   7  43
HETATM   43  O8  UNL     1      -5.461   0.127   0.091  1.00  0.00    -0.359 OA
ATOM     44  H8  UNL     1      -5.791   0.869   0.585  1.00  0.00     0.217 HD
ENDBRANCH   7  43
TORSDOF 17
