REMARK  16 active torsions:
REMARK  status: ('A' for Active; 'I' for Inactive)
REMARK    1  A    between atoms: C5_5  and  C6_6 
REMARK    2  A    between atoms: C6_6  and  S1_9 
REMARK    3  A    between atoms: S1_9  and  C9_10 
REMARK    4  A    between atoms: C9_10  and  C10_11 
REMARK    5  A    between atoms: C10_11  and  C11_12 
REMARK    6  A    between atoms: C10_11  and  C19_26 
REMARK    7  A    between atoms: C11_12  and  C12_13 
REMARK    8  A    between atoms: C12_13  and  O2_15 
REMARK    9  A    between atoms: O2_15  and  C13_16 
REMARK   10  A    between atoms: C13_16  and  C14_17 
REMARK   11  A    between atoms: C18_23  and  O5_24 
REMARK   12  A    between atoms: C19_26  and  C21_28 
REMARK   13  A    between atoms: C21_28  and  C22_29 
REMARK   14  A    between atoms: C23_30  and  C25_32 
REMARK   15  A    between atoms: C26_33  and  C27_34 
REMARK   16  A    between atoms: C29_37  and  O7_38 
ROOT
HETATM    1  C10 UNL     1      -0.016   0.165   0.674  1.00  0.00     0.008 C 
ENDROOT
BRANCH   1   2
HETATM    2  C9  UNL     1      -0.681  -0.860   1.629  1.00  0.00     0.080 C 
BRANCH   2   3
HETATM    3  S1  UNL     1      -2.072  -1.730   1.065  1.00  0.00    -0.159 SA
BRANCH   3   4
HETATM    4  C6  UNL     1      -3.604  -0.815   1.223  1.00  0.00     0.004 C 
HETATM    5  C7  UNL     1      -3.947  -0.877   2.751  1.00  0.00     0.027 C 
HETATM    6  C8  UNL     1      -3.467   0.614   0.828  1.00  0.00     0.027 C 
BRANCH   4   7
HETATM    7  C5  UNL     1      -4.777  -1.517   0.575  1.00  0.00     0.004 C 
HETATM    8  C4  UNL     1      -4.696  -1.598  -0.916  1.00  0.00     0.010 C 
HETATM    9  C3  UNL     1      -5.790  -2.578  -1.363  1.00  0.00     0.034 C 
HETATM   10  C2  UNL     1      -6.756  -2.835  -0.252  1.00  0.00    -0.085 C 
HETATM   11  C1  UNL     1      -7.144  -4.062   0.085  1.00  0.00     0.014 C 
HETATM   12  C32 UNL     1      -7.271  -1.639   0.470  1.00  0.00     0.010 C 
HETATM   13  C31 UNL     1      -6.070  -0.884   1.041  1.00  0.00     0.014 C 
HETATM   14  C33 UNL     1      -8.094  -0.759  -0.458  1.00  0.00     0.015 C 
ENDBRANCH   4   7
ENDBRANCH   3   4
ENDBRANCH   2   3
ENDBRANCH   1   2
BRANCH   1  15
HETATM   15  C11 UNL     1       1.048   0.799   1.498  1.00  0.00     0.116 C 
BRANCH  15  16
HETATM   16  C12 UNL     1       1.760   1.939   0.880  1.00  0.00     0.259 C 
HETATM   17  O1  UNL     1       2.889   2.251   1.316  1.00  0.00    -0.265 OA
BRANCH  16  18
HETATM   18  O2  UNL     1       1.230   2.662  -0.141  1.00  0.00    -0.318 OA
BRANCH  18  19
HETATM   19  C13 UNL     1       1.738   3.758  -0.828  1.00  0.00     0.219 C 
BRANCH  19  20
HETATM   20  C14 UNL     1       1.947   5.017  -0.063  1.00  0.00     0.115 C 
HETATM   21  C15 UNL     1       0.623   5.604   0.435  1.00  0.00     0.052 C 
HETATM   22  O3  UNL     1       2.838   4.985   0.996  1.00  0.00    -0.305 OA
HETATM   23  C16 UNL     1       3.810   5.939   0.927  1.00  0.00     0.262 C 
HETATM   24  O4  UNL     1       4.898   6.015   1.578  1.00  0.00    -0.265 OA
HETATM   25  C17 UNL     1       3.409   6.953  -0.080  1.00  0.00     0.146 C 
HETATM   26  C18 UNL     1       2.505   6.113  -0.989  1.00  0.00     0.164 C 
BRANCH  26  27
HETATM   27  O5  UNL     1       3.314   5.482  -1.903  1.00  0.00    -0.392 OA
ATOM     28  H5  UNL     1       3.658   6.158  -2.474  1.00  0.00     0.210 HD
ENDBRANCH  26  27
ENDBRANCH  19  20
ENDBRANCH  18  19
ENDBRANCH  16  18
ENDBRANCH  15  16
ENDBRANCH   1  15
BRANCH   1  29
HETATM   29  C19 UNL     1       0.389  -0.629  -0.500  1.00  0.00    -0.010 C 
HETATM   30  C20 UNL     1      -0.725  -1.244  -1.311  1.00  0.00     0.010 C 
BRANCH  29  31
HETATM   31  C21 UNL     1       1.607  -0.516  -1.290  1.00  0.00     0.032 C 
BRANCH  31  32
HETATM   32  C22 UNL     1       2.880  -0.844  -0.622  1.00  0.00    -0.020 C 
HETATM   33  C23 UNL     1       3.667  -1.885  -1.042  1.00  0.00    -0.066 C 
HETATM   34  C24 UNL     1       3.315  -2.749  -2.169  1.00  0.00     0.048 C 
BRANCH  33  35
HETATM   35  C25 UNL     1       4.901  -2.119  -0.321  1.00  0.00     0.007 C 
HETATM   36  C26 UNL     1       5.733  -3.069  -0.630  1.00  0.00     0.014 C 
BRANCH  36  37
HETATM   37  C27 UNL     1       6.963  -3.232   0.161  1.00  0.00    -0.009 A 
HETATM   38  C28 UNL     1       7.369  -2.472   1.236  1.00  0.00     0.156 A 
HETATM   39  O6  UNL     1       8.503  -2.945   1.645  1.00  0.00    -0.300 OA
HETATM   40  C29 UNL     1       8.883  -3.964   0.921  1.00  0.00     0.183 A 
HETATM   41  C30 UNL     1       7.928  -4.187  -0.044  1.00  0.00     0.077 A 
BRANCH  40  42
HETATM   42  O7  UNL     1      10.049  -4.726   1.065  1.00  0.00    -0.341 OA
ATOM     43  H7  UNL     1      10.325  -5.467   0.539  1.00  0.00     0.220 HD
ENDBRANCH  40  42
ENDBRANCH  36  37
ENDBRANCH  33  35
ENDBRANCH  31  32
ENDBRANCH  29  31
ENDBRANCH   1  29
TORSDOF 16
