REMARK  5 active torsions:
REMARK  status: ('A' for Active; 'I' for Inactive)
REMARK    1  A    between atoms: C5_5  and  C6_6 
REMARK    2  A    between atoms: C6_6  and  O1_7 
REMARK    3  A    between atoms: C10_13  and  O3_14 
REMARK    4  A    between atoms: C10_13  and  C11_16 
REMARK    5  A    between atoms: C11_16  and  O4_17 
ROOT
HETATM    1  C1  UNL     1       0.435  -1.631  -1.047  1.00  0.00     0.047 C 
HETATM    2  C2  UNL     1       0.339  -0.812   0.221  1.00  0.00     0.069 C 
HETATM    3  C3  UNL     1      -0.621  -1.472   1.139  1.00  0.00     0.039 C 
HETATM    4  C4  UNL     1      -1.985  -0.912   1.181  1.00  0.00     0.010 C 
HETATM    5  C5  UNL     1      -2.466  -0.210  -0.025  1.00  0.00     0.010 C 
HETATM    6  C7  UNL     1      -1.420   0.444  -0.859  1.00  0.00     0.016 C 
HETATM    7  C8  UNL     1      -0.172   0.598  -0.058  1.00  0.00     0.044 C 
HETATM    8  C9  UNL     1       0.894   1.413  -0.705  1.00  0.00     0.181 C 
HETATM    9  O2  UNL     1       2.066   0.770  -0.951  1.00  0.00    -0.331 OA
HETATM   10  C10 UNL     1       2.522  -0.079   0.007  1.00  0.00     0.303 C 
HETATM   11  O5  UNL     1       1.584  -0.643   0.821  1.00  0.00    -0.320 OA
ENDROOT
BRANCH  10  12
HETATM   12  O3  UNL     1       3.188  -1.138  -0.657  1.00  0.00    -0.342 OA
ATOM     13  H3  UNL     1       3.507  -1.732   0.013  1.00  0.00     0.215 HD
ENDBRANCH  10  12
BRANCH  10  14
HETATM   14  C11 UNL     1       3.571   0.582   0.910  1.00  0.00     0.266 C 
BRANCH  14  15
HETATM   15  O4  UNL     1       4.672   1.005   0.185  1.00  0.00    -0.393 OA
ATOM     16  H4  UNL     1       5.322   1.414   0.744  1.00  0.00     0.209 HD
ENDBRANCH  14  15
ENDBRANCH  10  14
BRANCH   5  17
HETATM   17  C6  UNL     1      -3.446   0.885   0.405  1.00  0.00     0.168 C 
BRANCH  17  18
HETATM   18  O1  UNL     1      -3.891   1.534  -0.719  1.00  0.00    -0.400 OA
ATOM     19  H1  UNL     1      -4.499   2.213  -0.452  1.00  0.00     0.209 HD
ENDBRANCH  17  18
ENDBRANCH   5  17
TORSDOF 5
