REMARK  4 active torsions:
REMARK  status: ('A' for Active; 'I' for Inactive)
REMARK    1  A    between atoms: O1_2  and  C2_3 
REMARK    2  A    between atoms: C5_6  and  S1_7 
REMARK    3  A    between atoms: S1_7  and  C6_8 
REMARK    4  A    between atoms: C7_13  and  O2_14 
ROOT
HETATM    1  C2  UNL     1      -1.995  -0.094   0.040  1.00  0.00     0.152 C 
HETATM    2  C3  UNL     1      -1.127   1.051  -0.437  1.00  0.00     0.036 C 
HETATM    3  C4  UNL     1       0.297   0.935  -0.057  1.00  0.00     0.021 C 
HETATM    4  C5  UNL     1       1.163   0.002  -0.787  1.00  0.00     0.086 C 
HETATM    5  C7  UNL     1       0.473  -1.126  -1.519  1.00  0.00     0.164 C 
HETATM    6  C8  UNL     1      -0.464  -1.774  -0.592  1.00  0.00     0.183 A 
HETATM    7  O3  UNL     1      -1.588  -2.454  -0.833  1.00  0.00    -0.370 OA
HETATM    8  C9  UNL     1      -1.826  -1.162  -0.969  1.00  0.00     0.182 A 
ENDROOT
BRANCH   4   9
HETATM    9  S1  UNL     1       2.282  -0.794   0.414  1.00  0.00    -0.090 SA
BRANCH   9  10
HETATM   10  C6  UNL     1       3.409   0.393   1.119  1.00  0.00     0.148 C 
HETATM   11  N1  UNL     1       4.285   0.042   1.990  1.00  0.00    -0.382 N 
ATOM     12  H12 UNL     1       4.357  -0.927   2.300  1.00  0.00     0.157 HD
ATOM     13  H11 UNL     1       4.930   0.721   2.393  1.00  0.00     0.157 HD
HETATM   14  N2  UNL     1       3.309   1.739   0.689  1.00  0.00    -0.075 NA
ENDBRANCH   9  10
ENDBRANCH   4   9
BRANCH   5  15
HETATM   15  O2  UNL     1       1.480  -2.041  -1.856  1.00  0.00    -0.392 OA
ATOM     16  H2  UNL     1       1.046  -2.750  -2.316  1.00  0.00     0.210 HD
ENDBRANCH   5  15
BRANCH   1  17
HETATM   17  O1  UNL     1      -3.310   0.225   0.184  1.00  0.00    -0.388 OA
HETATM   18  C1  UNL     1      -3.797   0.148   1.476  1.00  0.00     0.202 C 
ENDBRANCH   1  17
TORSDOF 4
