REMARK  5 active torsions:
REMARK  status: ('A' for Active; 'I' for Inactive)
REMARK    1  A    between atoms: C3_3  and  C4_4 
REMARK    2  A    between atoms: C4_4  and  O1_5 
REMARK    3  A    between atoms: C5_7  and  O2_8 
REMARK    4  A    between atoms: C9_14  and  O4_15 
REMARK    5  A    between atoms: C9_14  and  N1_17 
ROOT
HETATM    1  C1  UNL     1       0.001  -2.087   1.264  1.00  0.00     0.019 C 
HETATM    2  C2  UNL     1       0.022  -0.678   0.770  1.00  0.00     0.093 C 
HETATM    3  C3  UNL     1      -1.110  -0.242  -0.058  1.00  0.00     0.043 C 
HETATM    4  C5  UNL     1      -1.967   0.863   0.422  1.00  0.00     0.132 C 
HETATM    5  C6  UNL     1      -2.455   1.458  -0.912  1.00  0.00     0.035 C 
HETATM    6  C7  UNL     1      -1.377   1.077  -1.943  1.00  0.00     0.035 C 
HETATM    7  C8  UNL     1      -0.320   0.589  -1.097  1.00  0.00     0.141 C 
HETATM    8  O3  UNL     1       0.593  -0.307  -1.478  1.00  0.00    -0.324 OA
HETATM    9  C9  UNL     1       1.196  -0.583  -0.222  1.00  0.00     0.374 C 
ENDROOT
BRANCH   9  10
HETATM   10  O4  UNL     1       1.959  -1.709  -0.239  1.00  0.00    -0.341 OA
ATOM     11  H4  UNL     1       2.683  -1.650  -0.851  1.00  0.00     0.215 HD
ENDBRANCH   9  10
BRANCH   9  12
HETATM   12  N1  UNL     1       1.963   0.593   0.141  1.00  0.00     0.143 N 
HETATM   13  C10 UNL     1       3.090   0.781  -0.725  1.00  0.00     0.316 C 
HETATM   14  C11 UNL     1       2.382   0.602   1.510  1.00  0.00     0.316 C 
ENDBRANCH   9  12
BRANCH   3  15
HETATM   15  C4  UNL     1      -1.859  -1.356  -0.733  1.00  0.00     0.179 C 
BRANCH  15  16
HETATM   16  O1  UNL     1      -2.375  -2.218   0.187  1.00  0.00    -0.400 OA
ATOM     17  H1  UNL     1      -2.849  -2.922  -0.240  1.00  0.00     0.209 HD
ENDBRANCH  15  16
ENDBRANCH   3  15
BRANCH   4  18
HETATM   18  O2  UNL     1      -1.147   1.788   1.086  1.00  0.00    -0.395 OA
ATOM     19  H2  UNL     1      -1.698   2.498   1.394  1.00  0.00     0.210 HD
ENDBRANCH   4  18
TORSDOF 5
