REMARK  5 active torsions:
REMARK  status: ('A' for Active; 'I' for Inactive)
REMARK    1  A    between atoms: C2_2  and  O1_3 
REMARK    2  A    between atoms: O1_3  and  C3_4 
REMARK    3  A    between atoms: C11_13  and  O3_14 
REMARK    4  A    between atoms: C12_16  and  O4_17 
REMARK    5  A    between atoms: C16_21  and  O5_22 
ROOT
HETATM    1  C3  UNL     1      -1.761   1.722   0.139  1.00  0.00     0.304 C 
HETATM    2  O2  UNL     1      -0.437   2.032   0.593  1.00  0.00    -0.315 OA
HETATM    3  C4  UNL     1       0.607   1.177   0.332  1.00  0.00     0.084 A 
HETATM    4  C5  UNL     1       1.893   1.646   0.392  1.00  0.00     0.052 A 
HETATM    5  C6  UNL     1       2.955   0.809   0.134  1.00  0.00    -0.001 A 
HETATM    6  C7  UNL     1       2.709  -0.506  -0.186  1.00  0.00     0.040 A 
HETATM    7  C8  UNL     1       1.401  -1.000  -0.251  1.00  0.00     0.045 A 
HETATM    8  C9  UNL     1       0.358  -0.164   0.007  1.00  0.00     0.013 A 
HETATM    9  C10 UNL     1      -1.014  -0.609  -0.053  1.00  0.00     0.027 A 
HETATM   10  C11 UNL     1      -1.305  -1.944  -0.186  1.00  0.00     0.111 A 
HETATM   11  C12 UNL     1      -2.616  -2.368  -0.075  1.00  0.00     0.110 A 
HETATM   12  C14 UNL     1      -3.649  -1.501   0.167  1.00  0.00     0.008 A 
HETATM   13  C15 UNL     1      -5.049  -1.970   0.291  1.00  0.00     0.054 C 
HETATM   14  C16 UNL     1      -3.356  -0.138   0.302  1.00  0.00     0.089 A 
HETATM   15  C18 UNL     1      -2.086   0.301   0.192  1.00  0.00     0.045 A 
HETATM   16  N1  UNL     1       3.796  -1.348  -0.447  1.00  0.00    -0.377 N 
ATOM     17  H1  UNL     1       3.605  -2.322  -0.684  1.00  0.00     0.160 HD
HETATM   18  C19 UNL     1       5.150  -0.922  -0.400  1.00  0.00     0.041 A 
HETATM   19  C20 UNL     1       5.946  -1.726   0.653  1.00  0.00     0.042 C 
HETATM   20  C21 UNL     1       5.891  -1.208  -1.705  1.00  0.00     0.042 C 
HETATM   21  C22 UNL     1       5.308   0.489  -0.052  1.00  0.00     0.011 A 
HETATM   22  C23 UNL     1       4.319   1.313   0.200  1.00  0.00    -0.051 A 
HETATM   23  C24 UNL     1       4.547   2.737   0.548  1.00  0.00     0.049 C 
ENDROOT
BRANCH   1  24
HETATM   24  O1  UNL     1      -2.643   2.573   0.742  1.00  0.00    -0.357 OA
BRANCH  24  25
HETATM   25  C2  UNL     1      -3.117   3.484  -0.216  1.00  0.00     0.167 C 
HETATM   26  C1  UNL     1      -4.100   4.462   0.342  1.00  0.00     0.033 C 
ENDBRANCH  24  25
ENDBRANCH   1  24
BRANCH  14  27
HETATM   27  O5  UNL     1      -4.425   0.681   0.548  1.00  0.00    -0.355 OA
HETATM   28  C17 UNL     1      -4.887   0.891   1.895  1.00  0.00     0.210 C 
ENDBRANCH  14  27
BRANCH  10  29
HETATM   29  O3  UNL     1      -0.378  -2.905  -0.424  1.00  0.00    -0.357 OA
ATOM     30  H3  UNL     1      -0.579  -3.829  -0.516  1.00  0.00     0.217 HD
ENDBRANCH  10  29
BRANCH  11  31
HETATM   31  O4  UNL     1      -2.860  -3.725  -0.219  1.00  0.00    -0.352 OA
HETATM   32  C13 UNL     1      -3.129  -4.192  -1.529  1.00  0.00     0.210 C 
ENDBRANCH  11  31
TORSDOF 5
