REMARK  6 active torsions:
REMARK  status: ('A' for Active; 'I' for Inactive)
REMARK    1  A    between atoms: O1_2  and  C2_3 
REMARK    2  A    between atoms: C4_5  and  C5_6 
REMARK    3  A    between atoms: C8_10  and  O2_11 
REMARK    4  A    between atoms: C11_15  and  O3_16 
REMARK    5  A    between atoms: C21_28  and  O4_29 
REMARK    6  A    between atoms: O4_29  and  C22_30 
ROOT
HETATM    1  C5  UNL     1      -0.615  -0.931  -1.117  1.00  0.00     0.144 C 
HETATM    2  N1  UNL     1      -1.493   0.211  -1.115  1.00  0.00    -0.370 N 
HETATM    3  C6  UNL     1      -1.365   1.179  -2.183  1.00  0.00     0.150 C 
HETATM    4  C7  UNL     1      -2.482   0.460  -0.133  1.00  0.00     0.092 A 
HETATM    5  C8  UNL     1      -3.017   1.697   0.137  1.00  0.00     0.103 A 
HETATM    6  C9  UNL     1      -3.975   1.843   1.106  1.00  0.00     0.007 A 
HETATM    7  C10 UNL     1      -4.538   3.190   1.389  1.00  0.00     0.054 C 
HETATM    8  C11 UNL     1      -4.382   0.728   1.793  1.00  0.00     0.082 A 
HETATM    9  C12 UNL     1      -3.871  -0.560   1.561  1.00  0.00     0.001 A 
HETATM   10  C13 UNL     1      -4.280  -1.747   2.297  1.00  0.00     0.054 C 
HETATM   11  C14 UNL     1      -2.919  -0.670   0.590  1.00  0.00     0.069 A 
HETATM   12  N2  UNL     1      -2.360  -1.946   0.296  1.00  0.00    -0.372 N 
HETATM   13  C15 UNL     1      -3.196  -3.096   0.384  1.00  0.00     0.150 C 
HETATM   14  C16 UNL     1      -0.936  -1.979  -0.112  1.00  0.00     0.050 C 
HETATM   15  C17 UNL     1      -0.146  -1.873   1.175  1.00  0.00     0.041 C 
HETATM   16  C18 UNL     1      -0.585  -3.332  -0.697  1.00  0.00     0.041 C 
ENDROOT
BRANCH   1  17
HETATM   17  C4  UNL     1       0.800  -0.481  -1.016  1.00  0.00    -0.030 A 
HETATM   18  C3  UNL     1       1.197   0.501  -0.118  1.00  0.00     0.049 A 
HETATM   19  C2  UNL     1       2.501   0.930  -0.012  1.00  0.00     0.102 A 
HETATM   20  C21 UNL     1       3.486   0.390  -0.812  1.00  0.00     0.102 A 
HETATM   21  C20 UNL     1       3.130  -0.583  -1.712  1.00  0.00     0.040 A 
HETATM   22  C19 UNL     1       1.800  -1.008  -1.806  1.00  0.00     0.012 A 
BRANCH  19  23
HETATM   23  O1  UNL     1       2.773   1.919   0.926  1.00  0.00    -0.353 OA
HETATM   24  C1  UNL     1       1.793   2.484   1.751  1.00  0.00     0.210 C 
ENDBRANCH  19  23
BRANCH  20  25
HETATM   25  O4  UNL     1       4.775   0.844  -0.677  1.00  0.00    -0.344 OA
BRANCH  25  26
HETATM   26  C22 UNL     1       5.914   0.458  -1.360  1.00  0.00     0.121 C 
HETATM   27  C23 UNL     1       6.581   1.602  -2.096  1.00  0.00     0.040 C 
HETATM   28  C24 UNL     1       6.966  -0.133  -0.430  1.00  0.00     0.040 C 
ENDBRANCH  25  26
ENDBRANCH  20  25
ENDBRANCH   1  17
BRANCH   5  29
HETATM   29  O2  UNL     1      -2.564   2.762  -0.588  1.00  0.00    -0.358 OA
ATOM     30  H2  UNL     1      -2.934   3.617  -0.401  1.00  0.00     0.217 HD
ENDBRANCH   5  29
BRANCH   8  31
HETATM   31  O3  UNL     1      -5.360   0.805   2.797  1.00  0.00    -0.359 OA
ATOM     32  H3  UNL     1      -5.642   0.033   3.273  1.00  0.00     0.217 HD
ENDBRANCH   8  31
TORSDOF 6
