REMARK  14 active torsions:
REMARK  status: ('A' for Active; 'I' for Inactive)
REMARK    1  A    between atoms: C2_2  and  O2_4 
REMARK    2  A    between atoms: O2_4  and  C3_5 
REMARK    3  A    between atoms: C3_5  and  C5_7 
REMARK    4  A    between atoms: C3_5  and  C6_10 
REMARK    5  A    between atoms: C5_7  and  O3_8 
REMARK    6  A    between atoms: C6_10  and  O5_12 
REMARK    7  A    between atoms: O5_12  and  C7_13 
REMARK    8  A    between atoms: C8_14  and  C9_15 
REMARK    9  A    between atoms: C9_15  and  C10_16 
REMARK   10  A    between atoms: C16_24  and  C17_25 
REMARK   11  A    between atoms: C17_25  and  C20_28 
REMARK   12  A    between atoms: C20_28  and  C21_29 
REMARK   13  A    between atoms: C21_29  and  C22_30 
REMARK   14  A    between atoms: C28_37  and  C29_38 
ROOT
HETATM    1  C7  UNL     1       0.844   0.354  -0.323  1.00  0.00     0.175 C 
HETATM    2  C8  UNL     1       0.925   1.231  -1.554  1.00  0.00     0.058 C 
HETATM    3  C11 UNL     1      -0.292   2.055  -1.358  1.00  0.00    -0.066 C 
HETATM    4  C12 UNL     1      -0.534   3.243  -0.849  1.00  0.00    -0.074 C 
HETATM    5  C13 UNL     1      -1.921   3.579  -0.939  1.00  0.00     0.035 C 
HETATM    6  C14 UNL     1      -2.540   2.330  -1.590  1.00  0.00     0.014 C 
HETATM    7  C15 UNL     1      -1.572   1.239  -1.350  1.00  0.00     0.023 C 
HETATM    8  C16 UNL     1      -1.624   0.669   0.126  1.00  0.00     0.038 C 
HETATM    9  C26 UNL     1      -0.239   0.840   0.658  1.00  0.00     0.090 C 
HETATM   10  C27 UNL     1       0.149   0.037   1.888  1.00  0.00     0.049 C 
HETATM   11  O8  UNL     1      -0.116   2.121   1.095  1.00  0.00    -0.371 OA
HETATM   12  C28 UNL     1       0.829   2.995   1.068  1.00  0.00     0.134 C 
HETATM   13  C33 UNL     1       0.462   4.079  -0.022  1.00  0.00     0.067 C 
ENDROOT
BRANCH   1  14
HETATM   14  O5  UNL     1       2.086   0.128   0.284  1.00  0.00    -0.310 OA
BRANCH  14  15
HETATM   15  C6  UNL     1       2.677  -1.124   0.274  1.00  0.00     0.296 C 
HETATM   16  O4  UNL     1       2.025  -2.052  -0.315  1.00  0.00    -0.262 OA
BRANCH  15  17
HETATM   17  C3  UNL     1       3.969  -1.491   0.864  1.00  0.00     0.175 C 
HETATM   18  C4  UNL     1       4.051  -1.031   2.273  1.00  0.00     0.060 C 
BRANCH  17  19
HETATM   19  O2  UNL     1       4.298  -2.841   0.670  1.00  0.00    -0.298 OA
BRANCH  19  20
HETATM   20  C2  UNL     1       3.634  -3.898   1.259  1.00  0.00     0.256 C 
HETATM   21  C1  UNL     1       4.043  -5.313   1.001  1.00  0.00     0.126 C 
HETATM   22  O1  UNL     1       2.677  -3.610   2.017  1.00  0.00    -0.266 OA
ENDBRANCH  19  20
ENDBRANCH  17  19
BRANCH  17  23
HETATM   23  C5  UNL     1       5.043  -0.705   0.091  1.00  0.00     0.213 C 
BRANCH  23  24
HETATM   24  O3  UNL     1       6.265  -1.061   0.663  1.00  0.00    -0.397 OA
ATOM     25  H3  UNL     1       6.928  -0.576   0.186  1.00  0.00     0.209 HD
ENDBRANCH  23  24
ENDBRANCH  17  23
ENDBRANCH  15  17
ENDBRANCH  14  15
ENDBRANCH   1  14
BRANCH   2  26
HETATM   26  C9  UNL     1       0.877   0.521  -2.856  1.00  0.00     0.124 C 
BRANCH  26  27
HETATM   27  C10 UNL     1       0.953   1.535  -3.969  1.00  0.00     0.173 C 
HETATM   28  O6  UNL     1       1.040   2.756  -3.722  1.00  0.00    -0.648 OA
HETATM   29  O7  UNL     1       0.921   1.048  -5.253  1.00  0.00    -0.648 OA
ENDBRANCH  26  27
ENDBRANCH   2  26
BRANCH   8  30
HETATM   30  C17 UNL     1      -2.427  -0.537   0.199  1.00  0.00    -0.040 C 
HETATM   31  C18 UNL     1      -2.570  -1.150   1.589  1.00  0.00     0.015 C 
HETATM   32  C19 UNL     1      -3.896  -0.156  -0.089  1.00  0.00     0.015 C 
BRANCH  30  33
HETATM   33  C20 UNL     1      -2.159  -1.658  -0.729  1.00  0.00     0.013 C 
BRANCH  33  34
HETATM   34  C21 UNL     1      -3.125  -2.827  -0.491  1.00  0.00     0.028 C 
BRANCH  34  35
HETATM   35  C22 UNL     1      -2.772  -3.946  -1.444  1.00  0.00    -0.025 C 
HETATM   36  C23 UNL     1      -3.665  -4.347  -2.306  1.00  0.00    -0.091 C 
HETATM   37  C24 UNL     1      -3.319  -5.451  -3.245  1.00  0.00     0.042 C 
HETATM   38  C25 UNL     1      -5.029  -3.763  -2.416  1.00  0.00     0.042 C 
ENDBRANCH  34  35
ENDBRANCH  33  34
ENDBRANCH  30  33
ENDBRANCH   8  30
BRANCH  12  39
HETATM   39  C29 UNL     1       0.888   3.821   2.336  1.00  0.00    -0.025 C 
HETATM   40  C30 UNL     1      -0.392   4.583   2.602  1.00  0.00     0.017 C 
HETATM   41  C31 UNL     1       1.280   3.023   3.556  1.00  0.00     0.017 C 
HETATM   42  C32 UNL     1       1.985   4.895   2.185  1.00  0.00     0.017 C 
ENDBRANCH  12  39
TORSDOF 14
