REMARK  17 active torsions:
REMARK  status: ('A' for Active; 'I' for Inactive)
REMARK    1  A    between atoms: C3_3  and  C5_5 
REMARK    2  A    between atoms: C5_5  and  C6_7 
REMARK    3  A    between atoms: C6_7  and  C7_8 
REMARK    4  A    between atoms: C8_9  and  C9_10 
REMARK    5  A    between atoms: C9_10  and  O3_12 
REMARK    6  A    between atoms: O3_12  and  C10_13 
REMARK    7  A    between atoms: C14_17  and  O4_18 
REMARK    8  A    between atoms: C14_17  and  O5_20 
REMARK    9  A    between atoms: O5_20  and  C15_21 
REMARK   10  A    between atoms: C15_21  and  C16_23 
REMARK   11  A    between atoms: C22_29  and  C23_30 
REMARK   12  A    between atoms: C23_30  and  C24_31 
REMARK   13  A    between atoms: C24_31  and  C25_32 
REMARK   14  A    between atoms: C26_33  and  C27_34 
REMARK   15  A    between atoms: C26_33  and  C29_36 
REMARK   16  A    between atoms: C29_36  and  O7_37 
REMARK   17  A    between atoms: C31_40  and  O8_42 
ROOT
HETATM    1  C7  UNL     1      -2.204  -0.682   0.043  1.00  0.00     0.043 C 
HETATM    2  C8  UNL     1      -2.533   0.722   0.572  1.00  0.00     0.157 C 
HETATM    3  C14 UNL     1      -1.275   1.570   0.254  1.00  0.00     0.192 C 
HETATM    4  C20 UNL     1      -0.286   0.503   0.415  1.00  0.00     0.084 C 
HETATM    5  C21 UNL     1       1.120   0.732   0.396  1.00  0.00    -0.013 C 
HETATM    6  C22 UNL     1       1.970  -0.164  -0.077  1.00  0.00    -0.080 C 
HETATM    7  C30 UNL     1       1.471  -1.438  -0.594  1.00  0.00     0.072 C 
HETATM    8  C31 UNL     1       0.078  -1.770  -0.028  1.00  0.00     0.066 C 
HETATM    9  C32 UNL     1      -0.231  -3.131  -0.484  1.00  0.00     0.047 C 
HETATM   10  C33 UNL     1      -0.819  -0.644  -0.471  1.00  0.00     0.007 C 
HETATM   11  C34 UNL     1      -0.601  -0.411  -1.905  1.00  0.00     0.020 C 
ENDROOT
BRANCH   3  12
HETATM   12  O4  UNL     1      -1.086   2.501   1.287  1.00  0.00    -0.364 OA
ATOM     13  H4  UNL     1      -0.315   3.021   1.092  1.00  0.00     0.213 HD
ENDBRANCH   3  12
BRANCH   3  14
HETATM   14  O5  UNL     1      -1.439   2.237  -0.924  1.00  0.00    -0.281 OA
BRANCH  14  15
HETATM   15  C15 UNL     1      -0.604   3.129  -1.513  1.00  0.00     0.269 C 
HETATM   16  O6  UNL     1       0.477   3.436  -0.968  1.00  0.00    -0.264 OA
BRANCH  15  17
HETATM   17  C16 UNL     1      -0.920   3.781  -2.813  1.00  0.00     0.037 C 
HETATM   18  C17 UNL     1       0.211   4.709  -3.182  1.00  0.00     0.025 C 
HETATM   19  C18 UNL     1      -2.166   4.664  -2.670  1.00  0.00     0.025 C 
HETATM   20  C19 UNL     1      -1.146   2.837  -3.940  1.00  0.00     0.025 C 
ENDBRANCH  15  17
ENDBRANCH  14  15
ENDBRANCH   3  14
BRANCH   2  21
HETATM   21  C9  UNL     1      -2.930   0.761   1.965  1.00  0.00     0.269 C 
HETATM   22  O2  UNL     1      -4.110   1.218   2.219  1.00  0.00    -0.265 OA
BRANCH  21  23
HETATM   23  O3  UNL     1      -2.222   0.376   3.079  1.00  0.00    -0.311 OA
BRANCH  23  24
HETATM   24  C10 UNL     1      -2.669   0.438   4.403  1.00  0.00     0.060 C 
HETATM   25  C11 UNL     1      -1.531  -0.093   5.287  1.00  0.00     0.045 C 
HETATM   26  C12 UNL     1      -3.803  -0.550   4.588  1.00  0.00     0.045 C 
HETATM   27  C13 UNL     1      -3.021   1.813   4.861  1.00  0.00     0.045 C 
ENDBRANCH  23  24
ENDBRANCH  21  23
ENDBRANCH   2  21
BRANCH   1  28
HETATM   28  C6  UNL     1      -3.344  -1.031  -0.810  1.00  0.00     0.035 C 
BRANCH  28  29
HETATM   29  C5  UNL     1      -3.438  -2.299  -1.498  1.00  0.00     0.174 C 
HETATM   30  O1  UNL     1      -2.988  -2.402  -2.667  1.00  0.00    -0.288 OA
BRANCH  29  31
HETATM   31  C3  UNL     1      -4.045  -3.500  -0.896  1.00  0.00    -0.016 C 
HETATM   32  C2  UNL     1      -4.130  -4.655  -1.519  1.00  0.00    -0.020 C 
HETATM   33  C1  UNL     1      -3.648  -4.942  -2.873  1.00  0.00     0.036 C 
HETATM   34  C4  UNL     1      -4.584  -3.376   0.479  1.00  0.00     0.052 C 
ENDBRANCH  29  31
ENDBRANCH  28  29
ENDBRANCH   1  28
BRANCH   6  35
HETATM   35  C23 UNL     1       3.470   0.132  -0.075  1.00  0.00     0.038 C 
BRANCH  35  36
HETATM   36  C24 UNL     1       4.198  -0.867   0.738  1.00  0.00     0.032 C 
BRANCH  36  37
HETATM   37  C25 UNL     1       5.638  -0.723   0.833  1.00  0.00    -0.022 C 
HETATM   38  C26 UNL     1       6.497   0.108   0.345  1.00  0.00    -0.061 C 
BRANCH  38  39
HETATM   39  C27 UNL     1       6.397   1.275  -0.521  1.00  0.00     0.031 C 
HETATM   40  C28 UNL     1       7.173   1.072  -1.831  1.00  0.00     0.010 C 
ENDBRANCH  38  39
BRANCH  38  41
HETATM   41  C29 UNL     1       7.953  -0.161   0.801  1.00  0.00     0.198 C 
BRANCH  41  42
HETATM   42  O7  UNL     1       8.737  -0.415  -0.290  1.00  0.00    -0.397 OA
ATOM     43  H7  UNL     1       9.630  -0.580  -0.010  1.00  0.00     0.209 HD
ENDBRANCH  41  42
ENDBRANCH  38  41
ENDBRANCH  36  37
ENDBRANCH  35  36
ENDBRANCH   6  35
BRANCH   8  44
HETATM   44  O8  UNL     1       0.238  -1.786   1.352  1.00  0.00    -0.389 OA
ATOM     45  H8  UNL     1      -0.621  -1.991   1.701  1.00  0.00     0.210 HD
ENDBRANCH   8  44
TORSDOF 17
