REMARK  6 active torsions:
REMARK  status: ('A' for Active; 'I' for Inactive)
REMARK    1  A    between atoms: C3_3  and  C4_4 
REMARK    2  A    between atoms: C5_5  and  N1_6 
REMARK    3  A    between atoms: N1_6  and  C6_8 
REMARK    4  A    between atoms: C10_13  and  C11_14 
REMARK    5  A    between atoms: C11_14  and  N2_15 
REMARK    6  A    between atoms: C23_32  and  O3_33 
ROOT
HETATM    1  C1  UNL     1      -5.002   1.918   3.273  1.00  0.00     0.012 C 
HETATM    2  C2  UNL     1      -5.548   1.049   2.634  1.00  0.00    -0.113 C 
HETATM    3  C3  UNL     1      -6.191  -0.003   1.842  1.00  0.00     0.135 C 
ENDROOT
BRANCH   3   4
HETATM    4  C4  UNL     1      -5.753   0.126   0.429  1.00  0.00     0.004 A 
HETATM    5  C5  UNL     1      -4.456  -0.257   0.099  1.00  0.00     0.044 A 
HETATM    6  C21 UNL     1      -4.112  -0.132  -1.222  1.00  0.00     0.075 A 
HETATM    7  C22 UNL     1      -5.014   0.357  -2.187  1.00  0.00     0.153 A 
HETATM    8  F1  UNL     1      -4.619   0.458  -3.460  1.00  0.00    -0.203 F 
HETATM    9  C23 UNL     1      -6.288   0.732  -1.845  1.00  0.00     0.129 A 
HETATM   10  C25 UNL     1      -6.641   0.608  -0.527  1.00  0.00     0.079 A 
HETATM   11 CL2  UNL     1      -8.255   1.070  -0.032  1.00  0.00    -0.081 Cl
BRANCH   5  12
HETATM   12  N1  UNL     1      -3.621  -0.783   1.095  1.00  0.00    -0.351 N 
ATOM     13  H1  UNL     1      -4.101  -1.123   1.928  1.00  0.00     0.166 HD
BRANCH  12  14
HETATM   14  C6  UNL     1      -2.217  -0.912   1.117  1.00  0.00     0.110 A 
HETATM   15  C7  UNL     1      -1.359  -0.157   0.366  1.00  0.00     0.052 A 
HETATM   16  C8  UNL     1       0.023  -0.279   0.482  1.00  0.00     0.025 A 
HETATM   17  C9  UNL     1       0.874   0.472  -0.270  1.00  0.00     0.058 A 
HETATM   18  C19 UNL     1       0.504  -1.195   1.390  1.00  0.00     0.115 A 
HETATM   19 CL1  UNL     1       0.213   1.612  -1.402  1.00  0.00    -0.082 Cl
HETATM   20  C10 UNL     1       2.276   0.379  -0.184  1.00  0.00     0.004 A 
HETATM   21  C17 UNL     1       2.744  -0.533   0.722  1.00  0.00     0.044 A 
HETATM   22  C18 UNL     1       1.872  -1.309   1.498  1.00  0.00     0.082 A 
HETATM   23  N4  UNL     1       2.380  -2.256   2.440  1.00  0.00    -0.099 NA
HETATM   24  O1  UNL     1      -0.318  -1.925   2.119  1.00  0.00    -0.271 OA
HETATM   25  C20 UNL     1      -1.605  -1.807   2.006  1.00  0.00     0.315 A 
HETATM   26  O2  UNL     1      -2.380  -2.509   2.706  1.00  0.00    -0.257 OA
BRANCH  20  27
HETATM   27  C11 UNL     1       3.119   1.267  -1.009  1.00  0.00     0.098 C 
BRANCH  27  28
HETATM   28  N2  UNL     1       4.489   1.007  -0.883  1.00  0.00    -0.386 N 
HETATM   29  C12 UNL     1       5.039  -0.151  -1.463  1.00  0.00     0.141 C 
HETATM   30  C13 UNL     1       6.562   0.003  -1.579  1.00  0.00     0.136 C 
HETATM   31  N3  UNL     1       7.082   0.077  -0.254  1.00  0.00    -0.414 N 
HETATM   32  C14 UNL     1       7.423  -1.181   0.333  1.00  0.00     0.143 C 
HETATM   33  C15 UNL     1       6.447   0.994   0.630  1.00  0.00     0.136 C 
HETATM   34  C16 UNL     1       5.228   1.678   0.119  1.00  0.00     0.141 C 
ENDBRANCH  27  28
ENDBRANCH  20  27
ENDBRANCH  12  14
ENDBRANCH   5  12
BRANCH   9  35
HETATM   35  O3  UNL     1      -7.192   1.219  -2.794  1.00  0.00    -0.351 OA
HETATM   36  C24 UNL     1      -8.064   0.390  -3.518  1.00  0.00     0.210 C 
ENDBRANCH   9  35
ENDBRANCH   3   4
TORSDOF 6
