REMARK  11 active torsions:
REMARK  status: ('A' for Active; 'I' for Inactive)
REMARK    1  A    between atoms: C3_5  and  N2_6 
REMARK    2  A    between atoms: N2_6  and  C4_8 
REMARK    3  A    between atoms: C4_8  and  O1_9 
REMARK    4  A    between atoms: C4_8  and  C5_11 
REMARK    5  A    between atoms: C8_15  and  S1_16 
REMARK    6  A    between atoms: S1_16  and  C9_17 
REMARK    7  A    between atoms: C9_17  and  C10_18 
REMARK    8  A    between atoms: C10_18  and  O2_19 
REMARK    9  A    between atoms: C10_18  and  C11_21 
REMARK   10  A    between atoms: C11_21  and  N3_22 
REMARK   11  A    between atoms: N4_28  and  C16_29 
ROOT
HETATM    1  C5  UNL     1      -1.385   0.230   0.887  1.00  0.00     0.109 A 
HETATM    2  C6  UNL     1      -0.466   0.948   1.689  1.00  0.00     0.068 A 
HETATM    3 CL1  UNL     1      -0.803   1.871   3.165  1.00  0.00    -0.082 Cl
HETATM    4  C7  UNL     1       0.766   0.825   1.139  1.00  0.00     0.063 A 
HETATM    5  C8  UNL     1       0.671   0.051   0.008  1.00  0.00     0.075 A 
HETATM    6  N4  UNL     1      -0.651  -0.293  -0.120  1.00  0.00    -0.328 N 
ENDROOT
BRANCH   1   7
HETATM    7  C4  UNL     1      -2.777   0.163   1.268  1.00  0.00     0.171 C 
BRANCH   7   8
HETATM    8  N2  UNL     1      -3.891  -0.437   0.718  1.00  0.00    -0.321 N 
ATOM      9  H2  UNL     1      -3.838  -1.444   0.567  1.00  0.00     0.169 HD
BRANCH   8  10
HETATM   10  C3  UNL     1      -4.968   0.127   0.382  1.00  0.00     0.116 A 
HETATM   11  N1  UNL     1      -5.162   1.441   0.521  1.00  0.00    -0.344 N 
HETATM   12  C2  UNL     1      -6.328   2.064   0.182  1.00  0.00     0.032 A 
ATOM     13  H1  UNL     1      -4.402   2.006   0.899  1.00  0.00     0.167 HD
HETATM   14  C1  UNL     1      -6.508   3.516   0.339  1.00  0.00     0.070 C 
HETATM   15  C23 UNL     1      -7.365   1.302  -0.331  1.00  0.00     0.095 A 
HETATM   16  C22 UNL     1      -7.197  -0.062  -0.488  1.00  0.00     0.149 A 
HETATM   17 CL2  UNL     1      -8.851   2.102  -0.757  1.00  0.00    -0.079 Cl
HETATM   18  C20 UNL     1      -6.000  -0.646  -0.132  1.00  0.00     0.022 A 
HETATM   19  F1  UNL     1      -8.234  -0.803  -0.996  1.00  0.00    -0.204 F 
HETATM   20  C21 UNL     1      -5.793  -2.096  -0.276  1.00  0.00     0.056 C 
ENDBRANCH   8  10
ENDBRANCH   7   8
BRANCH   7  21
HETATM   21  O1  UNL     1      -3.066   0.810   2.393  1.00  0.00    -0.344 OA
ATOM     22  H1  UNL     1      -2.299   1.223   2.772  1.00  0.00     0.219 HD
ENDBRANCH   7  21
ENDBRANCH   1   7
BRANCH   6  23
HETATM   23  C16 UNL     1      -1.186  -1.056  -1.198  1.00  0.00     0.027 C 
HETATM   24  C17 UNL     1      -1.852  -2.329  -0.743  1.00  0.00     0.038 C 
HETATM   25  C18 UNL     1      -0.180  -1.515  -2.247  1.00  0.00     0.038 C 
HETATM   26  C19 UNL     1      -2.163  -0.152  -1.970  1.00  0.00     0.038 C 
ENDBRANCH   6  23
BRANCH   5  27
HETATM   27  S1  UNL     1       2.022  -0.402  -1.064  1.00  0.00    -0.110 SA
BRANCH  27  28
HETATM   28  C9  UNL     1       2.968  -1.791  -0.549  1.00  0.00     0.114 C 
BRANCH  28  29
HETATM   29  C10 UNL     1       3.951  -1.608   0.590  1.00  0.00     0.156 C 
BRANCH  29  30
HETATM   30  O2  UNL     1       3.406  -1.192   1.731  1.00  0.00    -0.393 OA
ATOM     31  H2  UNL     1       4.022  -1.077   2.445  1.00  0.00     0.210 HD
ENDBRANCH  29  30
BRANCH  29  32
HETATM   32  C11 UNL     1       5.273  -1.146   0.125  1.00  0.00     0.305 C 
BRANCH  32  33
HETATM   33  N3  UNL     1       5.501   0.260  -0.096  1.00  0.00     0.095 N 
HETATM   34  C12 UNL     1       6.641   0.435  -0.978  1.00  0.00     0.298 C 
HETATM   35  C13 UNL     1       7.635   1.457  -0.642  1.00  0.00     0.198 C 
HETATM   36  O3  UNL     1       7.095   2.518   0.126  1.00  0.00    -0.388 OA
HETATM   37  C14 UNL     1       6.772   1.891   1.325  1.00  0.00     0.198 C 
HETATM   38  C15 UNL     1       5.609   1.003   1.127  1.00  0.00     0.298 C 
ENDBRANCH  32  33
ENDBRANCH  29  32
ENDBRANCH  28  29
ENDBRANCH  27  28
ENDBRANCH   5  27
TORSDOF 11
