REMARK  10 active torsions:
REMARK  status: ('A' for Active; 'I' for Inactive)
REMARK    1  A    between atoms: C2_2  and  O1_4 
REMARK    2  A    between atoms: O1_4  and  C4_5 
REMARK    3  A    between atoms: C4_5  and  C5_6 
REMARK    4  A    between atoms: C4_5  and  C26_36 
REMARK    5  A    between atoms: C5_6  and  C6_7 
REMARK    6  A    between atoms: C5_6  and  N1_29 
REMARK    7  A    between atoms: C6_7  and  C7_8 
REMARK    8  A    between atoms: C13_14  and  O2_15 
REMARK    9  A    between atoms: C18_21  and  O3_22 
REMARK   10  A    between atoms: O3_22  and  C19_23 
REMARK       I    between atoms: N1_29  and  C23_31 
REMARK       I    between atoms: C23_31  and  N2_33 
ROOT
HETATM    1  C7  UNL     1      -0.456  -0.615   0.163  1.00  0.00     0.017 C 
HETATM    2  C8  UNL     1      -0.435  -1.372  -1.139  1.00  0.00     0.010 C 
HETATM    3  C9  UNL     1       1.040  -1.321  -1.481  1.00  0.00     0.011 C 
HETATM    4  C10 UNL     1       1.770  -1.475  -0.150  1.00  0.00    -0.026 C 
HETATM    5  C11 UNL     1       2.391  -2.835  -0.152  1.00  0.00     0.016 C 
HETATM    6  C12 UNL     1       0.651  -1.400   0.852  1.00  0.00     0.031 C 
HETATM    7  C13 UNL     1       1.022  -0.954   2.195  1.00  0.00     0.124 C 
HETATM    8  C14 UNL     1       1.993   0.192   2.267  1.00  0.00     0.042 C 
HETATM    9  C15 UNL     1       3.164  -0.020   1.391  1.00  0.00    -0.028 C 
HETATM   10  C16 UNL     1       4.220  -0.938   1.884  1.00  0.00     0.016 C 
HETATM   11  C17 UNL     1       3.888   1.297   1.047  1.00  0.00     0.050 C 
HETATM   12  C18 UNL     1       4.723   0.808  -0.140  1.00  0.00     0.202 C 
HETATM   13  C21 UNL     1       3.918  -0.316  -0.759  1.00  0.00     0.161 C 
HETATM   14  O5  UNL     1       4.348  -0.967  -1.671  1.00  0.00    -0.295 OA
HETATM   15  C22 UNL     1       2.664  -0.333  -0.001  1.00  0.00     0.075 C 
ENDROOT
BRANCH   1  16
HETATM   16  C6  UNL     1      -1.675  -0.643   0.939  1.00  0.00     0.006 C 
BRANCH  16  17
HETATM   17  C5  UNL     1      -2.982  -0.143   0.461  1.00  0.00     0.048 C 
BRANCH  17  18
HETATM   18  C4  UNL     1      -3.135   1.284   0.115  1.00  0.00     0.285 C 
BRANCH  18  19
HETATM   19  O1  UNL     1      -2.404   2.057   1.030  1.00  0.00    -0.336 OA
BRANCH  19  20
HETATM   20  C2  UNL     1      -2.265   3.402   1.104  1.00  0.00     0.034 C 
HETATM   21  C1  UNL     1      -1.154   3.994   0.689  1.00  0.00     0.045 C 
HETATM   22  C3  UNL     1      -3.332   4.316   1.649  1.00  0.00     0.075 C 
ENDBRANCH  19  20
ENDBRANCH  18  19
BRANCH  18  23
HETATM   23  C26 UNL     1      -3.011   1.810  -1.236  1.00  0.00     0.419 C 
HETATM   24  F1  UNL     1      -1.752   1.903  -1.783  1.00  0.00    -0.168 F 
HETATM   25  F2  UNL     1      -3.902   1.239  -2.151  1.00  0.00    -0.168 F 
HETATM   26  F3  UNL     1      -3.461   3.139  -1.208  1.00  0.00    -0.168 F 
ENDBRANCH  18  23
ENDBRANCH  17  18
BRANCH  17  27
HETATM   27  N1  UNL     1      -3.677  -1.054  -0.419  1.00  0.00    -0.310 N 
HETATM   28  C23 UNL     1      -4.835  -1.786  -0.071  1.00  0.00     0.322 C 
HETATM   29  O6  UNL     1      -5.273  -1.608   1.117  1.00  0.00    -0.247 OA
HETATM   30  N2  UNL     1      -5.503  -2.668  -0.930  1.00  0.00    -0.343 N 
HETATM   31  C24 UNL     1      -5.009  -2.869  -2.275  1.00  0.00     0.154 C 
HETATM   32  C25 UNL     1      -6.672  -3.375  -0.503  1.00  0.00     0.154 C 
ATOM     33  H1  UNL     1      -3.305  -1.178  -1.360  1.00  0.00     0.170 HD
ENDBRANCH  17  27
ENDBRANCH  16  17
ENDBRANCH   1  16
BRANCH   7  34
HETATM   34  O2  UNL     1       1.518  -2.079   2.907  1.00  0.00    -0.395 OA
ATOM     35  H2  UNL     1       1.759  -1.789   3.779  1.00  0.00     0.210 HD
ENDBRANCH   7  34
BRANCH  12  36
HETATM   36  O3  UNL     1       4.831   1.798  -1.142  1.00  0.00    -0.309 OA
BRANCH  36  37
HETATM   37  C19 UNL     1       6.075   2.212  -1.613  1.00  0.00     0.255 C 
HETATM   38  C20 UNL     1       6.121   3.264  -2.677  1.00  0.00     0.126 C 
HETATM   39  O4  UNL     1       7.087   1.683  -1.122  1.00  0.00    -0.266 OA
ENDBRANCH  36  37
ENDBRANCH  12  36
TORSDOF 10
