REMARK  7 active torsions:
REMARK  status: ('A' for Active; 'I' for Inactive)
REMARK    1  A    between atoms: O1_2  and  C2_3 
REMARK    2  A    between atoms: C4_5  and  S1_6 
REMARK    3  A    between atoms: S1_6  and  N1_9 
REMARK    4  A    between atoms: N1_9  and  C5_11 
REMARK    5  A    between atoms: C14_26  and  O5_27 
REMARK    6  A    between atoms: O5_27  and  C15_28 
REMARK    7  A    between atoms: C15_28  and  C16_29 
ROOT
HETATM    1  S1  UNL     1       0.920   0.852   1.162  1.00  0.00     0.265 S 
HETATM    2  O2  UNL     1       1.368   0.675   2.603  1.00  0.00    -0.200 OA
HETATM    3  O3  UNL     1       1.361   2.220   0.725  1.00  0.00    -0.200 OA
ENDROOT
BRANCH   1   4
HETATM    4  C4  UNL     1      -0.821   0.696   1.061  1.00  0.00     0.084 A 
HETATM    5  C3  UNL     1      -1.554   1.321   0.075  1.00  0.00     0.065 A 
HETATM    6  C2  UNL     1      -2.916   1.187   0.012  1.00  0.00     0.104 A 
HETATM    7  C14 UNL     1      -3.569   0.423   0.940  1.00  0.00     0.120 A 
HETATM    8  C13 UNL     1      -2.881  -0.228   1.953  1.00  0.00     0.048 A 
HETATM    9  C12 UNL     1      -1.521  -0.070   1.982  1.00  0.00     0.047 A 
HETATM   10 BR1  UNL     1      -3.783  -1.285   3.235  1.00  0.00    -0.048 Br
BRANCH   6  11
HETATM   11  O1  UNL     1      -3.689   1.807  -0.973  1.00  0.00    -0.353 OA
HETATM   12  C1  UNL     1      -3.016   2.600  -1.935  1.00  0.00     0.210 C 
ENDBRANCH   6  11
BRANCH   7  13
HETATM   13  O5  UNL     1      -4.948   0.257   0.918  1.00  0.00    -0.337 OA
BRANCH  13  14
HETATM   14  C15 UNL     1      -5.457  -0.833   0.167  1.00  0.00     0.288 C 
BRANCH  14  15
HETATM   15  C16 UNL     1      -6.934  -0.866   0.247  1.00  0.00     0.198 C 
HETATM   16  O6  UNL     1      -7.564  -0.017   0.906  1.00  0.00    -0.646 OA
HETATM   17  O7  UNL     1      -7.599  -1.877  -0.435  1.00  0.00    -0.646 OA
ENDBRANCH  14  15
ENDBRANCH  13  14
ENDBRANCH   7  13
ENDBRANCH   1   4
BRANCH   1  18
HETATM   18  N1  UNL     1       1.643  -0.391   0.248  1.00  0.00    -0.245 N 
ATOM     19  H1  UNL     1       1.023  -1.058  -0.211  1.00  0.00     0.182 HD
BRANCH  18  20
HETATM   20  C5  UNL     1       2.899  -0.552   0.093  1.00  0.00     0.239 A 
HETATM   21  N2  UNL     1       3.863   0.217   0.612  1.00  0.00    -0.319 N 
HETATM   22  C6  UNL     1       5.073  -0.280   0.217  1.00  0.00     0.071 A 
ATOM     23  H2  UNL     1       3.719   1.036   1.203  1.00  0.00     0.169 HD
HETATM   24  C7  UNL     1       6.370   0.114   0.459  1.00  0.00     0.058 A 
HETATM   25  C11 UNL     1       4.753  -1.375  -0.557  1.00  0.00     0.107 A 
HETATM   26  C8  UNL     1       7.387  -0.627  -0.105  1.00  0.00     0.058 A 
HETATM   27 CL1  UNL     1       9.041  -0.163   0.174  1.00  0.00    -0.082 Cl
HETATM   28  C9  UNL     1       7.114  -1.725  -0.884  1.00  0.00     0.058 A 
HETATM   29 CL2  UNL     1       8.415  -2.671  -1.603  1.00  0.00    -0.082 Cl
HETATM   30  C10 UNL     1       5.814  -2.080  -1.097  1.00  0.00     0.065 A 
HETATM   31  O4  UNL     1       3.452  -1.503  -0.607  1.00  0.00    -0.277 OA
ENDBRANCH  18  20
ENDBRANCH   1  18
TORSDOF 7
