REMARK  6 active torsions:
REMARK  status: ('A' for Active; 'I' for Inactive)
REMARK    1  A    between atoms: S1_2  and  C2_5 
REMARK    2  A    between atoms: C2_5  and  C3_6 
REMARK    3  A    between atoms: C3_6  and  C4_7 
REMARK    4  A    between atoms: C4_7  and  N1_8 
REMARK    5  A    between atoms: C7_16  and  S2_17 
REMARK    6  A    between atoms: S2_17  and  C8_20 
ROOT
HETATM    1  S2  UNL     1      -0.268  -1.089  -2.096  1.00  0.00     0.226 S 
HETATM    2  O3  UNL     1      -1.405  -0.824  -3.124  1.00  0.00    -0.216 OA
HETATM    3  O4  UNL     1       0.413  -1.973  -3.102  1.00  0.00    -0.216 OA
ENDROOT
BRANCH   1   4
HETATM    4  C7  UNL     1      -1.108  -2.007  -0.864  1.00  0.00     0.154 A 
HETATM    5  N1  UNL     1      -2.099  -1.718  -0.035  1.00  0.00    -0.280 N 
HETATM    6  N2  UNL     1      -2.455  -2.778   0.729  1.00  0.00    -0.283 N 
HETATM    7  C5  UNL     1      -1.676  -3.801   0.395  1.00  0.00     0.116 A 
ATOM      8  H2  UNL     1      -3.191  -2.789   1.435  1.00  0.00     0.189 HD
HETATM    9  N3  UNL     1      -1.763  -4.967   0.944  1.00  0.00    -0.384 N 
HETATM   10  C6  UNL     1      -0.846  -3.376  -0.568  1.00  0.00     0.093 A 
ATOM     11  H32 UNL     1      -2.395  -5.290   1.677  1.00  0.00     0.157 HD
ATOM     12  H31 UNL     1      -1.165  -5.752   0.688  1.00  0.00     0.157 HD
BRANCH   5  13
HETATM   13  C4  UNL     1      -2.836  -0.438   0.116  1.00  0.00     0.151 C 
BRANCH  13  14
HETATM   14  C3  UNL     1      -4.086  -0.539  -0.692  1.00  0.00     0.037 C 
BRANCH  14  15
HETATM   15  C2  UNL     1      -4.924   0.677  -0.738  1.00  0.00     0.141 C 
BRANCH  15  16
HETATM   16  S1  UNL     1      -5.514   1.241   0.793  1.00  0.00     0.140 S 
HETATM   17  C1  UNL     1      -4.285   1.764   1.939  1.00  0.00     0.161 C 
HETATM   18  O1  UNL     1      -6.420   0.200   1.447  1.00  0.00    -0.228 OA
HETATM   19  O2  UNL     1      -6.433   2.437   0.574  1.00  0.00    -0.228 OA
ENDBRANCH  15  16
ENDBRANCH  14  15
ENDBRANCH  13  14
ENDBRANCH   5  13
ENDBRANCH   1   4
BRANCH   1  20
HETATM   20  C8  UNL     1       0.333   0.443  -1.769  1.00  0.00     0.101 A 
HETATM   21  C9  UNL     1      -0.339   1.637  -2.155  1.00  0.00     0.058 A 
HETATM   22 CL1  UNL     1      -1.801   1.448  -3.112  1.00  0.00    -0.083 Cl
HETATM   23  C10 UNL     1       0.073   2.892  -1.887  1.00  0.00     0.050 A 
HETATM   24  C11 UNL     1       1.213   3.095  -1.200  1.00  0.00     0.046 A 
HETATM   25 CL2  UNL     1       1.765   4.695  -0.841  1.00  0.00    -0.083 Cl
HETATM   26  C12 UNL     1       1.944   2.013  -0.782  1.00  0.00     0.001 A 
HETATM   27  C13 UNL     1       3.142   2.221  -0.080  1.00  0.00     0.022 A 
HETATM   28  C17 UNL     1       1.491   0.740  -1.074  1.00  0.00     0.039 A 
HETATM   29  C14 UNL     1       3.913   1.162   0.343  1.00  0.00    -0.048 A 
HETATM   30  C15 UNL     1       3.483  -0.114   0.061  1.00  0.00    -0.012 A 
HETATM   31  C21 UNL     1       5.162   1.457   1.077  1.00  0.00     0.039 C 
HETATM   32  C16 UNL     1       2.280  -0.283  -0.643  1.00  0.00     0.136 A 
HETATM   33  C18 UNL     1       4.275  -1.288   0.492  1.00  0.00     0.042 C 
HETATM   34  F1  UNL     1       1.957  -1.522  -0.899  1.00  0.00    -0.205 F 
HETATM   35  C19 UNL     1       5.748  -0.864   0.435  1.00  0.00     0.005 C 
HETATM   36  C20 UNL     1       5.927   0.226   1.454  1.00  0.00     0.005 C 
ENDBRANCH   1  20
TORSDOF 6
