REMARK  5 active torsions:
REMARK  status: ('A' for Active; 'I' for Inactive)
REMARK    1  A    between atoms: C1_2  and  C2_3 
REMARK       I    between atoms: C1_2  and  N5_19 
REMARK    2  A    between atoms: C2_3  and  N1_4 
REMARK    3  A    between atoms: N5_19  and  N6_21 
REMARK    4  A    between atoms: N6_21  and  C8_22 
REMARK    5  A    between atoms: C10_28  and  O6_29 
ROOT
HETATM    1  N1  UNL     1      -2.044   0.638   0.662  1.00  0.00    -0.246 N 
HETATM    2  N2  UNL     1      -2.813  -0.324   1.136  1.00  0.00    -0.279 N 
ATOM      3  H2  UNL     1      -2.542  -0.949   1.895  1.00  0.00     0.189 HD
HETATM    4  C3  UNL     1      -3.987  -0.382   0.504  1.00  0.00     0.145 A 
HETATM    5  N3  UNL     1      -5.086  -1.160   0.609  1.00  0.00    -0.292 N 
ATOM      6  H3  UNL     1      -5.107  -1.901   1.309  1.00  0.00     0.172 HD
HETATM    7  C4  UNL     1      -6.168  -0.977  -0.200  1.00  0.00     0.328 A 
HETATM    8  O2  UNL     1      -7.163  -1.746  -0.040  1.00  0.00    -0.247 OA
HETATM    9  N4  UNL     1      -6.176  -0.011  -1.134  1.00  0.00    -0.275 N 
ATOM     10  H4  UNL     1      -6.982   0.132  -1.743  1.00  0.00     0.173 HD
HETATM   11  C5  UNL     1      -5.078   0.760  -1.233  1.00  0.00     0.269 A 
HETATM   12  O3  UNL     1      -5.037   1.677  -2.091  1.00  0.00    -0.267 OA
HETATM   13  C6  UNL     1      -3.960   0.611  -0.435  1.00  0.00     0.147 A 
HETATM   14  C7  UNL     1      -2.744   1.231  -0.319  1.00  0.00     0.282 A 
HETATM   15  O4  UNL     1      -2.341   2.182  -0.999  1.00  0.00    -0.265 OA
ENDROOT
BRANCH   1  16
HETATM   16  C2  UNL     1      -0.726   0.925   1.157  1.00  0.00     0.256 C 
BRANCH  16  17
HETATM   17  C1  UNL     1       0.261   0.104   0.396  1.00  0.00     0.253 C 
HETATM   18  O1  UNL     1      -0.156  -0.676  -0.495  1.00  0.00    -0.270 OA
HETATM   19  N5  UNL     1       1.649   0.179   0.646  1.00  0.00    -0.272 N 
ATOM     20  H5  UNL     1       2.008   0.809   1.363  1.00  0.00     0.185 HD
BRANCH  19  21
HETATM   21  N6  UNL     1       2.523  -0.613  -0.093  1.00  0.00    -0.120 NA
BRANCH  21  22
HETATM   22  C8  UNL     1       3.869  -0.277   0.296  1.00  0.00     0.238 C 
HETATM   23  C9  UNL     1       4.189   1.148   0.030  1.00  0.00     0.258 C 
HETATM   24  O5  UNL     1       3.464   2.164  -0.062  1.00  0.00    -0.270 OA
HETATM   25  N7  UNL     1       5.611   1.165  -0.122  1.00  0.00    -0.270 N 
HETATM   26  N8  UNL     1       6.094  -0.162  -0.230  1.00  0.00    -0.104 NA
ATOM     27  H7  UNL     1       6.189   2.005  -0.149  1.00  0.00     0.185 HD
HETATM   28  C10 UNL     1       4.922  -0.962  -0.551  1.00  0.00     0.261 C 
BRANCH  28  29
HETATM   29  O6  UNL     1       5.084  -2.290  -0.173  1.00  0.00    -0.376 OA
ATOM     30  H6  UNL     1       5.744  -2.720  -0.704  1.00  0.00     0.211 HD
ENDBRANCH  28  29
ENDBRANCH  21  22
ENDBRANCH  19  21
ENDBRANCH  16  17
ENDBRANCH   1  16
TORSDOF 5
