REMARK  4 active torsions:
REMARK  status: ('A' for Active; 'I' for Inactive)
REMARK    1  A    between atoms: C5_5  and  O1_6 
REMARK    2  A    between atoms: O1_6  and  C6_7 
REMARK    3  A    between atoms: C9_10  and  C10_11 
REMARK    4  A    between atoms: C11_12  and  C12_13 
ROOT
HETATM    1  C10 UNL     1      -1.656  -2.577  -0.519  1.00  0.00     0.075 A 
HETATM    2  C11 UNL     1      -2.745  -1.873  -0.780  1.00  0.00     0.062 A 
HETATM    3  C20 UNL     1      -3.893  -2.762  -0.992  1.00  0.00     0.260 A 
HETATM    4  O2  UNL     1      -5.096  -2.467  -1.263  1.00  0.00    -0.267 OA
HETATM    5  N2  UNL     1      -3.433  -4.094  -0.841  1.00  0.00    -0.289 N 
ATOM      6  H2  UNL     1      -3.986  -4.947  -0.926  1.00  0.00     0.172 HD
HETATM    7  C21 UNL     1      -2.060  -4.001  -0.550  1.00  0.00     0.261 A 
HETATM    8  O3  UNL     1      -1.284  -4.992  -0.345  1.00  0.00    -0.267 OA
ENDROOT
BRANCH   1   9
HETATM    9  C9  UNL     1      -0.302  -2.110  -0.244  1.00  0.00     0.051 A 
HETATM   10  C8  UNL     1       0.866  -2.554  -0.790  1.00  0.00     0.035 A 
HETATM   11  C7  UNL     1       1.940  -1.869  -0.192  1.00  0.00     0.059 A 
HETATM   12  C6  UNL     1       1.369  -1.020   0.712  1.00  0.00     0.148 A 
HETATM   13  N3  UNL     1       0.035  -1.182   0.661  1.00  0.00    -0.336 N 
ATOM     14  H3  UNL     1      -0.632  -0.666   1.235  1.00  0.00     0.168 HD
BRANCH  12  15
HETATM   15  O1  UNL     1       2.083  -0.151   1.532  1.00  0.00    -0.294 OA
BRANCH  15  16
HETATM   16  C5  UNL     1       3.247   0.450   1.096  1.00  0.00     0.077 A 
HETATM   17  C4  UNL     1       3.118   1.689   0.491  1.00  0.00     0.038 A 
HETATM   18  C3  UNL     1       4.239   2.360   0.027  1.00  0.00     0.009 A 
HETATM   19  C2  UNL     1       5.513   1.814   0.155  1.00  0.00    -0.062 A 
HETATM   20  C1  UNL     1       6.674   2.584  -0.360  1.00  0.00     0.048 C 
HETATM   21  C23 UNL     1       5.611   0.582   0.759  1.00  0.00     0.009 A 
HETATM   22  C22 UNL     1       4.496  -0.098   1.227  1.00  0.00     0.038 A 
ENDBRANCH  15  16
ENDBRANCH  12  15
ENDBRANCH   1   9
BRANCH   2  23
HETATM   23  C12 UNL     1      -2.808  -0.437  -0.854  1.00  0.00     0.009 A 
HETATM   24  C13 UNL     1      -1.996   0.361  -1.659  1.00  0.00     0.101 A 
HETATM   25  N1  UNL     1      -2.308   1.649  -1.466  1.00  0.00    -0.364 N 
HETATM   26  C14 UNL     1      -3.317   1.690  -0.541  1.00  0.00     0.043 A 
ATOM     27  H1  UNL     1      -1.874   2.451  -1.923  1.00  0.00     0.165 HD
HETATM   28  C15 UNL     1      -4.000   2.737   0.021  1.00  0.00     0.030 A 
HETATM   29  C19 UNL     1      -3.637   0.402  -0.153  1.00  0.00     0.003 A 
HETATM   30  C16 UNL     1      -4.992   2.531   0.959  1.00  0.00     0.002 A 
HETATM   31  C17 UNL     1      -5.304   1.250   1.339  1.00  0.00     0.001 A 
HETATM   32  C18 UNL     1      -4.644   0.194   0.800  1.00  0.00     0.014 A 
ENDBRANCH   2  23
TORSDOF 4
