REMARK  4 active torsions:
REMARK  status: ('A' for Active; 'I' for Inactive)
REMARK    1  A    between atoms: S1_2  and  N1_4 
REMARK    2  A    between atoms: S1_2  and  C15_22 
REMARK    3  A    between atoms: N1_4  and  C1_6 
REMARK    4  A    between atoms: C6_11  and  C7_12 
ROOT
HETATM    1  C1  UNL     1       0.018   1.116   1.338  1.00  0.00     0.053 A 
HETATM    2  C2  UNL     1       1.063   1.508   2.165  1.00  0.00     0.031 A 
HETATM    3  C3  UNL     1       1.123   0.942   3.419  1.00  0.00     0.002 A 
HETATM    4  C4  UNL     1       0.183   0.022   3.833  1.00  0.00     0.001 A 
HETATM    5  C5  UNL     1      -0.843  -0.351   2.996  1.00  0.00     0.014 A 
HETATM    6  C6  UNL     1      -0.944   0.201   1.709  1.00  0.00     0.001 A 
ENDROOT
BRANCH   1   7
HETATM    7  N1  UNL     1      -0.088   1.703   0.048  1.00  0.00    -0.280 N 
ATOM      8  H1  UNL     1      -1.018   1.756  -0.367  1.00  0.00     0.179 HD
BRANCH   7   9
HETATM    9  S1  UNL     1       1.218   2.330  -0.869  1.00  0.00     0.263 S 
HETATM   10  O1  UNL     1       0.671   2.843  -2.205  1.00  0.00    -0.200 OA
HETATM   11  O2  UNL     1       1.918   3.485  -0.217  1.00  0.00    -0.200 OA
BRANCH   9  12
HETATM   12  C15 UNL     1       2.414   1.108  -1.250  1.00  0.00     0.080 A 
HETATM   13  C16 UNL     1       2.264   0.342  -2.379  1.00  0.00     0.027 A 
HETATM   14  C17 UNL     1       3.217  -0.613  -2.668  1.00  0.00     0.033 A 
HETATM   15  C18 UNL     1       4.329  -0.856  -1.884  1.00  0.00     0.059 A 
HETATM   16  N3  UNL     1       5.369  -1.701  -1.947  1.00  0.00    -0.300 N 
HETATM   17  C20 UNL     1       4.460  -0.074  -0.752  1.00  0.00     0.010 A 
HETATM   18  N4  UNL     1       6.159  -1.495  -0.903  1.00  0.00    -0.311 N 
ATOM     19  H3  UNL     1       5.527  -2.392  -2.681  1.00  0.00     0.187 HD
HETATM   20  C19 UNL     1       5.635  -0.512  -0.158  1.00  0.00     0.120 A 
ATOM     21  H4  UNL     1       7.022  -2.000  -0.700  1.00  0.00     0.186 HD
HETATM   22  C21 UNL     1       3.512   0.887  -0.453  1.00  0.00     0.040 A 
ENDBRANCH   9  12
ENDBRANCH   7   9
ENDBRANCH   1   7
BRANCH   6  23
HETATM   23  C7  UNL     1      -2.034  -0.238   0.834  1.00  0.00    -0.023 A 
HETATM   24  C8  UNL     1      -1.844  -0.675  -0.454  1.00  0.00     0.014 A 
HETATM   25  C9  UNL     1      -2.918  -1.081  -1.235  1.00  0.00     0.031 A 
HETATM   26  C10 UNL     1      -4.216  -1.063  -0.760  1.00  0.00     0.042 A 
HETATM   27  N2  UNL     1      -5.414  -1.394  -1.288  1.00  0.00    -0.365 N 
HETATM   28  C13 UNL     1      -4.409  -0.625   0.532  1.00  0.00    -0.007 A 
HETATM   29  C11 UNL     1      -6.390  -1.190  -0.392  1.00  0.00     0.089 A 
ATOM     30  H2  UNL     1      -5.556  -1.749  -2.234  1.00  0.00     0.165 HD
HETATM   31  C12 UNL     1      -5.777  -0.711   0.745  1.00  0.00     0.030 A 
HETATM   32  C14 UNL     1      -3.329  -0.222   1.305  1.00  0.00     0.026 A 
ENDBRANCH   6  23
TORSDOF 4
