REMARK  6 active torsions:
REMARK  status: ('A' for Active; 'I' for Inactive)
REMARK    1  A    between atoms: C2_2  and  C3_3 
REMARK    2  A    between atoms: C4_4  and  C5_5 
REMARK    3  A    between atoms: N1_6  and  N2_8 
REMARK    4  A    between atoms: N2_8  and  C6_10 
REMARK    5  A    between atoms: C16_24  and  C17_25 
REMARK    6  A    between atoms: C21_29  and  N5_30 
ROOT
HETATM    1  C3  UNL     1      -0.732  -1.010  -1.763  1.00  0.00    -0.018 A 
HETATM    2  C4  UNL     1      -0.513  -0.484  -0.515  1.00  0.00     0.057 A 
HETATM    3  N4  UNL     1      -1.696  -0.004  -0.004  1.00  0.00    -0.353 N 
ATOM      4  H4  UNL     1      -1.807   0.438   0.908  1.00  0.00     0.166 HD
HETATM    5  C15 UNL     1      -2.683  -0.208  -0.893  1.00  0.00     0.056 A 
HETATM    6  C16 UNL     1      -4.018   0.124  -0.838  1.00  0.00     0.018 A 
HETATM    7  C22 UNL     1      -4.767  -0.205  -1.981  1.00  0.00     0.016 A 
HETATM    8  C23 UNL     1      -4.190  -0.818  -3.065  1.00  0.00     0.002 A 
HETATM    9  C24 UNL     1      -2.856  -1.143  -3.098  1.00  0.00     0.014 A 
HETATM   10  C25 UNL     1      -2.104  -0.825  -1.982  1.00  0.00     0.000 A 
ENDROOT
BRANCH   2  11
HETATM   11  C5  UNL     1       0.778  -0.438   0.173  1.00  0.00     0.137 C 
HETATM   12  N1  UNL     1       1.863  -0.890  -0.318  1.00  0.00    -0.309 N 
ATOM     13  H1  UNL     1       1.855  -1.314  -1.246  1.00  0.00     0.186 HD
BRANCH  12  14
HETATM   14  N2  UNL     1       3.052  -0.816   0.386  1.00  0.00    -0.300 N 
ATOM     15  H2  UNL     1       3.205  -1.479   1.146  1.00  0.00     0.187 HD
BRANCH  14  16
HETATM   16  C6  UNL     1       3.978   0.046   0.134  1.00  0.00     0.061 A 
HETATM   17  C7  UNL     1       3.785   0.956  -0.899  1.00  0.00     0.049 A 
HETATM   18  C8  UNL     1       4.812   1.861  -1.128  1.00  0.00     0.090 A 
HETATM   19  N3  UNL     1       5.935   1.855  -0.387  1.00  0.00    -0.365 N 
HETATM   20  C9  UNL     1       6.146   0.986   0.618  1.00  0.00     0.044 A 
ATOM     21  H3  UNL     1       6.660   2.541  -0.597  1.00  0.00     0.165 HD
HETATM   22  C10 UNL     1       7.297   0.987   1.371  1.00  0.00     0.030 A 
HETATM   23  C14 UNL     1       5.135   0.066   0.872  1.00  0.00     0.019 A 
HETATM   24  C11 UNL     1       7.499   0.089   2.398  1.00  0.00     0.002 A 
HETATM   25  C12 UNL     1       6.487  -0.817   2.638  1.00  0.00     0.001 A 
HETATM   26  C13 UNL     1       5.326  -0.842   1.903  1.00  0.00     0.016 A 
ENDBRANCH  14  16
ENDBRANCH  12  14
ENDBRANCH   2  11
BRANCH   1  27
HETATM   27  C2  UNL     1       0.223  -1.642  -2.711  1.00  0.00     0.037 C 
HETATM   28  C1  UNL     1       0.593  -3.065  -2.292  1.00  0.00     0.010 C 
ENDBRANCH   1  27
BRANCH   6  29
HETATM   29  C17 UNL     1      -4.711   0.669   0.316  1.00  0.00     0.046 A 
HETATM   30  C18 UNL     1      -4.381   0.508   1.631  1.00  0.00     0.030 A 
HETATM   31  C19 UNL     1      -5.132   0.993   2.704  1.00  0.00     0.006 A 
HETATM   32  C20 UNL     1      -6.287   1.681   2.424  1.00  0.00     0.048 A 
HETATM   33  C21 UNL     1      -6.618   1.841   1.096  1.00  0.00     0.099 A 
HETATM   34  N6  UNL     1      -5.869   1.360   0.091  1.00  0.00    -0.342 N 
ATOM     35  H6  UNL     1      -6.173   1.515  -0.870  1.00  0.00     0.167 HD
BRANCH  33  36
HETATM   36  N5  UNL     1      -7.707   2.489   0.837  1.00  0.00    -0.385 N 
ATOM     37  H52 UNL     1      -8.276   2.854   1.601  1.00  0.00     0.157 HD
ATOM     38  H51 UNL     1      -7.952   2.607  -0.146  1.00  0.00     0.157 HD
ENDBRANCH  33  36
ENDBRANCH   6  29
TORSDOF 6
