REMARK  4 active torsions:
REMARK  status: ('A' for Active; 'I' for Inactive)
REMARK    1  A    between atoms: S1_2  and  N1_4 
REMARK    2  A    between atoms: S1_2  and  C15_22 
REMARK    3  A    between atoms: N1_4  and  C1_6 
REMARK    4  A    between atoms: C5_10  and  C6_11 
ROOT
HETATM    1  C1  UNL     1       0.482   0.057   0.643  1.00  0.00     0.043 A 
HETATM    2  C2  UNL     1       0.756   1.246   1.251  1.00  0.00     0.030 A 
HETATM    3  C3  UNL     1      -0.302   2.108   1.544  1.00  0.00     0.003 A 
HETATM    4  C4  UNL     1      -1.602   1.774   1.229  1.00  0.00     0.012 A 
HETATM    5  C5  UNL     1      -1.876   0.569   0.614  1.00  0.00    -0.024 A 
HETATM    6  C14 UNL     1      -0.863  -0.268   0.327  1.00  0.00     0.042 A 
ENDROOT
BRANCH   1   7
HETATM    7  N1  UNL     1       1.475  -0.906   0.346  1.00  0.00    -0.281 N 
ATOM      8  H1  UNL     1       1.318  -1.465  -0.492  1.00  0.00     0.179 HD
BRANCH   7   9
HETATM    9  S1  UNL     1       2.877  -1.243   1.199  1.00  0.00     0.265 S 
HETATM   10  O1  UNL     1       3.031  -0.357   2.438  1.00  0.00    -0.200 OA
HETATM   11  O2  UNL     1       2.734  -2.653   1.764  1.00  0.00    -0.200 OA
BRANCH   9  12
HETATM   12  C15 UNL     1       4.386  -1.113   0.344  1.00  0.00     0.108 A 
HETATM   13  C16 UNL     1       5.225  -2.250   0.281  1.00  0.00     0.028 A 
HETATM   14  C17 UNL     1       6.435  -2.252  -0.356  1.00  0.00     0.004 A 
HETATM   15  C18 UNL     1       6.904  -1.119  -0.983  1.00  0.00     0.032 A 
HETATM   16  C19 UNL     1       6.112  -0.011  -0.936  1.00  0.00     0.061 A 
HETATM   17  N3  UNL     1       6.265   1.221  -1.434  1.00  0.00    -0.350 N 
HETATM   18  C21 UNL     1       4.881  -0.015  -0.286  1.00  0.00     0.083 A 
HETATM   19  C20 UNL     1       5.188   1.974  -1.121  1.00  0.00     0.181 A 
ATOM     20  H3  UNL     1       7.072   1.543  -1.969  1.00  0.00     0.166 HD
HETATM   21  N4  UNL     1       4.333   1.221  -0.415  1.00  0.00    -0.349 N 
ATOM     22  H4  UNL     1       3.433   1.522  -0.042  1.00  0.00     0.166 HD
ENDBRANCH   9  12
ENDBRANCH   7   9
ENDBRANCH   1   7
BRANCH   5  23
HETATM   23  C6  UNL     1      -3.258   0.187   0.265  1.00  0.00    -0.025 A 
HETATM   24  C7  UNL     1      -3.673  -1.128   0.255  1.00  0.00     0.014 A 
HETATM   25  C8  UNL     1      -4.979  -1.479  -0.076  1.00  0.00     0.031 A 
HETATM   26  C9  UNL     1      -5.908  -0.514  -0.406  1.00  0.00     0.042 A 
HETATM   27  N2  UNL     1      -7.211  -0.575  -0.758  1.00  0.00    -0.365 N 
HETATM   28  C12 UNL     1      -5.501   0.804  -0.397  1.00  0.00    -0.007 A 
HETATM   29  C10 UNL     1      -7.688   0.675  -0.986  1.00  0.00     0.089 A 
ATOM     30  H2  UNL     1      -7.756  -1.433  -0.840  1.00  0.00     0.165 HD
HETATM   31  C11 UNL     1      -6.622   1.523  -0.761  1.00  0.00     0.030 A 
HETATM   32  C13 UNL     1      -4.201   1.137  -0.067  1.00  0.00     0.026 A 
ENDBRANCH   5  23
TORSDOF 4
