REMARK  16 active torsions:
REMARK  status: ('A' for Active; 'I' for Inactive)
REMARK    1  A    between atoms: C2_2  and  O1_3 
REMARK    2  A    between atoms: O1_3  and  C3_4 
REMARK    3  A    between atoms: C3_4  and  C4_6 
REMARK    4  A    between atoms: C4_6  and  C5_7 
REMARK    5  A    between atoms: C5_7  and  C6_8 
REMARK    6  A    between atoms: C6_8  and  N1_9 
REMARK    7  A    between atoms: C6_8  and  C18_23 
REMARK       I    between atoms: N1_9  and  C7_11 
REMARK    8  A    between atoms: C7_11  and  C8_13 
REMARK    9  A    between atoms: C8_13  and  C9_14 
REMARK   10  A    between atoms: C18_23  and  O4_24 
REMARK   11  A    between atoms: C18_23  and  N2_26 
REMARK   12  A    between atoms: N2_26  and  C19_28 
REMARK   13  A    between atoms: C19_28  and  C20_29 
REMARK   14  A    between atoms: C19_28  and  C24_33 
REMARK   15  A    between atoms: C20_29  and  C21_30 
REMARK       I    between atoms: C24_33  and  N3_35 
REMARK   16  A    between atoms: N3_35  and  C25_37 
ROOT
HETATM    1  C6  UNL     1       1.021   1.466  -0.491  1.00  0.00     0.160 C 
ENDROOT
BRANCH   1   2
HETATM    2  C5  UNL     1       1.740   2.492   0.416  1.00  0.00     0.043 C 
BRANCH   2   3
HETATM    3  C4  UNL     1       1.438   3.909   0.130  1.00  0.00     0.113 C 
BRANCH   3   4
HETATM    4  C3  UNL     1       2.244   4.702   1.141  1.00  0.00     0.258 C 
HETATM    5  O2  UNL     1       2.634   4.132   2.235  1.00  0.00    -0.265 OA
BRANCH   4   6
HETATM    6  O1  UNL     1       2.596   5.998   0.954  1.00  0.00    -0.322 OA
BRANCH   6   7
HETATM    7  C2  UNL     1       3.356   6.662   1.959  1.00  0.00     0.174 C 
HETATM    8  C1  UNL     1       3.775   8.051   1.490  1.00  0.00     0.034 C 
ENDBRANCH   6   7
ENDBRANCH   4   6
ENDBRANCH   3   4
ENDBRANCH   2   3
ENDBRANCH   1   2
BRANCH   1   9
HETATM    9  N1  UNL     1       1.562   0.135  -0.060  1.00  0.00    -0.346 N 
HETATM   10  C7  UNL     1       2.871  -0.288  -0.440  1.00  0.00     0.238 C 
HETATM   11  O3  UNL     1       3.554   0.542  -1.102  1.00  0.00    -0.269 OA
ATOM     12  H1  UNL     1       0.984  -0.478   0.515  1.00  0.00     0.163 HD
BRANCH  10  13
HETATM   13  C8  UNL     1       3.257  -1.614  -0.029  1.00  0.00     0.057 C 
BRANCH  13  14
HETATM   14  C9  UNL     1       4.629  -2.033   0.188  1.00  0.00    -0.013 C 
HETATM   15  C10 UNL     1       4.584  -3.546   0.560  1.00  0.00     0.019 C 
HETATM   16  C11 UNL     1       5.962  -4.103   0.482  1.00  0.00    -0.013 C 
HETATM   17  C12 UNL     1       6.378  -4.189  -0.970  1.00  0.00     0.005 C 
HETATM   18  C16 UNL     1       6.964  -3.155   1.149  1.00  0.00     0.010 C 
HETATM   19  C13 UNL     1       6.292  -2.810  -1.558  1.00  0.00     0.006 C 
HETATM   20  C14 UNL     1       5.798  -1.755  -0.610  1.00  0.00     0.002 C 
HETATM   21  C15 UNL     1       6.621  -1.779   0.693  1.00  0.00    -0.008 C 
HETATM   22  C17 UNL     1       5.344  -1.322   1.358  1.00  0.00     0.019 C 
ENDBRANCH  13  14
ENDBRANCH  10  13
ENDBRANCH   1   9
BRANCH   1  23
HETATM   23  C18 UNL     1      -0.406   1.447  -0.225  1.00  0.00     0.139 C 
BRANCH  23  24
HETATM   24  O4  UNL     1      -0.851   2.236   0.717  1.00  0.00    -0.348 OA
ATOM     25  H4  UNL     1      -1.785   2.224   0.891  1.00  0.00     0.219 HD
ENDBRANCH  23  24
BRANCH  23  26
HETATM   26  N2  UNL     1      -1.428   0.680  -0.826  1.00  0.00    -0.338 N 
ATOM     27  H2  UNL     1      -1.157   0.027  -1.561  1.00  0.00     0.167 HD
BRANCH  26  28
HETATM   28  C19 UNL     1      -2.826   0.751  -0.479  1.00  0.00     0.079 C 
BRANCH  28  29
HETATM   29  C20 UNL     1      -3.621   1.684  -1.254  1.00  0.00     0.067 C 
BRANCH  29  30
HETATM   30  C21 UNL     1      -3.715   1.553  -2.742  1.00  0.00    -0.017 C 
HETATM   31  C22 UNL     1      -4.620   2.734  -3.163  1.00  0.00     0.010 C 
HETATM   32  C23 UNL     1      -4.378   0.307  -3.236  1.00  0.00     0.010 C 
ENDBRANCH  29  30
ENDBRANCH  28  29
BRANCH  28  33
HETATM   33  C24 UNL     1      -3.454  -0.476  -0.051  1.00  0.00     0.264 C 
HETATM   34  O5  UNL     1      -2.747  -1.492   0.168  1.00  0.00    -0.266 OA
HETATM   35  N3  UNL     1      -4.835  -0.598   0.145  1.00  0.00    -0.351 N 
ATOM     36  H3  UNL     1      -5.402   0.222  -0.073  1.00  0.00     0.163 HD
BRANCH  35  37
HETATM   37  C25 UNL     1      -5.548  -1.777   0.629  1.00  0.00     0.084 C 
HETATM   38  C26 UNL     1      -6.545  -1.362   1.696  1.00  0.00     0.025 C 
HETATM   39  C27 UNL     1      -7.138  -2.571   2.329  1.00  0.00     0.002 C 
HETATM   40  C28 UNL     1      -6.886  -3.873   1.650  1.00  0.00     0.000 C 
HETATM   41  C29 UNL     1      -6.805  -3.815   0.167  1.00  0.00     0.002 C 
HETATM   42  C30 UNL     1      -6.277  -2.542  -0.418  1.00  0.00     0.025 C 
ENDBRANCH  35  37
ENDBRANCH  28  33
ENDBRANCH  26  28
ENDBRANCH  23  26
ENDBRANCH   1  23
TORSDOF 16
