REMARK  10 active torsions:
REMARK  status: ('A' for Active; 'I' for Inactive)
REMARK    1  A    between atoms: C2_2  and  C3_3 
REMARK    2  A    between atoms: C3_3  and  N1_4 
REMARK    3  A    between atoms: C3_3  and  C16_20 
REMARK       I    between atoms: N1_4  and  C4_6 
REMARK    4  A    between atoms: C4_6  and  C5_8 
REMARK    5  A    between atoms: C5_8  and  N2_10 
REMARK    6  A    between atoms: C12_16  and  C13_17 
REMARK       I    between atoms: C16_20  and  N3_22 
REMARK    7  A    between atoms: N3_22  and  C17_24 
REMARK    8  A    between atoms: C17_24  and  C18_25 
REMARK    9  A    between atoms: C17_24  and  C25_32 
REMARK   10  A    between atoms: C18_25  and  C19_26 
REMARK       I    between atoms: C25_32  and  N4_34 
ROOT
HETATM    1  C3  UNL     1      -0.105  -0.294  -2.475  1.00  0.00     0.199 C 
ENDROOT
BRANCH   1   2
HETATM    2  C2  UNL     1       0.205   0.894  -3.315  1.00  0.00    -0.003 C 
HETATM    3  C1  UNL     1       0.320   2.114  -2.819  1.00  0.00     0.009 C 
ENDBRANCH   1   2
BRANCH   1   4
HETATM    4  N1  UNL     1      -1.389  -0.223  -1.855  1.00  0.00    -0.343 N 
HETATM    5  C4  UNL     1      -2.476  -1.096  -2.098  1.00  0.00     0.241 C 
HETATM    6  O1  UNL     1      -2.213  -2.006  -2.968  1.00  0.00    -0.271 OA
ATOM      7  H1  UNL     1      -1.536   0.524  -1.176  1.00  0.00     0.163 HD
BRANCH   5   8
HETATM    8  C5  UNL     1      -3.797  -1.050  -1.482  1.00  0.00     0.172 C 
HETATM    9  C6  UNL     1      -4.360  -2.428  -1.193  1.00  0.00     0.042 C 
BRANCH   8  10
HETATM   10  N2  UNL     1      -3.967  -0.117  -0.401  1.00  0.00    -0.375 N 
HETATM   11  C7  UNL     1      -3.149  -0.439   0.688  1.00  0.00     0.064 C 
HETATM   12  C8  UNL     1      -3.761  -0.927   1.945  1.00  0.00     0.020 C 
HETATM   13  C9  UNL     1      -2.889  -0.582   3.171  1.00  0.00     0.015 C 
HETATM   14  C10 UNL     1      -5.185  -0.576   2.188  1.00  0.00     0.011 C 
HETATM   15  C11 UNL     1      -5.993  -0.320   0.978  1.00  0.00     0.026 C 
HETATM   16  C12 UNL     1      -5.300   0.310  -0.167  1.00  0.00     0.087 C 
BRANCH  16  17
HETATM   17  C13 UNL     1      -5.435   1.817  -0.233  1.00  0.00     0.000 C 
HETATM   18  C14 UNL     1      -5.018   2.326  -1.620  1.00  0.00     0.011 C 
HETATM   19  C15 UNL     1      -4.613   2.571   0.750  1.00  0.00     0.011 C 
ENDBRANCH  16  17
ENDBRANCH   8  10
ENDBRANCH   5   8
ENDBRANCH   1   4
BRANCH   1  20
HETATM   20  C16 UNL     1       1.004  -0.538  -1.477  1.00  0.00     0.244 C 
HETATM   21  O2  UNL     1       0.636  -0.648  -0.286  1.00  0.00    -0.271 OA
HETATM   22  N3  UNL     1       2.301  -0.615  -1.964  1.00  0.00    -0.346 N 
ATOM     23  H3  UNL     1       2.414  -0.504  -2.972  1.00  0.00     0.163 HD
BRANCH  22  24
HETATM   24  C17 UNL     1       3.528  -0.838  -1.190  1.00  0.00     0.177 C 
BRANCH  24  25
HETATM   25  C18 UNL     1       3.599   0.319  -0.245  1.00  0.00     0.039 C 
BRANCH  25  26
HETATM   26  C19 UNL     1       4.761   0.411   0.669  1.00  0.00    -0.012 C 
HETATM   27  C20 UNL     1       4.528   1.692   1.506  1.00  0.00     0.005 C 
HETATM   28  C21 UNL     1       5.809   2.442   1.726  1.00  0.00     0.000 C 
HETATM   29  C22 UNL     1       6.878   1.467   2.157  1.00  0.00     0.000 C 
HETATM   30  C23 UNL     1       7.180   0.572   0.974  1.00  0.00     0.000 C 
HETATM   31  C24 UNL     1       6.074   0.638  -0.056  1.00  0.00     0.005 C 
ENDBRANCH  25  26
ENDBRANCH  24  25
BRANCH  24  32
HETATM   32  C25 UNL     1       3.497  -2.149  -0.538  1.00  0.00     0.240 C 
HETATM   33  O3  UNL     1       2.403  -2.823  -0.637  1.00  0.00    -0.271 OA
HETATM   34  N4  UNL     1       4.513  -2.789   0.190  1.00  0.00    -0.364 N 
HETATM   35  C26 UNL     1       4.344  -4.100   0.796  1.00  0.00     0.149 C 
ATOM     36  H4  UNL     1       5.409  -2.313   0.298  1.00  0.00     0.161 HD
ENDBRANCH  24  32
ENDBRANCH  22  24
ENDBRANCH   1  20
TORSDOF 10
