REMARK  8 active torsions:
REMARK  status: ('A' for Active; 'I' for Inactive)
REMARK    1  A    between atoms: C2_2  and  C3_3 
REMARK    2  A    between atoms: C3_3  and  C5_5 
REMARK    3  A    between atoms: C5_5  and  C18_24 
REMARK    4  A    between atoms: N1_6  and  S1_8 
REMARK    5  A    between atoms: S1_8  and  C6_11 
REMARK    6  A    between atoms: C8_13  and  O3_14 
REMARK    7  A    between atoms: C10_16  and  C11_17 
REMARK       I    between atoms: C18_24  and  N2_26 
REMARK    8  A    between atoms: N2_26  and  C19_27 
ROOT
HETATM    1  C5  UNL     1       2.389  -0.092   0.488  1.00  0.00     0.106 C 
HETATM    2  N1  UNL     1       1.185   0.481   0.724  1.00  0.00    -0.277 N 
ATOM      3  H1  UNL     1       1.057   1.176  -0.011  1.00  0.00     0.179 HD
ENDROOT
BRANCH   2   4
HETATM    4  S1  UNL     1      -0.118   0.560   1.628  1.00  0.00     0.263 S 
HETATM    5  O1  UNL     1      -0.300  -0.774   2.511  1.00  0.00    -0.200 OA
HETATM    6  O2  UNL     1      -0.195   1.588   2.687  1.00  0.00    -0.200 OA
BRANCH   4   7
HETATM    7  C6  UNL     1      -1.636   0.505   0.724  1.00  0.00     0.088 A 
HETATM    8  C7  UNL     1      -1.891  -0.498  -0.177  1.00  0.00     0.063 A 
HETATM    9  C8  UNL     1      -3.074  -0.563  -0.887  1.00  0.00     0.076 A 
HETATM   10  C10 UNL     1      -4.122   0.429  -0.690  1.00  0.00    -0.015 A 
HETATM   11  C14 UNL     1      -3.815   1.403   0.216  1.00  0.00    -0.045 A 
HETATM   12  C15 UNL     1      -4.815   2.443   0.554  1.00  0.00     0.049 C 
HETATM   13  C16 UNL     1      -2.612   1.447   0.894  1.00  0.00    -0.032 A 
HETATM   14  C17 UNL     1      -2.227   2.662   1.703  1.00  0.00     0.050 C 
BRANCH   9  15
HETATM   15  O3  UNL     1      -3.434  -1.472  -1.795  1.00  0.00    -0.355 OA
HETATM   16  C9  UNL     1      -2.937  -2.545  -2.417  1.00  0.00     0.210 C 
ENDBRANCH   9  15
BRANCH  10  17
HETATM   17  C11 UNL     1      -5.364   0.231  -1.415  1.00  0.00     0.014 C 
HETATM   18  C12 UNL     1      -6.232   1.386  -1.738  1.00  0.00     0.015 C 
HETATM   19  C13 UNL     1      -6.203  -0.870  -0.696  1.00  0.00     0.015 C 
ENDBRANCH  10  17
ENDBRANCH   4   7
ENDBRANCH   2   4
BRANCH   1  20
HETATM   20  C3  UNL     1       2.422  -1.606   0.145  1.00  0.00     0.038 C 
HETATM   21  C4  UNL     1       2.340  -2.426   1.473  1.00  0.00     0.016 C 
BRANCH  20  22
HETATM   22  C2  UNL     1       3.810  -1.957  -0.325  1.00  0.00     0.006 C 
HETATM   23  C1  UNL     1       3.941  -3.455  -0.585  1.00  0.00     0.006 C 
ENDBRANCH  20  22
ENDBRANCH   1  20
BRANCH   1  24
HETATM   24  C18 UNL     1       3.335   0.635  -0.398  1.00  0.00     0.342 C 
HETATM   25  O4  UNL     1       2.884   0.969  -1.531  1.00  0.00    -0.250 OA
HETATM   26  N2  UNL     1       4.612   0.945  -0.016  1.00  0.00    -0.330 NA
BRANCH  26  27
HETATM   27  C19 UNL     1       5.676   1.206   0.331  1.00  0.00     0.262 A 
HETATM   28  N3  UNL     1       6.661   1.313  -0.818  1.00  0.00    -0.325 N 
HETATM   29  C20 UNL     1       7.776   1.723  -0.238  1.00  0.00     0.109 A 
ATOM     30  H3  UNL     1       6.501   1.115  -1.806  1.00  0.00     0.169 HD
HETATM   31  C21 UNL     1       7.609   1.871   1.077  1.00  0.00     0.109 A 
HETATM   32  N4  UNL     1       6.343   1.558   1.415  1.00  0.00    -0.325 N 
ATOM     33  H4  UNL     1       5.960   1.588   2.360  1.00  0.00     0.169 HD
ENDBRANCH  26  27
ENDBRANCH   1  24
TORSDOF 8
