REMARK  9 active torsions:
REMARK  status: ('A' for Active; 'I' for Inactive)
REMARK    1  A    between atoms: C2_2  and  N1_3 
REMARK    2  A    between atoms: N1_3  and  C3_4 
REMARK    3  A    between atoms: N1_3  and  C5_6 
REMARK    4  A    between atoms: C5_6  and  C6_7 
REMARK    5  A    between atoms: C6_7  and  N2_8 
REMARK    6  A    between atoms: N2_8  and  C7_11 
REMARK    7  A    between atoms: C13_19  and  S1_20 
REMARK    8  A    between atoms: S1_20  and  N4_23 
REMARK    9  A    between atoms: N4_23  and  C14_25 
ROOT
HETATM    1  C7  UNL     1      -2.797   1.584  -0.553  1.00  0.00     0.195 A 
HETATM    2  C8  UNL     1      -1.973   1.093   0.647  1.00  0.00     0.028 A 
HETATM    3  C9  UNL     1      -1.553  -0.337   0.613  1.00  0.00     0.064 C 
HETATM    4  C10 UNL     1      -0.105  -0.495   0.270  1.00  0.00     0.017 A 
HETATM    5  N3  UNL     1       0.859  -1.344   0.667  1.00  0.00    -0.358 N 
ATOM      6  H3  UNL     1       0.721  -2.094   1.344  1.00  0.00     0.166 HD
HETATM    7  C11 UNL     1       2.026  -1.079   0.060  1.00  0.00     0.044 A 
HETATM    8  C12 UNL     1       3.303  -1.637   0.108  1.00  0.00     0.055 A 
HETATM    9  C13 UNL     1       4.343  -1.142  -0.651  1.00  0.00     0.081 A 
HETATM   10  C18 UNL     1       4.055  -0.066  -1.463  1.00  0.00     0.026 A 
HETATM   11  C19 UNL     1       2.803   0.501  -1.528  1.00  0.00     0.016 A 
HETATM   12  C20 UNL     1       1.786   0.004  -0.773  1.00  0.00    -0.001 A 
HETATM   13  C21 UNL     1       0.453   0.359  -0.633  1.00  0.00    -0.023 A 
HETATM   14  C22 UNL     1      -0.348   1.416  -1.258  1.00  0.00     0.048 C 
HETATM   15  C23 UNL     1      -1.405   1.988  -0.357  1.00  0.00     0.027 A 
ENDROOT
BRANCH   1  16
HETATM   16  N2  UNL     1      -3.934   2.368  -0.187  1.00  0.00    -0.069 N 
ATOM     17  H22 UNL     1      -4.373   2.782  -1.009  1.00  0.00     0.277 HD
ATOM     18  H21 UNL     1      -3.651   3.221   0.295  1.00  0.00     0.277 HD
BRANCH  16  19
HETATM   19  C6  UNL     1      -4.901   1.620   0.601  1.00  0.00     0.262 C 
BRANCH  19  20
HETATM   20  C5  UNL     1      -5.558   0.552  -0.240  1.00  0.00     0.299 C 
BRANCH  20  21
HETATM   21  N1  UNL     1      -6.502  -0.178   0.543  1.00  0.00     0.089 N 
BRANCH  21  22
HETATM   22  C2  UNL     1      -7.669   0.538   0.952  1.00  0.00     0.268 C 
HETATM   23  C1  UNL     1      -8.270  -0.233   2.129  1.00  0.00     0.037 C 
ENDBRANCH  21  22
BRANCH  21  24
HETATM   24  C3  UNL     1      -6.824  -1.469  -0.046  1.00  0.00     0.268 C 
HETATM   25  C4  UNL     1      -7.535  -1.298  -1.390  1.00  0.00     0.037 C 
ENDBRANCH  21  24
ENDBRANCH  20  21
ENDBRANCH  19  20
ENDBRANCH  16  19
ENDBRANCH   1  16
BRANCH   9  26
HETATM   26  S1  UNL     1       5.943  -1.876  -0.561  1.00  0.00     0.259 S 
HETATM   27  O1  UNL     1       5.686  -3.341  -0.230  1.00  0.00    -0.201 OA
HETATM   28  O2  UNL     1       6.519  -1.748  -1.944  1.00  0.00    -0.201 OA
BRANCH  26  29
HETATM   29  N4  UNL     1       6.829  -1.102   0.652  1.00  0.00    -0.307 N 
ATOM     30  H4  UNL     1       6.570  -1.197   1.634  1.00  0.00     0.173 HD
BRANCH  29  31
HETATM   31  C14 UNL     1       7.942  -0.317   0.265  1.00  0.00     0.029 C 
HETATM   32  C15 UNL     1       9.075  -1.035  -0.388  1.00  0.00     0.038 C 
HETATM   33  C16 UNL     1       8.521   0.301   1.549  1.00  0.00     0.038 C 
HETATM   34  C17 UNL     1       7.559   0.890  -0.602  1.00  0.00     0.038 C 
ENDBRANCH  29  31
ENDBRANCH  26  29
ENDBRANCH   9  26
TORSDOF 9
