REMARK  9 active torsions:
REMARK  status: ('A' for Active; 'I' for Inactive)
REMARK    1  A    between atoms: C2_2  and  C4_4 
REMARK    2  A    between atoms: C4_4  and  C5_5 
REMARK    3  A    between atoms: C5_5  and  C6_6 
REMARK    4  A    between atoms: C6_6  and  N1_7 
REMARK    5  A    between atoms: C6_6  and  C7_11 
REMARK       I    between atoms: C7_11  and  N2_13 
REMARK    6  A    between atoms: N2_13  and  C8_15 
REMARK    7  A    between atoms: C8_15  and  C10_17 
REMARK       I    between atoms: C10_17  and  N3_19 
REMARK    8  A    between atoms: C13_22  and  C14_23 
REMARK       I    between atoms: C14_23  and  N4_25 
REMARK    9  A    between atoms: N4_25  and  C15_26 
ROOT
HETATM    1  C10 UNL     1       1.427  -0.588   1.951  1.00  0.00     0.243 C 
HETATM    2  O2  UNL     1       2.592  -1.050   1.945  1.00  0.00    -0.271 OA
HETATM    3  N3  UNL     1       0.444  -1.236   2.740  1.00  0.00    -0.336 N 
HETATM    4  C11 UNL     1       0.362  -2.296   3.705  1.00  0.00     0.129 C 
HETATM    5  C12 UNL     1      -1.132  -2.261   3.600  1.00  0.00     0.056 C 
HETATM    6  C13 UNL     1      -1.024  -1.065   2.727  1.00  0.00     0.195 C 
ENDROOT
BRANCH   1   7
HETATM    7  C8  UNL     1       1.113   0.590   1.159  1.00  0.00     0.172 C 
HETATM    8  C9  UNL     1       1.036   1.789   2.126  1.00  0.00     0.042 C 
BRANCH   7   9
HETATM    9  N2  UNL     1       2.212   0.801   0.191  1.00  0.00    -0.346 N 
HETATM   10  C7  UNL     1       3.384   1.442   0.622  1.00  0.00     0.248 C 
HETATM   11  O1  UNL     1       3.566   1.854   1.791  1.00  0.00    -0.271 OA
ATOM     12  H2  UNL     1       2.119   0.486  -0.775  1.00  0.00     0.163 HD
BRANCH  10  13
HETATM   13  C6  UNL     1       4.485   1.635  -0.414  1.00  0.00     0.274 C 
BRANCH  13  14
HETATM   14  C5  UNL     1       4.704   0.421  -1.221  1.00  0.00     0.043 C 
BRANCH  14  15
HETATM   15  C4  UNL     1       5.697   0.515  -2.326  1.00  0.00     0.006 C 
BRANCH  15  16
HETATM   16  C2  UNL     1       7.095   0.752  -1.848  1.00  0.00    -0.023 C 
HETATM   17  C1  UNL     1       7.505  -0.408  -0.940  1.00  0.00     0.009 C 
HETATM   18  C3  UNL     1       8.045   0.752  -3.065  1.00  0.00     0.009 C 
ENDBRANCH  15  16
ENDBRANCH  14  15
ENDBRANCH  13  14
BRANCH  13  19
HETATM   19  N1  UNL     1       5.597   2.187   0.306  1.00  0.00    -0.067 N 
ATOM     20  H13 UNL     1       6.000   1.462   0.900  1.00  0.00     0.275 HD
ATOM     21  H12 UNL     1       6.363   2.356  -0.346  1.00  0.00     0.275 HD
ATOM     22  H11 UNL     1       5.445   3.027   0.864  1.00  0.00     0.275 HD
ENDBRANCH  13  19
ENDBRANCH  10  13
ENDBRANCH   7   9
ENDBRANCH   1   7
BRANCH   6  23
HETATM   23  C14 UNL     1      -1.537  -1.312   1.288  1.00  0.00     0.310 C 
HETATM   24  O3  UNL     1      -0.639  -1.999   0.657  1.00  0.00    -0.255 OA
HETATM   25  N4  UNL     1      -2.687  -0.856   0.880  1.00  0.00    -0.407 NA
BRANCH  25  26
HETATM   26  C15 UNL     1      -3.949  -0.357   0.425  1.00  0.00     0.178 C 
HETATM   27  C16 UNL     1      -4.938  -1.478   0.123  1.00  0.00     0.022 C 
HETATM   28  C17 UNL     1      -4.376  -2.536  -0.750  1.00  0.00     0.013 C 
HETATM   29  C18 UNL     1      -6.282  -0.954  -0.209  1.00  0.00    -0.012 C 
HETATM   30  C19 UNL     1      -6.816  -1.255  -1.569  1.00  0.00     0.010 C 
HETATM   31  C20 UNL     1      -6.366   0.565  -0.002  1.00  0.00     0.005 C 
HETATM   32  C21 UNL     1      -5.309   1.299  -0.750  1.00  0.00     0.012 C 
HETATM   33  C22 UNL     1      -3.911   0.741  -0.566  1.00  0.00    -0.015 C 
HETATM   34  C23 UNL     1      -3.122   1.885   0.097  1.00  0.00     0.018 C 
HETATM   35  C24 UNL     1      -3.277   0.469  -1.879  1.00  0.00     0.018 C 
ENDBRANCH  25  26
ENDBRANCH   6  23
TORSDOF 9
