REMARK  11 active torsions:
REMARK  status: ('A' for Active; 'I' for Inactive)
REMARK    1  A    between atoms: C2_2  and  O1_4 
REMARK    2  A    between atoms: O1_4  and  C4_5 
REMARK    3  A    between atoms: C4_5  and  C5_6 
REMARK    4  A    between atoms: C6_7  and  N1_8 
REMARK    5  A    between atoms: N1_8  and  C7_10 
REMARK    6  A    between atoms: C7_10  and  O2_11 
REMARK    7  A    between atoms: C7_10  and  N2_13 
REMARK       I    between atoms: N2_13  and  C8_15 
REMARK    8  A    between atoms: C8_15  and  C9_17 
REMARK    9  A    between atoms: C9_17  and  N3_18 
REMARK   10  A    between atoms: C9_17  and  C20_32 
REMARK       I    between atoms: N3_18  and  C10_20 
REMARK       I    between atoms: C10_20  and  N4_22 
REMARK   11  A    between atoms: C16_28  and  C17_29 
ROOT
HETATM    1  C9  UNL     1      -0.097  -1.471  -1.797  1.00  0.00     0.186 C 
ENDROOT
BRANCH   1   2
HETATM    2  C8  UNL     1       1.040  -1.519  -0.799  1.00  0.00     0.248 C 
HETATM    3  N2  UNL     1       2.351  -1.658  -1.249  1.00  0.00    -0.291 N 
ATOM      4  H2  UNL     1       2.474  -1.698  -2.261  1.00  0.00     0.172 HD
HETATM    5  O3  UNL     1       0.707  -1.423   0.405  1.00  0.00    -0.271 OA
BRANCH   3   6
HETATM    6  C7  UNL     1       3.523  -1.750  -0.484  1.00  0.00     0.223 C 
BRANCH   6   7
HETATM    7  N1  UNL     1       3.568  -1.725   0.914  1.00  0.00    -0.333 N 
ATOM      8  H1  UNL     1       2.661  -1.706   1.380  1.00  0.00     0.168 HD
BRANCH   7   9
HETATM    9  C6  UNL     1       4.691  -1.722   1.774  1.00  0.00     0.089 C 
HETATM   10  C5  UNL     1       5.569  -0.594   1.994  1.00  0.00     0.016 C 
BRANCH  10  11
HETATM   11  C4  UNL     1       6.246   0.097   0.904  1.00  0.00     0.197 C 
BRANCH  11  12
HETATM   12  O1  UNL     1       5.452   0.849   0.085  1.00  0.00    -0.383 OA
BRANCH  12  13
HETATM   13  C2  UNL     1       4.890   1.954   0.723  1.00  0.00     0.113 C 
HETATM   14  C1  UNL     1       5.390   3.245   0.040  1.00  0.00     0.039 C 
HETATM   15  C3  UNL     1       3.407   1.954   0.533  1.00  0.00     0.039 C 
ENDBRANCH  12  13
ENDBRANCH  11  12
ENDBRANCH  10  11
ENDBRANCH   7   9
ENDBRANCH   6   7
BRANCH   6  16
HETATM   16  O2  UNL     1       4.644  -1.867  -1.147  1.00  0.00    -0.332 OA
ATOM     17  H2  UNL     1       4.613  -1.884  -2.096  1.00  0.00     0.221 HD
ENDBRANCH   6  16
ENDBRANCH   3   6
ENDBRANCH   1   2
BRANCH   1  18
HETATM   18  N3  UNL     1      -1.326  -1.045  -1.090  1.00  0.00    -0.329 N 
HETATM   19  C10 UNL     1      -1.991   0.149  -1.490  1.00  0.00     0.319 C 
HETATM   20  O4  UNL     1      -1.540   0.855  -2.452  1.00  0.00    -0.247 OA
HETATM   21  N4  UNL     1      -3.159   0.545  -0.810  1.00  0.00    -0.325 N 
HETATM   22  C11 UNL     1      -3.936   1.734  -1.111  1.00  0.00     0.137 C 
HETATM   23  C14 UNL     1      -3.782  -0.132   0.279  1.00  0.00     0.112 C 
HETATM   24  C12 UNL     1      -5.046   1.662  -0.098  1.00  0.00     0.035 C 
HETATM   25  C13 UNL     1      -5.263   0.136  -0.066  1.00  0.00     0.040 C 
HETATM   26  C16 UNL     1      -4.421   1.827   1.249  1.00  0.00    -0.072 C 
HETATM   27  C15 UNL     1      -3.669   0.751   1.465  1.00  0.00     0.002 C 
ATOM     28  H3  UNL     1      -1.695  -1.604  -0.320  1.00  0.00     0.165 HD
BRANCH  26  29
HETATM   29  C17 UNL     1      -4.565   2.939   2.208  1.00  0.00     0.006 C 
HETATM   30  C18 UNL     1      -5.999   3.142   2.645  1.00  0.00     0.014 C 
HETATM   31  C19 UNL     1      -3.733   2.636   3.430  1.00  0.00     0.014 C 
ENDBRANCH  26  29
ENDBRANCH   1  18
BRANCH   1  32
HETATM   32  C20 UNL     1      -0.357  -2.808  -2.443  1.00  0.00    -0.022 C 
HETATM   33  C21 UNL     1      -1.543  -2.637  -3.415  1.00  0.00     0.017 C 
HETATM   34  C22 UNL     1       0.789  -3.348  -3.257  1.00  0.00     0.017 C 
HETATM   35  C23 UNL     1      -0.735  -3.888  -1.457  1.00  0.00     0.017 C 
ENDBRANCH   1  32
TORSDOF 11
