REMARK  4 active torsions:
REMARK  status: ('A' for Active; 'I' for Inactive)
REMARK    1  A    between atoms: C2_2  and  C3_3 
REMARK    2  A    between atoms: C3_3  and  C4_4 
REMARK       I    between atoms: C4_4  and  N1_6 
REMARK    3  A    between atoms: N1_6  and  C5_8 
REMARK    4  A    between atoms: C5_8  and  N2_10 
ROOT
HETATM    1  C4  UNL     1      -0.125   0.129  -0.669  1.00  0.00     0.227 C 
HETATM    2  O1  UNL     1      -0.211   1.348  -0.946  1.00  0.00    -0.273 OA
HETATM    3  N1  UNL     1       1.138  -0.412  -0.336  1.00  0.00    -0.304 N 
ATOM      4  H1  UNL     1       1.203  -1.405  -0.111  1.00  0.00     0.171 HD
ENDROOT
BRANCH   1   5
HETATM    5  C3  UNL     1      -1.339  -0.717  -0.695  1.00  0.00     0.137 C 
BRANCH   5   6
HETATM    6  C2  UNL     1      -2.548   0.040  -1.066  1.00  0.00    -0.062 C 
HETATM    7  C1  UNL     1      -2.637   0.736  -2.377  1.00  0.00     0.045 C 
HETATM    8  C10 UNL     1      -3.567   0.115  -0.246  1.00  0.00    -0.019 C 
HETATM    9  C11 UNL     1      -4.871   0.817  -0.415  1.00  0.00     0.047 C 
HETATM   10  S3  UNL     1      -3.719  -0.635   1.400  1.00  0.00    -0.134 SA
HETATM   11  C12 UNL     1      -5.271   1.361   0.931  1.00  0.00     0.015 C 
HETATM   12  C13 UNL     1      -5.295   0.178   1.891  1.00  0.00     0.079 C 
ENDBRANCH   5   6
ENDBRANCH   1   5
BRANCH   3  13
HETATM   13  C5  UNL     1       2.321   0.376  -0.303  1.00  0.00     0.176 C 
HETATM   14  S1  UNL     1       2.279   1.981  -0.655  1.00  0.00    -0.041 SA
BRANCH  13  15
HETATM   15  N2  UNL     1       3.567  -0.212   0.036  1.00  0.00    -0.357 N 
HETATM   16  C6  UNL     1       4.741   0.602   0.062  1.00  0.00     0.135 C 
HETATM   17  C7  UNL     1       5.532   0.501   1.345  1.00  0.00     0.093 C 
HETATM   18  S2  UNL     1       5.722  -1.247   1.858  1.00  0.00    -0.166 SA
HETATM   19  C8  UNL     1       4.915  -2.217   0.526  1.00  0.00     0.093 C 
HETATM   20  C9  UNL     1       3.552  -1.625   0.334  1.00  0.00     0.135 C 
ENDBRANCH  13  15
ENDBRANCH   3  13
TORSDOF 4
