REMARK  3 active torsions:
REMARK  status: ('A' for Active; 'I' for Inactive)
REMARK    1  A    between atoms: C4_6  and  N2_7 
REMARK    2  A    between atoms: C9_15  and  N4_16 
REMARK    3  A    between atoms: N4_16  and  C10_17 
ROOT
HETATM    1  C1  UNL     1       0.535   3.275  -0.839  1.00  0.00     0.055 C 
HETATM    2  C2  UNL     1      -0.568   2.335  -0.559  1.00  0.00     0.012 A 
HETATM    3  C3  UNL     1      -1.865   2.729  -0.717  1.00  0.00     0.117 A 
HETATM    4  N1  UNL     1      -2.870   1.875  -0.463  1.00  0.00    -0.201 N 
ATOM      5  H1  UNL     1      -3.839   2.173  -0.579  1.00  0.00     0.183 HD
HETATM    6  C4  UNL     1      -2.586   0.608  -0.049  1.00  0.00     0.682 A 
HETATM    7  N3  UNL     1      -1.335   0.245   0.097  1.00  0.00    -0.164 N 
ATOM      8  H3  UNL     1      -1.164  -0.711   0.409  1.00  0.00     0.187 HD
HETATM    9  C9  UNL     1      -0.242   1.027  -0.129  1.00  0.00     0.195 A 
ENDROOT
BRANCH   9  10
HETATM   10  N4  UNL     1       0.875   0.659   0.056  1.00  0.00    -0.424 NA
BRANCH  10  11
HETATM   11  C10 UNL     1       2.131   0.236   0.267  1.00  0.00     0.165 C 
HETATM   12  C11 UNL     1       2.230  -1.126   0.903  1.00  0.00     0.040 C 
HETATM   13  C12 UNL     1       3.482  -1.855   0.655  1.00  0.00     0.007 C 
HETATM   14  C13 UNL     1       4.628  -0.888   0.459  1.00  0.00    -0.019 C 
HETATM   15  C14 UNL     1       5.954  -1.602   0.290  1.00  0.00     0.010 C 
HETATM   16  C15 UNL     1       4.352  -0.212  -0.870  1.00  0.00     0.007 C 
HETATM   17  C16 UNL     1       3.008   0.439  -0.919  1.00  0.00     0.040 C 
ENDBRANCH  10  11
ENDBRANCH   9  10
BRANCH   6  18
HETATM   18  N2  UNL     1      -3.722  -0.196   0.235  1.00  0.00    -0.216 N 
HETATM   19  C5  UNL     1      -4.840   0.449   0.971  1.00  0.00     0.151 C 
HETATM   20  C6  UNL     1      -5.982   0.519  -0.029  1.00  0.00     0.094 C 
HETATM   21  S1  UNL     1      -6.452  -1.203  -0.373  1.00  0.00    -0.166 SA
HETATM   22  C7  UNL     1      -5.086  -2.229   0.190  1.00  0.00     0.094 C 
HETATM   23  C8  UNL     1      -3.791  -1.541  -0.193  1.00  0.00     0.151 C 
ENDBRANCH   6  18
TORSDOF 3
