REMARK  7 active torsions:
REMARK  status: ('A' for Active; 'I' for Inactive)
REMARK    1  A    between atoms: C2_2  and  C3_3 
REMARK    2  A    between atoms: C3_3  and  C4_4 
REMARK    3  A    between atoms: C4_4  and  C5_5 
REMARK    4  A    between atoms: C5_5  and  C6_6 
REMARK    5  A    between atoms: C7_7  and  C8_8 
REMARK    6  A    between atoms: C8_8  and  O1_9 
REMARK    7  A    between atoms: C16_19  and  O3_20 
ROOT
HETATM    1  C5  UNL     1      -1.317  -0.429  -0.611  1.00  0.00     0.233 C 
HETATM    2  O2  UNL     1      -1.753  -1.569  -1.236  1.00  0.00    -0.337 OA
HETATM    3  C14 UNL     1      -3.101  -1.618  -0.960  1.00  0.00     0.157 C 
HETATM    4  C15 UNL     1      -3.563  -3.002  -0.559  1.00  0.00     0.066 C 
HETATM    5  C16 UNL     1      -3.681  -3.001   0.939  1.00  0.00     0.123 C 
HETATM    6  C17 UNL     1      -3.835  -1.546   1.351  1.00  0.00     0.066 C 
HETATM    7  C18 UNL     1      -3.282  -0.725   0.229  1.00  0.00     0.157 C 
HETATM    8  O4  UNL     1      -1.982  -0.316   0.603  1.00  0.00    -0.337 OA
ENDROOT
BRANCH   1   9
HETATM    9  C4  UNL     1      -1.607   0.837  -1.393  1.00  0.00     0.083 C 
BRANCH   9  10
HETATM   10  C3  UNL     1      -1.204   1.998  -0.496  1.00  0.00     0.006 C 
BRANCH  10  11
HETATM   11  C2  UNL     1      -1.448   3.330  -1.174  1.00  0.00    -0.004 C 
HETATM   12  C1  UNL     1      -1.016   4.406  -0.202  1.00  0.00     0.005 C 
ENDBRANCH  10  11
ENDBRANCH   9  10
ENDBRANCH   1   9
BRANCH   1  13
HETATM   13  C6  UNL     1       0.120  -0.460  -0.302  1.00  0.00    -0.035 C 
HETATM   14  C7  UNL     1       1.302  -0.502  -0.058  1.00  0.00    -0.063 C 
BRANCH  14  15
HETATM   15  C8  UNL     1       2.732  -0.577   0.228  1.00  0.00     0.121 C 
HETATM   16  C9  UNL     1       3.097   0.599   1.086  1.00  0.00     0.051 C 
HETATM   17  C10 UNL     1       4.563   0.682   1.333  1.00  0.00     0.004 C 
HETATM   18  C11 UNL     1       5.433  -0.161   0.508  1.00  0.00     0.000 C 
HETATM   19  C12 UNL     1       4.938  -0.638  -0.795  1.00  0.00     0.004 C 
HETATM   20  C13 UNL     1       3.486  -0.413  -1.068  1.00  0.00     0.051 C 
BRANCH  15  21
HETATM   21  O1  UNL     1       3.091  -1.757   0.854  1.00  0.00    -0.378 OA
ATOM     22  H1  UNL     1       4.021  -1.806   1.040  1.00  0.00     0.211 HD
ENDBRANCH  15  21
ENDBRANCH  14  15
ENDBRANCH   1  13
BRANCH   5  23
HETATM   23  O3  UNL     1      -4.821  -3.666   1.388  1.00  0.00    -0.395 OA
ATOM     24  H3  UNL     1      -4.896  -3.665   2.335  1.00  0.00     0.210 HD
ENDBRANCH   5  23
TORSDOF 7
