REMARK  4 active torsions:
REMARK  status: ('A' for Active; 'I' for Inactive)
REMARK    1  A    between atoms: O1_1  and  C1_3 
REMARK    2  A    between atoms: C1_3  and  C2_4 
REMARK    3  A    between atoms: C4_7  and  N1_8 
REMARK    4  A    between atoms: N1_8  and  C5_10 
ROOT
HETATM    1  C2  UNL     1      -1.157   0.766  -0.827  1.00  0.00     0.054 A 
HETATM    2  C3  UNL     1      -0.764   2.047  -1.128  1.00  0.00     0.081 A 
HETATM    3  S1  UNL     1       0.902   1.998  -0.775  1.00  0.00    -0.064 SA
HETATM    4  C4  UNL     1       1.015   0.375  -0.273  1.00  0.00     0.145 A 
HETATM    5  N2  UNL     1      -0.260  -0.054  -0.404  1.00  0.00    -0.337 N 
ATOM      6  H2  UNL     1      -0.508  -1.015  -0.171  1.00  0.00     0.168 HD
ENDROOT
BRANCH   1   7
HETATM    7  C1  UNL     1      -2.633   0.408  -0.995  1.00  0.00     0.130 C 
HETATM    8  C11 UNL     1      -3.464   1.482  -0.274  1.00  0.00     0.317 C 
HETATM    9  N3  UNL     1      -4.716   0.887   0.106  1.00  0.00     0.091 N 
HETATM   10  C12 UNL     1      -5.216  -0.090  -0.853  1.00  0.00     0.273 C 
HETATM   11  C16 UNL     1      -4.544   0.147   1.355  1.00  0.00     0.273 C 
HETATM   12  C13 UNL     1      -4.338  -1.309  -0.877  1.00  0.00     0.038 C 
HETATM   13  C14 UNL     1      -2.975  -0.884  -0.298  1.00  0.00     0.031 C 
HETATM   14  C15 UNL     1      -3.249  -0.622   1.187  1.00  0.00     0.038 C 
BRANCH   7  15
HETATM   15  O1  UNL     1      -2.962   0.359  -2.330  1.00  0.00    -0.381 OA
ATOM     16  H1  UNL     1      -3.880   0.136  -2.434  1.00  0.00     0.211 HD
ENDBRANCH   7  15
ENDBRANCH   1   7
BRANCH   4  17
HETATM   17  N1  UNL     1       1.982  -0.334   0.184  1.00  0.00    -0.366 N 
ATOM     18  H1  UNL     1       1.727  -1.299   0.397  1.00  0.00     0.162 HD
BRANCH  17  19
HETATM   19  C5  UNL     1       3.329  -0.024   0.445  1.00  0.00     0.083 C 
HETATM   20  C6  UNL     1       3.802  -1.060   1.456  1.00  0.00     0.025 C 
HETATM   21  C7  UNL     1       5.277  -1.117   1.597  1.00  0.00     0.002 C 
HETATM   22  C8  UNL     1       5.950   0.095   1.012  1.00  0.00     0.000 C 
HETATM   23  C9  UNL     1       5.653   0.100  -0.478  1.00  0.00     0.002 C 
HETATM   24  C10 UNL     1       4.167   0.010  -0.781  1.00  0.00     0.025 C 
ENDBRANCH  17  19
ENDBRANCH   4  17
TORSDOF 4
