REMARK  2 active torsions:
REMARK  status: ('A' for Active; 'I' for Inactive)
REMARK    1  A    between atoms: C2_2  and  N1_3 
REMARK    2  A    between atoms: N2_11  and  N3_13 
ROOT
HETATM    1  C1  UNL     1      -1.319  -2.181  -0.439  1.00  0.00     0.090 C 
HETATM    2  C2  UNL     1      -0.945  -0.743  -0.489  1.00  0.00     0.091 C 
HETATM    3  N2  UNL     1      -1.686   0.092   0.169  1.00  0.00    -0.287 N 
ATOM      4  H2  UNL     1      -1.446   1.083   0.148  1.00  0.00     0.188 HD
ENDROOT
BRANCH   2   5
HETATM    5  N1  UNL     1       0.176  -0.369  -1.237  1.00  0.00    -0.352 N 
HETATM    6  C3  UNL     1       1.227   0.191  -0.776  1.00  0.00    -0.012 C 
HETATM    7  C4  UNL     1       2.349   0.537  -1.674  1.00  0.00     0.052 C 
HETATM    8  C8  UNL     1       1.284   0.479   0.680  1.00  0.00     0.052 C 
HETATM    9  C5  UNL     1       3.686   0.131  -1.095  1.00  0.00     0.006 C 
HETATM   10  C6  UNL     1       3.656  -0.017   0.397  1.00  0.00     0.001 C 
HETATM   11  C7  UNL     1       2.682   0.979   0.976  1.00  0.00     0.006 C 
ATOM     12  H1  UNL     1       0.152  -0.560  -2.239  1.00  0.00     0.166 HD
ENDBRANCH   2   5
BRANCH   3  13
HETATM   13  N3  UNL     1      -2.796  -0.313   0.903  1.00  0.00    -0.275 N 
HETATM   14  C9  UNL     1      -3.956   0.280   0.778  1.00  0.00     0.215 C 
HETATM   15  N4  UNL     1      -4.147   1.362  -0.108  1.00  0.00    -0.065 NA
HETATM   16  N5  UNL     1      -5.054  -0.178   1.554  1.00  0.00    -0.065 NA
ATOM     17  H3  UNL     1      -2.704  -1.092   1.555  1.00  0.00     0.189 HD
ENDBRANCH   3  13
TORSDOF 2
