REMARK  3 active torsions:
REMARK  status: ('A' for Active; 'I' for Inactive)
REMARK    1  A    between atoms: C2_2  and  N1_5 
REMARK       I    between atoms: C5_7  and  N3_9 
REMARK    2  A    between atoms: N3_9  and  S1_11 
REMARK    3  A    between atoms: S1_11  and  N4_13 
ROOT
HETATM    1  N1  UNL     1      -0.747   0.581  -0.817  1.00  0.00    -0.356 N 
ATOM      2  H1  UNL     1      -0.578   1.337  -1.481  1.00  0.00     0.163 HD
HETATM    3  C5  UNL     1       0.230  -0.159  -0.438  1.00  0.00     0.197 C 
HETATM    4  N2  UNL     1       0.071  -1.227   0.481  1.00  0.00    -0.063 NA
HETATM    5  N3  UNL     1       1.507   0.135  -0.984  1.00  0.00    -0.275 N 
ATOM      6  H3  UNL     1       1.618   0.410  -1.960  1.00  0.00     0.179 HD
ENDROOT
BRANCH   1   7
HETATM    7  C2  UNL     1      -2.067   0.361  -0.322  1.00  0.00     0.021 C 
HETATM    8  C1  UNL     1      -2.482  -1.041  -0.717  1.00  0.00     0.037 C 
HETATM    9  C3  UNL     1      -3.037   1.392  -0.901  1.00  0.00     0.037 C 
HETATM   10  C4  UNL     1      -2.072   0.540   1.176  1.00  0.00     0.037 C 
ENDBRANCH   1   7
BRANCH   5  11
HETATM   11  S1  UNL     1       2.738   0.018  -0.021  1.00  0.00     0.102 S 
HETATM   12  C6  UNL     1       3.977   1.142  -0.554  1.00  0.00     0.160 C 
HETATM   13  O1  UNL     1       2.244   0.311   1.366  1.00  0.00    -0.229 OA
BRANCH  11  14
HETATM   14  N4  UNL     1       3.260  -1.623  -0.083  1.00  0.00    -0.345 N 
ATOM     15  H42 UNL     1       2.839  -2.364  -0.643  1.00  0.00     0.167 HD
ATOM     16  H41 UNL     1       4.061  -1.699   0.544  1.00  0.00     0.167 HD
ENDBRANCH  11  14
ENDBRANCH   5  11
TORSDOF 3
