REMARK  0 active torsions:
REMARK  status: ('A' for Active; 'I' for Inactive)
ROOT
HETATM    1  O1  UNL     1      -0.781  -3.304  -1.823  1.00  0.00    -0.274 OA
HETATM    2  C1  UNL     1      -0.528  -2.572  -0.822  1.00  0.00     0.217 C 
HETATM    3  C2  UNL     1      -1.688  -2.334   0.075  1.00  0.00     0.104 C 
HETATM    4  C3  UNL     1      -1.786  -0.911   0.548  1.00  0.00     0.036 C 
HETATM    5  C4  UNL     1      -2.232   0.000  -0.582  1.00  0.00     0.232 C 
HETATM    6  N1  UNL     1      -2.311   1.361  -0.142  1.00  0.00    -0.074 N 
ATOM      7  H11 UNL     1      -2.300   1.436   0.875  1.00  0.00     0.277 HD
ATOM      8  H12 UNL     1      -3.232   1.765  -0.311  1.00  0.00     0.277 HD
HETATM    9  C5  UNL     1      -1.257   2.139  -0.754  1.00  0.00     0.259 C 
HETATM   10  C6  UNL     1      -0.231   2.524   0.270  1.00  0.00     0.259 C 
HETATM   11  N2  UNL     1       1.089   2.603  -0.282  1.00  0.00    -0.074 N 
ATOM     12  H21 UNL     1       1.432   3.563  -0.262  1.00  0.00     0.277 HD
ATOM     13  H22 UNL     1       1.069   2.451  -1.290  1.00  0.00     0.277 HD
HETATM   14  C7  UNL     1       2.033   1.707   0.353  1.00  0.00     0.232 C 
HETATM   15  C8  UNL     1       1.984   0.328  -0.256  1.00  0.00     0.029 C 
HETATM   16  C9  UNL     1       2.247  -0.691   0.819  1.00  0.00     0.021 C 
HETATM   17  C10 UNL     1       1.464  -1.955   0.655  1.00  0.00     0.122 C 
HETATM   18  N3  UNL     1       0.766  -2.042  -0.606  1.00  0.00    -0.361 N 
ATOM     19  H3  UNL     1       1.256  -1.684  -1.426  1.00  0.00     0.162 HD
ENDROOT
TORSDOF 0
