REMARK  5 active torsions:
REMARK  status: ('A' for Active; 'I' for Inactive)
REMARK    1  A    between atoms: C4_4  and  C5_5 
REMARK    2  A    between atoms: C6_6  and  C7_7 
REMARK    3  A    between atoms: C7_7  and  N3_13 
REMARK    4  A    between atoms: N1_8  and  N2_10 
REMARK    5  A    between atoms: N3_13  and  C8_15 
ROOT
HETATM    1  C1  UNL     1       4.117   0.776   0.403  1.00  0.00     0.017 C 
HETATM    2  C2  UNL     1       4.216  -0.308  -0.132  1.00  0.00    -0.089 C 
HETATM    3  C3  UNL     1       4.351  -1.593  -0.749  1.00  0.00     0.072 C 
HETATM    4  C4  UNL     1       3.312  -2.335  -1.067  1.00  0.00     0.073 C 
ENDROOT
BRANCH   4   5
HETATM    5  C5  UNL     1       2.002  -1.825  -0.779  1.00  0.00    -0.070 C 
HETATM    6  C6  UNL     1       0.887  -1.381  -0.553  1.00  0.00    -0.025 C 
BRANCH   6   7
HETATM    7  C7  UNL     1      -0.422  -0.845  -0.307  1.00  0.00     0.172 C 
HETATM    8  N1  UNL     1      -1.328  -1.579   0.278  1.00  0.00    -0.285 N 
ATOM      9  H1  UNL     1      -2.250  -1.175   0.443  1.00  0.00     0.188 HD
BRANCH   8  10
HETATM   10  N2  UNL     1      -1.096  -2.876   0.684  1.00  0.00    -0.343 N 
ATOM     11  H22 UNL     1      -0.169  -3.264   0.512  1.00  0.00     0.176 HD
ATOM     12  H21 UNL     1      -1.804  -3.450   1.141  1.00  0.00     0.176 HD
ENDBRANCH   8  10
BRANCH   7  13
HETATM   13  N3  UNL     1      -0.686   0.481  -0.713  1.00  0.00    -0.360 N 
ATOM     14  H3  UNL     1      -0.177   0.871  -1.506  1.00  0.00     0.162 HD
BRANCH  13  15
HETATM   15  C8  UNL     1      -1.657   1.292  -0.031  1.00  0.00     0.021 C 
HETATM   16  C9  UNL     1      -1.232   1.428   1.432  1.00  0.00     0.037 C 
HETATM   17  C10 UNL     1      -1.704   2.683  -0.616  1.00  0.00     0.037 C 
HETATM   18  C11 UNL     1      -2.996   0.597  -0.154  1.00  0.00     0.037 C 
ENDBRANCH  13  15
ENDBRANCH   7  13
ENDBRANCH   6   7
ENDBRANCH   4   5
TORSDOF 5
