REMARK  4 active torsions:
REMARK  status: ('A' for Active; 'I' for Inactive)
REMARK    1  A    between atoms: C2_2  and  O2_4 
REMARK    2  A    between atoms: O2_4  and  C3_5 
REMARK    3  A    between atoms: C3_5  and  C4_6 
REMARK    4  A    between atoms: C19_21  and  O3_23 
ROOT
HETATM    1  C4  UNL     1       1.854   0.438   0.078  1.00  0.00    -0.018 C 
HETATM    2  C5  UNL     1       2.280   1.679   0.882  1.00  0.00     0.018 C 
HETATM    3  C6  UNL     1       2.134   0.762  -1.352  1.00  0.00     0.012 C 
HETATM    4  C7  UNL     1       0.910   1.346  -1.982  1.00  0.00     0.002 C 
HETATM    5  C8  UNL     1      -0.160   0.312  -2.023  1.00  0.00     0.010 C 
HETATM    6  C9  UNL     1      -0.335  -0.470  -0.767  1.00  0.00    -0.035 C 
HETATM    7  C10 UNL     1       0.140  -1.904  -1.068  1.00  0.00     0.016 C 
HETATM    8  C11 UNL     1       0.478   0.008   0.393  1.00  0.00     0.004 C 
HETATM    9  C12 UNL     1      -0.203   1.076   1.215  1.00  0.00     0.007 C 
HETATM   10  C13 UNL     1      -1.603   0.673   1.619  1.00  0.00     0.013 C 
HETATM   11  C14 UNL     1      -2.391   0.479   0.345  1.00  0.00    -0.009 C 
HETATM   12  C15 UNL     1      -2.687   1.745  -0.369  1.00  0.00     0.019 C 
HETATM   13  C16 UNL     1      -1.782  -0.600  -0.446  1.00  0.00     0.005 C 
HETATM   14  C17 UNL     1      -2.083  -1.845   0.394  1.00  0.00     0.009 C 
HETATM   15  C18 UNL     1      -3.494  -1.587   0.922  1.00  0.00     0.038 C 
HETATM   16  C19 UNL     1      -3.728  -0.119   0.796  1.00  0.00     0.062 C 
HETATM   17  C20 UNL     1      -4.834   0.229  -0.160  1.00  0.00     0.046 C 
ENDROOT
BRANCH   1  18
HETATM   18  C3  UNL     1       2.875  -0.636   0.489  1.00  0.00     0.188 C 
BRANCH  18  19
HETATM   19  O2  UNL     1       4.186  -0.216   0.156  1.00  0.00    -0.321 OA
BRANCH  19  20
HETATM   20  C2  UNL     1       5.252  -1.055   0.450  1.00  0.00     0.254 C 
HETATM   21  C1  UNL     1       6.651  -0.639   0.111  1.00  0.00     0.126 C 
HETATM   22  O1  UNL     1       5.058  -2.184   1.009  1.00  0.00    -0.266 OA
ENDBRANCH  19  20
ENDBRANCH  18  19
ENDBRANCH   1  18
BRANCH  16  23
HETATM   23  O3  UNL     1      -4.048   0.437   2.039  1.00  0.00    -0.389 OA
ATOM     24  H3  UNL     1      -4.877   0.066   2.319  1.00  0.00     0.210 HD
ENDBRANCH  16  23
TORSDOF 4
