REMARK  5 active torsions:
REMARK  status: ('A' for Active; 'I' for Inactive)
REMARK    1  A    between atoms: S1_2  and  C2_3 
REMARK    2  A    between atoms: C2_3  and  C3_7 
REMARK    3  A    between atoms: C3_7  and  C4_8 
REMARK    4  A    between atoms: C4_8  and  O2_10 
REMARK    5  A    between atoms: O2_10  and  C5_11 
ROOT
HETATM    1  C3  UNL     1       0.320   1.047  -0.040  1.00  0.00     0.104 C 
HETATM    2  C8  UNL     1       0.007   0.905  -1.548  1.00  0.00     0.015 C 
HETATM    3  C9  UNL     1      -1.234   1.692  -1.888  1.00  0.00     0.007 C 
HETATM    4  C10 UNL     1      -2.309   0.959  -1.112  1.00  0.00     0.011 C 
HETATM    5  C11 UNL     1      -1.633  -0.224  -0.491  1.00  0.00    -0.032 C 
HETATM    6  C12 UNL     1      -2.455  -1.392  -0.217  1.00  0.00     0.010 C 
HETATM    7  C13 UNL     1      -3.160  -1.430   1.091  1.00  0.00     0.001 C 
HETATM    8  C14 UNL     1      -2.240  -2.157   2.079  1.00  0.00     0.000 C 
HETATM    9  C15 UNL     1      -1.252  -1.147   2.565  1.00  0.00     0.000 C 
HETATM   10  C16 UNL     1      -0.232  -0.858   1.485  1.00  0.00     0.007 C 
HETATM   11  C17 UNL     1      -0.775   0.284   0.646  1.00  0.00     0.020 C 
HETATM   12  C18 UNL     1      -0.555  -0.503  -1.540  1.00  0.00    -0.004 C 
HETATM   13  C19 UNL     1      -1.192  -0.859  -2.862  1.00  0.00     0.011 C 
ENDROOT
BRANCH   1  14
HETATM   14  C2  UNL     1       0.280   2.489   0.292  1.00  0.00     0.059 C 
HETATM   15  N1  UNL     1      -0.380   2.968   1.218  1.00  0.00    -0.396 N 
ATOM     16  H12 UNL     1      -0.408   3.962   1.447  1.00  0.00     0.156 HD
ATOM     17  H11 UNL     1      -0.952   2.353   1.797  1.00  0.00     0.156 HD
BRANCH  14  18
HETATM   18  S1  UNL     1       1.296   3.582  -0.737  1.00  0.00    -0.120 SA
HETATM   19  C1  UNL     1       1.070   5.271  -0.129  1.00  0.00     0.097 C 
ENDBRANCH  14  18
ENDBRANCH   1  14
BRANCH   1  20
HETATM   20  C4  UNL     1       1.685   0.511   0.221  1.00  0.00     0.275 C 
HETATM   21  O1  UNL     1       2.575   1.323   0.655  1.00  0.00    -0.264 OA
BRANCH  20  22
HETATM   22  O2  UNL     1       2.115  -0.768   0.050  1.00  0.00    -0.316 OA
BRANCH  22  23
HETATM   23  C5  UNL     1       3.401  -1.250   0.302  1.00  0.00     0.123 C 
HETATM   24  C6  UNL     1       3.985  -1.717  -1.017  1.00  0.00     0.040 C 
HETATM   25  C7  UNL     1       3.420  -2.433   1.240  1.00  0.00     0.040 C 
ENDBRANCH  22  23
ENDBRANCH  20  22
ENDBRANCH   1  20
TORSDOF 5
