REMARK  7 active torsions:
REMARK  status: ('A' for Active; 'I' for Inactive)
REMARK    1  A    between atoms: C2_2  and  O1_3 
REMARK    2  A    between atoms: O1_3  and  C3_4 
REMARK       I    between atoms: C3_4  and  N1_6 
REMARK    3  A    between atoms: N1_6  and  C4_7 
REMARK    4  A    between atoms: N1_6  and  N2_9 
REMARK    5  A    between atoms: C6_13  and  C7_14 
REMARK    6  A    between atoms: C10_21  and  C11_22 
REMARK    7  A    between atoms: C11_22  and  O6_24 
ROOT
HETATM    1  N2  UNL     1       1.863  -1.301   1.392  1.00  0.00    -0.261 N 
ATOM      2  H2  UNL     1       2.279  -2.132   1.812  1.00  0.00     0.190 HD
HETATM    3  C5  UNL     1       0.624  -1.328   1.131  1.00  0.00     0.203 C 
HETATM    4  O4  UNL     1      -0.050  -0.268   0.564  1.00  0.00    -0.312 OA
HETATM    5  C6  UNL     1      -1.450  -0.133   0.877  1.00  0.00     0.222 C 
HETATM    6  C10 UNL     1      -2.283  -1.177   0.260  1.00  0.00     0.065 C 
HETATM    7  C13 UNL     1      -1.910  -2.425   0.459  1.00  0.00    -0.002 C 
HETATM    8  C14 UNL     1      -2.621  -3.571  -0.080  1.00  0.00     0.057 C 
HETATM    9  S1  UNL     1      -0.430  -2.760   1.467  1.00  0.00    -0.050 SA
ENDROOT
BRANCH   1  10
HETATM   10  N1  UNL     1       2.696  -0.214   1.144  1.00  0.00    -0.171 N 
HETATM   11  C3  UNL     1       3.955  -0.430   0.556  1.00  0.00     0.388 C 
HETATM   12  O2  UNL     1       4.308  -1.597   0.265  1.00  0.00    -0.236 OA
BRANCH  11  13
HETATM   13  O1  UNL     1       4.782   0.653   0.310  1.00  0.00    -0.303 OA
BRANCH  13  14
HETATM   14  C2  UNL     1       6.057   0.483  -0.280  1.00  0.00     0.176 C 
HETATM   15  C1  UNL     1       5.879  -0.152  -1.634  1.00  0.00     0.034 C 
ENDBRANCH  13  14
ENDBRANCH  11  13
BRANCH  10  16
HETATM   16  C4  UNL     1       2.288   1.103   1.476  1.00  0.00     0.381 C 
HETATM   17  O3  UNL     1       3.044   2.085   1.250  1.00  0.00    -0.281 OA
ENDBRANCH  10  16
ENDBRANCH   1  10
BRANCH   5  18
HETATM   18  C7  UNL     1      -1.784   1.259   0.515  1.00  0.00     0.061 A 
HETATM   19  C8  UNL     1      -1.370   1.995  -0.601  1.00  0.00     0.048 A 
HETATM   20  C9  UNL     1      -1.893   3.263  -0.520  1.00  0.00     0.109 A 
HETATM   21  N3  UNL     1      -2.606   3.296   0.611  1.00  0.00    -0.312 N 
HETATM   22  N4  UNL     1      -2.541   2.114   1.220  1.00  0.00    -0.302 N 
ATOM     23  H3  UNL     1      -3.122   4.106   0.955  1.00  0.00     0.186 HD
ATOM     24  H4  UNL     1      -3.003   1.889   2.101  1.00  0.00     0.186 HD
ENDBRANCH   5  18
BRANCH   6  25
HETATM   25  C11 UNL     1      -3.462  -0.900  -0.518  1.00  0.00     0.292 C 
HETATM   26  O5  UNL     1      -4.163  -1.842  -1.034  1.00  0.00    -0.259 OA
BRANCH  25  27
HETATM   27  O6  UNL     1      -3.962   0.364  -0.790  1.00  0.00    -0.323 OA
HETATM   28  C12 UNL     1      -5.129   0.520  -1.563  1.00  0.00     0.213 C 
ENDBRANCH  25  27
ENDBRANCH   6  25
TORSDOF 7
