REMARK  16 active torsions:
REMARK  status: ('A' for Active; 'I' for Inactive)
REMARK    1  A    between atoms: C3_3  and  C4_4 
REMARK    2  A    between atoms: C4_4  and  C5_5 
REMARK    3  A    between atoms: C11_18  and  C12_19 
REMARK    4  A    between atoms: C14_24  and  O4_25 
REMARK    5  A    between atoms: C16_28  and  O5_29 
REMARK    6  A    between atoms: C17_31  and  O6_32 
REMARK    7  A    between atoms: O6_32  and  C18_33 
REMARK    8  A    between atoms: C19_37  and  O7_38 
REMARK    9  A    between atoms: C20_41  and  N6_42 
REMARK   10  A    between atoms: N7_44  and  O9_46 
REMARK   11  A    between atoms: O9_46  and  C21_47 
REMARK   12  A    between atoms: C21_47  and  C22_48 
REMARK   13  A    between atoms: C22_48  and  N8_49 
REMARK   14  A    between atoms: C23_53  and  N9_54 
REMARK   15  A    between atoms: N9_54  and  O10_55 
REMARK   16  A    between atoms: N9_54  and  O11_57 
ROOT
HETATM    1  C1  UNL     1      -0.513  -1.699  -2.610  1.00  0.00     0.051 C 
HETATM    2  C2  UNL     1       0.249  -0.786  -1.708  1.00  0.00    -0.021 A 
HETATM    3  C3  UNL     1      -0.464   0.219  -1.068  1.00  0.00     0.009 A 
HETATM    4  C16 UNL     1       0.279   1.061  -0.229  1.00  0.00     0.112 A 
HETATM    5  C17 UNL     1       1.633   0.889  -0.061  1.00  0.00     0.138 A 
HETATM    6  C20 UNL     1       2.292  -0.122  -0.718  1.00  0.00     0.112 A 
HETATM    7  C23 UNL     1       1.604  -0.974  -1.553  1.00  0.00     0.103 A 
ENDROOT
BRANCH   3   8
HETATM    8  C4  UNL     1      -1.840   0.510  -1.233  1.00  0.00     0.032 C 
BRANCH   8   9
HETATM    9  C5  UNL     1      -2.983   0.225  -0.755  1.00  0.00     0.043 A 
HETATM   10  C6  UNL     1      -4.196   0.790  -1.261  1.00  0.00     0.141 A 
HETATM   11  N1  UNL     1      -4.441   1.662  -2.251  1.00  0.00    -0.327 N 
HETATM   12  N3  UNL     1      -5.215   0.304  -0.563  1.00  0.00    -0.243 N 
HETATM   13  C7  UNL     1      -5.672   2.056  -2.555  1.00  0.00     0.101 A 
ATOM     14  H1  UNL     1      -3.657   2.034  -2.787  1.00  0.00     0.169 HD
HETATM   15  N2  UNL     1      -5.893   2.910  -3.525  1.00  0.00    -0.385 N 
HETATM   16  C8  UNL     1      -6.739   1.566  -1.846  1.00  0.00     0.067 A 
ATOM     17  H22 UNL     1      -5.100   3.274  -4.052  1.00  0.00     0.157 HD
ATOM     18  H21 UNL     1      -6.839   3.213  -3.759  1.00  0.00     0.157 HD
HETATM   19  C9  UNL     1      -6.480   0.682  -0.844  1.00  0.00     0.122 A 
HETATM   20  N4  UNL     1      -4.754  -0.525   0.349  1.00  0.00    -0.255 N 
HETATM   21  C10 UNL     1      -5.422  -1.250   1.281  1.00  0.00     0.140 A 
HETATM   22  C15 UNL     1      -3.398  -0.595   0.257  1.00  0.00     0.107 A 
HETATM   23  C11 UNL     1      -4.781  -2.090   2.182  1.00  0.00     0.111 A 
HETATM   24  C13 UNL     1      -3.412  -2.180   2.113  1.00  0.00     0.225 A 
HETATM   25  O3  UNL     1      -2.789  -2.928   2.909  1.00  0.00    -0.284 OA
HETATM   26  C14 UNL     1      -2.752  -1.436   1.159  1.00  0.00     0.147 A 
BRANCH  23  27
HETATM   27  C12 UNL     1      -5.581  -2.826   3.145  1.00  0.00     0.215 C 
HETATM   28  O1  UNL     1      -5.015  -3.590   3.967  1.00  0.00    -0.644 OA
HETATM   29  O2  UNL     1      -6.961  -2.728   3.206  1.00  0.00    -0.644 OA
ENDBRANCH  23  27
BRANCH  26  30
HETATM   30  O4  UNL     1      -1.401  -1.549   1.119  1.00  0.00    -0.355 OA
ATOM     31  H4  UNL     1      -0.946  -1.036   0.461  1.00  0.00     0.218 HD
ENDBRANCH  26  30
ENDBRANCH   8   9
ENDBRANCH   3   8
BRANCH   4  32
HETATM   32  O5  UNL     1      -0.317   2.100   0.465  1.00  0.00    -0.357 OA
ATOM     33  H5  UNL     1       0.187   2.671   1.034  1.00  0.00     0.217 HD
ENDBRANCH   4  32
BRANCH   7  34
HETATM   34  N9  UNL     1       2.304  -2.014  -2.225  1.00  0.00    -0.033 NA
BRANCH  34  35
HETATM   35  O10 UNL     1       2.606  -1.674  -3.502  1.00  0.00    -0.284 OA
ATOM     36  H10 UNL     1       3.074  -2.369  -3.951  1.00  0.00     0.240 HD
ENDBRANCH  34  35
BRANCH  34  37
HETATM   37  O11 UNL     1       1.661  -3.203  -2.155  1.00  0.00    -0.284 OA
ATOM     38  H11 UNL     1       2.129  -3.898  -2.604  1.00  0.00     0.240 HD
ENDBRANCH  34  37
ENDBRANCH   7  34
BRANCH   5  39
HETATM   39  O6  UNL     1       2.402   1.708   0.765  1.00  0.00    -0.291 OA
BRANCH  39  40
HETATM   40  C18 UNL     1       3.030   2.880   0.320  1.00  0.00     0.484 C 
HETATM   41  N5  UNL     1       2.856   3.988   1.245  1.00  0.00     0.026 N 
HETATM   42  C19 UNL     1       4.303   4.093   1.359  1.00  0.00     0.476 C 
ATOM     43  H52 UNL     1       2.300   4.800   0.978  1.00  0.00     0.289 HD
ATOM     44  H51 UNL     1       2.280   3.877   2.079  1.00  0.00     0.289 HD
HETATM   45  O8  UNL     1       4.414   2.931   0.589  1.00  0.00    -0.283 OA
BRANCH  42  46
HETATM   46  O7  UNL     1       4.759   3.939   2.671  1.00  0.00    -0.349 OA
ATOM     47  H7  UNL     1       5.704   4.008   2.745  1.00  0.00     0.214 HD
ENDBRANCH  42  46
ENDBRANCH  39  40
ENDBRANCH   5  39
BRANCH   6  48
HETATM   48  N6  UNL     1       3.701  -0.323  -0.558  1.00  0.00    -0.277 N 
HETATM   49  N7  UNL     1       4.059  -1.019   0.441  1.00  0.00    -0.207 N 
ATOM     50  H7  UNL     1       3.335  -1.387   1.058  1.00  0.00     0.216 HD
ATOM     51  H6  UNL     1       4.379   0.071  -1.210  1.00  0.00     0.189 HD
BRANCH  49  52
HETATM   52  O9  UNL     1       5.356  -1.300   0.732  1.00  0.00    -0.263 OA
BRANCH  52  53
HETATM   53  C21 UNL     1       6.209  -0.277   1.191  1.00  0.00     0.230 C 
BRANCH  53  54
HETATM   54  C22 UNL     1       7.596  -0.857   1.440  1.00  0.00     0.258 C 
BRANCH  54  55
HETATM   55  N8  UNL     1       8.170  -1.422   0.246  1.00  0.00    -0.077 N 
ATOM     56  H83 UNL     1       7.549  -2.116  -0.170  1.00  0.00     0.274 HD
ATOM     57  H82 UNL     1       8.185  -0.742  -0.514  1.00  0.00     0.274 HD
ATOM     58  H81 UNL     1       9.098  -1.810   0.413  1.00  0.00     0.274 HD
ENDBRANCH  54  55
ENDBRANCH  53  54
ENDBRANCH  52  53
ENDBRANCH  49  52
ENDBRANCH   6  48
TORSDOF 16
