REMARK  18 active torsions:
REMARK  status: ('A' for Active; 'I' for Inactive)
REMARK    1  A    between atoms: O1_2  and  C2_3 
REMARK    2  A    between atoms: C2_3  and  O2_4 
REMARK    3  A    between atoms: O2_4  and  C3_5 
REMARK    4  A    between atoms: C4_7  and  O4_8 
REMARK    5  A    between atoms: C6_12  and  O6_13 
REMARK    6  A    between atoms: C6_12  and  C7_15 
REMARK    7  A    between atoms: C7_15  and  O7_16 
REMARK    8  A    between atoms: C9_20  and  O9_22 
REMARK    9  A    between atoms: C11_24  and  O10_25 
REMARK   10  A    between atoms: C12_27  and  C13_28 
REMARK   11  A    between atoms: C17_32  and  O11_33 
REMARK   12  A    between atoms: C18_35  and  O12_36 
REMARK   13  A    between atoms: C19_38  and  O13_39 
REMARK   14  A    between atoms: C22_43  and  O14_44 
REMARK   15  A    between atoms: O14_44  and  C23_45 
REMARK   16  A    between atoms: C23_45  and  C24_47 
REMARK   17  A    between atoms: C24_47  and  C26_49 
REMARK   18  A    between atoms: C26_49  and  O16_50 
ROOT
HETATM    1  C2  UNL     1       1.464  -0.141   0.725  1.00  0.00     0.181 C 
HETATM    2  C8  UNL     1       2.253  -1.274   1.379  1.00  0.00     0.109 C 
HETATM    3  C9  UNL     1       1.375  -2.447   1.290  1.00  0.00     0.086 C 
HETATM    4  C10 UNL     1       1.572  -3.266   0.032  1.00  0.00     0.049 C 
HETATM    5  C11 UNL     1      -0.066  -1.853   1.322  1.00  0.00     0.166 C 
HETATM    6  C12 UNL     1       0.083  -0.733   0.406  1.00  0.00     0.116 C 
ENDROOT
BRANCH   6   7
HETATM    7  C13 UNL     1      -0.897   0.307   0.221  1.00  0.00    -0.011 A 
HETATM    8  C14 UNL     1      -0.457   1.565  -0.172  1.00  0.00     0.023 A 
HETATM    9  C15 UNL     1      -1.313   2.618  -0.400  1.00  0.00    -0.020 A 
HETATM   10  C16 UNL     1      -0.812   3.866  -0.799  1.00  0.00     0.052 A 
HETATM   11  C20 UNL     1      -2.677   2.493  -0.253  1.00  0.00     0.013 A 
HETATM   12  C17 UNL     1      -1.674   4.889  -1.022  1.00  0.00     0.102 A 
HETATM   13  C18 UNL     1      -3.030   4.773  -0.879  1.00  0.00     0.133 A 
HETATM   14  C19 UNL     1      -3.538   3.552  -0.487  1.00  0.00     0.113 A 
HETATM   15  C21 UNL     1      -3.148   1.258   0.134  1.00  0.00     0.053 A 
HETATM   16  C22 UNL     1      -2.248   0.196   0.360  1.00  0.00     0.087 A 
BRANCH  12  17
HETATM   17  O11 UNL     1      -1.112   6.109  -1.419  1.00  0.00    -0.358 OA
ATOM     18  H11 UNL     1      -1.716   6.826  -1.575  1.00  0.00     0.217 HD
ENDBRANCH  12  17
BRANCH  13  19
HETATM   19  O12 UNL     1      -3.878   5.869  -1.124  1.00  0.00    -0.356 OA
ATOM     20  H12 UNL     1      -4.819   5.788  -1.025  1.00  0.00     0.218 HD
ENDBRANCH  13  19
BRANCH  14  21
HETATM   21  O13 UNL     1      -4.899   3.426  -0.339  1.00  0.00    -0.357 OA
ATOM     22  H13 UNL     1      -5.249   2.585  -0.069  1.00  0.00     0.217 HD
ENDBRANCH  14  21
BRANCH  16  23
HETATM   23  O14 UNL     1      -2.887  -0.986   0.736  1.00  0.00    -0.278 OA
BRANCH  23  24
HETATM   24  C23 UNL     1      -3.876  -1.451  -0.115  1.00  0.00     0.270 C 
HETATM   25  O15 UNL     1      -4.070  -0.762  -1.177  1.00  0.00    -0.264 OA
BRANCH  24  26
HETATM   26  C24 UNL     1      -4.720  -2.634   0.077  1.00  0.00     0.105 C 
HETATM   27  C25 UNL     1      -3.994  -3.930   0.021  1.00  0.00     0.022 C 
BRANCH  26  28
HETATM   28  C26 UNL     1      -5.821  -2.703  -0.979  1.00  0.00     0.178 C 
BRANCH  28  29
HETATM   29  O16 UNL     1      -6.589  -3.819  -0.763  1.00  0.00    -0.400 OA
ATOM     30  H16 UNL     1      -7.274  -3.862  -1.420  1.00  0.00     0.209 HD
ENDBRANCH  28  29
ENDBRANCH  26  28
ENDBRANCH  24  26
ENDBRANCH  23  24
ENDBRANCH  16  23
ENDBRANCH   6   7
BRANCH   1  31
HETATM   31  O1  UNL     1       1.454   0.958   1.524  1.00  0.00    -0.359 OA
HETATM   32  C1  UNL     1       0.887   0.897   2.753  1.00  0.00     0.205 C 
ENDBRANCH   1  31
BRANCH   1  33
HETATM   33  O2  UNL     1       2.097   0.123  -0.464  1.00  0.00    -0.301 OA
BRANCH  33  34
HETATM   34  C3  UNL     1       3.407   0.510  -0.389  1.00  0.00     0.421 C 
HETATM   35  O3  UNL     1       3.518   1.815  -0.804  1.00  0.00    -0.301 OA
HETATM   36  C4  UNL     1       3.830   1.908  -2.175  1.00  0.00     0.339 C 
HETATM   37  C5  UNL     1       5.188   1.312  -2.306  1.00  0.00     0.245 C 
HETATM   38  O5  UNL     1       5.947   1.741  -3.125  1.00  0.00    -0.286 OA
HETATM   39  C6  UNL     1       5.494   0.197  -1.376  1.00  0.00     0.255 C 
HETATM   40  O8  UNL     1       4.285  -0.380  -0.979  1.00  0.00    -0.292 OA
BRANCH  36  41
HETATM   41  O4  UNL     1       2.913   1.171  -2.937  1.00  0.00    -0.364 OA
ATOM     42  H4  UNL     1       3.123   1.234  -3.861  1.00  0.00     0.213 HD
ENDBRANCH  36  41
BRANCH  39  43
HETATM   43  O6  UNL     1       6.218  -0.801  -2.025  1.00  0.00    -0.358 OA
ATOM     44  H6  UNL     1       6.414  -1.515  -1.430  1.00  0.00     0.213 HD
ENDBRANCH  39  43
BRANCH  39  45
HETATM   45  C7  UNL     1       6.306   0.677  -0.184  1.00  0.00     0.241 C 
BRANCH  45  46
HETATM   46  O7  UNL     1       6.571  -0.328   0.732  1.00  0.00    -0.395 OA
ATOM     47  H7  UNL     1       7.078  -0.028   1.477  1.00  0.00     0.209 HD
ENDBRANCH  45  46
ENDBRANCH  39  45
ENDBRANCH  33  34
ENDBRANCH   1  33
BRANCH   5  48
HETATM   48  O10 UNL     1      -0.778  -2.959   0.795  1.00  0.00    -0.392 OA
ATOM     49  H10 UNL     1      -1.656  -2.597   0.815  1.00  0.00     0.210 HD
ENDBRANCH   5  48
BRANCH   3  50
HETATM   50  O9  UNL     1       1.557  -3.307   2.363  1.00  0.00    -0.387 OA
ATOM     51  H9  UNL     1       0.989  -4.066   2.305  1.00  0.00     0.210 HD
ENDBRANCH   3  50
TORSDOF 18
