REMARK  9 active torsions:
REMARK  status: ('A' for Active; 'I' for Inactive)
REMARK    1  A    between atoms: C2_3  and  N2_4 
REMARK    2  A    between atoms: C5_13  and  N5_14 
REMARK    3  A    between atoms: N5_14  and  C6_16 
REMARK    4  A    between atoms: C6_16  and  C7_17 
REMARK    5  A    between atoms: N8_23  and  C9_24 
REMARK    6  A    between atoms: C9_24  and  O1_25 
REMARK    7  A    between atoms: C9_24  and  C10_27 
REMARK    8  A    between atoms: C10_27  and  C11_28 
REMARK    9  A    between atoms: C11_28  and  C12_29 
ROOT
HETATM    1  C7  UNL     1      -2.664   2.912  -0.159  1.00  0.00     0.102 C 
HETATM    2  N6  UNL     1      -3.476   2.296   0.604  1.00  0.00    -0.393 N 
ATOM      3  H61 UNL     1      -4.328   2.754   0.928  1.00  0.00     0.156 HD
ATOM      4  H62 UNL     1      -3.283   1.337   0.891  1.00  0.00     0.156 HD
HETATM    5  C8  UNL     1      -2.934   4.251  -0.560  1.00  0.00     0.114 C 
HETATM    6  N7  UNL     1      -3.135   5.341  -0.891  1.00  0.00    -0.190 NA
ENDROOT
BRANCH   1   7
HETATM    7  C6  UNL     1      -1.429   2.248  -0.629  1.00  0.00     0.206 C 
BRANCH   7   8
HETATM    8  N5  UNL     1      -1.304   0.882  -0.219  1.00  0.00    -0.219 N 
ATOM      9  H5  UNL     1      -2.139   0.357   0.042  1.00  0.00     0.178 HD
BRANCH   8  10
HETATM   10  C5  UNL     1      -0.158   0.308  -0.175  1.00  0.00     0.690 A 
HETATM   11  N4  UNL     1       0.991   0.983  -0.518  1.00  0.00    -0.172 N 
HETATM   12  C4  UNL     1       2.026   0.172  -0.341  1.00  0.00     0.184 A 
ATOM     13  H4  UNL     1       1.039   1.945  -0.852  1.00  0.00     0.186 HD
HETATM   14  N1  UNL     1       3.386   0.025  -0.423  1.00  0.00    -0.168 N 
HETATM   15  C3  UNL     1       1.520  -0.999   0.110  1.00  0.00     0.191 A 
HETATM   16  C1  UNL     1       4.237   1.082  -0.869  1.00  0.00     0.177 C 
HETATM   17  C2  UNL     1       3.705  -1.216  -0.030  1.00  0.00     0.681 A 
HETATM   18  N3  UNL     1       2.560  -1.834   0.295  1.00  0.00    -0.172 N 
ATOM     19  H3  UNL     1       2.488  -2.794   0.632  1.00  0.00     0.186 HD
HETATM   20  N8  UNL     1       0.144  -0.926   0.218  1.00  0.00    -0.107 N 
BRANCH  17  21
HETATM   21  N2  UNL     1       4.898  -1.686   0.014  1.00  0.00    -0.234 N 
ATOM     22  H22 UNL     1       5.769  -1.216  -0.233  1.00  0.00     0.174 HD
ATOM     23  H21 UNL     1       5.141  -2.630   0.313  1.00  0.00     0.174 HD
ENDBRANCH  17  21
BRANCH  20  24
HETATM   24  C9  UNL     1      -0.655  -1.972   0.704  1.00  0.00     0.165 C 
BRANCH  24  25
HETATM   25  O1  UNL     1       0.087  -3.003   1.210  1.00  0.00    -0.345 OA
ATOM     26  H1  UNL     1      -0.454  -3.711   1.539  1.00  0.00     0.219 HD
ENDBRANCH  24  25
BRANCH  24  27
HETATM   27  C10 UNL     1      -2.006  -2.293   0.831  1.00  0.00     0.060 C 
BRANCH  27  28
HETATM   28  C11 UNL     1      -3.115  -1.721   0.492  1.00  0.00     0.045 C 
BRANCH  28  29
HETATM   29  C12 UNL     1      -4.429  -2.398   0.814  1.00  0.00     0.258 C 
HETATM   30  O2  UNL     1      -4.382  -3.484   1.395  1.00  0.00    -0.302 OA
ENDBRANCH  28  29
ENDBRANCH  27  28
ENDBRANCH  24  27
ENDBRANCH  20  24
ENDBRANCH   8  10
ENDBRANCH   7   8
ENDBRANCH   1   7
TORSDOF 9
