REMARK  4 active torsions:
REMARK  status: ('A' for Active; 'I' for Inactive)
REMARK    1  A    between atoms: N2_5  and  C3_6 
REMARK    2  A    between atoms: C3_6  and  C4_7 
REMARK    3  A    between atoms: C4_7  and  C5_8 
REMARK    4  A    between atoms: C8_18  and  C9_19 
ROOT
HETATM    1  C1  UNL     1      -0.237  -3.603   0.038  1.00  0.00     0.161 C 
HETATM    2  N1  UNL     1       0.414  -2.315   0.219  1.00  0.00    -0.301 N 
HETATM    3  C2  UNL     1       1.694  -2.036   0.427  1.00  0.00     0.329 A 
HETATM    4  O1  UNL     1       2.616  -2.888   0.507  1.00  0.00    -0.246 OA
HETATM    5  N2  UNL     1       1.865  -0.675   0.543  1.00  0.00    -0.294 N 
HETATM    6  C6  UNL     1       0.667  -0.078   0.403  1.00  0.00     0.110 A 
HETATM    7  C7  UNL     1       0.255   1.261   0.428  1.00  0.00     0.129 A 
HETATM    8  N4  UNL     1       1.015   2.238   0.585  1.00  0.00    -0.384 N 
ATOM      9  H41 UNL     1       0.715   3.213   0.603  1.00  0.00     0.157 HD
ATOM     10  H42 UNL     1       2.013   2.081   0.723  1.00  0.00     0.157 HD
HETATM   11  N5  UNL     1      -1.093   1.473   0.242  1.00  0.00    -0.338 N 
ATOM     12  H5  UNL     1      -1.434   2.434   0.253  1.00  0.00     0.167 HD
HETATM   13  C8  UNL     1      -1.974   0.502   0.049  1.00  0.00     0.080 A 
HETATM   14  C12 UNL     1      -1.567  -0.810   0.024  1.00  0.00     0.065 A 
HETATM   15  C13 UNL     1      -0.235  -1.114   0.202  1.00  0.00     0.071 A 
ENDROOT
BRANCH  13  16
HETATM   16  C9  UNL     1      -3.416   0.771  -0.147  1.00  0.00     0.124 C 
HETATM   17  N6  UNL     1      -3.956   1.938  -0.152  1.00  0.00    -0.373 N 
HETATM   18  C10 UNL     1      -5.371   1.911  -0.363  1.00  0.00     0.141 C 
ATOM     19  H6  UNL     1      -3.427   2.800  -0.018  1.00  0.00     0.161 HD
HETATM   20  C11 UNL     1      -5.736   0.448  -0.218  1.00  0.00     0.141 C 
HETATM   21  N7  UNL     1      -4.446  -0.179  -0.361  1.00  0.00    -0.373 N 
ATOM     22  H7  UNL     1      -4.296  -1.163  -0.584  1.00  0.00     0.161 HD
ENDBRANCH  13  16
BRANCH   5  23
HETATM   23  C3  UNL     1       3.120  -0.046   0.772  1.00  0.00     0.143 C 
BRANCH  23  24
HETATM   24  C4  UNL     1       3.876   0.359  -0.463  1.00  0.00     0.120 C 
BRANCH  24  25
HETATM   25  C5  UNL     1       5.148   0.993  -0.041  1.00  0.00     0.232 C 
HETATM   26  N3  UNL     1       6.069   1.477  -1.000  1.00  0.00    -0.062 NA
HETATM   27  O2  UNL     1       5.455   1.124   1.169  1.00  0.00    -0.277 OA
ENDBRANCH  24  25
ENDBRANCH  23  24
ENDBRANCH   5  23
TORSDOF 4
