REMARK  4 active torsions:
REMARK  status: ('A' for Active; 'I' for Inactive)
REMARK    1  A    between atoms: C10_11  and  C11_12 
REMARK    2  A    between atoms: C11_12  and  S1_13 
REMARK    3  A    between atoms: S1_13  and  C12_14 
REMARK    4  A    between atoms: C14_21  and  C15_22 
ROOT
HETATM    1  C12 UNL     1       1.248   0.108   0.717  1.00  0.00     0.174 A 
HETATM    2  N2  UNL     1       1.325   1.335   0.184  1.00  0.00    -0.167 N 
ATOM      3  H2  UNL     1       0.628   2.071   0.297  1.00  0.00     0.186 HD
HETATM    4  C13 UNL     1       2.482   1.448  -0.534  1.00  0.00     0.704 A 
HETATM    5  N3  UNL     1       3.122   0.280  -0.444  1.00  0.00    -0.111 N 
HETATM    6  N4  UNL     1       2.357  -0.515   0.319  1.00  0.00    -0.262 N 
ATOM      7  H4  UNL     1       2.594  -1.476   0.564  1.00  0.00     0.190 HD
HETATM    8  C14 UNL     1       4.363   0.095  -1.121  1.00  0.00     0.175 C 
HETATM    9  C19 UNL     1       5.166   1.349  -1.171  1.00  0.00     0.137 C 
HETATM   10  C20 UNL     1       4.307   2.362  -1.882  1.00  0.00     0.238 C 
HETATM   11  O1  UNL     1       4.651   2.968  -2.899  1.00  0.00    -0.273 OA
HETATM   12  N5  UNL     1       3.022   2.567  -1.257  1.00  0.00    -0.158 N 
ATOM     13  H5  UNL     1       2.525   3.455  -1.325  1.00  0.00     0.187 HD
ENDROOT
BRANCH   1  14
HETATM   14  S1  UNL     1      -0.076  -0.546   1.756  1.00  0.00    -0.092 SA
BRANCH  14  15
HETATM   15  C11 UNL     1      -1.352   0.699   2.017  1.00  0.00     0.089 C 
BRANCH  15  16
HETATM   16  C10 UNL     1      -2.114   1.070   0.769  1.00  0.00     0.034 C 
HETATM   17  C5  UNL     1      -2.855  -0.064   0.131  1.00  0.00     0.163 C 
HETATM   18  N1  UNL     1      -2.166  -1.298   0.362  1.00  0.00     0.094 N 
HETATM   19  C4  UNL     1      -2.889   0.131  -1.371  1.00  0.00     0.044 C 
HETATM   20  C6  UNL     1      -4.237  -0.126   0.745  1.00  0.00     0.042 C 
HETATM   21  C1  UNL     1      -2.915  -2.247   1.157  1.00  0.00     0.310 C 
HETATM   22  C2  UNL     1      -1.864  -1.914  -0.901  1.00  0.00     0.273 C 
HETATM   23  C3  UNL     1      -2.735  -1.258  -1.948  1.00  0.00     0.033 C 
HETATM   24  C7  UNL     1      -5.033   1.064   0.336  1.00  0.00     0.002 C 
HETATM   25  C8  UNL     1      -4.240   2.338   0.294  1.00  0.00     0.001 C 
HETATM   26  C9  UNL     1      -2.977   2.259   1.114  1.00  0.00     0.008 C 
ENDBRANCH  15  16
ENDBRANCH  14  15
ENDBRANCH   1  14
BRANCH   8  27
HETATM   27  C15 UNL     1       5.198  -0.983  -0.508  1.00  0.00     0.008 A 
HETATM   28  C16 UNL     1       5.231  -2.318  -0.812  1.00  0.00     0.017 A 
HETATM   29  C17 UNL     1       6.071  -3.092  -0.112  1.00  0.00     0.008 A 
HETATM   30  C18 UNL     1       6.830  -2.486   0.853  1.00  0.00     0.050 A 
HETATM   31  S2  UNL     1       6.343  -0.855   0.748  1.00  0.00    -0.104 SA
ENDBRANCH   8  27
TORSDOF 4
