REMARK  5 active torsions:
REMARK  status: ('A' for Active; 'I' for Inactive)
REMARK    1  A    between atoms: N1_8  and  C8_9 
REMARK    2  A    between atoms: N2_10  and  C9_12 
REMARK    3  A    between atoms: C13_18  and  O3_19 
REMARK    4  A    between atoms: C17_27  and  C18_28 
REMARK    5  A    between atoms: C18_28  and  C19_29 
ROOT
HETATM    1  C9  UNL     1       0.348  -0.269  -1.356  1.00  0.00     0.270 A 
HETATM    2  O1  UNL     1       0.804  -1.615  -1.490  1.00  0.00    -0.287 OA
HETATM    3  C10 UNL     1       2.030  -1.777  -0.879  1.00  0.00     0.296 A 
HETATM    4  O2  UNL     1       2.689  -2.860  -0.765  1.00  0.00    -0.259 OA
HETATM    5  C11 UNL     1       2.480  -0.481  -0.360  1.00  0.00     0.060 A 
HETATM    6  C12 UNL     1       1.474   0.420  -0.688  1.00  0.00     0.042 A 
HETATM    7  C13 UNL     1       1.639   1.750  -0.333  1.00  0.00     0.096 A 
HETATM    8  C14 UNL     1       2.773   2.194   0.338  1.00  0.00     0.060 A 
HETATM    9  S1  UNL     1       3.240   3.737   0.893  1.00  0.00    -0.036 SA
HETATM   10  C15 UNL     1       4.745   3.633   1.641  1.00  0.00     0.256 A 
HETATM   11  O4  UNL     1       5.346   4.613   2.149  1.00  0.00    -0.272 OA
HETATM   12  S2  UNL     1       5.079   1.991   1.475  1.00  0.00    -0.039 SA
HETATM   13  C16 UNL     1       3.751   1.281   0.651  1.00  0.00     0.036 A 
HETATM   14  C17 UNL     1       3.619  -0.062   0.307  1.00  0.00    -0.022 A 
ENDROOT
BRANCH   1  15
HETATM   15  N2  UNL     1      -0.846  -0.343  -0.515  1.00  0.00    -0.355 N 
HETATM   16  C8  UNL     1      -1.974  -0.125  -1.045  1.00  0.00     0.180 C 
ATOM     17  H2  UNL     1      -0.771  -0.566   0.478  1.00  0.00     0.163 HD
BRANCH  16  18
HETATM   18  N1  UNL     1      -3.178  -0.185  -0.275  1.00  0.00    -0.348 N 
HETATM   19  C2  UNL     1      -3.791   1.013   0.114  1.00  0.00     0.003 C 
HETATM   20  C1  UNL     1      -2.935   1.984   0.411  1.00  0.00     0.038 C 
HETATM   21  C3  UNL     1      -5.193   1.414   0.251  1.00  0.00     0.056 C 
HETATM   22  C4  UNL     1      -6.218   0.365   0.074  1.00  0.00     0.006 C 
HETATM   23  C5  UNL     1      -5.787  -0.816  -0.763  1.00  0.00     0.002 C 
HETATM   24  C6  UNL     1      -5.048  -1.737   0.207  1.00  0.00     0.020 C 
HETATM   25  C7  UNL     1      -3.593  -1.539  -0.012  1.00  0.00     0.130 C 
ENDBRANCH  16  18
ENDBRANCH   1  15
BRANCH   7  26
HETATM   26  O3  UNL     1       0.684   2.716  -0.628  1.00  0.00    -0.359 OA
ATOM     27  H3  UNL     1       0.797   3.627  -0.385  1.00  0.00     0.217 HD
ENDBRANCH   7  26
BRANCH  14  28
HETATM   28  C18 UNL     1       4.685  -1.040   0.609  1.00  0.00     0.041 C 
BRANCH  28  29
HETATM   29  C19 UNL     1       5.610  -1.337  -0.522  1.00  0.00     0.000 C 
HETATM   30  C20 UNL     1       6.620  -2.370  -0.004  1.00  0.00     0.005 C 
ENDBRANCH  28  29
ENDBRANCH  14  28
TORSDOF 5
