REMARK  5 active torsions:
REMARK  status: ('A' for Active; 'I' for Inactive)
REMARK    1  A    between atoms: C8_14  and  C9_15 
REMARK       I    between atoms: N2_16  and  C10_18 
REMARK    2  A    between atoms: C10_18  and  C11_20 
REMARK    3  A    between atoms: C15_25  and  C16_26 
REMARK    4  A    between atoms: C16_26  and  O4_28 
REMARK    5  A    between atoms: O4_28  and  C17_29 
ROOT
HETATM    1  C1  UNL     1      -0.199  -2.737  -1.861  1.00  0.00     0.028 C 
HETATM    2  C2  UNL     1      -1.181  -2.523  -1.026  1.00  0.00    -0.004 C 
HETATM    3  S1  UNL     1      -2.463  -3.743  -0.699  1.00  0.00    -0.070 SA
HETATM    4  C3  UNL     1      -3.899  -2.700  -0.833  1.00  0.00     0.107 C 
HETATM    5  N1  UNL     1      -5.089  -3.061  -0.943  1.00  0.00    -0.388 N 
ATOM      6  H11 UNL     1      -5.912  -2.463  -1.020  1.00  0.00     0.157 HD
ATOM      7  H12 UNL     1      -5.450  -4.014  -0.974  1.00  0.00     0.157 HD
HETATM    8  S2  UNL     1      -3.269  -1.038  -0.779  1.00  0.00    -0.088 SA
HETATM    9  C4  UNL     1      -1.526  -1.354  -0.187  1.00  0.00     0.065 C 
HETATM   10  C5  UNL     1      -1.705  -1.783   1.231  1.00  0.00     0.073 C 
HETATM   11  C6  UNL     1      -0.480  -1.512   1.997  1.00  0.00    -0.011 C 
HETATM   12  S3  UNL     1       0.138  -2.523   2.767  1.00  0.00    -0.089 SA
HETATM   13  C7  UNL     1       0.078  -0.155   1.935  1.00  0.00     0.057 C 
HETATM   14  C8  UNL     1       0.308   0.283   0.501  1.00  0.00     0.044 C 
HETATM   15  C15 UNL     1      -0.761  -0.118  -0.442  1.00  0.00     0.119 C 
ENDROOT
BRANCH  14  16
HETATM   16  C9  UNL     1       1.685  -0.018   0.060  1.00  0.00     0.070 C 
HETATM   17  N2  UNL     1       2.571  -0.270   0.932  1.00  0.00    -0.335 N 
HETATM   18  C10 UNL     1       3.918  -0.576   0.707  1.00  0.00     0.279 C 
ATOM     19  H2  UNL     1       2.268  -0.247   1.906  1.00  0.00     0.168 HD
HETATM   20  O1  UNL     1       4.408  -1.589   1.267  1.00  0.00    -0.265 OA
BRANCH  18  21
HETATM   21  C11 UNL     1       4.784   0.220  -0.143  1.00  0.00     0.142 A 
HETATM   22  C12 UNL     1       4.398   1.354  -0.823  1.00  0.00     0.045 A 
HETATM   23  C13 UNL     1       5.517   1.824  -1.524  1.00  0.00     0.027 A 
HETATM   24  C14 UNL     1       6.510   0.928  -1.214  1.00  0.00     0.143 A 
HETATM   25  O2  UNL     1       6.043   0.010  -0.407  1.00  0.00    -0.317 OA
ENDBRANCH  18  21
ENDBRANCH  14  16
BRANCH  15  26
HETATM   26  C16 UNL     1      -1.715   1.036  -0.554  1.00  0.00     0.265 C 
HETATM   27  O3  UNL     1      -1.727   1.685  -1.613  1.00  0.00    -0.265 OA
BRANCH  26  28
HETATM   28  O4  UNL     1      -2.569   1.409   0.448  1.00  0.00    -0.321 OA
BRANCH  28  29
HETATM   29  C17 UNL     1      -3.476   2.462   0.419  1.00  0.00     0.174 C 
HETATM   30  C18 UNL     1      -2.912   3.815   0.212  1.00  0.00     0.034 C 
ENDBRANCH  28  29
ENDBRANCH  26  28
ENDBRANCH  15  26
TORSDOF 5
