REMARK  7 active torsions:
REMARK  status: ('A' for Active; 'I' for Inactive)
REMARK    1  A    between atoms: C2_2  and  O2_4 
REMARK    2  A    between atoms: O2_4  and  C3_5 
REMARK    3  A    between atoms: C3_5  and  C4_6 
REMARK    4  A    between atoms: C9_11  and  O3_12 
REMARK    5  A    between atoms: C18_24  and  O6_25 
REMARK    6  A    between atoms: O6_25  and  C19_26 
REMARK    7  A    between atoms: C19_26  and  C20_28 
ROOT
HETATM    1  C4  UNL     1      -3.070   0.206  -1.274  1.00  0.00     0.044 C 
HETATM    2  C5  UNL     1      -3.940   1.399  -1.807  1.00  0.00     0.026 C 
HETATM    3  C6  UNL     1      -2.428  -0.410  -2.534  1.00  0.00     0.024 C 
HETATM    4  C7  UNL     1      -1.349   0.482  -3.098  1.00  0.00     0.046 C 
HETATM    5  C8  UNL     1      -0.087   0.087  -2.402  1.00  0.00     0.014 A 
HETATM    6  C9  UNL     1       1.039  -0.463  -2.917  1.00  0.00     0.190 A 
HETATM    7  O4  UNL     1       1.906  -0.686  -1.924  1.00  0.00    -0.288 OA
HETATM    8  C10 UNL     1       1.389  -0.300  -0.769  1.00  0.00     0.097 A 
HETATM    9  C11 UNL     1       0.157   0.184  -1.028  1.00  0.00     0.018 A 
HETATM   10  C12 UNL     1      -0.711   0.727   0.026  1.00  0.00     0.010 C 
HETATM   11  C13 UNL     1      -2.154   0.758  -0.322  1.00  0.00     0.167 C 
HETATM   12  O5  UNL     1      -2.734   1.527   0.486  1.00  0.00    -0.292 OA
HETATM   13  C14 UNL     1      -0.333   0.241   1.366  1.00  0.00    -0.013 C 
HETATM   14  C15 UNL     1      -0.662  -1.153   1.717  1.00  0.00     0.020 C 
HETATM   15  C16 UNL     1      -0.943   1.216   2.390  1.00  0.00     0.020 C 
HETATM   16  C17 UNL     1       1.183   0.531   1.516  1.00  0.00     0.053 C 
HETATM   17  C18 UNL     1       1.938  -0.337   0.602  1.00  0.00     0.191 C 
ENDROOT
BRANCH  17  18
HETATM   18  O6  UNL     1       3.334  -0.150   0.621  1.00  0.00    -0.306 OA
BRANCH  18  19
HETATM   19  C19 UNL     1       4.258  -1.102   0.991  1.00  0.00     0.283 C 
HETATM   20  O7  UNL     1       3.717  -2.209   1.328  1.00  0.00    -0.260 OA
BRANCH  19  21
HETATM   21  C20 UNL     1       5.687  -0.952   1.024  1.00  0.00     0.084 C 
HETATM   22  C21 UNL     1       6.344   0.118   0.707  1.00  0.00    -0.082 C 
HETATM   23  C22 UNL     1       5.598   1.331   0.260  1.00  0.00     0.043 C 
HETATM   24  C23 UNL     1       7.837   0.130   0.789  1.00  0.00     0.043 C 
ENDBRANCH  19  21
ENDBRANCH  18  19
ENDBRANCH  17  18
BRANCH   6  25
HETATM   25  O3  UNL     1       1.239  -0.742  -4.268  1.00  0.00    -0.340 OA
ATOM     26  H3  UNL     1       2.029  -1.128  -4.629  1.00  0.00     0.220 HD
ENDBRANCH   6  25
BRANCH   1  27
HETATM   27  C3  UNL     1      -4.063  -0.810  -0.833  1.00  0.00     0.196 C 
BRANCH  27  28
HETATM   28  O2  UNL     1      -5.006  -0.615   0.092  1.00  0.00    -0.321 OA
BRANCH  28  29
HETATM   29  C2  UNL     1      -5.122  -0.539   1.422  1.00  0.00     0.254 C 
HETATM   30  C1  UNL     1      -6.483  -0.254   1.990  1.00  0.00     0.126 C 
HETATM   31  O1  UNL     1      -4.183  -0.688   2.210  1.00  0.00    -0.266 OA
ENDBRANCH  28  29
ENDBRANCH  27  28
ENDBRANCH   1  27
TORSDOF 7
