REMARK  5 active torsions:
REMARK  status: ('A' for Active; 'I' for Inactive)
REMARK    1  A    between atoms: C1_4  and  C2_5 
REMARK    2  A    between atoms: C1_4  and  N5_12 
REMARK    3  A    between atoms: C6_16  and  C7_17 
REMARK       I    between atoms: C7_17  and  N6_19 
REMARK    4  A    between atoms: N6_19  and  C8_21 
REMARK    5  A    between atoms: C8_21  and  C9_22 
ROOT
HETATM    1  N5  UNL     1       3.619  -0.502  -0.113  1.00  0.00    -0.351 N 
HETATM    2  C3  UNL     1       4.482  -0.973  -1.171  1.00  0.00     0.125 C 
HETATM    3  C4  UNL     1       4.454  -2.465  -0.989  1.00  0.00     0.022 C 
HETATM    4  C5  UNL     1       3.016  -2.706  -0.568  1.00  0.00     0.037 C 
HETATM    5  C6  UNL     1       2.555  -1.431   0.083  1.00  0.00     0.178 C 
ENDROOT
BRANCH   5   6
HETATM    6  C7  UNL     1       1.246  -0.956  -0.521  1.00  0.00     0.244 C 
HETATM    7  O1  UNL     1       1.302   0.155  -1.086  1.00  0.00    -0.271 OA
HETATM    8  N6  UNL     1       0.136  -1.797  -0.382  1.00  0.00    -0.338 N 
ATOM      9  H6  UNL     1       0.293  -2.680   0.104  1.00  0.00     0.167 HD
BRANCH   8  10
HETATM   10  C8  UNL     1      -1.166  -1.558  -0.837  1.00  0.00     0.073 C 
BRANCH  10  11
HETATM   11  C9  UNL     1      -2.035  -0.497  -0.300  1.00  0.00    -0.007 C 
HETATM   12  C10 UNL     1      -1.597   0.918  -0.415  1.00  0.00     0.019 C 
HETATM   13  C11 UNL     1      -2.724   1.886  -0.045  1.00  0.00    -0.013 C 
HETATM   14  C12 UNL     1      -3.068   1.663   1.412  1.00  0.00     0.009 C 
HETATM   15  C16 UNL     1      -3.956   1.700  -0.863  1.00  0.00     0.009 C 
HETATM   16  C13 UNL     1      -3.431   0.204   1.606  1.00  0.00    -0.013 C 
HETATM   17  C14 UNL     1      -4.713  -0.020   0.808  1.00  0.00     0.009 C 
HETATM   18  C18 UNL     1      -2.368  -0.735   1.173  1.00  0.00     0.019 C 
HETATM   19  C15 UNL     1      -4.420   0.273  -0.638  1.00  0.00    -0.013 C 
HETATM   20  C17 UNL     1      -3.347  -0.626  -1.111  1.00  0.00     0.019 C 
ENDBRANCH  10  11
ENDBRANCH   8  10
ENDBRANCH   5   6
BRANCH   1  21
HETATM   21  C1  UNL     1       3.814   0.699   0.606  1.00  0.00     0.145 C 
HETATM   22  N1  UNL     1       3.791   0.643   1.892  1.00  0.00    -0.382 N 
ATOM     23  H12 UNL     1       3.932   1.510   2.411  1.00  0.00     0.157 HD
ATOM     24  H11 UNL     1       3.634  -0.255   2.350  1.00  0.00     0.157 HD
BRANCH  21  25
HETATM   25  C2  UNL     1       4.038   1.984  -0.049  1.00  0.00     0.181 A 
HETATM   26  N2  UNL     1       4.250   3.259   0.317  1.00  0.00    -0.267 N 
HETATM   27  N3  UNL     1       4.317   3.580  -0.960  1.00  0.00    -0.239 N 
ATOM     28  H2  UNL     1       4.326   3.762   1.201  1.00  0.00     0.190 HD
HETATM   29  N4  UNL     1       4.112   2.343  -1.350  1.00  0.00    -0.267 N 
ATOM     30  H3  UNL     1       4.470   4.457  -1.457  1.00  0.00     0.208 HD
ATOM     31  H4  UNL     1       4.040   1.862  -2.246  1.00  0.00     0.190 HD
ENDBRANCH  21  25
ENDBRANCH   1  21
TORSDOF 5
