REMARK  5 active torsions:
REMARK  status: ('A' for Active; 'I' for Inactive)
REMARK    1  A    between atoms: C11_11  and  N1_12 
REMARK    2  A    between atoms: N1_12  and  C12_14 
REMARK    3  A    between atoms: N2_16  and  N3_18 
REMARK       I    between atoms: N3_18  and  C13_20 
REMARK    4  A    between atoms: C13_20  and  C14_22 
REMARK    5  A    between atoms: C14_22  and  C15_23 
ROOT
HETATM    1  N1  UNL     1       0.496   1.183   1.951  1.00  0.00    -0.361 N 
ATOM      2  H1  UNL     1      -0.003   1.935   2.426  1.00  0.00     0.162 HD
ENDROOT
BRANCH   1   3
HETATM    3  C11 UNL     1       0.151   0.936   0.587  1.00  0.00     0.092 C 
HETATM    4  C9  UNL     1      -0.451   2.195  -0.058  1.00  0.00     0.009 C 
HETATM    5  C8  UNL     1      -1.593   2.783   0.682  1.00  0.00     0.011 C 
HETATM    6  C10 UNL     1      -0.867   1.810  -1.455  1.00  0.00     0.012 C 
HETATM    7  C7  UNL     1      -2.659   1.720   0.834  1.00  0.00    -0.013 C 
HETATM    8  C6  UNL     1      -3.161   1.441  -0.589  1.00  0.00     0.010 C 
HETATM    9  C17 UNL     1      -2.126   0.465   1.436  1.00  0.00     0.012 C 
HETATM   10  C5  UNL     1      -2.047   0.834  -1.377  1.00  0.00    -0.004 C 
HETATM   11  C4  UNL     1      -1.505  -0.427  -0.741  1.00  0.00    -0.028 A 
HETATM   12  C2  UNL     1      -2.255  -1.704  -0.862  1.00  0.00    -0.009 A 
HETATM   13  C3  UNL     1      -0.961  -1.430  -1.644  1.00  0.00     0.015 A 
HETATM   14  C16 UNL     1      -0.979  -0.092   0.605  1.00  0.00     0.018 C 
HETATM   15  C1  UNL     1      -2.124  -2.808   0.127  1.00  0.00     0.011 C 
ENDBRANCH   1   3
BRANCH   1  16
HETATM   16  C12 UNL     1       1.451   0.491   2.691  1.00  0.00     0.186 C 
HETATM   17  S1  UNL     1       1.631   0.959   4.319  1.00  0.00    -0.040 SA
HETATM   18  N2  UNL     1       2.278  -0.522   2.298  1.00  0.00    -0.274 N 
ATOM     19  H2  UNL     1       2.896  -0.898   3.017  1.00  0.00     0.189 HD
BRANCH  18  20
HETATM   20  N3  UNL     1       2.381  -1.098   1.053  1.00  0.00    -0.267 N 
HETATM   21  C13 UNL     1       3.610  -0.878   0.311  1.00  0.00     0.246 C 
HETATM   22  O1  UNL     1       4.505  -0.180   0.840  1.00  0.00    -0.271 OA
ATOM     23  H3  UNL     1       1.622  -1.659   0.665  1.00  0.00     0.190 HD
BRANCH  21  24
HETATM   24  C14 UNL     1       3.687  -1.511  -1.021  1.00  0.00     0.217 C 
BRANCH  24  25
HETATM   25  C15 UNL     1       4.987  -1.194  -1.639  1.00  0.00     0.181 C 
HETATM   26  O2  UNL     1       5.813  -0.493  -1.049  1.00  0.00    -0.648 OA
HETATM   27  O3  UNL     1       5.223  -1.728  -2.913  1.00  0.00    -0.648 OA
ENDBRANCH  24  25
ENDBRANCH  21  24
ENDBRANCH  18  20
ENDBRANCH   1  16
TORSDOF 5
