REMARK  5 active torsions:
REMARK  status: ('A' for Active; 'I' for Inactive)
REMARK    1  A    between atoms: C4_4  and  N1_5 
REMARK       I    between atoms: N1_5  and  C5_7 
REMARK    2  A    between atoms: C7_11  and  N3_12 
REMARK       I    between atoms: N3_12  and  C8_14 
REMARK    3  A    between atoms: C8_14  and  C9_16 
REMARK       I    between atoms: C9_16  and  N4_18 
REMARK    4  A    between atoms: N4_18  and  C10_20 
REMARK    5  A    between atoms: C10_20  and  C11_21 
ROOT
HETATM    1  N3  UNL     1      -1.097   0.113  -0.455  1.00  0.00    -0.348 N 
ATOM      2  H3  UNL     1      -0.966   0.574   0.445  1.00  0.00     0.163 HD
HETATM    3  C8  UNL     1       0.016  -0.075  -1.292  1.00  0.00     0.309 C 
HETATM    4  O2  UNL     1      -0.116  -0.634  -2.395  1.00  0.00    -0.262 OA
ENDROOT
BRANCH   1   5
HETATM    5  C7  UNL     1      -2.426  -0.328  -0.830  1.00  0.00     0.087 C 
HETATM    6  C6  UNL     1      -3.354   0.833  -0.812  1.00  0.00     0.050 C 
HETATM    7  C4  UNL     1      -4.802   0.522  -0.667  1.00  0.00     0.088 C 
HETATM    8  C3  UNL     1      -5.190  -0.895  -0.889  1.00  0.00     0.029 C 
HETATM    9  C2  UNL     1      -4.208  -1.930  -0.491  1.00  0.00    -0.015 C 
HETATM   10  C1  UNL     1      -4.776  -2.959   0.476  1.00  0.00     0.010 C 
HETATM   11  C18 UNL     1      -2.939  -1.389   0.123  1.00  0.00     0.029 C 
BRANCH   7  12
HETATM   12  N1  UNL     1      -5.340   0.996   0.594  1.00  0.00    -0.341 N 
HETATM   13  C5  UNL     1      -6.330   2.012   0.673  1.00  0.00     0.329 C 
HETATM   14  N2  UNL     1      -6.843   2.463   1.893  1.00  0.00    -0.040 NA
HETATM   15  O1  UNL     1      -6.741   2.504  -0.409  1.00  0.00    -0.251 OA
ATOM     16  H1  UNL     1      -4.993   0.583   1.460  1.00  0.00     0.164 HD
ENDBRANCH   7  12
ENDBRANCH   1   5
BRANCH   3  17
HETATM   17  C9  UNL     1       1.374   0.379  -0.901  1.00  0.00     0.309 C 
HETATM   18  O3  UNL     1       1.439   0.929   0.212  1.00  0.00    -0.262 OA
HETATM   19  N4  UNL     1       2.472   0.190  -1.738  1.00  0.00    -0.353 N 
ATOM     20  H4  UNL     1       2.232  -0.269  -2.617  1.00  0.00     0.162 HD
BRANCH  19  21
HETATM   21  C10 UNL     1       3.850   0.499  -1.630  1.00  0.00     0.128 C 
BRANCH  21  22
HETATM   22  C11 UNL     1       4.584  -0.171  -0.566  1.00  0.00     0.008 C 
HETATM   23  C12 UNL     1       4.267   0.049   0.873  1.00  0.00     0.011 C 
HETATM   24  C13 UNL     1       5.616  -0.157   1.573  1.00  0.00    -0.014 C 
HETATM   25  C14 UNL     1       6.335   1.177   1.389  1.00  0.00     0.005 C 
HETATM   26  C17 UNL     1       6.390  -0.974   0.568  1.00  0.00     0.010 C 
HETATM   27  C15 UNL     1       6.562   1.260  -0.112  1.00  0.00     0.005 C 
HETATM   28  C16 UNL     1       6.115  -0.041  -0.640  1.00  0.00    -0.009 C 
ENDBRANCH  21  22
ENDBRANCH  19  21
ENDBRANCH   3  17
TORSDOF 5
