REMARK  3 active torsions:
REMARK  status: ('A' for Active; 'I' for Inactive)
REMARK    1  A    between atoms: C2_4  and  N2_5 
REMARK    2  A    between atoms: C2_4  and  S1_8 
REMARK    3  A    between atoms: S1_8  and  C4_9 
ROOT
HETATM    1  C4  UNL     1       2.584   0.422  -0.506  1.00  0.00     0.206 C 
HETATM    2  C5  UNL     1       2.914  -0.359   0.683  1.00  0.00     0.069 C 
HETATM    3  N3  UNL     1       3.171  -0.963   1.637  1.00  0.00    -0.197 NA
ENDROOT
BRANCH   1   4
HETATM    4  S1  UNL     1       1.026   1.291  -0.367  1.00  0.00    -0.080 SA
BRANCH   4   5
HETATM    5  C2  UNL     1      -0.374   0.228  -0.283  1.00  0.00     0.136 C 
HETATM    6  N1  UNL     1      -1.564   0.699  -0.179  1.00  0.00    -0.375 N 
HETATM    7  C1  UNL     1      -1.917   2.082  -0.119  1.00  0.00     0.148 C 
ATOM      8  H1  UNL     1      -2.327   0.024  -0.135  1.00  0.00     0.161 HD
BRANCH   5   9
HETATM    9  N2  UNL     1      -0.219  -1.180  -0.328  1.00  0.00    -0.375 N 
HETATM   10  C3  UNL     1      -1.352  -2.085  -0.445  1.00  0.00     0.148 C 
ATOM     11  H2  UNL     1       0.721  -1.573  -0.276  1.00  0.00     0.161 HD
ENDBRANCH   5   9
ENDBRANCH   4   5
ENDBRANCH   1   4
TORSDOF 3
