REMARK  7 active torsions:
REMARK  status: ('A' for Active; 'I' for Inactive)
REMARK    1  A    between atoms: C2_2  and  C3_3 
REMARK    2  A    between atoms: C3_3  and  S1_4 
REMARK    3  A    between atoms: S1_4  and  C4_5 
REMARK    4  A    between atoms: C5_8  and  N2_9 
REMARK    5  A    between atoms: N2_9  and  C6_11 
REMARK    6  A    between atoms: C6_11  and  C7_12 
REMARK    7  A    between atoms: C6_11  and  C12_20 
ROOT
HETATM    1  C4  UNL     1      -1.959   0.112   1.420  1.00  0.00     0.110 A 
HETATM    2  N1  UNL     1      -0.772  -0.040   0.761  1.00  0.00    -0.184 N 
ATOM      3  H1  UNL     1      -0.455  -0.983   0.534  1.00  0.00     0.185 HD
HETATM    4  C5  UNL     1      -0.005   1.003   0.400  1.00  0.00     0.681 A 
HETATM    5  N4  UNL     1      -0.475   2.229   0.727  1.00  0.00    -0.177 N 
ATOM      6  H4  UNL     1       0.085   3.040   0.466  1.00  0.00     0.185 HD
HETATM    7  C15 UNL     1      -1.621   2.444   1.367  1.00  0.00     0.155 A 
HETATM    8  N5  UNL     1      -2.090   3.761   1.699  1.00  0.00    -0.080 NA
HETATM    9  C16 UNL     1      -2.404   1.368   1.735  1.00  0.00     0.120 A 
HETATM   10  C17 UNL     1      -3.641   1.623   2.440  1.00  0.00     0.106 C 
HETATM   11  N6  UNL     1      -4.631   1.807   3.008  1.00  0.00    -0.191 NA
ENDROOT
BRANCH   1  12
HETATM   12  S1  UNL     1      -2.930  -1.310   1.885  1.00  0.00    -0.110 SA
BRANCH  12  13
HETATM   13  C3  UNL     1      -4.049  -1.855   0.583  1.00  0.00     0.080 C 
BRANCH  13  14
HETATM   14  C2  UNL     1      -5.101  -0.830   0.316  1.00  0.00     0.006 C 
HETATM   15  C1  UNL     1      -6.061  -1.278  -0.769  1.00  0.00     0.006 C 
ENDBRANCH  13  14
ENDBRANCH  12  13
ENDBRANCH   1  12
BRANCH   4  16
HETATM   16  N2  UNL     1       1.107   0.913  -0.213  1.00  0.00    -0.216 N 
ATOM     17  H2  UNL     1       1.573   1.798  -0.416  1.00  0.00     0.178 HD
BRANCH  16  18
HETATM   18  C6  UNL     1       1.786  -0.255  -0.652  1.00  0.00     0.152 C 
BRANCH  18  19
HETATM   19  C7  UNL     1       3.104  -0.298   0.077  1.00  0.00     0.034 A 
HETATM   20  C8  UNL     1       3.548  -1.466   0.650  1.00  0.00     0.027 A 
HETATM   21  C9  UNL     1       4.756  -1.482   1.310  1.00  0.00     0.005 A 
HETATM   22  C10 UNL     1       5.537  -0.354   1.414  1.00  0.00     0.037 A 
HETATM   23  C11 UNL     1       5.031   0.791   0.814  1.00  0.00     0.080 A 
HETATM   24 BR1  UNL     1       6.120   2.355   0.962  1.00  0.00    -0.031 Br
HETATM   25  N3  UNL     1       3.858   0.798   0.175  1.00  0.00    -0.352 N 
ATOM     26  H3  UNL     1       3.530   1.665  -0.250  1.00  0.00     0.166 HD
ENDBRANCH  18  19
BRANCH  18  27
HETATM   27  C12 UNL     1       2.077  -0.128  -2.133  1.00  0.00     0.007 C 
HETATM   28  C13 UNL     1       2.930   1.049  -2.477  1.00  0.00     0.012 C 
HETATM   29  C14 UNL     1       2.781  -1.375  -2.639  1.00  0.00     0.012 C 
ENDBRANCH  18  27
ENDBRANCH  16  18
ENDBRANCH   4  16
TORSDOF 7
