REMARK  7 active torsions:
REMARK  status: ('A' for Active; 'I' for Inactive)
REMARK    1  A    between atoms: C2_2  and  N1_3 
REMARK    2  A    between atoms: N1_3  and  C4_5 
REMARK    3  A    between atoms: C4_5  and  C5_6 
REMARK    4  A    between atoms: C7_10  and  N3_11 
REMARK    5  A    between atoms: N3_11  and  C8_13 
REMARK    6  A    between atoms: C9_16  and  C10_17 
REMARK    7  A    between atoms: C12_19  and  C13_20 
REMARK       I    between atoms: C13_20  and  N5_22 
ROOT
HETATM    1  C8  UNL     1      -0.389   0.626  -2.708  1.00  0.00     0.164 A 
HETATM    2  N4  UNL     1       0.583   0.687  -1.822  1.00  0.00    -0.335 N 
ATOM      3  H4  UNL     1       0.436   1.174  -0.938  1.00  0.00     0.168 HD
HETATM    4  C9  UNL     1       1.729   0.128  -2.071  1.00  0.00     0.054 A 
HETATM    5  C20 UNL     1       1.871  -0.515  -3.277  1.00  0.00     0.083 A 
HETATM    6  S1  UNL     1       0.321  -0.263  -3.975  1.00  0.00    -0.063 SA
ENDROOT
BRANCH   1   7
HETATM    7  N3  UNL     1      -1.713   1.148  -2.693  1.00  0.00    -0.170 N 
ATOM      8  H3  UNL     1      -1.989   1.749  -3.469  1.00  0.00     0.186 HD
BRANCH   7   9
HETATM    9  C7  UNL     1      -2.577   0.925  -1.791  1.00  0.00     0.683 A 
HETATM   10  N2  UNL     1      -3.788   1.501  -1.929  1.00  0.00    -0.201 N 
HETATM   11  C6  UNL     1      -4.779   1.326  -1.038  1.00  0.00     0.116 A 
ATOM     12  H2  UNL     1      -3.959   2.093  -2.742  1.00  0.00     0.183 HD
HETATM   13  C5  UNL     1      -4.578   0.530   0.073  1.00  0.00     0.002 A 
HETATM   14  C21 UNL     1      -3.353  -0.060   0.222  1.00  0.00     0.116 A 
HETATM   15  N6  UNL     1      -2.386   0.153  -0.711  1.00  0.00    -0.201 N 
ATOM     16  H6  UNL     1      -1.478  -0.293  -0.584  1.00  0.00     0.183 HD
BRANCH  13  17
HETATM   17  C4  UNL     1      -5.713   0.364   1.047  1.00  0.00     0.313 C 
BRANCH  17  18
HETATM   18  N1  UNL     1      -6.683  -0.463   0.401  1.00  0.00     0.088 N 
HETATM   19  C3  UNL     1      -6.120  -1.622  -0.242  1.00  0.00     0.310 C 
BRANCH  18  20
HETATM   20  C2  UNL     1      -7.859  -0.747   1.169  1.00  0.00     0.268 C 
HETATM   21  C1  UNL     1      -8.347   0.551   1.782  1.00  0.00     0.037 C 
ENDBRANCH  18  20
ENDBRANCH  17  18
ENDBRANCH  13  17
ENDBRANCH   7   9
ENDBRANCH   1   7
BRANCH   4  22
HETATM   22  C10 UNL     1       2.853   0.177  -1.094  1.00  0.00     0.031 A 
HETATM   23  C11 UNL     1       4.055  -0.391  -1.373  1.00  0.00     0.034 A 
HETATM   24  C12 UNL     1       5.158  -0.372  -0.475  1.00  0.00     0.039 A 
HETATM   25  C15 UNL     1       4.989   0.250   0.728  1.00  0.00    -0.037 A 
HETATM   26  C16 UNL     1       6.016   0.314   1.791  1.00  0.00     0.050 C 
HETATM   27  C17 UNL     1       3.757   0.830   1.008  1.00  0.00    -0.015 A 
HETATM   28  C18 UNL     1       3.569   1.504   2.311  1.00  0.00     0.052 C 
HETATM   29  C19 UNL     1       2.714   0.801   0.131  1.00  0.00     0.135 A 
HETATM   30  F1  UNL     1       1.510   1.370   0.403  1.00  0.00    -0.205 F 
BRANCH  24  31
HETATM   31  C13 UNL     1       6.398  -0.961  -0.912  1.00  0.00     0.251 C 
HETATM   32  O1  UNL     1       6.283  -1.948  -1.735  1.00  0.00    -0.268 OA
HETATM   33  N5  UNL     1       7.675  -0.587  -0.556  1.00  0.00    -0.361 N 
HETATM   34  C14 UNL     1       8.850  -1.306  -1.086  1.00  0.00     0.149 C 
ATOM     35  H5  UNL     1       7.810   0.197   0.082  1.00  0.00     0.162 HD
ENDBRANCH  24  31
ENDBRANCH   4  22
TORSDOF 7
