REMARK  6 active torsions:
REMARK  status: ('A' for Active; 'I' for Inactive)
REMARK    1  A    between atoms: O1_2  and  C2_3 
REMARK    2  A    between atoms: N2_6  and  C3_7 
REMARK    3  A    between atoms: C3_7  and  C4_8 
REMARK    4  A    between atoms: C13_20  and  C14_21 
REMARK    5  A    between atoms: C14_21  and  C15_22 
REMARK    6  A    between atoms: C17_29  and  C18_30 
ROOT
HETATM    1  C2  UNL     1       0.184  -0.677   2.031  1.00  0.00     0.171 A 
HETATM    2  N1  UNL     1       1.515  -0.780   2.114  1.00  0.00    -0.275 N 
ATOM      3  H1  UNL     1       2.067  -0.522   2.932  1.00  0.00     0.189 HD
HETATM    4  N2  UNL     1       2.014  -1.258   0.998  1.00  0.00    -0.269 N 
HETATM    5  C10 UNL     1       1.034  -1.499   0.110  1.00  0.00     0.138 A 
HETATM    6  N3  UNL     1       0.735  -1.948  -1.111  1.00  0.00    -0.344 N 
ATOM      7  H3  UNL     1       1.415  -2.282  -1.794  1.00  0.00     0.167 HD
HETATM    8  C11 UNL     1      -0.605  -1.895  -1.309  1.00  0.00     0.014 A 
HETATM    9  C12 UNL     1      -1.259  -2.330  -2.576  1.00  0.00     0.068 C 
HETATM   10  C13 UNL     1      -1.162  -1.387  -0.152  1.00  0.00    -0.012 A 
HETATM   11  C21 UNL     1      -0.152  -1.129   0.758  1.00  0.00     0.070 A 
ENDROOT
BRANCH  10  12
HETATM   12  C14 UNL     1      -2.595  -1.209   0.101  1.00  0.00     0.099 C 
BRANCH  12  13
HETATM   13  C15 UNL     1      -3.319  -0.238  -0.688  1.00  0.00     0.026 A 
HETATM   14  N4  UNL     1      -4.143  -0.698  -1.686  1.00  0.00    -0.311 N 
HETATM   15  C16 UNL     1      -4.858   0.116  -2.470  1.00  0.00     0.325 A 
ATOM     16  H4  UNL     1      -4.213  -1.705  -1.836  1.00  0.00     0.170 HD
HETATM   17  O2  UNL     1      -5.609  -0.365  -3.383  1.00  0.00    -0.247 OA
HETATM   18  N5  UNL     1      -4.770   1.440  -2.277  1.00  0.00    -0.307 N 
HETATM   19  C17 UNL     1      -3.990   1.968  -1.326  1.00  0.00     0.054 A 
ATOM     20  H5  UNL     1      -5.314   2.064  -2.873  1.00  0.00     0.170 HD
HETATM   21  C19 UNL     1      -3.245   1.105  -0.510  1.00  0.00    -0.011 A 
HETATM   22  C20 UNL     1      -2.404   1.732   0.534  1.00  0.00     0.052 C 
BRANCH  19  23
HETATM   23  C18 UNL     1      -3.908   3.420  -1.131  1.00  0.00     0.111 C 
HETATM   24  S1  UNL     1      -2.654   4.328  -1.631  1.00  0.00    -0.090 SA
ENDBRANCH  19  23
ENDBRANCH  12  13
ENDBRANCH  10  12
BRANCH   1  25
HETATM   25  O1  UNL     1      -0.663  -0.219   3.012  1.00  0.00    -0.339 OA
HETATM   26  C1  UNL     1      -0.146   0.205   4.258  1.00  0.00     0.211 C 
ENDBRANCH   1  25
BRANCH   4  27
HETATM   27  C3  UNL     1       3.421  -1.495   0.759  1.00  0.00     0.192 C 
BRANCH  27  28
HETATM   28  C4  UNL     1       4.104  -0.321   0.176  1.00  0.00     0.000 A 
HETATM   29  C5  UNL     1       4.426  -0.287  -1.158  1.00  0.00     0.012 A 
HETATM   30  C6  UNL     1       5.070   0.809  -1.730  1.00  0.00     0.001 A 
HETATM   31  C7  UNL     1       5.396   1.892  -0.947  1.00  0.00     0.003 A 
HETATM   32  C8  UNL     1       5.083   1.879   0.393  1.00  0.00     0.043 A 
HETATM   33  C9  UNL     1       4.436   0.768   0.950  1.00  0.00     0.124 A 
HETATM   34  F1  UNL     1       4.154   0.813   2.273  1.00  0.00    -0.205 F 
ENDBRANCH  27  28
ENDBRANCH   4  27
TORSDOF 6
