REMARK  11 active torsions:
REMARK  status: ('A' for Active; 'I' for Inactive)
REMARK    1  A    between atoms: C2_2  and  C3_3 
REMARK    2  A    between atoms: C2_2  and  N2_16 
REMARK    3  A    between atoms: C3_3  and  C4_4 
REMARK    4  A    between atoms: C7_7  and  S1_8 
REMARK    5  A    between atoms: S1_8  and  N1_9 
REMARK    6  A    between atoms: N2_16  and  C10_18 
REMARK    7  A    between atoms: C10_18  and  C11_19 
REMARK    8  A    between atoms: C11_19  and  O3_20 
REMARK    9  A    between atoms: C11_19  and  N3_22 
REMARK   10  A    between atoms: N3_22  and  C12_24 
REMARK   11  A    between atoms: C12_24  and  C13_25 
ROOT
HETATM    1  C1  UNL     1      -0.146  -0.603  -1.250  1.00  0.00     0.063 C 
HETATM    2  C2  UNL     1      -0.131   0.772  -0.697  1.00  0.00    -0.014 C 
ENDROOT
BRANCH   2   3
HETATM    3  C3  UNL     1       0.462   0.733   0.730  1.00  0.00     0.090 C 
BRANCH   3   4
HETATM    4  C4  UNL     1       1.848   0.195   0.617  1.00  0.00    -0.053 A 
HETATM    5  C5  UNL     1       2.881   1.078   0.261  1.00  0.00     0.009 A 
HETATM    6  C6  UNL     1       4.199   0.650   0.161  1.00  0.00     0.026 A 
HETATM    7  C7  UNL     1       4.462  -0.675   0.425  1.00  0.00     0.079 A 
HETATM    8  C8  UNL     1       3.471  -1.573   0.778  1.00  0.00     0.026 A 
HETATM    9  C9  UNL     1       2.162  -1.127   0.872  1.00  0.00     0.009 A 
BRANCH   7  10
HETATM   10  S1  UNL     1       6.135  -1.234   0.288  1.00  0.00     0.256 S 
HETATM   11  O1  UNL     1       7.041  -0.050   0.334  1.00  0.00    -0.201 OA
HETATM   12  O2  UNL     1       6.448  -2.172   1.398  1.00  0.00    -0.201 OA
BRANCH  10  13
HETATM   13  N1  UNL     1       6.264  -1.955  -1.278  1.00  0.00    -0.324 N 
ATOM     14  H12 UNL     1       5.519  -2.034  -1.970  1.00  0.00     0.169 HD
ATOM     15  H11 UNL     1       7.229  -2.277  -1.357  1.00  0.00     0.169 HD
ENDBRANCH  10  13
ENDBRANCH   7  10
ENDBRANCH   3   4
ENDBRANCH   2   3
BRANCH   2  16
HETATM   16  N2  UNL     1      -1.176   1.647  -0.823  1.00  0.00    -0.372 N 
ATOM     17  H2  UNL     1      -0.955   2.485  -1.361  1.00  0.00     0.164 HD
BRANCH  16  18
HETATM   18  C10 UNL     1      -2.464   1.604  -0.359  1.00  0.00     0.113 C 
BRANCH  18  19
HETATM   19  C11 UNL     1      -3.437   0.661  -0.972  1.00  0.00     0.253 C 
BRANCH  19  20
HETATM   20  O3  UNL     1      -3.141  -0.667  -0.811  1.00  0.00    -0.372 OA
ATOM     21  H3  UNL     1      -3.763  -1.269  -1.203  1.00  0.00     0.212 HD
ENDBRANCH  19  20
BRANCH  19  22
HETATM   22  N3  UNL     1      -4.799   0.871  -0.558  1.00  0.00    -0.388 N 
ATOM     23  H3  UNL     1      -5.526   1.156  -1.214  1.00  0.00     0.156 HD
BRANCH  22  24
HETATM   24  C12 UNL     1      -5.069   0.656   0.824  1.00  0.00     0.161 C 
BRANCH  24  25
HETATM   25  C13 UNL     1      -4.933  -0.795   1.080  1.00  0.00     0.072 C 
HETATM   26  N4  UNL     1      -5.846  -1.582   0.693  1.00  0.00    -0.410 N 
ATOM     27  H42 UNL     1      -6.661  -1.203   0.211  1.00  0.00     0.155 HD
ATOM     28  H41 UNL     1      -5.752  -2.582   0.869  1.00  0.00     0.155 HD
ENDBRANCH  24  25
ENDBRANCH  22  24
ENDBRANCH  19  22
ENDBRANCH  18  19
ENDBRANCH  16  18
ENDBRANCH   2  16
TORSDOF 11
