REMARK  11 active torsions:
REMARK  status: ('A' for Active; 'I' for Inactive)
REMARK    1  A    between atoms: C2_2  and  N1_3 
REMARK    2  A    between atoms: N1_3  and  C3_5 
REMARK    3  A    between atoms: N3_9  and  C5_11 
REMARK    4  A    between atoms: C5_11  and  C6_12 
REMARK    5  A    between atoms: C6_12  and  C7_13 
REMARK    6  A    between atoms: C7_13  and  C8_14 
REMARK    7  A    between atoms: C8_14  and  N4_15 
REMARK    8  A    between atoms: N4_15  and  C9_17 
REMARK    9  A    between atoms: C9_17  and  C10_18 
REMARK   10  A    between atoms: C10_18  and  C11_19 
REMARK   11  A    between atoms: C11_19  and  N5_20 
ROOT
HETATM    1  C3  UNL     1      -4.052  -0.321  -0.222  1.00  0.00     0.681 A 
HETATM    2  N2  UNL     1      -2.783  -0.604   0.117  1.00  0.00    -0.175 N 
ATOM      3  H2  UNL     1      -2.384  -1.497  -0.172  1.00  0.00     0.186 HD
HETATM    4  C4  UNL     1      -2.014   0.255   0.830  1.00  0.00     0.147 A 
HETATM    5  N3  UNL     1      -0.817  -0.047   1.132  1.00  0.00    -0.374 N 
ATOM      6  H3  UNL     1      -0.494  -0.958   0.805  1.00  0.00     0.161 HD
HETATM    7  C12 UNL     1      -2.522   1.473   1.241  1.00  0.00     0.123 A 
HETATM    8  N6  UNL     1      -2.057   2.530   1.937  1.00  0.00    -0.346 N 
ATOM      9  H6  UNL     1      -1.118   2.606   2.328  1.00  0.00     0.167 HD
HETATM   10  C13 UNL     1      -3.013   3.470   2.040  1.00  0.00     0.184 A 
HETATM   11  N7  UNL     1      -4.084   2.979   1.395  1.00  0.00    -0.331 N 
HETATM   12  C14 UNL     1      -5.373   3.645   1.238  1.00  0.00     0.158 C 
HETATM   13  C15 UNL     1      -3.826   1.751   0.887  1.00  0.00     0.154 A 
HETATM   14  N8  UNL     1      -4.550   0.862   0.175  1.00  0.00    -0.174 N 
ATOM     15  H8  UNL     1      -5.512   1.097  -0.071  1.00  0.00     0.186 HD
ENDROOT
BRANCH   5  16
HETATM   16  C5  UNL     1       0.131   0.718   1.866  1.00  0.00     0.121 C 
BRANCH  16  17
HETATM   17  C6  UNL     1       1.407  -0.114   1.950  1.00  0.00     0.021 C 
BRANCH  17  18
HETATM   18  C7  UNL     1       1.858  -0.356   0.539  1.00  0.00     0.021 C 
BRANCH  18  19
HETATM   19  C8  UNL     1       3.141  -1.194   0.575  1.00  0.00     0.113 C 
BRANCH  19  20
HETATM   20  N4  UNL     1       3.643  -1.469  -0.724  1.00  0.00    -0.421 N 
ATOM     21  H4  UNL     1       3.641  -2.413  -1.109  1.00  0.00     0.153 HD
BRANCH  20  22
HETATM   22  C9  UNL     1       4.149  -0.364  -1.462  1.00  0.00     0.115 C 
BRANCH  22  23
HETATM   23  C10 UNL     1       5.416   0.132  -0.818  1.00  0.00     0.046 C 
BRANCH  23  24
HETATM   24  C11 UNL     1       6.405  -1.039  -0.831  1.00  0.00     0.231 C 
BRANCH  24  25
HETATM   25  N5  UNL     1       6.635  -1.432  -2.203  1.00  0.00    -0.079 N 
ATOM     26  H53 UNL     1       5.770  -1.645  -2.699  1.00  0.00     0.274 HD
ATOM     27  H52 UNL     1       6.943  -0.654  -2.786  1.00  0.00     0.274 HD
ATOM     28  H51 UNL     1       7.293  -2.211  -2.212  1.00  0.00     0.274 HD
ENDBRANCH  24  25
ENDBRANCH  23  24
ENDBRANCH  22  23
ENDBRANCH  20  22
ENDBRANCH  19  20
ENDBRANCH  18  19
ENDBRANCH  17  18
ENDBRANCH  16  17
ENDBRANCH   5  16
BRANCH   1  29
HETATM   29  N1  UNL     1      -4.768  -1.163  -0.908  1.00  0.00    -0.226 N 
ATOM     30  H1  UNL     1      -5.727  -0.906  -1.141  1.00  0.00     0.177 HD
BRANCH  29  31
HETATM   31  C2  UNL     1      -4.273  -2.443  -1.356  1.00  0.00     0.133 C 
HETATM   32  C1  UNL     1      -3.342  -2.297  -2.549  1.00  0.00     0.027 C 
ENDBRANCH  29  31
ENDBRANCH   1  29
TORSDOF 11
