REMARK  11 active torsions:
REMARK  status: ('A' for Active; 'I' for Inactive)
REMARK    1  A    between atoms: O1_2  and  C2_3 
REMARK    2  A    between atoms: C2_3  and  C3_4 
REMARK    3  A    between atoms: C3_4  and  N1_5 
REMARK    4  A    between atoms: N1_5  and  C4_7 
REMARK    5  A    between atoms: C4_7  and  C6_9 
REMARK    6  A    between atoms: C7_10  and  O2_11 
REMARK    7  A    between atoms: C8_13  and  C9_14 
REMARK    8  A    between atoms: C8_13  and  N4_22 
REMARK    9  A    between atoms: C9_14  and  C10_15 
REMARK   10  A    between atoms: N4_22  and  C13_24 
REMARK   11  A    between atoms: C16_27  and  O3_28 
ROOT
HETATM    1  C6  UNL     1       0.387   0.177  -0.639  1.00  0.00     0.093 C 
HETATM    2  C7  UNL     1      -0.646   0.388   0.403  1.00  0.00     0.161 C 
HETATM    3  C8  UNL     1      -1.587  -0.446  -0.433  1.00  0.00     0.085 C 
HETATM    4  C16 UNL     1      -0.263  -1.157  -0.888  1.00  0.00     0.161 C 
ENDROOT
BRANCH   3   5
HETATM    5  C9  UNL     1      -2.145   0.153  -1.676  1.00  0.00     0.094 C 
BRANCH   5   6
HETATM    6  C10 UNL     1      -2.912   1.381  -1.559  1.00  0.00     0.028 A 
HETATM    7  C11 UNL     1      -4.258   1.500  -1.360  1.00  0.00     0.114 A 
HETATM    8  N2  UNL     1      -4.552   2.829  -1.322  1.00  0.00    -0.360 N 
HETATM    9  C12 UNL     1      -3.439   3.547  -1.490  1.00  0.00     0.180 A 
ATOM     10  H2  UNL     1      -5.485   3.218  -1.185  1.00  0.00     0.166 HD
HETATM   11  N3  UNL     1      -2.435   2.634  -1.634  1.00  0.00    -0.354 N 
ATOM     12  H3  UNL     1      -1.454   2.872  -1.779  1.00  0.00     0.166 HD
ENDBRANCH   5   6
ENDBRANCH   3   5
BRANCH   3  13
HETATM   13  N4  UNL     1      -2.352  -1.451   0.210  1.00  0.00    -0.404 N 
ATOM     14  H4  UNL     1      -2.228  -2.433  -0.035  1.00  0.00     0.154 HD
BRANCH  13  15
HETATM   15  C13 UNL     1      -3.290  -1.070   1.197  1.00  0.00     0.077 A 
HETATM   16  C14 UNL     1      -3.875  -2.308   1.936  1.00  0.00     0.027 A 
HETATM   17  C15 UNL     1      -4.732  -1.408   1.129  1.00  0.00     0.027 A 
ENDBRANCH  13  15
ENDBRANCH   3  13
BRANCH   2  18
HETATM   18  O2  UNL     1      -0.366  -0.283   1.582  1.00  0.00    -0.392 OA
ATOM     19  H2  UNL     1      -1.028  -0.148   2.250  1.00  0.00     0.210 HD
ENDBRANCH   2  18
BRANCH   4  20
HETATM   20  O3  UNL     1       0.090  -2.155   0.002  1.00  0.00    -0.392 OA
ATOM     21  H3  UNL     1      -0.320  -2.997  -0.155  1.00  0.00     0.210 HD
ENDBRANCH   4  20
BRANCH   1  22
HETATM   22  C4  UNL     1       1.832   0.171  -0.281  1.00  0.00    -0.013 C 
HETATM   23  C5  UNL     1       2.307   1.590  -0.088  1.00  0.00     0.063 C 
BRANCH  22  24
HETATM   24  N1  UNL     1       2.284  -0.786   0.641  1.00  0.00    -0.394 N 
ATOM     25  H1  UNL     1       1.632  -1.213   1.299  1.00  0.00     0.159 HD
BRANCH  24  26
HETATM   26  C3  UNL     1       3.654  -1.156   0.652  1.00  0.00     0.145 C 
BRANCH  26  27
HETATM   27  C2  UNL     1       4.670  -0.170   1.089  1.00  0.00     0.186 C 
BRANCH  27  28
HETATM   28  O1  UNL     1       5.927  -0.849   0.998  1.00  0.00    -0.394 OA
HETATM   29  C1  UNL     1       6.953  -0.016   1.367  1.00  0.00     0.201 C 
ENDBRANCH  27  28
ENDBRANCH  26  27
ENDBRANCH  24  26
ENDBRANCH  22  24
ENDBRANCH   1  22
TORSDOF 11
