REMARK  12 active torsions:
REMARK  status: ('A' for Active; 'I' for Inactive)
REMARK    1  A    between atoms: N1_1  and  C1_5 
REMARK    2  A    between atoms: C1_5  and  C2_6 
REMARK    3  A    between atoms: C1_5  and  C3_9 
REMARK    4  A    between atoms: C2_6  and  O1_7 
REMARK    5  A    between atoms: C3_9  and  O2_10 
REMARK    6  A    between atoms: C3_9  and  N2_12 
REMARK    7  A    between atoms: C6_15  and  C7_16 
REMARK    8  A    between atoms: C7_16  and  N3_17 
REMARK    9  A    between atoms: N3_17  and  C8_20 
REMARK   10  A    between atoms: C8_20  and  C9_21 
REMARK   11  A    between atoms: C9_21  and  N4_22 
REMARK   12  A    between atoms: N4_22  and  C10_24 
ROOT
HETATM    1  N2  UNL     1      -3.453   0.881  -0.103  1.00  0.00    -0.343 N 
HETATM    2  C4  UNL     1      -2.377   0.647   0.749  1.00  0.00     0.066 C 
HETATM    3  C5  UNL     1      -1.261   1.672   0.566  1.00  0.00     0.051 C 
HETATM    4  C6  UNL     1      -0.801   1.823  -0.838  1.00  0.00     0.017 C 
HETATM    5  C16 UNL     1      -1.680   0.958  -1.721  1.00  0.00     0.027 C 
HETATM    6  C17 UNL     1      -3.105   1.447  -1.416  1.00  0.00     0.130 C 
ENDROOT
BRANCH   4   7
HETATM    7  C7  UNL     1       0.651   1.640  -1.081  1.00  0.00     0.237 C 
BRANCH   7   8
HETATM    8  N3  UNL     1       1.157   0.352  -0.718  1.00  0.00    -0.073 N 
ATOM      9  H32 UNL     1       0.936   0.134   0.254  1.00  0.00     0.277 HD
ATOM     10  H31 UNL     1       0.630  -0.390  -1.178  1.00  0.00     0.277 HD
BRANCH   8  11
HETATM   11  C8  UNL     1       2.572   0.214  -0.970  1.00  0.00     0.251 C 
BRANCH  11  12
HETATM   12  C9  UNL     1       3.421   1.055  -0.082  1.00  0.00     0.147 C 
BRANCH  12  13
HETATM   13  N4  UNL     1       4.815   0.875  -0.380  1.00  0.00    -0.388 N 
ATOM     14  H4  UNL     1       5.316   1.675  -0.766  1.00  0.00     0.159 HD
BRANCH  13  15
HETATM   15  C10 UNL     1       5.555  -0.317  -0.184  1.00  0.00     0.027 A 
HETATM   16  C11 UNL     1       5.086  -1.394   0.531  1.00  0.00     0.029 A 
HETATM   17  C12 UNL     1       5.816  -2.567   0.703  1.00  0.00     0.002 A 
HETATM   18  C13 UNL     1       7.068  -2.676   0.140  1.00  0.00     0.000 A 
HETATM   19  C14 UNL     1       7.571  -1.616  -0.584  1.00  0.00     0.002 A 
HETATM   20  C15 UNL     1       6.831  -0.471  -0.738  1.00  0.00     0.029 A 
ENDBRANCH  13  15
ENDBRANCH  12  13
ENDBRANCH  11  12
ENDBRANCH   8  11
ENDBRANCH   7   8
ENDBRANCH   4   7
BRANCH   1  21
HETATM   21  C3  UNL     1      -4.511   0.004  -0.282  1.00  0.00     0.150 C 
BRANCH  21  22
HETATM   22  C1  UNL     1      -5.425  -0.341   0.850  1.00  0.00     0.280 C 
BRANCH  22  23
HETATM   23  N1  UNL     1      -6.775  -0.694   0.280  1.00  0.00    -0.066 N 
ATOM     24  H13 UNL     1      -6.802  -1.531  -0.302  1.00  0.00     0.275 HD
ATOM     25  H12 UNL     1      -7.462  -1.034   0.953  1.00  0.00     0.275 HD
ATOM     26  H11 UNL     1      -7.016   0.178  -0.192  1.00  0.00     0.275 HD
ENDBRANCH  22  23
BRANCH  22  27
HETATM   27  C2  UNL     1      -5.064  -1.649   1.558  1.00  0.00     0.205 C 
BRANCH  27  28
HETATM   28  O1  UNL     1      -3.886  -1.674   2.211  1.00  0.00    -0.398 OA
ATOM     29  H1  UNL     1      -3.662  -2.486   2.650  1.00  0.00     0.209 HD
ENDBRANCH  27  28
ENDBRANCH  22  27
ENDBRANCH  21  22
BRANCH  21  30
HETATM   30  O2  UNL     1      -4.307  -1.112  -1.101  1.00  0.00    -0.348 OA
ATOM     31  H2  UNL     1      -3.726  -0.893  -1.820  1.00  0.00     0.219 HD
ENDBRANCH  21  30
ENDBRANCH   1  21
TORSDOF 12
