REMARK  7 active torsions:
REMARK  status: ('A' for Active; 'I' for Inactive)
REMARK    1  A    between atoms: C2_2  and  C3_3 
REMARK    2  A    between atoms: C3_3  and  N1_4 
REMARK    3  A    between atoms: C3_3  and  C4_8 
REMARK    4  A    between atoms: C4_8  and  N2_9 
REMARK    5  A    between atoms: C5_11  and  C6_12 
REMARK    6  A    between atoms: C7_15  and  C8_16 
REMARK    7  A    between atoms: C8_16  and  N4_17 
ROOT
HETATM    1  C6  UNL     1       1.460  -1.019  -0.030  1.00  0.00     0.120 A 
HETATM    2  N3  UNL     1       2.172   0.088  -0.371  1.00  0.00    -0.342 N 
ATOM      3  H3  UNL     1       1.823   0.847  -0.956  1.00  0.00     0.167 HD
HETATM    4  C7  UNL     1       3.398   0.040   0.171  1.00  0.00     0.051 A 
HETATM    5  C9  UNL     1       3.441  -1.147   0.875  1.00  0.00     0.116 A 
HETATM    6  N5  UNL     1       2.261  -1.771   0.740  1.00  0.00    -0.349 N 
ATOM      7  H5  UNL     1       2.014  -2.669   1.155  1.00  0.00     0.167 HD
ENDROOT
BRANCH   1   8
HETATM    8  C5  UNL     1       0.090  -1.324  -0.427  1.00  0.00     0.132 C 
HETATM    9  N2  UNL     1      -0.552  -0.504  -1.170  1.00  0.00    -0.394 N 
ATOM     10  H2  UNL     1      -0.105   0.358  -1.481  1.00  0.00     0.159 HD
BRANCH   9  11
HETATM   11  C4  UNL     1      -1.892  -0.794  -1.564  1.00  0.00     0.151 C 
BRANCH  11  12
HETATM   12  C3  UNL     1      -2.925  -0.423  -0.546  1.00  0.00     0.200 C 
BRANCH  12  13
HETATM   13  C2  UNL     1      -2.863   1.068  -0.264  1.00  0.00     0.030 C 
HETATM   14  C1  UNL     1      -4.043   1.373   0.658  1.00  0.00     0.007 C 
ENDBRANCH  12  13
BRANCH  12  15
HETATM   15  N1  UNL     1      -2.817  -1.111   0.692  1.00  0.00    -0.073 N 
ATOM     16  H13 UNL     1      -1.986  -0.844   1.220  1.00  0.00     0.274 HD
ATOM     17  H12 UNL     1      -3.514  -0.809   1.372  1.00  0.00     0.274 HD
ATOM     18  H11 UNL     1      -2.859  -2.112   0.503  1.00  0.00     0.274 HD
ENDBRANCH  12  15
ENDBRANCH  11  12
ENDBRANCH   9  11
ENDBRANCH   1   8
BRANCH   4  19
HETATM   19  C8  UNL     1       4.487   1.046   0.046  1.00  0.00     0.287 C 
BRANCH  19  20
HETATM   20  N4  UNL     1       4.408   2.035   1.102  1.00  0.00    -0.074 N 
ATOM     21  H43 UNL     1       3.490   2.478   1.134  1.00  0.00     0.274 HD
ATOM     22  H42 UNL     1       4.403   1.600   2.024  1.00  0.00     0.274 HD
ATOM     23  H41 UNL     1       5.155   2.725   1.016  1.00  0.00     0.274 HD
ENDBRANCH  19  20
ENDBRANCH   4  19
TORSDOF 7
