REMARK  5 active torsions:
REMARK  status: ('A' for Active; 'I' for Inactive)
REMARK    1  A    between atoms: N1_2  and  C3_4 
REMARK    2  A    between atoms: C5_9  and  C6_10 
REMARK    3  A    between atoms: C6_10  and  C7_11 
REMARK    4  A    between atoms: C7_11  and  N3_12 
REMARK    5  A    between atoms: N3_12  and  C8_14 
ROOT
HETATM    1  C3  UNL     1      -1.936  -0.655  -0.033  1.00  0.00     0.446 C 
HETATM    2  C4  UNL     1      -1.057  -0.838  -1.217  1.00  0.00     0.300 C 
HETATM    3  N2  UNL     1       0.136  -1.449  -0.645  1.00  0.00    -0.042 N 
ATOM      4  H21 UNL     1       0.958  -1.410  -1.247  1.00  0.00     0.279 HD
ATOM      5  H22 UNL     1       0.097  -2.466  -0.579  1.00  0.00     0.279 HD
HETATM    6  C5  UNL     1       0.293  -0.784   0.609  1.00  0.00     0.387 C 
HETATM    7  N5  UNL     1      -0.983  -0.278   1.022  1.00  0.00    -0.013 N 
ATOM      8  H51 UNL     1      -1.262  -0.592   1.952  1.00  0.00     0.282 HD
ATOM      9  H52 UNL     1      -0.977   0.722   1.224  1.00  0.00     0.282 HD
ENDROOT
BRANCH   6  10
HETATM   10  C6  UNL     1       1.358   0.284   0.629  1.00  0.00     0.082 C 
BRANCH  10  11
HETATM   11  C7  UNL     1       2.720  -0.291   0.310  1.00  0.00     0.124 C 
BRANCH  11  12
HETATM   12  N3  UNL     1       3.730   0.768   0.340  1.00  0.00    -0.386 N 
ATOM     13  H3  UNL     1       3.452   1.729   0.537  1.00  0.00     0.160 HD
BRANCH  12  14
HETATM   14  C8  UNL     1       5.077   0.468   0.100  1.00  0.00     0.168 C 
HETATM   15  N4  UNL     1       5.486  -0.609  -0.468  1.00  0.00    -0.396 N 
ATOM     16  H42 UNL     1       4.772  -1.278  -0.756  1.00  0.00     0.156 HD
ATOM     17  H41 UNL     1       6.467  -0.827  -0.643  1.00  0.00     0.156 HD
ENDBRANCH  12  14
ENDBRANCH  11  12
ENDBRANCH  10  11
ENDBRANCH   6  10
BRANCH   1  18
HETATM   18  N1  UNL     1      -2.855   0.442  -0.152  1.00  0.00     0.112 N 
HETATM   19  C1  UNL     1      -3.808   0.332  -1.212  1.00  0.00     0.312 C 
HETATM   20  C2  UNL     1      -3.453   0.807   1.112  1.00  0.00     0.312 C 
ENDBRANCH   1  18
TORSDOF 5
