REMARK  7 active torsions:
REMARK  status: ('A' for Active; 'I' for Inactive)
REMARK    1  A    between atoms: C1_4  and  C2_5 
REMARK    2  A    between atoms: C2_5  and  C3_6 
REMARK    3  A    between atoms: C3_6  and  C4_7 
REMARK    4  A    between atoms: C4_7  and  N2_8 
REMARK    5  A    between atoms: C4_7  and  N3_12 
REMARK    6  A    between atoms: N3_12  and  C5_14 
REMARK    7  A    between atoms: C5_14  and  C6_15 
ROOT
HETATM    1  C4  UNL     1      -0.583  -1.038   0.339  1.00  0.00     0.281 C 
ENDROOT
BRANCH   1   2
HETATM    2  C3  UNL     1      -1.556  -0.056  -0.312  1.00  0.00     0.059 C 
BRANCH   2   3
HETATM    3  C2  UNL     1      -2.666   0.222   0.688  1.00  0.00     0.047 C 
BRANCH   3   4
HETATM    4  C1  UNL     1      -3.675   1.159   0.159  1.00  0.00     0.052 C 
HETATM    5  N1  UNL     1      -3.563   1.788  -0.933  1.00  0.00    -0.411 N 
ATOM      6  H12 UNL     1      -2.712   1.625  -1.471  1.00  0.00     0.155 HD
ATOM      7  H11 UNL     1      -4.261   2.436  -1.299  1.00  0.00     0.155 HD
ENDBRANCH   3   4
ENDBRANCH   2   3
ENDBRANCH   1   2
BRANCH   1   8
HETATM    8  N2  UNL     1      -1.360  -2.224   0.651  1.00  0.00    -0.058 N 
ATOM      9  H23 UNL     1      -2.185  -2.032   1.219  1.00  0.00     0.276 HD
ATOM     10  H22 UNL     1      -1.852  -2.612  -0.154  1.00  0.00     0.276 HD
ATOM     11  H21 UNL     1      -0.710  -2.880   1.086  1.00  0.00     0.276 HD
ENDBRANCH   1   8
BRANCH   1  12
HETATM   12  N3  UNL     1       0.487  -1.277  -0.540  1.00  0.00    -0.373 N 
ATOM     13  H3  UNL     1       0.636  -2.214  -0.913  1.00  0.00     0.160 HD
BRANCH  12  14
HETATM   14  C5  UNL     1       1.348  -0.238  -0.906  1.00  0.00     0.099 C 
BRANCH  14  15
HETATM   15  C6  UNL     1       2.236   0.308   0.183  1.00  0.00     0.259 C 
HETATM   16  O1  UNL     1       3.098  -0.632   0.757  1.00  0.00    -0.260 OA
HETATM   17  N4  UNL     1       4.026   0.333   0.833  1.00  0.00    -0.251 N 
HETATM   18  C7  UNL     1       3.488   0.899  -0.346  1.00  0.00     0.132 C 
ATOM     19  H4  UNL     1       4.791   0.561   1.468  1.00  0.00     0.196 HD
HETATM   20  N5  UNL     1       3.902   1.584  -1.357  1.00  0.00    -0.385 N 
ATOM     21  H52 UNL     1       3.514   1.992  -2.207  1.00  0.00     0.157 HD
ATOM     22  H51 UNL     1       4.764   1.991  -1.721  1.00  0.00     0.157 HD
ENDBRANCH  14  15
ENDBRANCH  12  14
ENDBRANCH   1  12
TORSDOF 7
