REMARK  7 active torsions:
REMARK  status: ('A' for Active; 'I' for Inactive)
REMARK    1  A    between atoms: C2_2  and  C3_3 
REMARK    2  A    between atoms: C3_3  and  C4_4 
REMARK    3  A    between atoms: C3_3  and  N1_10 
REMARK    4  A    between atoms: C4_4  and  C5_5 
REMARK    5  A    between atoms: N1_10  and  C10_13 
REMARK    6  A    between atoms: C10_13  and  C11_14 
REMARK    7  A    between atoms: C14_17  and  C15_18 
ROOT
HETATM    1  C11 UNL     1       2.105   0.754   0.221  1.00  0.00    -0.033 A 
HETATM    2  C12 UNL     1       2.785   1.629   1.028  1.00  0.00     0.010 A 
HETATM    3  C13 UNL     1       3.993   1.247   1.555  1.00  0.00     0.016 A 
HETATM    4  C14 UNL     1       4.550   0.013   1.304  1.00  0.00     0.011 A 
HETATM    5  C16 UNL     1       3.862  -0.861   0.493  1.00  0.00     0.016 A 
HETATM    6  C17 UNL     1       2.631  -0.487  -0.052  1.00  0.00     0.010 A 
ENDROOT
BRANCH   1   7
HETATM    7  C10 UNL     1       0.778   1.110  -0.389  1.00  0.00     0.271 C 
BRANCH   7   8
HETATM    8  N1  UNL     1       0.261   0.025  -1.172  1.00  0.00    -0.067 N 
ATOM      9  H12 UNL     1       0.193  -0.825  -0.612  1.00  0.00     0.277 HD
ATOM     10  H11 UNL     1       0.947  -0.282  -1.862  1.00  0.00     0.277 HD
BRANCH   8  11
HETATM   11  C3  UNL     1      -1.013   0.327  -1.809  1.00  0.00     0.186 C 
BRANCH  11  12
HETATM   12  C2  UNL     1      -1.485  -0.834  -2.642  1.00  0.00     0.028 C 
HETATM   13  C1  UNL     1      -2.603  -0.409  -3.599  1.00  0.00     0.007 C 
ENDBRANCH  11  12
BRANCH  11  14
HETATM   14  C4  UNL     1      -2.010   0.951  -0.931  1.00  0.00     0.037 C 
BRANCH  14  15
HETATM   15  C5  UNL     1      -2.651   0.215   0.150  1.00  0.00    -0.013 C 
HETATM   16  C6  UNL     1      -3.464  -0.982  -0.067  1.00  0.00     0.005 C 
HETATM   17  C7  UNL     1      -4.498  -1.034   1.045  1.00  0.00     0.000 C 
HETATM   18  C8  UNL     1      -4.544   0.326   1.649  1.00  0.00     0.000 C 
HETATM   19  C9  UNL     1      -3.658   1.178   0.820  1.00  0.00     0.005 C 
ENDBRANCH  14  15
ENDBRANCH  11  14
ENDBRANCH   8  11
ENDBRANCH   7   8
ENDBRANCH   1   7
BRANCH   4  20
HETATM   20  C15 UNL     1       5.843  -0.368   1.883  1.00  0.00     0.147 A 
HETATM   21  N2  UNL     1       6.617   0.365   2.678  1.00  0.00    -0.268 N 
HETATM   22  N3  UNL     1       7.686  -0.372   2.958  1.00  0.00    -0.227 N 
ATOM     23  H2  UNL     1       6.427   1.311   3.009  1.00  0.00     0.190 HD
HETATM   24  N4  UNL     1       7.592  -1.538   2.359  1.00  0.00    -0.227 N 
ATOM     25  H3  UNL     1       8.463  -0.077   3.549  1.00  0.00     0.210 HD
HETATM   26  N5  UNL     1       6.456  -1.555   1.686  1.00  0.00    -0.268 N 
ATOM     27  H4  UNL     1       8.275  -2.295   2.406  1.00  0.00     0.210 HD
ATOM     28  H5  UNL     1       6.104  -2.327   1.119  1.00  0.00     0.190 HD
ENDBRANCH   4  20
TORSDOF 7
