REMARK  12 active torsions:
REMARK  status: ('A' for Active; 'I' for Inactive)
REMARK    1  A    between atoms: C2_2  and  C3_3 
REMARK    2  A    between atoms: C3_3  and  C4_4 
REMARK    3  A    between atoms: C4_4  and  C5_5 
REMARK    4  A    between atoms: C5_5  and  O1_6 
REMARK    5  A    between atoms: O1_6  and  C6_7 
REMARK    6  A    between atoms: C9_10  and  C10_11 
REMARK    7  A    between atoms: C10_11  and  C12_13 
REMARK    8  A    between atoms: C12_13  and  C13_14 
REMARK    9  A    between atoms: C13_14  and  C14_15 
REMARK   10  A    between atoms: C14_15  and  C15_16 
REMARK   11  A    between atoms: C15_16  and  O2_19 
REMARK   12  A    between atoms: C24_27  and  O3_29 
ROOT
HETATM    1  C6  UNL     1      -2.208  -0.674  -0.123  1.00  0.00     0.087 C 
HETATM    2  C7  UNL     1      -1.262   0.278   0.475  1.00  0.00     0.008 C 
HETATM    3  C8  UNL     1      -0.088   0.724   0.048  1.00  0.00    -0.023 C 
HETATM    4  C9  UNL     1       0.576   0.334  -1.214  1.00  0.00     0.012 C 
HETATM    5  C18 UNL     1       0.439  -1.136  -1.389  1.00  0.00     0.014 C 
HETATM    6  C19 UNL     1      -0.957  -1.636  -1.506  1.00  0.00     0.001 C 
HETATM    7  C20 UNL     1      -2.018  -0.615  -1.655  1.00  0.00     0.048 C 
HETATM    8  C21 UNL     1      -1.624  -2.095  -0.237  1.00  0.00     0.001 C 
HETATM    9  C22 UNL     1      -0.736  -2.496   0.884  1.00  0.00     0.016 C 
HETATM   10  C23 UNL     1      -1.656  -3.357   1.759  1.00  0.00     0.038 C 
HETATM   11  C24 UNL     1      -2.578  -4.068   0.800  1.00  0.00     0.055 C 
HETATM   12  C25 UNL     1      -2.024  -5.371   0.312  1.00  0.00     0.045 C 
HETATM   13  C26 UNL     1      -2.692  -3.134  -0.390  1.00  0.00     0.050 C 
ENDROOT
BRANCH   4  14
HETATM   14  C10 UNL     1       2.045   0.695  -1.180  1.00  0.00    -0.011 C 
HETATM   15  C11 UNL     1       2.101   2.217  -0.988  1.00  0.00     0.010 C 
BRANCH  14  16
HETATM   16  C12 UNL     1       2.793   0.090  -0.032  1.00  0.00     0.005 C 
BRANCH  16  17
HETATM   17  C13 UNL     1       4.244   0.571  -0.176  1.00  0.00     0.003 C 
BRANCH  17  18
HETATM   18  C14 UNL     1       5.102   0.018   0.939  1.00  0.00     0.037 C 
BRANCH  18  19
HETATM   19  C15 UNL     1       6.504   0.543   0.715  1.00  0.00     0.051 C 
HETATM   20  C16 UNL     1       6.995   0.059  -0.651  1.00  0.00     0.045 C 
HETATM   21  C17 UNL     1       6.493   2.058   0.651  1.00  0.00     0.045 C 
BRANCH  19  22
HETATM   22  O2  UNL     1       7.385   0.121   1.704  1.00  0.00    -0.391 OA
ATOM     23  H2  UNL     1       8.265   0.450   1.563  1.00  0.00     0.210 HD
ENDBRANCH  19  22
ENDBRANCH  18  19
ENDBRANCH  17  18
ENDBRANCH  16  17
ENDBRANCH  14  16
ENDBRANCH   4  14
BRANCH   1  24
HETATM   24  O1  UNL     1      -3.517  -0.632   0.215  1.00  0.00    -0.375 OA
BRANCH  24  25
HETATM   25  C5  UNL     1      -4.268   0.455  -0.054  1.00  0.00     0.169 C 
BRANCH  25  26
HETATM   26  C4  UNL     1      -3.863   1.764   0.562  1.00  0.00     0.026 C 
BRANCH  26  27
HETATM   27  C3  UNL     1      -4.938   2.773   0.090  1.00  0.00     0.002 C 
BRANCH  27  28
HETATM   28  C2  UNL     1      -4.610   4.124   0.665  1.00  0.00    -0.004 C 
HETATM   29  C1  UNL     1      -5.640   5.136   0.226  1.00  0.00     0.005 C 
ENDBRANCH  27  28
ENDBRANCH  26  27
ENDBRANCH  25  26
ENDBRANCH  24  25
ENDBRANCH   1  24
BRANCH  11  30
HETATM   30  O3  UNL     1      -3.812  -4.231   1.440  1.00  0.00    -0.390 OA
ATOM     31  H3  UNL     1      -4.393  -4.679   0.836  1.00  0.00     0.210 HD
ENDBRANCH  11  30
TORSDOF 12
