REMARK  12 active torsions:
REMARK  status: ('A' for Active; 'I' for Inactive)
REMARK    1  A    between atoms: C2_2  and  C3_3 
REMARK    2  A    between atoms: C3_3  and  C4_4 
REMARK    3  A    between atoms: C4_4  and  C5_5 
REMARK    4  A    between atoms: C5_5  and  C6_6 
REMARK    5  A    between atoms: C6_6  and  C7_7 
REMARK    6  A    between atoms: C7_7  and  C8_8 
REMARK    7  A    between atoms: C8_8  and  C9_9 
REMARK    8  A    between atoms: C9_9  and  C10_10 
REMARK    9  A    between atoms: C10_10  and  C12_12 
REMARK   10  A    between atoms: C16_16  and  C17_17 
REMARK   11  A    between atoms: C17_17  and  O1_18 
REMARK   12  A    between atoms: C22_24  and  O2_25 
ROOT
HETATM    1  C12 UNL     1      -0.105   0.019  -0.101  1.00  0.00     0.126 C 
HETATM    2  C13 UNL     1      -0.624  -1.338   0.260  1.00  0.00     0.033 C 
HETATM    3  C14 UNL     1      -1.979  -1.121   0.944  1.00  0.00     0.011 C 
HETATM    4  C15 UNL     1      -2.957  -0.472  -0.046  1.00  0.00     0.031 C 
HETATM    5  C16 UNL     1      -2.276   0.683  -0.649  1.00  0.00     0.087 C 
HETATM    6  C18 UNL     1      -3.038   1.995  -0.641  1.00  0.00     0.041 C 
HETATM    7  C19 UNL     1      -4.081   2.065   0.446  1.00  0.00     0.008 C 
HETATM    8  C20 UNL     1      -5.017   0.928   0.150  1.00  0.00    -0.003 C 
HETATM    9  C21 UNL     1      -6.374   1.084   0.715  1.00  0.00     0.037 C 
HETATM   10  C22 UNL     1      -7.257   0.014   0.089  1.00  0.00     0.118 C 
HETATM   11  C23 UNL     1      -6.431  -0.997  -0.678  1.00  0.00     0.032 C 
HETATM   12  C24 UNL     1      -5.244  -1.481   0.097  1.00  0.00     0.012 C 
HETATM   13  C25 UNL     1      -4.313  -0.336   0.520  1.00  0.00    -0.034 C 
HETATM   14  C26 UNL     1      -4.212  -0.456   2.040  1.00  0.00     0.016 C 
HETATM   15  O3  UNL     1      -1.043   1.009  -0.074  1.00  0.00    -0.372 OA
ENDROOT
BRANCH   1  16
HETATM   16  C10 UNL     1       1.018   0.473   0.813  1.00  0.00     0.011 C 
HETATM   17  C11 UNL     1       0.541   0.811   2.200  1.00  0.00     0.012 C 
BRANCH  16  18
HETATM   18  C9  UNL     1       2.209  -0.422   0.800  1.00  0.00     0.007 C 
BRANCH  18  19
HETATM   19  C8  UNL     1       3.330   0.283   1.528  1.00  0.00     0.000 C 
BRANCH  19  20
HETATM   20  C7  UNL     1       4.599  -0.534   1.582  1.00  0.00     0.000 C 
BRANCH  20  21
HETATM   21  C6  UNL     1       5.120  -0.852   0.192  1.00  0.00     0.000 C 
BRANCH  21  22
HETATM   22  C5  UNL     1       5.426   0.436  -0.582  1.00  0.00     0.000 C 
BRANCH  22  23
HETATM   23  C4  UNL     1       5.933   0.085  -1.924  1.00  0.00     0.000 C 
BRANCH  23  24
HETATM   24  C3  UNL     1       7.198  -0.687  -2.037  1.00  0.00    -0.000 C 
BRANCH  24  25
HETATM   25  C2  UNL     1       8.449  -0.033  -1.564  1.00  0.00    -0.005 C 
HETATM   26  C1  UNL     1       8.566   0.363  -0.153  1.00  0.00     0.005 C 
ENDBRANCH  24  25
ENDBRANCH  23  24
ENDBRANCH  22  23
ENDBRANCH  21  22
ENDBRANCH  20  21
ENDBRANCH  19  20
ENDBRANCH  18  19
ENDBRANCH  16  18
ENDBRANCH   1  16
BRANCH   5  27
HETATM   27  C17 UNL     1      -1.945   0.458  -2.138  1.00  0.00     0.202 C 
BRANCH  27  28
HETATM   28  O1  UNL     1      -3.085   0.126  -2.856  1.00  0.00    -0.398 OA
ATOM     29  H1  UNL     1      -2.881  -0.013  -3.773  1.00  0.00     0.209 HD
ENDBRANCH  27  28
ENDBRANCH   5  27
BRANCH  10  30
HETATM   30  O2  UNL     1      -8.175   0.555  -0.813  1.00  0.00    -0.396 OA
ATOM     31  H2  UNL     1      -8.726  -0.113  -1.204  1.00  0.00     0.210 HD
ENDBRANCH  10  30
TORSDOF 12
