REMARK  13 active torsions:
REMARK  status: ('A' for Active; 'I' for Inactive)
REMARK    1  A    between atoms: C2_2  and  C3_3 
REMARK    2  A    between atoms: C2_2  and  C21_25 
REMARK    3  A    between atoms: C3_3  and  C4_4 
REMARK    4  A    between atoms: C4_4  and  C5_5 
REMARK    5  A    between atoms: C5_5  and  C7_7 
REMARK    6  A    between atoms: C11_11  and  C12_12 
REMARK    7  A    between atoms: C12_12  and  C13_13 
REMARK    8  A    between atoms: C13_13  and  C14_14 
REMARK    9  A    between atoms: C14_14  and  O1_17 
REMARK   10  A    between atoms: C17_19  and  O2_20 
REMARK   11  A    between atoms: C21_25  and  C22_26 
REMARK   12  A    between atoms: C22_26  and  C23_27 
REMARK   13  A    between atoms: C23_27  and  C26_30 
ROOT
HETATM    1  C7  UNL     1       0.314  -0.417   1.367  1.00  0.00    -0.002 C 
HETATM    2  C8  UNL     1       0.470   0.796   0.474  1.00  0.00     0.006 C 
HETATM    3  C9  UNL     1       1.945   0.876   0.109  1.00  0.00     0.006 C 
HETATM    4  C10 UNL     1       2.522  -0.438   0.584  1.00  0.00     0.001 C 
HETATM    5  C11 UNL     1       3.905  -0.212   1.095  1.00  0.00     0.019 C 
HETATM    6  C17 UNL     1       3.706   0.593   2.338  1.00  0.00     0.123 C 
HETATM    7  C18 UNL     1       2.245   0.380   2.760  1.00  0.00     0.042 C 
HETATM    8  C19 UNL     1       1.690  -0.660   1.856  1.00  0.00    -0.034 C 
HETATM    9  C20 UNL     1       1.942  -2.069   2.321  1.00  0.00     0.016 C 
ENDROOT
BRANCH   1  10
HETATM   10  C5  UNL     1      -0.700  -0.114   2.413  1.00  0.00    -0.014 C 
HETATM   11  C6  UNL     1      -0.892  -1.164   3.443  1.00  0.00     0.010 C 
BRANCH  10  12
HETATM   12  C4  UNL     1      -2.022   0.210   1.714  1.00  0.00     0.005 C 
BRANCH  12  13
HETATM   13  C3  UNL     1      -2.596  -0.978   1.038  1.00  0.00     0.008 C 
BRANCH  13  14
HETATM   14  C2  UNL     1      -3.957  -0.703   0.351  1.00  0.00     0.004 C 
HETATM   15  C1  UNL     1      -4.441  -1.952  -0.302  1.00  0.00     0.014 C 
BRANCH  14  16
HETATM   16  C21 UNL     1      -3.935   0.559  -0.405  1.00  0.00    -0.025 C 
BRANCH  16  17
HETATM   17  C22 UNL     1      -5.123   1.199  -0.943  1.00  0.00    -0.015 C 
BRANCH  17  18
HETATM   18  C23 UNL     1      -6.020   0.648  -1.952  1.00  0.00     0.023 C 
HETATM   19  C24 UNL     1      -5.389   0.295  -3.287  1.00  0.00     0.027 C 
HETATM   20  C25 UNL     1      -6.962   1.863  -2.387  1.00  0.00     0.027 C 
BRANCH  18  21
HETATM   21  C26 UNL     1      -7.012  -0.362  -1.548  1.00  0.00     0.243 C 
HETATM   22  O3  UNL     1      -7.858  -0.099  -0.700  1.00  0.00    -0.306 OA
ENDBRANCH  18  21
ENDBRANCH  17  18
ENDBRANCH  16  17
ENDBRANCH  14  16
ENDBRANCH  13  14
ENDBRANCH  12  13
ENDBRANCH  10  12
ENDBRANCH   1  10
BRANCH   5  23
HETATM   23  C12 UNL     1       4.719   0.564   0.071  1.00  0.00     0.010 C 
BRANCH  23  24
HETATM   24  C13 UNL     1       4.786  -0.228  -1.225  1.00  0.00     0.037 C 
BRANCH  24  25
HETATM   25  C14 UNL     1       5.612   0.612  -2.190  1.00  0.00     0.051 C 
HETATM   26  C15 UNL     1       5.755  -0.068  -3.525  1.00  0.00     0.045 C 
HETATM   27  C16 UNL     1       6.955   0.917  -1.605  1.00  0.00     0.045 C 
BRANCH  25  28
HETATM   28  O1  UNL     1       4.920   1.805  -2.372  1.00  0.00    -0.391 OA
ATOM     29  H1  UNL     1       5.435   2.329  -2.974  1.00  0.00     0.210 HD
ENDBRANCH  25  28
ENDBRANCH  24  25
ENDBRANCH  23  24
ENDBRANCH   5  23
BRANCH   6  30
HETATM   30  O2  UNL     1       4.578   0.120   3.316  1.00  0.00    -0.395 OA
ATOM     31  H2  UNL     1       4.451   0.632   4.106  1.00  0.00     0.210 HD
ENDBRANCH   6  30
TORSDOF 13
