REMARK  9 active torsions:
REMARK  status: ('A' for Active; 'I' for Inactive)
REMARK    1  A    between atoms: C1_2  and  C2_3 
REMARK    2  A    between atoms: C1_2  and  O3_14 
REMARK    3  A    between atoms: C2_3  and  N1_4 
REMARK       I    between atoms: N1_4  and  C3_6 
REMARK    4  A    between atoms: C3_6  and  C4_8 
REMARK    5  A    between atoms: O3_14  and  C10_15 
REMARK    6  A    between atoms: C10_15  and  C11_16 
REMARK    7  A    between atoms: C14_19  and  C15_20 
REMARK    8  A    between atoms: C16_24  and  C17_25 
REMARK       I    between atoms: C17_25  and  N3_27 
REMARK    9  A    between atoms: N3_27  and  C18_29 
ROOT
HETATM    1  C11 UNL     1       0.403   1.837  -0.954  1.00  0.00     0.078 A 
HETATM    2  C12 UNL     1       0.538   3.154  -0.568  1.00  0.00     0.038 A 
HETATM    3  C13 UNL     1       1.850   3.351  -0.194  1.00  0.00     0.043 A 
HETATM    4  C14 UNL     1       2.470   2.110  -0.375  1.00  0.00     0.113 A 
HETATM    5  O6  UNL     1       1.572   1.294  -0.814  1.00  0.00    -0.310 OA
ENDROOT
BRANCH   4   6
HETATM    6  C15 UNL     1       3.887   1.818  -0.107  1.00  0.00     0.156 A 
HETATM    7  O4  UNL     1       4.805   2.613   0.333  1.00  0.00    -0.233 OA
HETATM    8  N2  UNL     1       5.950   2.001   0.448  1.00  0.00    -0.253 N 
HETATM    9  C16 UNL     1       5.816   0.703   0.063  1.00  0.00     0.147 A 
ATOM     10  H2  UNL     1       6.815   2.430   0.777  1.00  0.00     0.195 HD
HETATM   11  C24 UNL     1       4.489   0.591  -0.292  1.00  0.00     0.106 A 
HETATM   12 CL2  UNL     1       3.757  -0.907  -0.877  1.00  0.00    -0.078 Cl
BRANCH   9  13
HETATM   13  C17 UNL     1       6.874  -0.332   0.042  1.00  0.00     0.276 C 
HETATM   14  O5  UNL     1       6.530  -1.443  -0.346  1.00  0.00    -0.266 OA
HETATM   15  N3  UNL     1       8.155   0.022   0.454  1.00  0.00    -0.320 N 
ATOM     16  H3  UNL     1       8.277   0.991   0.749  1.00  0.00     0.169 HD
BRANCH  15  17
HETATM   17  C18 UNL     1       9.303  -0.788   0.515  1.00  0.00     0.057 A 
HETATM   18  C19 UNL     1       9.327  -2.110   0.148  1.00  0.00     0.034 A 
HETATM   19  C20 UNL     1      10.504  -2.874   0.227  1.00  0.00     0.044 A 
HETATM   20  C21 UNL     1      11.676  -2.319   0.677  1.00  0.00     0.118 A 
HETATM   21  F1  UNL     1      12.809  -3.070   0.748  1.00  0.00    -0.206 F 
HETATM   22  C22 UNL     1      11.652  -0.994   1.044  1.00  0.00     0.068 A 
HETATM   23  C23 UNL     1      10.512  -0.235   0.973  1.00  0.00     0.063 A 
HETATM   24 CL1  UNL     1      10.511   1.458   1.450  1.00  0.00    -0.082 Cl
ENDBRANCH  15  17
ENDBRANCH   9  13
ENDBRANCH   4   6
BRANCH   1  25
HETATM   25  C10 UNL     1      -0.842   1.186  -1.433  1.00  0.00     0.243 C 
BRANCH  25  26
HETATM   26  O3  UNL     1      -1.573   0.679  -0.338  1.00  0.00    -0.314 OA
BRANCH  26  27
HETATM   27  C1  UNL     1      -2.787   0.020  -0.536  1.00  0.00     0.277 C 
HETATM   28  O1  UNL     1      -3.161  -0.081  -1.727  1.00  0.00    -0.263 OA
BRANCH  27  29
HETATM   29  C2  UNL     1      -3.576  -0.521   0.599  1.00  0.00     0.233 C 
BRANCH  29  30
HETATM   30  N1  UNL     1      -4.806  -1.136   0.207  1.00  0.00    -0.351 N 
HETATM   31  C3  UNL     1      -5.813  -0.394  -0.455  1.00  0.00     0.222 C 
HETATM   32  O2  UNL     1      -5.658   0.837  -0.717  1.00  0.00    -0.273 OA
ATOM     33  H1  UNL     1      -4.960  -2.124   0.407  1.00  0.00     0.163 HD
BRANCH  31  34
HETATM   34  C4  UNL     1      -7.081  -1.063  -0.855  1.00  0.00     0.078 C 
HETATM   35  C5  UNL     1      -7.757  -1.583   0.400  1.00  0.00     0.014 C 
HETATM   36  C6  UNL     1      -8.409  -0.447   1.189  1.00  0.00     0.001 C 
HETATM   37  C7  UNL     1      -9.351   0.360   0.357  1.00  0.00     0.000 C 
HETATM   38  C8  UNL     1      -9.334   0.003  -1.106  1.00  0.00     0.001 C 
HETATM   39  C9  UNL     1      -7.921  -0.107  -1.631  1.00  0.00     0.014 C 
ENDBRANCH  31  34
ENDBRANCH  29  30
ENDBRANCH  27  29
ENDBRANCH  26  27
ENDBRANCH  25  26
ENDBRANCH   1  25
TORSDOF 9
