REMARK  10 active torsions:
REMARK  status: ('A' for Active; 'I' for Inactive)
REMARK    1  A    between atoms: C2_2  and  O1_3 
REMARK    2  A    between atoms: O1_3  and  C3_4 
REMARK    3  A    between atoms: C9_13  and  N3_14 
REMARK    4  A    between atoms: N3_14  and  C10_16 
REMARK    5  A    between atoms: C12_18  and  O2_19 
REMARK    6  A    between atoms: C17_27  and  O3_28 
REMARK    7  A    between atoms: C19_30  and  O4_31 
REMARK    8  A    between atoms: O4_31  and  C20_32 
REMARK    9  A    between atoms: C20_32  and  C21_33 
REMARK   10  A    between atoms: C21_33  and  N4_34 
ROOT
HETATM    1  C3  UNL     1      -0.293  -2.293   0.185  1.00  0.00     0.107 A 
HETATM    2  C4  UNL     1       0.505  -2.648  -0.859  1.00  0.00     0.070 A 
HETATM    3  C5  UNL     1       1.631  -1.912  -1.205  1.00  0.00     0.050 A 
HETATM    4  N1  UNL     1       2.395  -2.343  -2.234  1.00  0.00    -0.363 N 
ATOM      5  H1  UNL     1       2.118  -3.177  -2.751  1.00  0.00     0.165 HD
HETATM    6  C6  UNL     1       3.506  -1.693  -2.582  1.00  0.00     0.113 A 
HETATM    7  C7  UNL     1       3.887  -0.558  -1.879  1.00  0.00     0.087 A 
HETATM    8  C8  UNL     1       5.118   0.109  -2.300  1.00  0.00     0.103 C 
HETATM    9  N2  UNL     1       6.092   0.605  -2.657  1.00  0.00    -0.191 NA
HETATM   10  C9  UNL     1       3.119  -0.107  -0.830  1.00  0.00     0.070 A 
HETATM   11  C16 UNL     1       1.934  -0.801  -0.465  1.00  0.00     0.055 A 
HETATM   12  C17 UNL     1       1.154  -0.398   0.602  1.00  0.00     0.119 A 
HETATM   13  C19 UNL     1       0.025  -1.155   0.932  1.00  0.00     0.136 A 
ENDROOT
BRANCH  10  14
HETATM   14  N3  UNL     1       3.448   0.862  -0.142  1.00  0.00    -0.353 N 
ATOM     15  H3  UNL     1       2.734   1.017   0.570  1.00  0.00     0.166 HD
BRANCH  14  16
HETATM   16  C10 UNL     1       4.432   1.806   0.007  1.00  0.00     0.057 A 
HETATM   17  C11 UNL     1       5.531   1.573   0.848  1.00  0.00     0.069 A 
HETATM   18  C12 UNL     1       6.492   2.527   1.029  1.00  0.00     0.089 A 
HETATM   19  C13 UNL     1       6.442   3.759   0.405  1.00  0.00     0.068 A 
HETATM   20 CL1  UNL     1       7.676   4.975   0.640  1.00  0.00    -0.081 Cl
HETATM   21  C14 UNL     1       5.371   4.006  -0.424  1.00  0.00     0.052 A 
HETATM   22  C15 UNL     1       4.404   3.059  -0.613  1.00  0.00     0.062 A 
HETATM   23 CL2  UNL     1       3.088   3.458  -1.697  1.00  0.00    -0.082 Cl
BRANCH  18  24
HETATM   24  O2  UNL     1       7.581   2.265   1.877  1.00  0.00    -0.359 OA
ATOM     25  H2  UNL     1       8.249   2.928   2.003  1.00  0.00     0.217 HD
ENDBRANCH  18  24
ENDBRANCH  14  16
ENDBRANCH  10  14
BRANCH  12  26
HETATM   26  O3  UNL     1       1.448   0.711   1.343  1.00  0.00    -0.352 OA
HETATM   27  C18 UNL     1       0.975   2.022   1.228  1.00  0.00     0.210 C 
ENDBRANCH  12  26
BRANCH  13  28
HETATM   28  O4  UNL     1      -0.816  -0.842   1.989  1.00  0.00    -0.344 OA
BRANCH  28  29
HETATM   29  C20 UNL     1      -2.168  -0.529   1.953  1.00  0.00     0.206 C 
BRANCH  29  30
HETATM   30  C21 UNL     1      -2.501   0.636   1.115  1.00  0.00     0.299 C 
BRANCH  30  31
HETATM   31  N4  UNL     1      -3.956   0.896   1.094  1.00  0.00     0.090 N 
HETATM   32  C22 UNL     1      -4.145   2.044   0.252  1.00  0.00     0.272 C 
HETATM   33  C23 UNL     1      -4.588   1.614  -1.138  1.00  0.00     0.030 C 
HETATM   34  C24 UNL     1      -6.001   1.050  -0.966  1.00  0.00     0.003 C 
HETATM   35  C25 UNL     1      -5.934  -0.093   0.013  1.00  0.00     0.030 C 
HETATM   36  C26 UNL     1      -4.575  -0.302   0.599  1.00  0.00     0.272 C 
ENDBRANCH  30  31
ENDBRANCH  29  30
ENDBRANCH  28  29
ENDBRANCH  13  28
BRANCH   1  37
HETATM   37  O1  UNL     1      -1.390  -3.087   0.457  1.00  0.00    -0.348 OA
BRANCH  37  38
HETATM   38  C2  UNL     1      -1.683  -4.217  -0.303  1.00  0.00     0.171 C 
HETATM   39  C1  UNL     1      -2.908  -4.947   0.142  1.00  0.00     0.034 C 
ENDBRANCH  37  38
ENDBRANCH   1  37
TORSDOF 10
