REMARK  11 active torsions:
REMARK  status: ('A' for Active; 'I' for Inactive)
REMARK    1  A    between atoms: C2_2  and  C3_3 
REMARK    2  A    between atoms: C3_3  and  C4_4 
REMARK    3  A    between atoms: C4_4  and  C5_5 
REMARK    4  A    between atoms: C6_6  and  C7_7 
REMARK    5  A    between atoms: C7_7  and  O2_9 
REMARK    6  A    between atoms: O2_9  and  C8_10 
REMARK    7  A    between atoms: C13_15  and  C14_16 
REMARK    8  A    between atoms: C15_21  and  C16_22 
REMARK    9  A    between atoms: C16_22  and  O5_25 
REMARK   10  A    between atoms: N2_27  and  C19_28 
REMARK   11  A    between atoms: C19_28  and  C20_29 
ROOT
HETATM    1  C5  UNL     1      -1.175   0.404   0.427  1.00  0.00     0.050 A 
HETATM    2  C6  UNL     1       0.102   0.044   0.131  1.00  0.00     0.133 A 
HETATM    3  N1  UNL     1      -0.020  -1.080  -0.633  1.00  0.00    -0.336 N 
ATOM      4  H1  UNL     1       0.755  -1.611  -1.031  1.00  0.00     0.167 HD
HETATM    5  C15 UNL     1      -1.320  -1.375  -0.778  1.00  0.00     0.123 A 
HETATM    6  N2  UNL     1      -2.075  -0.473  -0.132  1.00  0.00    -0.310 N 
ENDROOT
BRANCH   2   7
HETATM    7  C7  UNL     1       1.377   0.575   0.564  1.00  0.00     0.312 C 
HETATM    8  O1  UNL     1       1.610   1.478   1.367  1.00  0.00    -0.258 OA
BRANCH   7   9
HETATM    9  O2  UNL     1       2.567   0.016   0.018  1.00  0.00    -0.310 OA
BRANCH   9  10
HETATM   10  C8  UNL     1       3.844   0.451   0.359  1.00  0.00     0.146 C 
HETATM   11  C9  UNL     1       4.672  -0.624   1.036  1.00  0.00     0.033 C 
HETATM   12  C10 UNL     1       5.974  -0.022   1.523  1.00  0.00     0.002 C 
HETATM   13  C11 UNL     1       6.159   1.394   1.023  1.00  0.00     0.001 C 
HETATM   14  C12 UNL     1       5.861   1.573  -0.426  1.00  0.00     0.018 C 
HETATM   15  C13 UNL     1       4.554   0.961  -0.860  1.00  0.00     0.116 C 
BRANCH  15  16
HETATM   16  C14 UNL     1       4.814  -0.083  -1.861  1.00  0.00     0.179 C 
HETATM   17  O3  UNL     1       5.993  -0.304  -2.222  1.00  0.00    -0.648 OA
HETATM   18  O4  UNL     1       3.819  -0.856  -2.444  1.00  0.00    -0.648 OA
ENDBRANCH  15  16
ENDBRANCH   9  10
ENDBRANCH   7   9
ENDBRANCH   2   7
BRANCH   1  19
HETATM   19  C4  UNL     1      -1.603   1.606   1.165  1.00  0.00     0.060 C 
BRANCH  19  20
HETATM   20  C3  UNL     1      -1.847   2.839   0.367  1.00  0.00     0.006 C 
BRANCH  20  21
HETATM   21  C2  UNL     1      -0.687   3.358  -0.422  1.00  0.00    -0.004 C 
HETATM   22  C1  UNL     1      -1.082   4.609  -1.204  1.00  0.00     0.005 C 
ENDBRANCH  20  21
ENDBRANCH  19  20
ENDBRANCH   1  19
BRANCH   6  23
HETATM   23  C19 UNL     1      -3.460  -0.384  -0.065  1.00  0.00     0.111 C 
BRANCH  23  24
HETATM   24  C20 UNL     1      -4.286  -0.940   0.959  1.00  0.00     0.003 A 
HETATM   25  C21 UNL     1      -5.672  -0.648   0.828  1.00  0.00     0.040 A 
HETATM   26  C22 UNL     1      -6.599  -1.090   1.730  1.00  0.00     0.056 A 
HETATM   27 CL1  UNL     1      -8.299  -0.724   1.561  1.00  0.00    -0.083 Cl
HETATM   28  C23 UNL     1      -6.181  -1.848   2.809  1.00  0.00     0.057 A 
HETATM   29 CL2  UNL     1      -7.310  -2.461   4.018  1.00  0.00    -0.082 Cl
HETATM   30  C24 UNL     1      -4.847  -2.154   2.972  1.00  0.00     0.050 A 
HETATM   31  C25 UNL     1      -3.915  -1.680   2.019  1.00  0.00     0.047 A 
HETATM   32 CL3  UNL     1      -2.268  -2.091   2.267  1.00  0.00    -0.083 Cl
ENDBRANCH  23  24
ENDBRANCH   6  23
BRANCH   5  33
HETATM   33  C16 UNL     1      -1.745  -2.555  -1.573  1.00  0.00     0.109 C 
HETATM   34  C17 UNL     1      -0.686  -3.626  -1.418  1.00  0.00     0.054 C 
HETATM   35  C18 UNL     1      -1.841  -2.244  -3.060  1.00  0.00     0.054 C 
BRANCH  33  36
HETATM   36  O5  UNL     1      -2.943  -3.088  -1.196  1.00  0.00    -0.383 OA
ATOM     37  H5  UNL     1      -3.215  -3.843  -1.705  1.00  0.00     0.211 HD
ENDBRANCH  33  36
ENDBRANCH   5  33
TORSDOF 11
