REMARK  9 active torsions:
REMARK  status: ('A' for Active; 'I' for Inactive)
REMARK    1  A    between atoms: C5_9  and  C6_10 
REMARK    2  A    between atoms: C6_10  and  C7_11 
REMARK    3  A    between atoms: C8_16  and  N4_17 
REMARK    4  A    between atoms: N4_17  and  C9_19 
REMARK    5  A    between atoms: C15_25  and  N5_26 
REMARK    6  A    between atoms: N5_26  and  C16_28 
REMARK    7  A    between atoms: C16_28  and  C17_29 
REMARK    8  A    between atoms: C20_35  and  O1_36 
REMARK    9  A    between atoms: O1_36  and  C21_37 
ROOT
HETATM    1  C7  UNL     1      -1.697  -2.321   0.172  1.00  0.00     0.056 A 
HETATM    2  N2  UNL     1      -2.904  -2.633  -0.322  1.00  0.00    -0.301 N 
ATOM      3  H2  UNL     1      -3.068  -3.599  -0.605  1.00  0.00     0.186 HD
HETATM    4  N3  UNL     1      -3.878  -1.784  -0.463  1.00  0.00    -0.285 N 
ATOM      5  H3  UNL     1      -4.776  -2.080  -0.845  1.00  0.00     0.188 HD
HETATM    6  C8  UNL     1      -3.674  -0.488  -0.089  1.00  0.00     0.118 A 
HETATM    7  C14 UNL     1      -2.466  -0.090   0.425  1.00  0.00     0.080 A 
HETATM    8  C15 UNL     1      -1.442  -1.026   0.563  1.00  0.00     0.056 A 
ENDROOT
BRANCH   8   9
HETATM    9  N5  UNL     1      -0.180  -0.644   1.093  1.00  0.00    -0.384 N 
ATOM     10  H5  UNL     1       0.548  -1.352   1.184  1.00  0.00     0.160 HD
BRANCH   9  11
HETATM   11  C16 UNL     1       0.112   0.711   1.508  1.00  0.00     0.160 C 
BRANCH  11  12
HETATM   12  C17 UNL     1       1.506   0.782   2.017  1.00  0.00    -0.022 A 
HETATM   13  C18 UNL     1       1.753   0.591   3.366  1.00  0.00     0.098 A 
HETATM   14  N6  UNL     1       2.996   0.647   3.858  1.00  0.00    -0.354 N 
HETATM   15  C19 UNL     1       4.064   0.894   3.047  1.00  0.00     0.137 A 
ATOM     16  H6  UNL     1       3.147   0.503   4.856  1.00  0.00     0.166 HD
HETATM   17 CL3  UNL     1       5.658   0.946   3.798  1.00  0.00    -0.061 Cl
HETATM   18  C20 UNL     1       3.884   1.092   1.695  1.00  0.00     0.108 A 
HETATM   19  C26 UNL     1       2.597   1.031   1.207  1.00  0.00     0.050 A 
BRANCH  18  20
HETATM   20  O1  UNL     1       4.981   1.336   0.918  1.00  0.00    -0.343 OA
BRANCH  20  21
HETATM   21  C21 UNL     1       5.050   1.562  -0.447  1.00  0.00     0.129 C 
HETATM   22  C22 UNL     1       5.913   0.540  -1.174  1.00  0.00     0.032 C 
HETATM   23  C23 UNL     1       6.034   1.186  -2.541  1.00  0.00     0.002 C 
HETATM   24  C24 UNL     1       6.439   2.606  -2.132  1.00  0.00     0.002 C 
HETATM   25  C25 UNL     1       5.731   2.854  -0.818  1.00  0.00     0.032 C 
ENDBRANCH  20  21
ENDBRANCH  18  20
ENDBRANCH  11  12
ENDBRANCH   9  11
ENDBRANCH   8   9
BRANCH   1  26
HETATM   26  C6  UNL     1      -0.621  -3.337   0.310  1.00  0.00     0.103 C 
BRANCH  26  27
HETATM   27  C5  UNL     1      -1.128  -4.644  -0.191  1.00  0.00    -0.006 A 
HETATM   28  C1  UNL     1      -1.254  -4.920  -1.536  1.00  0.00     0.057 A 
HETATM   29 CL1  UNL     1      -0.799  -3.688  -2.689  1.00  0.00    -0.082 Cl
HETATM   30  C2  UNL     1      -1.723  -6.130  -1.976  1.00  0.00     0.112 A 
HETATM   31  N1  UNL     1      -2.082  -7.104  -1.093  1.00  0.00    -0.372 N 
HETATM   32  C3  UNL     1      -1.974  -6.871   0.235  1.00  0.00     0.112 A 
ATOM     33  H1  UNL     1      -2.429  -8.002  -1.431  1.00  0.00     0.164 HD
HETATM   34  C4  UNL     1      -1.502  -5.655   0.681  1.00  0.00     0.057 A 
HETATM   35 CL2  UNL     1      -1.341  -5.301   2.405  1.00  0.00    -0.082 Cl
ENDBRANCH  26  27
ENDBRANCH   1  26
BRANCH   6  36
HETATM   36  N4  UNL     1      -4.647   0.322  -0.238  1.00  0.00    -0.371 N 
ATOM     37  H4  UNL     1      -5.522  -0.032  -0.625  1.00  0.00     0.161 HD
BRANCH  36  38
HETATM   38  C9  UNL     1      -4.566   1.698   0.112  1.00  0.00     0.083 C 
HETATM   39  C10 UNL     1      -5.945   2.349   0.183  1.00  0.00     0.025 C 
HETATM   40  C11 UNL     1      -5.598   3.815   0.205  1.00  0.00     0.002 C 
HETATM   41  C12 UNL     1      -4.400   3.939  -0.706  1.00  0.00     0.002 C 
HETATM   42  C13 UNL     1      -3.918   2.529  -0.973  1.00  0.00     0.025 C 
ENDBRANCH  36  38
ENDBRANCH   6  36
TORSDOF 9
