REMARK  4 active torsions:
REMARK  status: ('A' for Active; 'I' for Inactive)
REMARK    1  A    between atoms: C2_2  and  C4_4 
REMARK    2  A    between atoms: C5_5  and  N1_6 
REMARK    3  A    between atoms: C10_16  and  N4_17 
REMARK    4  A    between atoms: C11_24  and  N7_25 
ROOT
HETATM    1  N1  UNL     1       1.184  -0.160  -0.341  1.00  0.00    -0.327 N 
ATOM      2  H1  UNL     1       1.518  -0.552  -1.221  1.00  0.00     0.169 HD
HETATM    3  C6  UNL     1       2.086   0.407   0.325  1.00  0.00     0.125 A 
HETATM    4  N2  UNL     1       1.952   0.975   1.519  1.00  0.00    -0.338 N 
ATOM      5  H2  UNL     1       1.156   0.733   2.109  1.00  0.00     0.168 HD
HETATM    6  C7  UNL     1       2.850   1.858   1.950  1.00  0.00     0.183 A 
HETATM    7  N3  UNL     1       3.923   2.206   1.195  1.00  0.00    -0.338 N 
ATOM      8  H3  UNL     1       4.594   2.886   1.554  1.00  0.00     0.168 HD
HETATM    9  C8  UNL     1       4.111   1.663  -0.022  1.00  0.00     0.125 A 
HETATM   10  C9  UNL     1       3.206   0.772  -0.447  1.00  0.00     0.096 A 
HETATM   11  C10 UNL     1       3.884   0.609  -1.715  1.00  0.00     0.118 A 
HETATM   12  N5  UNL     1       4.885   1.614  -1.228  1.00  0.00    -0.327 N 
ATOM     13  H5  UNL     1       5.729   2.059  -1.589  1.00  0.00     0.169 HD
ENDROOT
BRANCH   1  14
HETATM   14  C5  UNL     1      -0.177  -0.365  -0.128  1.00  0.00     0.134 A 
HETATM   15  C4  UNL     1      -0.849  -1.531  -0.360  1.00  0.00     0.058 A 
HETATM   16  C14 UNL     1      -2.214  -1.501  -0.310  1.00  0.00     0.270 A 
HETATM   17  N8  UNL     1      -2.850  -0.324  -0.041  1.00  0.00    -0.155 N 
HETATM   18  O1  UNL     1      -2.920  -2.490  -0.494  1.00  0.00    -0.267 OA
HETATM   19  C11 UNL     1      -2.192   0.843   0.189  1.00  0.00     0.684 A 
ATOM     20  H8  UNL     1      -3.870  -0.320  -0.011  1.00  0.00     0.187 HD
HETATM   21  N6  UNL     1      -0.863   0.814   0.148  1.00  0.00    -0.176 N 
ATOM     22  H6  UNL     1      -0.337   1.671   0.322  1.00  0.00     0.186 HD
BRANCH  15  23
HETATM   23  C2  UNL     1      -0.114  -2.790  -0.494  1.00  0.00     0.020 C 
HETATM   24  C1  UNL     1      -0.601  -3.513  -1.756  1.00  0.00     0.015 C 
HETATM   25  C3  UNL     1      -0.510  -3.724   0.680  1.00  0.00     0.015 C 
ENDBRANCH  15  23
BRANCH  19  26
HETATM   26  N7  UNL     1      -2.870   2.067   0.421  1.00  0.00    -0.226 N 
HETATM   27  C12 UNL     1      -2.989   3.059  -0.650  1.00  0.00     0.168 C 
HETATM   28  C13 UNL     1      -3.423   2.273   1.737  1.00  0.00     0.168 C 
ENDBRANCH  19  26
ENDBRANCH   1  14
BRANCH  11  29
HETATM   29  N4  UNL     1       3.952  -0.131  -2.710  1.00  0.00    -0.385 N 
ATOM     30  H42 UNL     1       3.271  -0.815  -3.041  1.00  0.00     0.157 HD
ATOM     31  H41 UNL     1       4.430  -0.246  -3.604  1.00  0.00     0.157 HD
ENDBRANCH  11  29
TORSDOF 4
