REMARK  6 active torsions:
REMARK  status: ('A' for Active; 'I' for Inactive)
REMARK    1  A    between atoms: C3_3  and  C5_5 
REMARK       I    between atoms: C5_5  and  N1_7 
REMARK    2  A    between atoms: N1_7  and  N2_9 
REMARK    3  A    between atoms: N2_9  and  C6_11 
REMARK    4  A    between atoms: C7_13  and  C8_14 
REMARK    5  A    between atoms: C8_14  and  O2_15 
REMARK    6  A    between atoms: C8_14  and  N3_17 
REMARK       I    between atoms: N3_17  and  C9_19 
ROOT
HETATM    1  C6  UNL     1       0.043   0.004  -0.482  1.00  0.00     0.112 A 
HETATM    2  S1  UNL     1       1.616   0.391  -1.034  1.00  0.00    -0.063 SA
HETATM    3  C7  UNL     1       2.891   0.018   0.109  1.00  0.00     0.080 A 
HETATM    4  C10 UNL     1       2.395  -0.521   1.248  1.00  0.00     0.027 A 
HETATM    5  C11 UNL     1       3.371  -0.901   2.340  1.00  0.00     0.070 C 
HETATM    6  N6  UNL     1       1.105  -0.756   1.508  1.00  0.00    -0.360 N 
ATOM      7  H6  UNL     1       0.926  -1.169   2.423  1.00  0.00     0.165 HD
HETATM    8  C12 UNL     1       0.018  -0.543   0.778  1.00  0.00     0.041 A 
HETATM    9  C13 UNL     1      -1.320  -0.930   1.383  1.00  0.00     0.071 C 
ENDROOT
BRANCH   1  10
HETATM   10  N2  UNL     1      -0.992   0.201  -1.163  1.00  0.00    -0.289 N 
ATOM     11  H2  UNL     1      -0.731   0.613  -2.059  1.00  0.00     0.188 HD
BRANCH  10  12
HETATM   12  N1  UNL     1      -2.305   0.057  -1.117  1.00  0.00    -0.265 N 
HETATM   13  C5  UNL     1      -3.285   1.086  -0.915  1.00  0.00     0.265 C 
HETATM   14  O1  UNL     1      -2.803   2.246  -0.770  1.00  0.00    -0.266 OA
ATOM     15  H1  UNL     1      -2.662  -0.891  -1.239  1.00  0.00     0.190 HD
BRANCH  13  16
HETATM   16  C3  UNL     1      -4.703   0.881  -0.872  1.00  0.00     0.003 C 
HETATM   17  C2  UNL     1      -5.289  -0.293  -1.015  1.00  0.00    -0.019 C 
HETATM   18  C1  UNL     1      -6.759  -0.444  -0.961  1.00  0.00     0.036 C 
HETATM   19  C4  UNL     1      -5.592   2.063  -0.653  1.00  0.00     0.054 C 
ENDBRANCH  13  16
ENDBRANCH  10  12
ENDBRANCH   1  10
BRANCH   3  20
HETATM   20  C8  UNL     1       4.265   0.292  -0.223  1.00  0.00     0.161 C 
BRANCH  20  21
HETATM   21  O2  UNL     1       4.352   0.823  -1.433  1.00  0.00    -0.345 OA
ATOM     22  H2  UNL     1       5.259   1.004  -1.652  1.00  0.00     0.219 HD
ENDBRANCH  20  21
BRANCH  20  23
HETATM   23  N3  UNL     1       5.481   0.130   0.420  1.00  0.00    -0.310 N 
HETATM   24  C9  UNL     1       6.705   0.526  -0.229  1.00  0.00     0.187 C 
HETATM   25  N4  UNL     1       7.828   0.369   0.382  1.00  0.00    -0.373 N 
HETATM   26  N5  UNL     1       6.667   1.077  -1.514  1.00  0.00    -0.064 NA
ATOM     27  H42 UNL     1       7.856  -0.033   1.319  1.00  0.00     0.158 HD
ATOM     28  H41 UNL     1       8.694   0.649  -0.077  1.00  0.00     0.158 HD
ATOM     29  H3  UNL     1       5.510  -0.271   1.357  1.00  0.00     0.170 HD
ENDBRANCH  20  23
ENDBRANCH   3  20
TORSDOF 6
