REMARK  10 active torsions:
REMARK  status: ('A' for Active; 'I' for Inactive)
REMARK    1  A    between atoms: C1_2  and  C2_4 
REMARK    2  A    between atoms: C2_4  and  N1_5 
REMARK    3  A    between atoms: C3_6  and  O3_7 
REMARK    4  A    between atoms: C4_11  and  N3_12 
REMARK    5  A    between atoms: N3_12  and  C5_14 
REMARK    6  A    between atoms: C5_14  and  C6_15 
REMARK    7  A    between atoms: C6_15  and  C7_16 
REMARK    8  A    between atoms: C13_24  and  N5_25 
REMARK    9  A    between atoms: N5_25  and  C14_26 
REMARK   10  A    between atoms: C14_26  and  C15_27 
ROOT
HETATM    1  N1  UNL     1      -1.506  -1.180   1.461  1.00  0.00    -0.262 N 
HETATM    2  C3  UNL     1      -0.269  -1.723   1.460  1.00  0.00     0.241 A 
HETATM    3  N2  UNL     1       0.730  -1.123   0.802  1.00  0.00    -0.155 N 
ATOM      4  H2  UNL     1       1.655  -1.553   0.816  1.00  0.00     0.188 HD
HETATM    5  C4  UNL     1       0.560   0.024   0.124  1.00  0.00     0.684 A 
HETATM    6  N4  UNL     1      -0.667   0.546   0.135  1.00  0.00    -0.148 N 
ATOM      7  H4  UNL     1      -0.825   1.417  -0.372  1.00  0.00     0.188 HD
HETATM    8  C13 UNL     1      -1.725  -0.023   0.789  1.00  0.00     0.279 A 
ENDROOT
BRANCH   5   9
HETATM    9  N3  UNL     1       1.543   0.617  -0.512  1.00  0.00    -0.226 N 
ATOM     10  H3  UNL     1       1.402   1.487  -1.025  1.00  0.00     0.177 HD
BRANCH   9  11
HETATM   11  C5  UNL     1       2.833  -0.026  -0.447  1.00  0.00     0.142 C 
BRANCH  11  12
HETATM   12  C6  UNL     1       3.848   1.028  -0.930  1.00  0.00     0.058 C 
BRANCH  12  13
HETATM   13  C7  UNL     1       5.167   0.385  -0.862  1.00  0.00    -0.057 A 
HETATM   14  C8  UNL     1       5.911   0.487   0.307  1.00  0.00     0.007 A 
HETATM   15  C9  UNL     1       7.141  -0.127   0.342  1.00  0.00     0.001 A 
HETATM   16  C10 UNL     1       7.634  -0.834  -0.760  1.00  0.00     0.000 A 
HETATM   17  C11 UNL     1       6.896  -0.936  -1.923  1.00  0.00     0.001 A 
HETATM   18  C12 UNL     1       5.658  -0.304  -1.926  1.00  0.00     0.007 A 
ENDBRANCH  12  13
ENDBRANCH  11  12
ENDBRANCH   9  11
ENDBRANCH   5   9
BRANCH   2  19
HETATM   19  O3  UNL     1      -0.064  -2.927   2.165  1.00  0.00    -0.332 OA
ATOM     20  H3  UNL     1       0.806  -3.309   2.164  1.00  0.00     0.221 HD
ENDBRANCH   2  19
BRANCH   8  21
HETATM   21  N5  UNL     1      -2.790   0.506   0.742  1.00  0.00    -0.382 NA
BRANCH  21  22
HETATM   22  C14 UNL     1      -4.068   0.900   0.837  1.00  0.00     0.198 C 
BRANCH  22  23
HETATM   23  C15 UNL     1      -4.648   1.154  -0.526  1.00  0.00    -0.004 A 
HETATM   24  C16 UNL     1      -5.252   0.167  -1.254  1.00  0.00     0.014 A 
HETATM   25  C17 UNL     1      -5.790   0.413  -2.512  1.00  0.00     0.004 A 
HETATM   26  C18 UNL     1      -5.717   1.675  -3.046  1.00  0.00     0.042 A 
HETATM   27  C19 UNL     1      -5.117   2.674  -2.334  1.00  0.00     0.117 A 
HETATM   28  F1  UNL     1      -5.017   3.929  -2.808  1.00  0.00    -0.206 F 
HETATM   29  C20 UNL     1      -4.585   2.409  -1.077  1.00  0.00     0.056 A 
ENDBRANCH  22  23
ENDBRANCH  21  22
ENDBRANCH   8  21
BRANCH   1  30
HETATM   30  C2  UNL     1      -2.549  -1.890   2.195  1.00  0.00     0.250 C 
BRANCH  30  31
HETATM   31  C1  UNL     1      -2.631  -1.514   3.610  1.00  0.00     0.192 C 
HETATM   32  O1  UNL     1      -3.412  -0.638   4.010  1.00  0.00    -0.647 OA
HETATM   33  O2  UNL     1      -1.808  -2.158   4.536  1.00  0.00    -0.647 OA
ENDBRANCH  30  31
ENDBRANCH   1  30
TORSDOF 10
