REMARK  8 active torsions:
REMARK  status: ('A' for Active; 'I' for Inactive)
REMARK    1  A    between atoms: C1_2  and  C2_4 
REMARK    2  A    between atoms: C2_4  and  C3_5 
REMARK    3  A    between atoms: C3_5  and  N2_6 
REMARK    4  A    between atoms: N2_6  and  C4_7 
REMARK    5  A    between atoms: N2_6  and  C7_11 
REMARK    6  A    between atoms: C4_7  and  C5_8 
REMARK    7  A    between atoms: C7_11  and  C8_12 
REMARK       I    between atoms: C8_12  and  N3_14 
REMARK    8  A    between atoms: N3_14  and  C9_16 
ROOT
HETATM    1  C5  UNL     1       2.850  -2.612  -0.729  1.00  0.00    -0.075 C 
HETATM    2  C6  UNL     1       2.602  -3.356  -1.651  1.00  0.00    -0.022 C 
HETATM    3 BR1  UNL     1       2.185  -4.507  -3.067  1.00  0.00     0.010 Br
ENDROOT
BRANCH   1   4
HETATM    4  C4  UNL     1       3.132  -1.711   0.414  1.00  0.00     0.213 C 
BRANCH   4   5
HETATM    5  N2  UNL     1       3.058  -0.368  -0.041  1.00  0.00    -0.394 N 
BRANCH   5   6
HETATM    6  C3  UNL     1       3.276   0.638   0.938  1.00  0.00     0.127 C 
BRANCH   6   7
HETATM    7  C2  UNL     1       4.691   0.709   1.464  1.00  0.00     0.119 C 
BRANCH   7   8
HETATM    8  C1  UNL     1       5.651   0.991   0.369  1.00  0.00     0.232 C 
HETATM    9  N1  UNL     1       7.040   1.101   0.553  1.00  0.00    -0.062 NA
HETATM   10  O1  UNL     1       5.197   1.140  -0.791  1.00  0.00    -0.277 OA
ENDBRANCH   7   8
ENDBRANCH   6   7
ENDBRANCH   5   6
BRANCH   5  11
HETATM   11  C7  UNL     1       1.979  -0.028  -0.894  1.00  0.00     0.220 C 
BRANCH  11  12
HETATM   12  C8  UNL     1       0.637  -0.049  -0.245  1.00  0.00     0.237 C 
HETATM   13  O2  UNL     1       0.482  -0.348   0.961  1.00  0.00    -0.272 OA
HETATM   14  N3  UNL     1      -0.517   0.280  -1.000  1.00  0.00    -0.327 N 
ATOM     15  H3  UNL     1      -0.380   0.527  -1.980  1.00  0.00     0.165 HD
BRANCH  14  16
HETATM   16  C9  UNL     1      -1.861   0.294  -0.500  1.00  0.00     0.201 C 
HETATM   17  C10 UNL     1      -2.083   1.244   0.651  1.00  0.00     0.066 C 
HETATM   18  C11 UNL     1      -3.549   1.221   1.009  1.00  0.00    -0.008 C 
HETATM   19  C12 UNL     1      -3.975  -0.159   1.415  1.00  0.00     0.009 C 
HETATM   20  C16 UNL     1      -4.344   1.707  -0.186  1.00  0.00     0.037 C 
HETATM   21  C13 UNL     1      -3.740  -1.106   0.267  1.00  0.00    -0.008 C 
HETATM   22  C14 UNL     1      -4.577  -0.640  -0.890  1.00  0.00     0.037 C 
HETATM   23  C17 UNL     1      -2.254  -1.093  -0.044  1.00  0.00     0.066 C 
HETATM   24  C15 UNL     1      -4.096   0.731  -1.302  1.00  0.00     0.189 C 
HETATM   25  N4  UNL     1      -2.715   0.654  -1.641  1.00  0.00    -0.044 N 
ATOM     26  H42 UNL     1      -2.398   1.522  -2.073  1.00  0.00     0.280 HD
ATOM     27  H41 UNL     1      -2.567   0.015  -2.422  1.00  0.00     0.280 HD
ENDBRANCH  14  16
ENDBRANCH  11  12
ENDBRANCH   5  11
ENDBRANCH   4   5
ENDBRANCH   1   4
TORSDOF 8
