REMARK  7 active torsions:
REMARK  status: ('A' for Active; 'I' for Inactive)
REMARK    1  A    between atoms: C2_2  and  C3_3 
REMARK    2  A    between atoms: C3_3  and  C4_4 
REMARK    3  A    between atoms: C4_4  and  C5_5 
REMARK    4  A    between atoms: C12_15  and  C13_16 
REMARK    5  A    between atoms: C13_16  and  C14_17 
REMARK    6  A    between atoms: C14_17  and  C15_18 
REMARK    7  A    between atoms: C15_18  and  N2_19 
ROOT
HETATM    1  C5  UNL     1      -2.123   0.308   0.110  1.00  0.00     0.146 A 
HETATM    2  N1  UNL     1      -2.093  -1.083  -0.087  1.00  0.00    -0.378 N 
ATOM      3  H1  UNL     1      -2.978  -1.503   0.198  1.00  0.00     0.160 HD
HETATM    4  C6  UNL     1      -1.295  -1.973  -0.513  1.00  0.00     0.041 A 
HETATM    5  C7  UNL     1      -1.836  -3.241  -0.474  1.00  0.00     0.031 A 
HETATM    6  C8  UNL     1      -1.069  -4.288  -0.912  1.00  0.00     0.021 A 
HETATM    7  C9  UNL     1       0.214  -4.123  -1.385  1.00  0.00     0.011 A 
HETATM    8 BR1  UNL     1       1.273  -5.591  -1.992  1.00  0.00    -0.051 Br
HETATM    9  C10 UNL     1       0.704  -2.814  -1.399  1.00  0.00     0.034 A 
HETATM   10  C11 UNL     1      -0.007  -1.741  -0.980  1.00  0.00     0.014 A 
HETATM   11  C12 UNL     1       0.708  -0.611  -1.076  1.00  0.00     0.023 A 
HETATM   12  N5  UNL     1       0.191   0.634  -0.623  1.00  0.00    -0.349 N 
ATOM     13  H5  UNL     1       0.885   1.377  -0.702  1.00  0.00     0.166 HD
HETATM   14  C17 UNL     1      -0.901   1.068  -0.147  1.00  0.00     0.116 A 
HETATM   15  N6  UNL     1      -0.969   2.477   0.187  1.00  0.00    -0.085 NA
ENDROOT
BRANCH  11  16
HETATM   16  C13 UNL     1       2.060  -0.645  -1.617  1.00  0.00     0.059 C 
BRANCH  16  17
HETATM   17  C14 UNL     1       3.181  -0.617  -0.625  1.00  0.00     0.026 C 
BRANCH  17  18
HETATM   18  C15 UNL     1       3.243   0.582   0.262  1.00  0.00     0.122 C 
BRANCH  18  19
HETATM   19  N2  UNL     1       4.369   0.495   1.165  1.00  0.00    -0.367 N 
HETATM   20  C16 UNL     1       5.441   1.158   0.917  1.00  0.00     0.196 C 
HETATM   21  N3  UNL     1       6.565   1.095   1.782  1.00  0.00    -0.067 NA
HETATM   22  N4  UNL     1       5.501   1.964  -0.238  1.00  0.00    -0.067 NA
ATOM     23  H2  UNL     1       4.312  -0.092   1.997  1.00  0.00     0.161 HD
ENDBRANCH  18  19
ENDBRANCH  17  18
ENDBRANCH  16  17
ENDBRANCH  11  16
BRANCH   1  24
HETATM   24  C4  UNL     1      -3.265   0.990  -0.638  1.00  0.00     0.033 C 
BRANCH  24  25
HETATM   25  C3  UNL     1      -4.613   0.500  -0.236  1.00  0.00     0.002 C 
BRANCH  25  26
HETATM   26  C2  UNL     1      -4.918   0.708   1.211  1.00  0.00    -0.004 C 
HETATM   27  C1  UNL     1      -4.851   2.206   1.516  1.00  0.00     0.005 C 
ENDBRANCH  25  26
ENDBRANCH  24  25
ENDBRANCH   1  24
TORSDOF 7
