REMARK  7 active torsions:
REMARK  status: ('A' for Active; 'I' for Inactive)
REMARK    1  A    between atoms: C1_2  and  C2_3 
REMARK    2  A    between atoms: C1_2  and  C10_11 
REMARK    3  A    between atoms: C2_3  and  C3_4 
REMARK    4  A    between atoms: C3_4  and  C4_5 
REMARK    5  A    between atoms: C10_11  and  C11_12 
REMARK    6  A    between atoms: C11_12  and  C12_13 
REMARK    7  A    between atoms: C16_17  and  C17_18 
ROOT
HETATM    1  C12 UNL     1       2.425  -1.023   0.686  1.00  0.00     0.145 C 
HETATM    2  C13 UNL     1       3.036  -2.003  -0.247  1.00  0.00     0.001 C 
HETATM    3  C14 UNL     1       3.955  -1.546  -1.087  1.00  0.00    -0.025 C 
HETATM    4  C15 UNL     1       4.328  -0.125  -1.067  1.00  0.00     0.065 C 
HETATM    5  C16 UNL     1       4.019   0.580   0.204  1.00  0.00     0.177 C 
HETATM    6  O3  UNL     1       3.391  -0.177   1.156  1.00  0.00    -0.370 OA
ENDROOT
BRANCH   1   7
HETATM    7  C11 UNL     1       1.282  -0.320  -0.013  1.00  0.00     0.043 C 
BRANCH   7   8
HETATM    8  C10 UNL     1       0.273  -1.367  -0.412  1.00  0.00     0.081 C 
BRANCH   8   9
HETATM    9  C1  UNL     1      -0.864  -0.718  -1.097  1.00  0.00     0.127 C 
HETATM   10  O1  UNL     1      -0.848   0.485  -1.250  1.00  0.00    -0.298 OA
BRANCH   9  11
HETATM   11  C2  UNL     1      -1.985  -1.517  -1.579  1.00  0.00     0.078 C 
BRANCH  11  12
HETATM   12  C3  UNL     1      -3.316  -0.875  -1.436  1.00  0.00     0.012 C 
BRANCH  12  13
HETATM   13  C4  UNL     1      -3.835  -0.695  -0.080  1.00  0.00    -0.014 C 
HETATM   14  C5  UNL     1      -3.202   0.101   0.959  1.00  0.00     0.004 C 
HETATM   15  C6  UNL     1      -3.440   1.569   0.827  1.00  0.00     0.000 C 
HETATM   16  C7  UNL     1      -4.351   2.006  -0.259  1.00  0.00     0.000 C 
HETATM   17  C8  UNL     1      -5.533   1.131  -0.489  1.00  0.00     0.000 C 
HETATM   18  C9  UNL     1      -5.314  -0.302  -0.161  1.00  0.00     0.004 C 
ENDBRANCH  12  13
ENDBRANCH  11  12
ENDBRANCH   9  11
ENDBRANCH   8   9
ENDBRANCH   7   8
ENDBRANCH   1   7
BRANCH   5  19
HETATM   19  C17 UNL     1       5.225   1.191   0.828  1.00  0.00     0.062 A 
HETATM   20  C18 UNL     1       6.095   0.475   1.629  1.00  0.00     0.170 A 
HETATM   21  O2  UNL     1       7.049   1.295   2.021  1.00  0.00    -0.316 OA
HETATM   22  C19 UNL     1       6.826   2.492   1.507  1.00  0.00     0.233 A 
HETATM   23  N1  UNL     1       5.701   2.429   0.771  1.00  0.00    -0.347 N 
ATOM     24  H1  UNL     1       5.284   3.204   0.255  1.00  0.00     0.167 HD
ENDBRANCH   5  19
TORSDOF 7
