REMARK  7 active torsions:
REMARK  status: ('A' for Active; 'I' for Inactive)
REMARK    1  A    between atoms: C2_2  and  S1_3 
REMARK    2  A    between atoms: C2_2  and  C9_10 
REMARK    3  A    between atoms: S1_3  and  C3_4 
REMARK    4  A    between atoms: C9_10  and  C10_11 
REMARK    5  A    between atoms: C9_10  and  N1_20 
REMARK    6  A    between atoms: C10_11  and  C11_12 
REMARK    7  A    between atoms: C13_14  and  C14_15 
ROOT
HETATM    1  C9  UNL     1      -0.072  -2.164  -0.815  1.00  0.00     0.100 C 
ENDROOT
BRANCH   1   2
HETATM    2  C2  UNL     1      -1.046  -1.112  -0.537  1.00  0.00     0.025 C 
HETATM    3  C1  UNL     1      -1.005   0.150  -0.862  1.00  0.00     0.034 C 
BRANCH   2   4
HETATM    4  S1  UNL     1      -2.524  -1.664   0.375  1.00  0.00    -0.089 SA
BRANCH   4   5
HETATM    5  C3  UNL     1      -3.630  -0.299   0.653  1.00  0.00     0.005 A 
HETATM    6  C4  UNL     1      -4.629   0.067  -0.234  1.00  0.00     0.019 A 
HETATM    7  C5  UNL     1      -5.458   1.152   0.054  1.00  0.00     0.001 A 
HETATM    8  C6  UNL     1      -5.297   1.873   1.219  1.00  0.00     0.000 A 
HETATM    9  C7  UNL     1      -4.299   1.501   2.096  1.00  0.00     0.001 A 
HETATM   10  C8  UNL     1      -3.492   0.434   1.803  1.00  0.00     0.019 A 
ENDBRANCH   4   5
ENDBRANCH   2   4
ENDBRANCH   1   2
BRANCH   1  11
HETATM   11  C10 UNL     1       1.246  -1.793  -1.352  1.00  0.00     0.099 C 
BRANCH  11  12
HETATM   12  C11 UNL     1       2.120  -0.879  -0.629  1.00  0.00    -0.075 C 
HETATM   13  C12 UNL     1       2.397  -0.926   0.826  1.00  0.00     0.044 C 
HETATM   14  C13 UNL     1       2.694   0.113  -1.317  1.00  0.00     0.040 C 
BRANCH  14  15
HETATM   15  C14 UNL     1       3.589   1.117  -0.805  1.00  0.00     0.075 A 
HETATM   16  C15 UNL     1       4.674   0.955   0.022  1.00  0.00     0.039 A 
HETATM   17  C16 UNL     1       5.242   2.185   0.260  1.00  0.00     0.027 A 
HETATM   18  C17 UNL     1       4.450   3.084  -0.458  1.00  0.00     0.142 A 
HETATM   19  O1  UNL     1       3.510   2.412  -1.054  1.00  0.00    -0.323 OA
ENDBRANCH  14  15
ENDBRANCH  11  12
ENDBRANCH   1  11
BRANCH   1  20
HETATM   20  N1  UNL     1      -0.090  -3.276   0.111  1.00  0.00    -0.118 N 
HETATM   21  O2  UNL     1       0.894  -3.747   0.688  1.00  0.00    -0.532 OA
HETATM   22  O3  UNL     1      -1.292  -3.899   0.354  1.00  0.00    -0.532 OA
ENDBRANCH   1  20
TORSDOF 7
