REMARK  8 active torsions:
REMARK  status: ('A' for Active; 'I' for Inactive)
REMARK    1  A    between atoms: C2_2  and  C3_4 
REMARK    2  A    between atoms: C4_5  and  C5_6 
REMARK    3  A    between atoms: C7_8  and  C8_9 
REMARK    4  A    between atoms: C9_10  and  C10_11 
REMARK    5  A    between atoms: C10_11  and  C12_13 
REMARK    6  A    between atoms: C12_13  and  C13_14 
REMARK    7  A    between atoms: C13_14  and  C14_15 
REMARK    8  A    between atoms: C14_15  and  C15_17 
ROOT
HETATM    1  C10 UNL     1       0.387  -1.741  -1.612  1.00  0.00    -0.062 C 
HETATM    2  C11 UNL     1       0.089  -2.102  -3.011  1.00  0.00     0.048 C 
ENDROOT
BRANCH   1   3
HETATM    3  C9  UNL     1      -0.467  -2.019  -0.662  1.00  0.00     0.007 C 
HETATM    4  C8  UNL     1      -0.378  -1.760   0.754  1.00  0.00     0.001 C 
BRANCH   4   5
HETATM    5  C7  UNL     1      -1.277  -0.905   1.466  1.00  0.00     0.007 C 
HETATM    6  C5  UNL     1      -2.298  -0.122   1.195  1.00  0.00    -0.062 C 
HETATM    7  C6  UNL     1      -2.864   0.555   2.444  1.00  0.00     0.048 C 
BRANCH   6   8
HETATM    8  C4  UNL     1      -2.888   0.138  -0.078  1.00  0.00     0.010 C 
HETATM    9  C3  UNL     1      -3.848   0.831  -0.557  1.00  0.00     0.050 C 
BRANCH   9  10
HETATM   10  C2  UNL     1      -4.854   1.717  -0.118  1.00  0.00     0.145 C 
HETATM   11  C1  UNL     1      -5.837   2.342  -1.112  1.00  0.00     0.096 C 
HETATM   12  O1  UNL     1      -5.053   2.076   1.047  1.00  0.00    -0.294 OA
ENDBRANCH   9  10
ENDBRANCH   6   8
ENDBRANCH   4   5
ENDBRANCH   1   3
BRANCH   1  13
HETATM   13  C12 UNL     1       1.665  -1.059  -1.351  1.00  0.00     0.011 C 
BRANCH  13  14
HETATM   14  C13 UNL     1       2.512  -0.785  -2.299  1.00  0.00     0.058 C 
BRANCH  14  15
HETATM   15  C14 UNL     1       3.790  -0.134  -2.229  1.00  0.00     0.205 C 
HETATM   16  O2  UNL     1       4.501   0.055  -3.286  1.00  0.00    -0.285 OA
BRANCH  15  17
HETATM   17  C15 UNL     1       4.405   0.370  -0.990  1.00  0.00     0.124 A 
HETATM   18  N1  UNL     1       3.981   0.354   0.253  1.00  0.00    -0.351 N 
HETATM   19  C16 UNL     1       4.691   0.861   1.210  1.00  0.00     0.012 A 
ATOM     20  H1  UNL     1       3.076  -0.065   0.468  1.00  0.00     0.166 HD
HETATM   21  C17 UNL     1       4.222   0.853   2.652  1.00  0.00     0.068 C 
HETATM   22  C18 UNL     1       5.901   1.414   0.876  1.00  0.00     0.076 A 
HETATM   23  S1  UNL     1       5.935   1.164  -0.813  1.00  0.00    -0.078 SA
ENDBRANCH  15  17
ENDBRANCH  14  15
ENDBRANCH  13  14
ENDBRANCH   1  13
TORSDOF 8
