REMARK  7 active torsions:
REMARK  status: ('A' for Active; 'I' for Inactive)
REMARK    1  A    between atoms: C2_2  and  C3_3 
REMARK    2  A    between atoms: C3_3  and  S1_4 
REMARK    3  A    between atoms: S1_4  and  C4_5 
REMARK    4  A    between atoms: C4_5  and  C5_6 
REMARK    5  A    between atoms: C6_11  and  C7_12 
REMARK    6  A    between atoms: C7_12  and  C9_14 
REMARK    7  A    between atoms: N3_16  and  C11_17 
ROOT
HETATM    1  C5  UNL     1       1.387   0.582  -1.172  1.00  0.00     0.113 A 
HETATM    2  N1  UNL     1       2.173   1.697  -1.040  1.00  0.00    -0.286 N 
ATOM      3  H1  UNL     1       3.080   1.838  -1.484  1.00  0.00     0.188 HD
HETATM    4  N2  UNL     1       1.584   2.533  -0.268  1.00  0.00    -0.287 N 
ATOM      5  H2  UNL     1       1.934   3.449   0.011  1.00  0.00     0.188 HD
HETATM    6  C6  UNL     1       0.420   1.978   0.105  1.00  0.00     0.107 A 
HETATM    7  N3  UNL     1       0.264   0.731  -0.457  1.00  0.00    -0.294 N 
ENDROOT
BRANCH   7   8
HETATM    8  C11 UNL     1      -0.868  -0.087  -0.298  1.00  0.00     0.002 C 
HETATM    9  C12 UNL     1      -1.726  -0.382  -1.501  1.00  0.00     0.058 C 
HETATM   10  C13 UNL     1      -2.820  -1.319  -0.958  1.00  0.00    -0.009 C 
HETATM   11  C14 UNL     1      -3.188  -0.983   0.460  1.00  0.00     0.005 C 
HETATM   12  C18 UNL     1      -2.172  -2.716  -1.001  1.00  0.00     0.005 C 
HETATM   13  C15 UNL     1      -2.070  -1.351   1.447  1.00  0.00     0.011 C 
HETATM   14  C16 UNL     1      -0.784  -1.304   0.578  1.00  0.00     0.032 C 
HETATM   15  C17 UNL     1      -0.915  -2.612  -0.204  1.00  0.00     0.011 C 
ENDBRANCH   7   8
BRANCH   1  16
HETATM   16  C4  UNL     1       1.812  -0.497  -2.038  1.00  0.00     0.152 C 
BRANCH  16  17
HETATM   17  S1  UNL     1       3.270  -1.355  -1.398  1.00  0.00    -0.158 SA
BRANCH  17  18
HETATM   18  C3  UNL     1       2.937  -2.211   0.133  1.00  0.00     0.100 C 
BRANCH  18  19
HETATM   19  C2  UNL     1       4.225  -2.838   0.619  1.00  0.00    -0.027 C 
HETATM   20  C1  UNL     1       5.354  -2.695  -0.081  1.00  0.00     0.007 C 
ENDBRANCH  18  19
ENDBRANCH  17  18
ENDBRANCH  16  17
ENDBRANCH   1  16
BRANCH   6  21
HETATM   21  C7  UNL     1      -0.500   2.703   1.019  1.00  0.00     0.051 C 
HETATM   22  C8  UNL     1       0.091   2.575   2.440  1.00  0.00     0.018 C 
BRANCH  21  23
HETATM   23  C9  UNL     1      -0.507   4.195   0.736  1.00  0.00     0.007 C 
HETATM   24  C10 UNL     1      -0.942   4.544  -0.646  1.00  0.00     0.006 C 
ENDBRANCH  21  23
ENDBRANCH   6  21
TORSDOF 7
