REMARK  6 active torsions:
REMARK  status: ('A' for Active; 'I' for Inactive)
REMARK    1  A    between atoms: C2_2  and  C3_3 
REMARK    2  A    between atoms: C3_3  and  O1_4 
REMARK    3  A    between atoms: C3_3  and  C14_18 
REMARK    4  A    between atoms: O1_4  and  O2_5 
REMARK    5  A    between atoms: O2_5  and  C4_6 
REMARK    6  A    between atoms: C4_6  and  C5_7 
ROOT
HETATM    1  C5  UNL     1       0.543   0.900   0.229  1.00  0.00     0.012 C 
HETATM    2  C6  UNL     1       1.128  -0.278   0.939  1.00  0.00     0.009 C 
HETATM    3  C7  UNL     1       2.155  -0.937   0.057  1.00  0.00     0.032 C 
HETATM    4  C8  UNL     1       3.028   0.081  -0.653  1.00  0.00     0.056 C 
HETATM    5  C9  UNL     1       2.198   0.982  -1.552  1.00  0.00     0.032 C 
HETATM    6  C10 UNL     1       0.708   0.821  -1.272  1.00  0.00     0.009 C 
HETATM    7  S1  UNL     1       3.870   1.061   0.597  1.00  0.00    -0.148 SA
HETATM    8  C11 UNL     1       5.611   0.588   0.763  1.00  0.00     0.076 C 
HETATM    9  C12 UNL     1       5.806  -0.885   0.589  1.00  0.00     0.020 C 
HETATM   10  C13 UNL     1       5.656  -1.363  -0.811  1.00  0.00     0.076 C 
HETATM   11  S2  UNL     1       4.227  -0.770  -1.676  1.00  0.00    -0.148 SA
ENDROOT
BRANCH   1  12
HETATM   12  C4  UNL     1      -0.903   1.047   0.600  1.00  0.00     0.214 C 
BRANCH  12  13
HETATM   13  O2  UNL     1      -1.604  -0.088   0.243  1.00  0.00    -0.240 OA
BRANCH  13  14
HETATM   14  O1  UNL     1      -2.870   0.124   0.605  1.00  0.00    -0.235 OA
BRANCH  14  15
HETATM   15  C3  UNL     1      -3.756  -0.232  -0.398  1.00  0.00     0.164 C 
BRANCH  15  16
HETATM   16  C2  UNL     1      -4.618  -1.410   0.062  1.00  0.00     0.031 C 
HETATM   17  C1  UNL     1      -3.781  -2.603   0.392  1.00  0.00     0.007 C 
ENDBRANCH  15  16
BRANCH  15  18
HETATM   18  C14 UNL     1      -4.642   0.908  -0.816  1.00  0.00     0.018 A 
HETATM   19  C15 UNL     1      -5.556   1.458   0.224  1.00  0.00     0.007 A 
HETATM   20  C16 UNL     1      -4.433   2.281  -0.341  1.00  0.00     0.007 A 
ENDBRANCH  15  18
ENDBRANCH  14  15
ENDBRANCH  13  14
ENDBRANCH  12  13
ENDBRANCH   1  12
TORSDOF 6
