REMARK  7 active torsions:
REMARK  status: ('A' for Active; 'I' for Inactive)
REMARK    1  A    between atoms: C1_1  and  C9_9 
REMARK    2  A    between atoms: C2_2  and  C3_3 
REMARK    3  A    between atoms: C9_9  and  S1_10 
REMARK    4  A    between atoms: S1_10  and  S2_11 
REMARK    5  A    between atoms: S2_11  and  S3_12 
REMARK    6  A    between atoms: S3_12  and  C10_13 
REMARK    7  A    between atoms: C10_13  and  C11_14 
ROOT
HETATM    1  S1  UNL     1      -0.939   1.414  -2.219  1.00  0.00    -0.082 SA
ENDROOT
BRANCH   1   2
HETATM    2  C9  UNL     1      -1.309   2.177  -0.622  1.00  0.00     0.114 C 
BRANCH   2   3
HETATM    3  C1  UNL     1      -2.452   1.476  -0.020  1.00  0.00    -0.015 C 
HETATM    4  C2  UNL     1      -3.048   0.496  -0.648  1.00  0.00     0.008 C 
BRANCH   4   5
HETATM    5  C3  UNL     1      -4.195  -0.251  -0.106  1.00  0.00    -0.036 A 
HETATM    6  C4  UNL     1      -4.750  -1.273  -0.858  1.00  0.00     0.011 A 
HETATM    7  C5  UNL     1      -5.814  -1.964  -0.351  1.00  0.00     0.001 A 
HETATM    8  C6  UNL     1      -6.364  -1.687   0.882  1.00  0.00     0.000 A 
HETATM    9  C7  UNL     1      -5.786  -0.666   1.597  1.00  0.00     0.001 A 
HETATM   10  C8  UNL     1      -4.699   0.068   1.124  1.00  0.00     0.011 A 
ENDBRANCH   4   5
ENDBRANCH   2   3
ENDBRANCH   1   2
BRANCH   1  11
HETATM   11  S2  UNL     1      -0.172  -0.553  -1.808  1.00  0.00    -0.025 SA
BRANCH  11  12
HETATM   12  S3  UNL     1       1.926  -0.436  -1.603  1.00  0.00    -0.083 SA
BRANCH  12  13
HETATM   13  C10 UNL     1       2.435  -0.126   0.090  1.00  0.00     0.125 C 
BRANCH  13  14
HETATM   14  C11 UNL     1       3.868  -0.034   0.304  1.00  0.00     0.073 C 
HETATM   15  C12 UNL     1       4.757  -1.193  -0.023  1.00  0.00     0.041 C 
HETATM   16  C13 UNL     1       6.091  -0.568   0.449  1.00  0.00     0.035 C 
HETATM   17  C14 UNL     1       5.507   0.806   0.808  1.00  0.00     0.125 C 
HETATM   18  C15 UNL     1       4.614   1.117  -0.370  1.00  0.00     0.071 C 
HETATM   19  O1  UNL     1       4.345   0.478   1.505  1.00  0.00    -0.374 OA
ENDBRANCH  13  14
ENDBRANCH  12  13
ENDBRANCH  11  12
ENDBRANCH   1  11
TORSDOF 7
