REMARK  20 active torsions:
REMARK  status: ('A' for Active; 'I' for Inactive)
REMARK    1  A    between atoms: C2_2  and  C3_3 
REMARK    2  A    between atoms: C3_3  and  O1_5 
REMARK    3  A    between atoms: C3_3  and  C5_7 
REMARK    4  A    between atoms: C5_7  and  C7_9 
REMARK    5  A    between atoms: C7_9  and  C8_10 
REMARK    6  A    between atoms: C8_10  and  C9_11 
REMARK    7  A    between atoms: C9_11  and  C11_13 
REMARK    8  A    between atoms: C13_15  and  O2_16 
REMARK    9  A    between atoms: C24_28  and  O3_29 
REMARK   10  A    between atoms: C27_33  and  C28_34 
REMARK   11  A    between atoms: C28_34  and  O4_35 
REMARK   12  A    between atoms: C28_34  and  C29_37 
REMARK   13  A    between atoms: C29_37  and  O5_38 
REMARK   14  A    between atoms: C29_37  and  N1_40 
REMARK   15  A    between atoms: N1_40  and  C30_42 
REMARK   16  A    between atoms: C30_42  and  O6_43 
REMARK   17  A    between atoms: C30_42  and  C31_45 
REMARK   18  A    between atoms: C32_48  and  O9_49 
REMARK   19  A    between atoms: C33_51  and  C34_52 
REMARK   20  A    between atoms: C34_52  and  O10_53 
ROOT
HETATM    1  C11 UNL     1       1.688  -1.004   0.199  1.00  0.00     0.001 C 
HETATM    2  C12 UNL     1       1.055  -0.120  -0.796  1.00  0.00     0.038 C 
HETATM    3  C13 UNL     1      -0.270  -0.421  -1.356  1.00  0.00     0.128 C 
HETATM    4  C14 UNL     1      -0.905  -1.747  -1.238  1.00  0.00     0.005 C 
HETATM    5  C15 UNL     1      -0.943  -2.204  -2.712  1.00  0.00     0.020 C 
HETATM    6  C16 UNL     1      -0.036  -2.677  -0.470  1.00  0.00    -0.021 C 
HETATM    7  C17 UNL     1       0.996  -3.255  -1.424  1.00  0.00     0.017 C 
HETATM    8  C18 UNL     1      -0.701  -3.709   0.349  1.00  0.00     0.008 A 
HETATM    9  C19 UNL     1      -1.144  -3.943   1.715  1.00  0.00     0.019 A 
HETATM   10  C20 UNL     1      -1.399  -2.714   1.112  1.00  0.00    -0.003 A 
HETATM   11  C21 UNL     1      -0.364  -1.642   1.521  1.00  0.00     0.023 C 
HETATM   12  C22 UNL     1       0.790  -2.050   0.651  1.00  0.00    -0.031 C 
HETATM   13  C23 UNL     1       1.614  -3.181   1.244  1.00  0.00     0.016 C 
HETATM   14  C24 UNL     1      -2.685  -2.233   0.514  1.00  0.00     0.079 C 
HETATM   15  C25 UNL     1      -3.365  -1.358   1.476  1.00  0.00     0.040 C 
HETATM   16  C26 UNL     1      -4.299  -0.327   0.875  1.00  0.00     0.013 C 
HETATM   17  C27 UNL     1      -3.502   0.423  -0.118  1.00  0.00     0.048 C 
HETATM   18  C32 UNL     1      -3.089  -0.463  -1.237  1.00  0.00     0.139 C 
HETATM   19  C33 UNL     1      -2.405  -1.761  -0.874  1.00  0.00     0.049 C 
ENDROOT
BRANCH  17  20
HETATM   20  C28 UNL     1      -4.119   1.660  -0.693  1.00  0.00     0.173 C 
BRANCH  20  21
HETATM   21  O4  UNL     1      -5.302   1.497  -1.359  1.00  0.00    -0.391 OA
ATOM     22  H4  UNL     1      -5.694   2.282  -1.724  1.00  0.00     0.210 HD
ENDBRANCH  20  21
BRANCH  20  23
HETATM   23  C29 UNL     1      -4.242   2.821   0.269  1.00  0.00     0.245 C 
BRANCH  23  24
HETATM   24  O5  UNL     1      -4.326   3.985  -0.486  1.00  0.00    -0.374 OA
ATOM     25  H5  UNL     1      -4.403   4.714   0.118  1.00  0.00     0.212 HD
ENDBRANCH  23  24
BRANCH  23  26
HETATM   26  N1  UNL     1      -5.220   2.753   1.246  1.00  0.00    -0.361 N 
ATOM     27  H1  UNL     1      -4.905   2.742   2.216  1.00  0.00     0.158 HD
BRANCH  26  28
HETATM   28  C30 UNL     1      -6.589   2.698   1.028  1.00  0.00     0.319 C 
BRANCH  28  29
HETATM   29  O6  UNL     1      -7.227   2.544   2.304  1.00  0.00    -0.367 OA
ATOM     30  H6  UNL     1      -8.164   2.506   2.155  1.00  0.00     0.212 HD
ENDBRANCH  28  29
BRANCH  28  31
HETATM   31  C31 UNL     1      -7.257   3.863   0.417  1.00  0.00     0.223 C 
HETATM   32  O7  UNL     1      -7.060   4.266  -0.758  1.00  0.00    -0.645 OA
HETATM   33  O8  UNL     1      -8.194   4.635   1.126  1.00  0.00    -0.645 OA
ENDBRANCH  28  31
ENDBRANCH  26  28
ENDBRANCH  23  26
ENDBRANCH  20  23
ENDBRANCH  17  20
BRANCH  18  34
HETATM   34  O9  UNL     1      -4.271  -0.628  -2.015  1.00  0.00    -0.394 OA
ATOM     35  H9  UNL     1      -4.007  -1.194  -2.730  1.00  0.00     0.210 HD
ENDBRANCH  18  34
BRANCH  19  36
HETATM   36  C34 UNL     1      -3.208  -2.741  -1.749  1.00  0.00     0.180 C 
BRANCH  36  37
HETATM   37  O10 UNL     1      -2.940  -4.039  -1.764  1.00  0.00    -0.400 OA
ATOM     38  H10 UNL     1      -3.435  -4.644  -2.304  1.00  0.00     0.209 HD
ENDBRANCH  36  37
ENDBRANCH  19  36
BRANCH  14  39
HETATM   39  O3  UNL     1      -3.461  -3.438   0.538  1.00  0.00    -0.388 OA
ATOM     40  H3  UNL     1      -4.277  -3.133   0.159  1.00  0.00     0.210 HD
ENDBRANCH  14  39
BRANCH   3  41
HETATM   41  O2  UNL     1      -0.208   0.062  -2.710  1.00  0.00    -0.395 OA
ATOM     42  H2  UNL     1      -1.065  -0.133  -3.072  1.00  0.00     0.210 HD
ENDBRANCH   3  41
BRANCH   1  43
HETATM   43  C9  UNL     1       2.410  -0.135   1.155  1.00  0.00    -0.014 C 
HETATM   44  C10 UNL     1       3.033  -0.734   2.341  1.00  0.00     0.010 C 
BRANCH  43  45
HETATM   45  C8  UNL     1       3.472   0.615   0.377  1.00  0.00     0.005 C 
BRANCH  45  46
HETATM   46  C7  UNL     1       4.143   1.715   1.120  1.00  0.00     0.007 C 
BRANCH  46  47
HETATM   47  C5  UNL     1       5.181   2.443   0.301  1.00  0.00     0.015 C 
HETATM   48  C6  UNL     1       4.604   3.297  -0.796  1.00  0.00     0.013 C 
BRANCH  47  49
HETATM   49  C3  UNL     1       6.303   1.617  -0.202  1.00  0.00     0.057 C 
HETATM   50  C4  UNL     1       6.874   0.614   0.733  1.00  0.00     0.046 C 
BRANCH  49  51
HETATM   51  C2  UNL     1       7.410   2.513  -0.735  1.00  0.00     0.033 C 
HETATM   52  C1  UNL     1       8.139   3.260   0.327  1.00  0.00     0.008 C 
ENDBRANCH  49  51
BRANCH  49  53
HETATM   53  O1  UNL     1       5.843   0.913  -1.336  1.00  0.00    -0.390 OA
ATOM     54  H1  UNL     1       5.151   0.353  -1.003  1.00  0.00     0.210 HD
ENDBRANCH  49  53
ENDBRANCH  47  49
ENDBRANCH  46  47
ENDBRANCH  45  46
ENDBRANCH  43  45
ENDBRANCH   1  43
TORSDOF 20
