REMARK  19 active torsions:
REMARK  status: ('A' for Active; 'I' for Inactive)
REMARK    1  A    between atoms: C2_2  and  C3_3 
REMARK    2  A    between atoms: C3_3  and  N1_4 
REMARK    3  A    between atoms: C4_6  and  O1_7 
REMARK    4  A    between atoms: C4_6  and  C6_9 
REMARK    5  A    between atoms: C6_9  and  N2_10 
REMARK    6  A    between atoms: C6_9  and  C14_22 
REMARK    7  A    between atoms: N2_10  and  C7_13 
REMARK    8  A    between atoms: C7_13  and  C9_16 
REMARK    9  A    between atoms: C9_16  and  C10_18 
REMARK       I    between atoms: C14_22  and  N4_24 
REMARK   10  A    between atoms: N4_24  and  C15_26 
REMARK   11  A    between atoms: C15_26  and  C16_27 
REMARK   12  A    between atoms: C15_26  and  C20_31 
REMARK   13  A    between atoms: C16_27  and  C17_28 
REMARK       I    between atoms: C20_31  and  N5_33 
REMARK   14  A    between atoms: N5_33  and  C21_35 
REMARK   15  A    between atoms: C21_35  and  C22_36 
REMARK   16  A    between atoms: C21_35  and  C29_51 
REMARK       I    between atoms: C22_36  and  N6_38 
REMARK   17  A    between atoms: N6_38  and  C23_40 
REMARK   18  A    between atoms: C23_40  and  C24_41 
REMARK   19  A    between atoms: C25_44  and  C26_45 
ROOT
HETATM    1  C7  UNL     1      -5.731  -0.005  -1.562  1.00  0.00     0.362 C 
HETATM    2  C8  UNL     1      -6.510  -1.035  -0.893  1.00  0.00     0.100 C 
HETATM    3  N3  UNL     1      -7.109  -1.863  -0.348  1.00  0.00    -0.195 NA
ENDROOT
BRANCH   1   4
HETATM    4  N2  UNL     1      -4.366  -0.461  -1.668  1.00  0.00    -0.031 N 
ATOM      5  H22 UNL     1      -3.824   0.149  -2.280  1.00  0.00     0.280 HD
ATOM      6  H21 UNL     1      -4.311  -1.327  -2.205  1.00  0.00     0.280 HD
BRANCH   4   7
HETATM    7  C6  UNL     1      -3.725  -0.607  -0.389  1.00  0.00     0.352 C 
BRANCH   7   8
HETATM    8  C4  UNL     1      -3.618   0.643   0.380  1.00  0.00     0.154 C 
HETATM    9  N1  UNL     1      -4.072   0.868   1.545  1.00  0.00    -0.369 N 
ATOM     10  H1  UNL     1      -3.888   1.808   1.896  1.00  0.00     0.161 HD
BRANCH   9  11
HETATM   11  C3  UNL     1      -4.788   0.040   2.438  1.00  0.00     0.148 C 
BRANCH  11  12
HETATM   12  C2  UNL     1      -5.869   0.867   3.085  1.00  0.00    -0.018 C 
HETATM   13  C1  UNL     1      -7.140   0.528   2.948  1.00  0.00     0.008 C 
ENDBRANCH  11  12
ENDBRANCH   9  11
BRANCH   8  14
HETATM   14  O1  UNL     1      -2.941   1.739  -0.211  1.00  0.00    -0.342 OA
HETATM   15  C5  UNL     1      -2.416   2.761   0.592  1.00  0.00     0.211 C 
ENDBRANCH   8  14
ENDBRANCH   7   8
BRANCH   7  16
HETATM   16  C14 UNL     1      -2.339  -1.121  -0.625  1.00  0.00     0.257 C 
HETATM   17  O3  UNL     1      -2.045  -1.511  -1.784  1.00  0.00    -0.271 OA
HETATM   18  N4  UNL     1      -1.391  -1.164   0.420  1.00  0.00    -0.346 N 
ATOM     19  H4  UNL     1      -1.691  -0.820   1.332  1.00  0.00     0.163 HD
BRANCH  18  20
HETATM   20  C15 UNL     1      -0.030  -1.653   0.315  1.00  0.00     0.177 C 
BRANCH  20  21
HETATM   21  C16 UNL     1       0.520  -2.052   1.638  1.00  0.00     0.038 C 
BRANCH  21  22
HETATM   22  C17 UNL     1      -0.246  -3.143   2.325  1.00  0.00    -0.020 C 
HETATM   23  C18 UNL     1       0.410  -3.433   3.659  1.00  0.00     0.009 C 
HETATM   24  C19 UNL     1      -0.276  -4.435   1.561  1.00  0.00     0.009 C 
ENDBRANCH  21  22
ENDBRANCH  20  21
BRANCH  20  25
HETATM   25  C20 UNL     1       0.828  -0.511  -0.195  1.00  0.00     0.241 C 
HETATM   26  O4  UNL     1       0.289   0.580  -0.505  1.00  0.00    -0.271 OA
HETATM   27  N5  UNL     1       2.229  -0.622  -0.338  1.00  0.00    -0.345 N 
ATOM     28  H5  UNL     1       2.687  -1.497  -0.081  1.00  0.00     0.163 HD
BRANCH  27  29
HETATM   29  C21 UNL     1       3.053   0.503  -0.853  1.00  0.00     0.184 C 
BRANCH  29  30
HETATM   30  C22 UNL     1       3.707   1.178   0.294  1.00  0.00     0.241 C 
HETATM   31  O5  UNL     1       3.566   0.677   1.432  1.00  0.00    -0.271 OA
HETATM   32  N6  UNL     1       4.471   2.355   0.155  1.00  0.00    -0.352 N 
ATOM     33  H6  UNL     1       4.584   2.775  -0.768  1.00  0.00     0.162 HD
BRANCH  32  34
HETATM   34  C23 UNL     1       5.094   2.973   1.295  1.00  0.00     0.209 C 
BRANCH  34  35
HETATM   35  C24 UNL     1       6.055   2.081   1.949  1.00  0.00     0.166 A 
HETATM   36  N7  UNL     1       7.355   1.865   1.626  1.00  0.00    -0.325 N 
HETATM   37  C25 UNL     1       7.848   0.981   2.490  1.00  0.00     0.107 A 
ATOM     38  H7  UNL     1       7.864   2.302   0.858  1.00  0.00     0.169 HD
HETATM   39  N8  UNL     1       6.870   0.651   3.335  1.00  0.00    -0.247 N 
HETATM   40  O6  UNL     1       5.823   1.319   2.988  1.00  0.00    -0.221 OA
ATOM     41  H8  UNL     1       6.938  -0.007   4.111  1.00  0.00     0.196 HD
BRANCH  37  42
HETATM   42  C26 UNL     1       9.255   0.467   2.501  1.00  0.00     0.047 C 
HETATM   43  C27 UNL     1      10.168   1.672   2.558  1.00  0.00     0.017 C 
HETATM   44  C28 UNL     1       9.452  -0.325   1.233  1.00  0.00     0.017 C 
ENDBRANCH  37  42
ENDBRANCH  34  35
ENDBRANCH  32  34
ENDBRANCH  29  30
BRANCH  29  45
HETATM   45  C29 UNL     1       4.027  -0.125  -1.781  1.00  0.00    -0.022 C 
HETATM   46  C30 UNL     1       3.231  -0.830  -2.873  1.00  0.00     0.017 C 
HETATM   47  C31 UNL     1       4.926  -1.128  -1.068  1.00  0.00     0.017 C 
HETATM   48  C32 UNL     1       4.938   0.844  -2.480  1.00  0.00     0.017 C 
ENDBRANCH  29  45
ENDBRANCH  27  29
ENDBRANCH  20  25
ENDBRANCH  18  20
ENDBRANCH   7  16
ENDBRANCH   4   7
ENDBRANCH   1   4
BRANCH   1  49
HETATM   49  C9  UNL     1      -6.225   0.329  -2.921  1.00  0.00     0.178 C 
HETATM   50  O2  UNL     1      -5.482   0.087  -3.860  1.00  0.00    -0.294 OA
BRANCH  49  51
HETATM   51  C10 UNL     1      -7.555   0.938  -3.192  1.00  0.00     0.013 C 
HETATM   52  C11 UNL     1      -7.689   1.105  -4.697  1.00  0.00     0.022 C 
HETATM   53  C12 UNL     1      -8.694   0.136  -2.645  1.00  0.00     0.022 C 
HETATM   54  C13 UNL     1      -7.644   2.324  -2.557  1.00  0.00     0.022 C 
ENDBRANCH  49  51
ENDBRANCH   1  49
TORSDOF 19
