REMARK  19 active torsions:
REMARK  status: ('A' for Active; 'I' for Inactive)
REMARK       I    between atoms: N1_2  and  C2_4 
REMARK    1  A    between atoms: C2_4  and  C3_6 
REMARK    2  A    between atoms: C5_8  and  C6_9 
REMARK    3  A    between atoms: C6_9  and  O2_10 
REMARK    4  A    between atoms: C6_9  and  O3_12 
REMARK    5  A    between atoms: O3_12  and  C7_13 
REMARK    6  A    between atoms: C8_14  and  C9_15 
REMARK    7  A    between atoms: C9_15  and  C10_16 
REMARK    8  A    between atoms: C10_16  and  C11_17 
REMARK    9  A    between atoms: C11_17  and  C12_18 
REMARK   10  A    between atoms: C12_18  and  C13_19 
REMARK   11  A    between atoms: C13_19  and  C14_20 
REMARK   12  A    between atoms: C14_20  and  C15_21 
REMARK   13  A    between atoms: C15_21  and  C16_22 
REMARK   14  A    between atoms: C16_22  and  C17_23 
REMARK   15  A    between atoms: C17_23  and  O4_24 
REMARK   16  A    between atoms: C22_31  and  C23_32 
REMARK   17  A    between atoms: C25_34  and  N2_35 
REMARK       I    between atoms: N2_35  and  C26_37 
REMARK   18  A    between atoms: C26_37  and  C27_39 
REMARK   19  A    between atoms: C27_39  and  O7_40 
ROOT
HETATM    1  C7  UNL     1       0.887  -2.271  -0.794  1.00  0.00     0.162 C 
HETATM    2  C8  UNL     1       1.541  -0.922  -0.943  1.00  0.00     0.152 C 
HETATM    3  O5  UNL     1       0.969   0.131  -0.343  1.00  0.00    -0.372 OA
HETATM    4  C18 UNL     1       0.039  -0.054   0.629  1.00  0.00     0.066 C 
HETATM    5  C19 UNL     1       0.629  -0.006   2.037  1.00  0.00     0.047 C 
HETATM    6  C20 UNL     1      -0.905   1.135   0.540  1.00  0.00     0.023 C 
HETATM    7  C21 UNL     1      -0.331   2.384   1.126  1.00  0.00     0.013 C 
HETATM    8  C22 UNL     1      -2.130   0.624   1.219  1.00  0.00     0.022 C 
HETATM    9  C30 UNL     1      -2.287  -0.744   0.589  1.00  0.00     0.016 C 
HETATM   10  C31 UNL     1      -0.871  -1.212   0.464  1.00  0.00     0.031 C 
HETATM   11  C32 UNL     1      -0.607  -2.015  -0.775  1.00  0.00    -0.013 C 
HETATM   12  C33 UNL     1      -1.002  -1.314  -2.048  1.00  0.00     0.018 C 
HETATM   13  C34 UNL     1      -1.435  -3.263  -0.690  1.00  0.00     0.018 C 
ENDROOT
BRANCH   8  14
HETATM   14  C23 UNL     1      -3.361   1.448   0.907  1.00  0.00     0.139 C 
HETATM   15  C24 UNL     1      -4.526   0.837   1.638  1.00  0.00     0.068 C 
HETATM   16  C25 UNL     1      -5.076   1.953   2.473  1.00  0.00     0.186 C 
HETATM   17  C29 UNL     1      -3.935   2.892   2.557  1.00  0.00     0.282 C 
HETATM   18  O8  UNL     1      -3.628   3.669   3.517  1.00  0.00    -0.263 OA
HETATM   19  O9  UNL     1      -3.237   2.770   1.364  1.00  0.00    -0.314 OA
BRANCH  16  20
HETATM   20  N2  UNL     1      -6.255   2.581   1.900  1.00  0.00    -0.345 N 
HETATM   21  C26 UNL     1      -7.506   2.606   2.505  1.00  0.00     0.242 C 
HETATM   22  O6  UNL     1      -7.648   2.058   3.638  1.00  0.00    -0.271 OA
ATOM     23  H2  UNL     1      -6.158   3.034   0.992  1.00  0.00     0.163 HD
BRANCH  21  24
HETATM   24  C27 UNL     1      -8.677   3.240   1.907  1.00  0.00     0.269 C 
BRANCH  24  25
HETATM   25  O7  UNL     1      -8.503   3.507   0.570  1.00  0.00    -0.387 OA
HETATM   26  C28 UNL     1      -8.483   2.377  -0.200  1.00  0.00     0.202 C 
ENDBRANCH  24  25
ENDBRANCH  21  24
ENDBRANCH  16  20
ENDBRANCH   8  14
BRANCH   2  27
HETATM   27  C9  UNL     1       3.016  -0.924  -0.601  1.00  0.00     0.034 C 
BRANCH  27  28
HETATM   28  C10 UNL     1       3.513   0.514  -0.790  1.00  0.00     0.002 C 
BRANCH  28  29
HETATM   29  C11 UNL     1       3.352   1.027  -2.174  1.00  0.00     0.000 C 
BRANCH  29  30
HETATM   30  C12 UNL     1       3.841   2.456  -2.287  1.00  0.00     0.000 C 
BRANCH  30  31
HETATM   31  C13 UNL     1       5.281   2.611  -1.935  1.00  0.00     0.000 C 
BRANCH  31  32
HETATM   32  C14 UNL     1       5.798   4.037  -2.063  1.00  0.00     0.000 C 
BRANCH  32  33
HETATM   33  C15 UNL     1       5.058   4.960  -1.159  1.00  0.00     0.002 C 
BRANCH  33  34
HETATM   34  C16 UNL     1       5.421   6.392  -1.193  1.00  0.00     0.026 C 
BRANCH  34  35
HETATM   35  C17 UNL     1       6.827   6.704  -0.841  1.00  0.00     0.164 C 
BRANCH  35  36
HETATM   36  O4  UNL     1       7.739   6.140  -1.709  1.00  0.00    -0.401 OA
ATOM     37  H4  UNL     1       8.640   6.340  -1.483  1.00  0.00     0.209 HD
ENDBRANCH  35  36
ENDBRANCH  34  35
ENDBRANCH  33  34
ENDBRANCH  32  33
ENDBRANCH  31  32
ENDBRANCH  30  31
ENDBRANCH  29  30
ENDBRANCH  28  29
ENDBRANCH  27  28
ENDBRANCH   2  27
BRANCH   1  38
HETATM   38  O3  UNL     1       1.376  -2.889   0.321  1.00  0.00    -0.349 OA
BRANCH  38  39
HETATM   39  C6  UNL     1       2.017  -4.108   0.106  1.00  0.00     0.282 C 
BRANCH  39  40
HETATM   40  C5  UNL     1       1.487  -5.193   0.909  1.00  0.00     0.045 C 
HETATM   41  C3  UNL     1       0.861  -6.242   0.520  1.00  0.00     0.006 C 
HETATM   42  C4  UNL     1       0.391  -7.276   1.559  1.00  0.00     0.054 C 
BRANCH  41  43
HETATM   43  C2  UNL     1       0.531  -6.593  -0.833  1.00  0.00     0.246 C 
HETATM   44  N1  UNL     1      -0.185  -7.838  -1.080  1.00  0.00    -0.361 N 
HETATM   45  C1  UNL     1      -0.541  -8.232  -2.421  1.00  0.00     0.149 C 
ATOM     46  H1  UNL     1      -0.437  -8.438  -0.295  1.00  0.00     0.162 HD
HETATM   47  O1  UNL     1       0.784  -5.947  -1.872  1.00  0.00    -0.268 OA
ENDBRANCH  41  43
ENDBRANCH  39  40
BRANCH  39  48
HETATM   48  O2  UNL     1       3.392  -3.996   0.411  1.00  0.00    -0.368 OA
ATOM     49  H2  UNL     1       3.739  -3.285  -0.115  1.00  0.00     0.213 HD
ENDBRANCH  39  48
ENDBRANCH  38  39
ENDBRANCH   1  38
TORSDOF 19
