REMARK  17 active torsions:
REMARK  status: ('A' for Active; 'I' for Inactive)
REMARK    1  A    between atoms: C3_4  and  C4_5 
REMARK    2  A    between atoms: C4_5  and  C5_6 
REMARK    3  A    between atoms: C5_6  and  C6_7 
REMARK    4  A    between atoms: C6_7  and  C7_8 
REMARK    5  A    between atoms: C7_8  and  C8_9 
REMARK    6  A    between atoms: C9_14  and  N4_15 
REMARK    7  A    between atoms: C10_17  and  C11_18 
REMARK    8  A    between atoms: C11_18  and  C12_19 
REMARK    9  A    between atoms: C12_19  and  N5_20 
REMARK       I    between atoms: N5_20  and  C13_22 
REMARK   10  A    between atoms: C13_22  and  C14_24 
REMARK   11  A    between atoms: C16_27  and  C17_28 
REMARK   12  A    between atoms: C17_28  and  C18_29 
REMARK   13  A    between atoms: C18_29  and  C19_30 
REMARK   14  A    between atoms: C19_30  and  C20_31 
REMARK   15  A    between atoms: C20_31  and  N6_32 
REMARK   16  A    between atoms: C20_31  and  C21_36 
REMARK   17  A    between atoms: C21_36  and  C22_37 
ROOT
HETATM    1  N5  UNL     1      -1.433   1.372  -1.003  1.00  0.00    -0.355 N 
ATOM      2  H5  UNL     1      -0.757   1.361  -0.240  1.00  0.00     0.162 HD
HETATM    3  C13 UNL     1      -2.811   1.420  -0.676  1.00  0.00     0.268 C 
HETATM    4  O1  UNL     1      -3.617   1.435  -1.640  1.00  0.00    -0.266 OA
ENDROOT
BRANCH   1   5
HETATM    5  C12 UNL     1      -0.939   1.338  -2.343  1.00  0.00     0.128 C 
BRANCH   5   6
HETATM    6  C11 UNL     1       0.602   1.313  -2.332  1.00  0.00     0.064 C 
BRANCH   6   7
HETATM    7  C10 UNL     1       1.120   2.558  -1.684  1.00  0.00     0.064 C 
HETATM    8  N4  UNL     1       2.462   2.770  -1.562  1.00  0.00    -0.350 N 
ATOM      9  H4  UNL     1       2.607   3.711  -1.196  1.00  0.00     0.166 HD
BRANCH   8  10
HETATM   10  C9  UNL     1       3.550   2.251  -1.729  1.00  0.00     0.189 A 
HETATM   11  N3  UNL     1       3.773   1.020  -2.195  1.00  0.00    -0.280 N 
HETATM   12  N2  UNL     1       5.025   0.540  -2.328  1.00  0.00    -0.287 N 
ATOM     13  H3  UNL     1       2.981   0.432  -2.455  1.00  0.00     0.189 HD
HETATM   14  C8  UNL     1       6.110   1.240  -2.013  1.00  0.00     0.098 A 
ATOM     15  H2  UNL     1       5.146  -0.407  -2.688  1.00  0.00     0.188 HD
HETATM   16  N8  UNL     1       5.950   2.492  -1.537  1.00  0.00    -0.309 N 
HETATM   17  C29 UNL     1       4.719   2.978  -1.400  1.00  0.00     0.292 A 
ATOM     18  H8  UNL     1       6.761   3.058  -1.286  1.00  0.00     0.170 HD
HETATM   19  O4  UNL     1       4.551   4.153  -0.955  1.00  0.00    -0.264 OA
BRANCH  14  20
HETATM   20  C7  UNL     1       7.424   0.597  -2.218  1.00  0.00     0.078 C 
BRANCH  20  21
HETATM   21  C6  UNL     1       7.833  -0.183  -0.995  1.00  0.00     0.008 C 
BRANCH  21  22
HETATM   22  C5  UNL     1       7.935   0.738   0.177  1.00  0.00     0.005 C 
BRANCH  22  23
HETATM   23  C4  UNL     1       8.347   0.039   1.464  1.00  0.00     0.040 C 
BRANCH  23  24
HETATM   24  C3  UNL     1       9.661  -0.592   1.285  1.00  0.00    -0.042 A 
HETATM   25  C2  UNL     1       9.739  -1.904   0.882  1.00  0.00     0.100 A 
HETATM   26  N1  UNL     1      10.947  -2.494   0.712  1.00  0.00    -0.329 N 
HETATM   27  C1  UNL     1      10.997  -3.880   0.286  1.00  0.00     0.159 C 
HETATM   28  C32 UNL     1      12.090  -1.818   0.932  1.00  0.00     0.246 A 
HETATM   29  C31 UNL     1      12.057  -0.494   1.339  1.00  0.00     0.075 A 
HETATM   30  O5  UNL     1      13.210  -2.403   0.763  1.00  0.00    -0.268 OA
HETATM   31  C30 UNL     1      10.812   0.122   1.516  1.00  0.00     0.014 A 
ENDBRANCH  23  24
ENDBRANCH  22  23
ENDBRANCH  21  22
ENDBRANCH  20  21
ENDBRANCH  14  20
ENDBRANCH   8  10
ENDBRANCH   6   7
ENDBRANCH   5   6
ENDBRANCH   1   5
BRANCH   3  32
HETATM   32  C14 UNL     1      -3.266   1.451   0.741  1.00  0.00     0.107 A 
HETATM   33  C15 UNL     1      -2.359   1.385   1.770  1.00  0.00     0.086 A 
HETATM   34  S1  UNL     1      -3.390   1.463   3.137  1.00  0.00    -0.086 SA
HETATM   35  C16 UNL     1      -4.882   1.573   2.317  1.00  0.00     0.051 A 
HETATM   36  N7  UNL     1      -4.521   1.544   1.055  1.00  0.00    -0.349 N 
ATOM     37  H7  UNL     1      -5.228   1.595   0.321  1.00  0.00     0.166 HD
BRANCH  35  38
HETATM   38  C17 UNL     1      -6.233   1.678   2.959  1.00  0.00     0.065 C 
BRANCH  38  39
HETATM   39  C18 UNL     1      -6.807   0.298   3.178  1.00  0.00     0.008 C 
BRANCH  39  40
HETATM   40  C19 UNL     1      -6.983  -0.453   1.892  1.00  0.00     0.033 C 
BRANCH  40  41
HETATM   41  C20 UNL     1      -7.560  -1.831   2.111  1.00  0.00     0.187 C 
BRANCH  41  42
HETATM   42  N6  UNL     1      -8.861  -1.768   2.753  1.00  0.00    -0.075 N 
ATOM     43  H63 UNL     1      -8.822  -1.237   3.623  1.00  0.00     0.274 HD
ATOM     44  H62 UNL     1      -9.505  -1.172   2.233  1.00  0.00     0.274 HD
ATOM     45  H61 UNL     1      -9.251  -2.699   2.901  1.00  0.00     0.274 HD
ENDBRANCH  41  42
BRANCH  41  46
HETATM   46  C21 UNL     1      -7.688  -2.614   0.842  1.00  0.00     0.071 C 
BRANCH  46  47
HETATM   47  C22 UNL     1      -8.569  -1.946  -0.152  1.00  0.00    -0.053 A 
HETATM   48  C23 UNL     1      -8.090  -1.074  -1.106  1.00  0.00     0.010 A 
HETATM   49  C24 UNL     1      -8.888  -0.435  -2.031  1.00  0.00     0.040 A 
HETATM   50  C25 UNL     1     -10.252  -0.686  -1.998  1.00  0.00     0.105 A 
HETATM   51  C26 UNL     1     -10.758  -1.550  -1.058  1.00  0.00     0.105 A 
HETATM   52  O3  UNL     1     -11.335  -0.230  -2.757  1.00  0.00    -0.323 OA
HETATM   53  C27 UNL     1      -9.935  -2.178  -0.141  1.00  0.00     0.047 A 
HETATM   54  O2  UNL     1     -12.139  -1.604  -1.263  1.00  0.00    -0.323 OA
HETATM   55  C28 UNL     1     -12.535  -0.443  -2.011  1.00  0.00     0.352 C 
ENDBRANCH  46  47
ENDBRANCH  41  46
ENDBRANCH  40  41
ENDBRANCH  39  40
ENDBRANCH  38  39
ENDBRANCH  35  38
ENDBRANCH   3  32
TORSDOF 17
