REMARK  3 active torsions:
REMARK  status: ('A' for Active; 'I' for Inactive)
REMARK    1  A    between atoms: N1_1  and  C1_5 
REMARK    2  A    between atoms: C1_5  and  O1_6 
REMARK    3  A    between atoms: O1_6  and  C2_7 
ROOT
HETATM    1  C2  UNL     1      -0.667  -0.351   0.526  1.00  0.00     0.145 C 
HETATM    2  C3  UNL     1      -1.049   0.795  -0.126  1.00  0.00     0.117 C 
HETATM    3  C4  UNL     1      -2.289   1.230  -0.539  1.00  0.00     0.252 C 
HETATM    4  O2  UNL     1      -2.243   2.173  -1.368  1.00  0.00    -0.268 OA
HETATM    5  N2  UNL     1      -3.472   0.749  -0.143  1.00  0.00    -0.275 N 
ATOM      6  H2  UNL     1      -4.280   1.330  -0.367  1.00  0.00     0.173 HD
HETATM    7  C5  UNL     1      -3.747  -0.403   0.515  1.00  0.00     0.330 C 
HETATM    8  O3  UNL     1      -4.965  -0.634   0.615  1.00  0.00    -0.246 OA
HETATM    9  N3  UNL     1      -2.877  -1.303   1.060  1.00  0.00    -0.273 N 
ATOM     10  H3  UNL     1      -3.297  -2.162   1.416  1.00  0.00     0.173 HD
HETATM   11  C6  UNL     1      -1.536  -1.211   1.192  1.00  0.00     0.283 C 
HETATM   12  O4  UNL     1      -1.034  -2.009   2.025  1.00  0.00    -0.265 OA
ENDROOT
BRANCH   1  13
HETATM   13  O1  UNL     1       0.634  -0.727   0.559  1.00  0.00    -0.304 OA
BRANCH  13  14
HETATM   14  C1  UNL     1       1.738  -0.113   0.009  1.00  0.00     0.276 C 
HETATM   15  C7  UNL     1       2.341   1.026   0.839  1.00  0.00     0.302 C 
HETATM   16  N4  UNL     1       3.650   0.492   0.445  1.00  0.00    -0.066 N 
HETATM   17  C8  UNL     1       3.022  -0.823   0.458  1.00  0.00     0.302 C 
ATOM     18  H42 UNL     1       4.141   0.840  -0.379  1.00  0.00     0.277 HD
ATOM     19  H41 UNL     1       4.490   0.686   0.990  1.00  0.00     0.277 HD
BRANCH  14  20
HETATM   20  N1  UNL     1       1.799   0.088  -1.395  1.00  0.00    -0.043 N 
ATOM     21  H13 UNL     1       1.661  -0.810  -1.859  1.00  0.00     0.278 HD
ATOM     22  H12 UNL     1       0.964   0.596  -1.688  1.00  0.00     0.278 HD
ATOM     23  H11 UNL     1       2.616   0.543  -1.802  1.00  0.00     0.278 HD
ENDBRANCH  14  20
ENDBRANCH  13  14
ENDBRANCH   1  13
TORSDOF 3
