REMARK  3 active torsions:
REMARK  status: ('A' for Active; 'I' for Inactive)
REMARK    1  A    between atoms: N1_1  and  C1_4 
REMARK    2  A    between atoms: N4_11  and  C3_12 
REMARK    3  A    between atoms: C3_12  and  C4_13 
ROOT
HETATM    1  C1  UNL     1      -1.999  -1.099  -0.304  1.00  0.00     0.697 A 
HETATM    2  N2  UNL     1      -3.100  -0.880   0.439  1.00  0.00    -0.128 N 
ATOM      3  H2  UNL     1      -3.744  -1.589   0.790  1.00  0.00     0.205 HD
HETATM    4  N3  UNL     1      -3.191   0.422   0.629  1.00  0.00    -0.236 N 
ATOM      5  H3  UNL     1      -3.928   0.889   1.158  1.00  0.00     0.192 HD
HETATM    6  C2  UNL     1      -2.159   1.041   0.016  1.00  0.00     0.356 A 
HETATM    7  O1  UNL     1      -1.963   2.301   0.014  1.00  0.00    -0.244 OA
HETATM    8  N4  UNL     1      -1.410   0.089  -0.570  1.00  0.00    -0.125 N 
ENDROOT
BRANCH   8   9
HETATM    9  C3  UNL     1      -0.199   0.286  -1.342  1.00  0.00     0.209 C 
BRANCH   9  10
HETATM   10  C4  UNL     1       1.022   0.250  -0.513  1.00  0.00     0.038 A 
HETATM   11  C5  UNL     1       1.738  -0.898  -0.246  1.00  0.00     0.101 A 
HETATM   12  C6  UNL     1       2.890  -0.866   0.548  1.00  0.00     0.251 A 
HETATM   13  O2  UNL     1       3.520  -1.932   0.773  1.00  0.00    -0.268 OA
HETATM   14  N5  UNL     1       3.266   0.316   1.034  1.00  0.00    -0.275 N 
HETATM   15  C7  UNL     1       2.586   1.447   0.789  1.00  0.00     0.327 A 
ATOM     16  H5  UNL     1       4.103   0.363   1.615  1.00  0.00     0.173 HD
HETATM   17  O3  UNL     1       2.963   2.569   1.264  1.00  0.00    -0.247 OA
HETATM   18  N6  UNL     1       1.481   1.390   0.022  1.00  0.00    -0.310 N 
ATOM     19  H6  UNL     1       0.970   2.254  -0.160  1.00  0.00     0.170 HD
ENDBRANCH   9  10
ENDBRANCH   8   9
BRANCH   1  20
HETATM   20  N1  UNL     1      -1.620  -2.277  -0.670  1.00  0.00    -0.233 N 
ATOM     21  H12 UNL     1      -2.064  -3.173  -0.469  1.00  0.00     0.174 HD
ATOM     22  H11 UNL     1      -0.786  -2.443  -1.233  1.00  0.00     0.174 HD
ENDBRANCH   1  20
TORSDOF 3
