REMARK  2 active torsions:
REMARK  status: ('A' for Active; 'I' for Inactive)
REMARK    1  A    between atoms: C3_4  and  N1_5 
REMARK    2  A    between atoms: N1_5  and  C4_7 
ROOT
HETATM    1  C4  UNL     1       0.083  -0.206   0.300  1.00  0.00     0.218 C 
HETATM    2  C5  UNL     1      -1.223  -0.950   0.176  1.00  0.00     0.065 C 
HETATM    3  C6  UNL     1      -2.287   0.106   0.212  1.00  0.00    -0.015 C 
HETATM    4  C7  UNL     1      -3.143   0.191  -1.022  1.00  0.00     0.012 C 
HETATM    5  C8  UNL     1      -4.328   0.459  -0.106  1.00  0.00     0.002 C 
HETATM    6  C9  UNL     1      -3.504  -0.153   1.025  1.00  0.00     0.012 C 
HETATM    7  C10 UNL     1      -1.527   1.334   0.606  1.00  0.00     0.180 C 
HETATM    8  O2  UNL     1      -0.214   1.151   0.213  1.00  0.00    -0.366 OA
ENDROOT
BRANCH   1   9
HETATM    9  N1  UNL     1       0.904  -0.535  -0.840  1.00  0.00    -0.371 N 
ATOM     10  H1  UNL     1       0.508  -0.772  -1.750  1.00  0.00     0.158 HD
BRANCH   9  11
HETATM   11  C3  UNL     1       2.285  -0.506  -0.607  1.00  0.00     0.218 C 
HETATM   12  O1  UNL     1       2.834  -1.312   0.343  1.00  0.00    -0.367 OA
HETATM   13  C2  UNL     1       4.211  -1.028   0.167  1.00  0.00     0.170 C 
HETATM   14  C1  UNL     1       4.301   0.477  -0.074  1.00  0.00     0.030 C 
HETATM   15  C11 UNL     1       2.837   0.845  -0.202  1.00  0.00     0.055 C 
ENDBRANCH   9  11
ENDBRANCH   1   9
TORSDOF 2
