REMARK  2 active torsions:
REMARK  status: ('A' for Active; 'I' for Inactive)
REMARK    1  A    between atoms: C4_4  and  N1_5 
REMARK    2  A    between atoms: N1_5  and  C5_8 
ROOT
HETATM    1  N1  UNL     1       0.256   0.797   0.136  1.00  0.00    -0.057 N 
ATOM      2  H11 UNL     1       0.172   1.439  -0.652  1.00  0.00     0.278 HD
ATOM      3  H12 UNL     1       0.557   1.464   0.846  1.00  0.00     0.278 HD
ENDROOT
BRANCH   1   4
HETATM    4  C4  UNL     1       1.237  -0.195  -0.099  1.00  0.00     0.287 C 
HETATM    5  C3  UNL     1       2.582   0.236   0.566  1.00  0.00     0.075 C 
HETATM    6  C2  UNL     1       3.543  -0.718  -0.083  1.00  0.00     0.130 C 
HETATM    7  C1  UNL     1       4.810   0.025  -0.524  1.00  0.00     0.040 C 
HETATM    8  O2  UNL     1       2.914  -1.112  -1.318  1.00  0.00    -0.315 OA
HETATM    9  C11 UNL     1       1.705  -0.395  -1.476  1.00  0.00     0.290 C 
HETATM   10  O1  UNL     1       1.198  -0.050  -2.591  1.00  0.00    -0.263 OA
ENDBRANCH   1   4
BRANCH   1  11
HETATM   11  C5  UNL     1      -1.016   0.194   0.473  1.00  0.00     0.187 C 
HETATM   12  C6  UNL     1      -1.570  -0.493  -0.754  1.00  0.00     0.033 C 
HETATM   13  C7  UNL     1      -2.953  -1.047  -0.582  1.00  0.00     0.002 C 
HETATM   14  C8  UNL     1      -3.817  -0.313   0.385  1.00  0.00     0.000 C 
HETATM   15  C9  UNL     1      -3.374   1.089   0.672  1.00  0.00     0.002 C 
HETATM   16  C10 UNL     1      -1.960   1.131   1.152  1.00  0.00     0.033 C 
ENDBRANCH   1  11
TORSDOF 2
