REMARK  3 active torsions:
REMARK  status: ('A' for Active; 'I' for Inactive)
REMARK    1  A    between atoms: C2_2  and  N1_5 
REMARK       I    between atoms: N1_5  and  C5_7 
REMARK    2  A    between atoms: C5_7  and  C6_9 
REMARK    3  A    between atoms: C6_9  and  N2_10 
ROOT
HETATM    1  N1  UNL     1      -1.523   0.081  -0.108  1.00  0.00    -0.351 N 
ATOM      2  H1  UNL     1      -1.002   0.952  -0.211  1.00  0.00     0.163 HD
HETATM    3  C5  UNL     1      -0.809  -1.121  -0.278  1.00  0.00     0.246 C 
HETATM    4  O1  UNL     1      -1.531  -2.187  -0.151  1.00  0.00    -0.272 OA
ENDROOT
BRANCH   3   5
HETATM    5  C6  UNL     1       0.610  -1.294  -0.575  1.00  0.00     0.374 C 
BRANCH   5   6
HETATM    6  N2  UNL     1       1.428  -0.148  -0.657  1.00  0.00     0.097 N 
HETATM    7  C7  UNL     1       1.711   0.491   0.576  1.00  0.00     0.273 C 
HETATM    8  C8  UNL     1       2.979   1.325   0.480  1.00  0.00     0.030 C 
HETATM    9  C9  UNL     1       4.212   0.524   0.229  1.00  0.00     0.003 C 
HETATM   10  C10 UNL     1       3.783  -0.785  -0.419  1.00  0.00     0.030 C 
HETATM   11  C11 UNL     1       2.648  -0.441  -1.387  1.00  0.00     0.273 C 
ENDBRANCH   5   6
ENDBRANCH   3   5
BRANCH   1  12
HETATM   12  C2  UNL     1      -2.933   0.187   0.200  1.00  0.00     0.022 C 
HETATM   13  C1  UNL     1      -3.343   1.671   0.241  1.00  0.00     0.037 C 
HETATM   14  C3  UNL     1      -3.259  -0.374   1.555  1.00  0.00     0.037 C 
HETATM   15  C4  UNL     1      -3.817  -0.475  -0.829  1.00  0.00     0.037 C 
ENDBRANCH   1  12
TORSDOF 3
