REMARK  2 active torsions:
REMARK  status: ('A' for Active; 'I' for Inactive)
REMARK    1  A    between atoms: C2_2  and  O1_4 
REMARK    2  A    between atoms: O1_4  and  C4_5 
ROOT
HETATM    1  C4  UNL     1      -0.508  -0.098  -0.676  1.00  0.00     0.128 C 
HETATM    2  C5  UNL     1      -0.245  -1.119  -1.775  1.00  0.00     0.033 C 
HETATM    3  C6  UNL     1       1.150  -1.658  -1.539  1.00  0.00     0.008 C 
HETATM    4  C7  UNL     1       1.742  -0.817  -0.477  1.00  0.00    -0.001 C 
HETATM    5  C8  UNL     1       2.659  -1.508   0.472  1.00  0.00     0.049 C 
HETATM    6  C9  UNL     1       3.020  -0.533   1.570  1.00  0.00     0.056 C 
HETATM    7  N1  UNL     1       1.936   0.149   2.148  1.00  0.00    -0.398 N 
ATOM      8  H1  UNL     1       1.857   0.276   3.157  1.00  0.00     0.159 HD
HETATM    9  C10 UNL     1       0.945   0.658   1.240  1.00  0.00     0.083 C 
HETATM   10  C11 UNL     1       1.541   1.830   0.506  1.00  0.00     0.032 C 
HETATM   11  C12 UNL     1       0.500  -0.436   0.344  1.00  0.00     0.041 C 
ENDROOT
BRANCH   1  12
HETATM   12  O1  UNL     1      -1.828  -0.320  -0.262  1.00  0.00    -0.381 OA
BRANCH  12  13
HETATM   13  C2  UNL     1      -2.657   0.745  -0.480  1.00  0.00     0.113 C 
HETATM   14  C1  UNL     1      -3.884   0.388  -1.297  1.00  0.00     0.039 C 
HETATM   15  C3  UNL     1      -3.177   1.201   0.889  1.00  0.00     0.039 C 
ENDBRANCH  12  13
ENDBRANCH   1  12
TORSDOF 2
