REMARK  1 active torsions:
REMARK  status: ('A' for Active; 'I' for Inactive)
REMARK    1  A    between atoms: C8_8  and  C10_10 
ROOT
HETATM    1  C1  UNL     1      -2.991  -0.694  -0.650  1.00  0.00     0.010 C 
HETATM    2  C2  UNL     1      -1.748  -0.757   0.207  1.00  0.00    -0.014 C 
HETATM    3  C3  UNL     1      -0.551  -1.196  -0.637  1.00  0.00     0.010 C 
HETATM    4  C4  UNL     1       0.261   0.032  -0.911  1.00  0.00     0.003 C 
HETATM    5  C5  UNL     1      -0.807   1.127  -0.740  1.00  0.00     0.011 C 
HETATM    6  C6  UNL     1      -1.281   0.619   0.634  1.00  0.00    -0.009 C 
HETATM    7  C7  UNL     1       0.009   0.430   1.387  1.00  0.00     0.023 C 
HETATM    8  C8  UNL     1       1.081   0.325   0.325  1.00  0.00     0.039 C 
HETATM    9  C9  UNL     1       1.809   1.642   0.223  1.00  0.00     0.025 C 
ENDROOT
BRANCH   8  10
HETATM   10  C10 UNL     1       2.049  -0.735   0.581  1.00  0.00     0.239 C 
HETATM   11  N1  UNL     1       3.028  -1.024  -0.403  1.00  0.00    -0.061 NA
HETATM   12  O1  UNL     1       2.007  -1.376   1.658  1.00  0.00    -0.276 OA
ENDBRANCH   8  10
TORSDOF 1
