REMARK  1 active torsions:
REMARK  status: ('A' for Active; 'I' for Inactive)
REMARK    1  A    between atoms: C8_8  and  C9_9 
ROOT
HETATM    1  C1  UNL     1       1.064  -1.845  -0.544  1.00  0.00     0.016 C 
HETATM    2  C2  UNL     1       0.113  -0.869   0.113  1.00  0.00    -0.028 C 
HETATM    3  C3  UNL     1      -0.096  -1.148   1.566  1.00  0.00     0.016 C 
HETATM    4  C4  UNL     1      -1.148  -0.760  -0.716  1.00  0.00    -0.004 C 
HETATM    5  C5  UNL     1      -2.238  -0.014  -0.005  1.00  0.00     0.005 C 
HETATM    6  C6  UNL     1      -1.833   1.381   0.394  1.00  0.00     0.002 C 
HETATM    7  C7  UNL     1      -0.349   1.568   0.488  1.00  0.00     0.020 C 
HETATM    8  C8  UNL     1       0.422   0.533  -0.281  1.00  0.00     0.046 C 
HETATM    9  C10 UNL     1      -0.367   0.254  -1.563  1.00  0.00     0.025 C 
ENDROOT
BRANCH   8  10
HETATM   10  C9  UNL     1       1.807   0.877  -0.574  1.00  0.00     0.240 C 
HETATM   11  N1  UNL     1       2.886   0.763   0.339  1.00  0.00    -0.061 NA
HETATM   12  O1  UNL     1       2.110   1.319  -1.734  1.00  0.00    -0.276 OA
ENDBRANCH   8  10
TORSDOF 1
