REMARK  2 active torsions:
REMARK  status: ('A' for Active; 'I' for Inactive)
REMARK    1  A    between atoms: C2_2  and  C3_3 
REMARK    2  A    between atoms: C4_9  and  C5_10 
ROOT
HETATM    1  C3  UNL     1       0.887  -0.451   0.780  1.00  0.00     0.135 C 
HETATM    2  N1  UNL     1       1.348  -1.825   0.514  1.00  0.00    -0.309 N 
ATOM      3  H1  UNL     1       2.228  -2.338   0.561  1.00  0.00     0.172 HD
HETATM    4  S1  UNL     1      -0.305  -2.170   0.082  1.00  0.00     0.234 S 
HETATM    5  O1  UNL     1      -0.461  -3.181  -0.982  1.00  0.00    -0.205 OA
HETATM    6  O2  UNL     1      -1.124  -2.305   1.293  1.00  0.00    -0.205 OA
HETATM    7  C4  UNL     1       0.079  -0.525  -0.448  1.00  0.00     0.159 C 
ENDROOT
BRANCH   7   8
HETATM    8  C5  UNL     1      -1.130   0.305  -0.599  1.00  0.00    -0.000 C 
HETATM    9  C6  UNL     1      -0.889   1.790  -0.523  1.00  0.00     0.011 C 
HETATM   10  C7  UNL     1      -2.244  -0.019   0.373  1.00  0.00     0.011 C 
ENDBRANCH   7   8
BRANCH   1  11
HETATM   11  C2  UNL     1       2.068   0.443   0.780  1.00  0.00    -0.010 C 
HETATM   12  C1  UNL     1       2.564   1.027  -0.283  1.00  0.00     0.009 C 
ENDBRANCH   1  11
TORSDOF 2
