REMARK  2 active torsions:
REMARK  status: ('A' for Active; 'I' for Inactive)
REMARK    1  A    between atoms: C4_4  and  C5_5 
REMARK       I    between atoms: C5_5  and  N1_7 
REMARK    2  A    between atoms: N1_7  and  C6_9 
ROOT
HETATM    1  C5  UNL     1      -0.712  -0.403  -1.035  1.00  0.00     0.222 C 
HETATM    2  O1  UNL     1      -0.532  -1.231  -1.948  1.00  0.00    -0.273 OA
HETATM    3  N1  UNL     1       0.338  -0.041  -0.168  1.00  0.00    -0.354 N 
ATOM      4  H1  UNL     1       0.183   0.638   0.577  1.00  0.00     0.162 HD
ENDROOT
BRANCH   3   5
HETATM    5  C6  UNL     1       1.633  -0.644  -0.350  1.00  0.00     0.110 C 
HETATM    6  C7  UNL     1       2.728   0.397  -0.524  1.00  0.00     0.053 C 
HETATM    7  C8  UNL     1       3.705   0.027   0.583  1.00  0.00     0.169 C 
HETATM    8  O2  UNL     1       3.486  -1.353   0.727  1.00  0.00    -0.389 OA
HETATM    9  C9  UNL     1       2.087  -1.361   0.914  1.00  0.00     0.192 C 
ENDBRANCH   3   5
BRANCH   1  10
HETATM   10  C4  UNL     1      -2.039   0.209  -0.856  1.00  0.00     0.082 A 
HETATM   11  C2  UNL     1      -2.422   0.379   0.616  1.00  0.00    -0.005 A 
HETATM   12  C1  UNL     1      -3.842  -0.069   0.944  1.00  0.00     0.011 C 
HETATM   13  C3  UNL     1      -2.189   1.548  -0.242  1.00  0.00     0.019 A 
ENDBRANCH   1  10
TORSDOF 2
