REMARK  2 active torsions:
REMARK  status: ('A' for Active; 'I' for Inactive)
REMARK       I    between atoms: C2_2  and  N1_4 
REMARK    1  A    between atoms: N1_4  and  C3_6 
REMARK    2  A    between atoms: C7_10  and  N2_11 
ROOT
HETATM    1  C3  UNL     1       0.519  -0.438  -0.351  1.00  0.00     0.117 C 
HETATM    2  C4  UNL     1       0.703  -1.974  -0.374  1.00  0.00     0.027 C 
HETATM    3  C5  UNL     1      -0.490  -2.336  -1.242  1.00  0.00     0.004 C 
HETATM    4  C6  UNL     1      -1.567  -1.430  -0.747  1.00  0.00     0.038 C 
HETATM    5  C7  UNL     1      -0.883  -0.375   0.141  1.00  0.00     0.244 C 
ENDROOT
BRANCH   1   6
HETATM    6  N1  UNL     1       1.531   0.088   0.490  1.00  0.00    -0.355 N 
HETATM    7  C2  UNL     1       2.588   0.858  -0.054  1.00  0.00     0.213 C 
HETATM    8  C1  UNL     1       3.656   1.416   0.812  1.00  0.00     0.117 C 
HETATM    9  O1  UNL     1       2.676   1.110  -1.302  1.00  0.00    -0.274 OA
ATOM     10  H1  UNL     1       1.498  -0.089   1.494  1.00  0.00     0.162 HD
ENDBRANCH   1   6
BRANCH   5  11
HETATM   11  N2  UNL     1      -1.585   0.842  -0.079  1.00  0.00     0.086 N 
HETATM   12  C8  UNL     1      -1.065   2.005   0.563  1.00  0.00     0.310 C 
HETATM   13  C9  UNL     1      -2.987   0.648   0.214  1.00  0.00     0.310 C 
ENDBRANCH   5  11
TORSDOF 2
