REMARK  2 active torsions:
REMARK  status: ('A' for Active; 'I' for Inactive)
REMARK       I    between atoms: N1_2  and  C2_3 
REMARK    1  A    between atoms: N1_2  and  C7_12 
REMARK    2  A    between atoms: C2_3  and  C3_5 
ROOT
HETATM    1  C1  UNL     1       0.735  -1.493   0.319  1.00  0.00     0.153 C 
HETATM    2  N1  UNL     1       0.800  -0.063   0.224  1.00  0.00    -0.351 N 
HETATM    3  C2  UNL     1      -0.404   0.676   0.350  1.00  0.00     0.225 C 
HETATM    4  O1  UNL     1      -0.388   1.948   0.275  1.00  0.00    -0.273 OA
ENDROOT
BRANCH   3   5
HETATM    5  C3  UNL     1      -1.699   0.034   0.568  1.00  0.00     0.105 C 
HETATM    6  C4  UNL     1      -2.822   1.067   0.723  1.00  0.00     0.043 C 
HETATM    7  C5  UNL     1      -4.032   0.245   0.426  1.00  0.00     0.233 C 
HETATM    8  N2  UNL     1      -3.609  -0.946  -0.247  1.00  0.00    -0.074 N 
HETATM    9  C6  UNL     1      -2.223  -0.692  -0.674  1.00  0.00     0.246 C 
ATOM     10  H22 UNL     1      -3.716  -1.792   0.313  1.00  0.00     0.277 HD
ATOM     11  H21 UNL     1      -4.227  -1.226  -1.009  1.00  0.00     0.277 HD
ENDBRANCH   3   5
BRANCH   2  12
HETATM   12  C7  UNL     1       2.040   0.655   0.002  1.00  0.00     0.086 C 
HETATM   13  C8  UNL     1       2.849   0.183  -1.188  1.00  0.00     0.025 C 
HETATM   14  C9  UNL     1       4.101   0.466  -0.348  1.00  0.00     0.004 C 
HETATM   15  C10 UNL     1       3.199   0.282   0.881  1.00  0.00     0.025 C 
ENDBRANCH   2  12
TORSDOF 2
