REMARK  2 active torsions:
REMARK  status: ('A' for Active; 'I' for Inactive)
REMARK    1  A    between atoms: C2_2  and  C3_4 
REMARK    2  A    between atoms: C9_10  and  C10_11 
ROOT
HETATM    1  C3  UNL     1       1.023  -0.645   0.494  1.00  0.00     0.059 C 
HETATM    2  C4  UNL     1       0.247  -1.196  -0.687  1.00  0.00     0.018 C 
HETATM    3  C5  UNL     1      -0.432  -0.008  -1.344  1.00  0.00    -0.001 C 
HETATM    4  C6  UNL     1       0.556   1.102  -0.923  1.00  0.00     0.011 C 
HETATM    5  C7  UNL     1       0.450   0.753   0.575  1.00  0.00    -0.002 C 
HETATM    6  C8  UNL     1      -1.033   0.597   0.824  1.00  0.00     0.019 C 
HETATM    7  C9  UNL     1      -1.608   0.488  -0.571  1.00  0.00     0.079 C 
ENDROOT
BRANCH   1   8
HETATM    8  C2  UNL     1       2.482  -0.649   0.244  1.00  0.00     0.127 C 
HETATM    9  C1  UNL     1       3.486  -0.170   1.210  1.00  0.00     0.091 C 
HETATM   10  O1  UNL     1       2.914  -1.076  -0.834  1.00  0.00    -0.298 OA
ENDBRANCH   1   8
BRANCH   7  11
HETATM   11  C10 UNL     1      -2.799  -0.355  -0.650  1.00  0.00     0.235 C 
HETATM   12  N1  UNL     1      -3.962   0.036   0.051  1.00  0.00    -0.062 NA
HETATM   13  O2  UNL     1      -2.763  -1.402  -1.334  1.00  0.00    -0.276 OA
ENDBRANCH   7  11
TORSDOF 2
