REMARK  1 active torsions:
REMARK  status: ('A' for Active; 'I' for Inactive)
REMARK       I    between atoms: C1_2  and  N1_4 
REMARK       I    between atoms: N1_4  and  C2_6 
REMARK    1  A    between atoms: C2_6  and  C3_8 
ROOT
HETATM    1  C3  UNL     1       0.603   0.170  -0.304  1.00  0.00     0.042 C 
HETATM    2  C4  UNL     1       0.080  -1.232  -0.556  1.00  0.00     0.024 C 
HETATM    3  C5  UNL     1      -1.361  -1.319  -0.125  1.00  0.00    -0.013 C 
HETATM    4  C6  UNL     1      -1.563  -0.884   1.305  1.00  0.00     0.009 C 
HETATM    5  C7  UNL     1      -1.044   0.523   1.499  1.00  0.00    -0.013 C 
HETATM    6  C8  UNL     1      -1.866   1.431   0.619  1.00  0.00     0.009 C 
HETATM    7  C9  UNL     1      -1.629   1.038  -0.810  1.00  0.00    -0.013 C 
HETATM    8  C10 UNL     1      -2.161  -0.364  -1.001  1.00  0.00     0.009 C 
HETATM    9  C11 UNL     1      -0.170   1.106  -1.191  1.00  0.00     0.024 C 
HETATM   10  C12 UNL     1       0.415   0.549   1.155  1.00  0.00     0.024 C 
ENDROOT
BRANCH   1  11
HETATM   11  C2  UNL     1       2.056   0.218  -0.586  1.00  0.00     0.234 C 
HETATM   12  N1  UNL     1       2.929  -0.613   0.144  1.00  0.00    -0.283 N 
HETATM   13  C1  UNL     1       4.344  -0.591  -0.104  1.00  0.00     0.321 C 
ATOM     14  H1  UNL     1       2.552  -1.238   0.857  1.00  0.00     0.172 HD
HETATM   15  O1  UNL     1       5.118  -1.325   0.540  1.00  0.00    -0.254 OA
HETATM   16 CL1  UNL     1       5.036   0.459  -1.312  1.00  0.00    -0.020 Cl
HETATM   17  O2  UNL     1       2.532   0.993  -1.472  1.00  0.00    -0.272 OA
ENDBRANCH   1  11
TORSDOF 1
