REMARK  1 active torsions:
REMARK  status: ('A' for Active; 'I' for Inactive)
REMARK       I    between atoms: C2_2  and  N1_4 
REMARK    1  A    between atoms: N1_4  and  C3_6 
ROOT
HETATM    1  C3  UNL     1       1.201   0.132   0.210  1.00  0.00     0.097 C 
HETATM    2  C4  UNL     1       0.050  -0.764  -0.003  1.00  0.00     0.019 C 
HETATM    3  C5  UNL     1      -0.934  -1.106   1.010  1.00  0.00     0.012 C 
HETATM    4  C6  UNL     1      -2.305  -0.976   0.364  1.00  0.00    -0.014 C 
HETATM    5  C7  UNL     1      -2.874   0.335   0.776  1.00  0.00     0.005 C 
HETATM    6  C8  UNL     1      -1.829   1.453   0.797  1.00  0.00     0.009 C 
HETATM    7  C9  UNL     1      -1.146   1.436  -0.500  1.00  0.00     0.029 A 
HETATM    8  C10 UNL     1       0.156   2.172  -0.669  1.00  0.00     0.181 A 
HETATM    9  F1  UNL     1       0.589   2.636   0.564  1.00  0.00    -0.248 F 
HETATM   10  C11 UNL     1       0.749   0.839  -1.081  1.00  0.00     0.052 A 
HETATM   11  C12 UNL     1      -0.517   0.214  -0.961  1.00  0.00    -0.020 A 
HETATM   12  C13 UNL     1      -1.325  -0.500  -1.922  1.00  0.00     0.011 C 
HETATM   13  C14 UNL     1      -2.337  -1.289  -1.081  1.00  0.00     0.005 C 
ENDROOT
BRANCH   1  14
HETATM   14  N1  UNL     1       2.505  -0.467  -0.008  1.00  0.00    -0.356 N 
HETATM   15  C2  UNL     1       3.541  -0.227   0.927  1.00  0.00     0.213 C 
HETATM   16  C1  UNL     1       4.877  -0.830   0.719  1.00  0.00     0.117 C 
HETATM   17  O1  UNL     1       3.344   0.495   1.936  1.00  0.00    -0.274 OA
ATOM     18  H1  UNL     1       2.673  -1.054  -0.825  1.00  0.00     0.162 HD
ENDBRANCH   1  14
TORSDOF 1
