REMARK  3 active torsions:
REMARK  status: ('A' for Active; 'I' for Inactive)
REMARK    1  A    between atoms: C2_4  and  C3_5 
REMARK    2  A    between atoms: C2_4  and  N3_10 
REMARK    3  A    between atoms: C3_5  and  N2_6 
REMARK       I    between atoms: C7_12  and  N5_14 
ROOT
HETATM    1  C1  UNL     1      -0.737  -3.161   0.187  1.00  0.00     0.147 C 
HETATM    2  N1  UNL     1       0.060  -2.038  -0.117  1.00  0.00    -0.383 N 
ATOM      3  H1  UNL     1       0.935  -2.238  -0.601  1.00  0.00     0.160 HD
HETATM    4  C2  UNL     1      -0.162  -0.813   0.129  1.00  0.00     0.105 C 
ENDROOT
BRANCH   4   5
HETATM    5  C3  UNL     1      -1.370  -0.373   0.814  1.00  0.00     0.311 C 
BRANCH   5   6
HETATM    6  N2  UNL     1      -2.193   0.536   0.050  1.00  0.00    -0.072 N 
HETATM    7  C4  UNL     1      -2.896  -0.095  -1.025  1.00  0.00     0.272 C 
HETATM    8  C5  UNL     1      -3.216   1.026   0.992  1.00  0.00     0.272 C 
HETATM    9  C6  UNL     1      -1.497   1.682  -0.439  1.00  0.00     0.272 C 
ENDBRANCH   5   6
ENDBRANCH   4   5
BRANCH   4  10
HETATM   10  N3  UNL     1       0.798   0.128  -0.281  1.00  0.00    -0.319 N 
HETATM   11  C7  UNL     1       1.833   0.329   0.496  1.00  0.00     0.195 C 
HETATM   12  N4  UNL     1       1.987  -0.387   1.728  1.00  0.00    -0.063 NA
HETATM   13  N5  UNL     1       2.841   1.255   0.161  1.00  0.00    -0.307 N 
HETATM   14  C8  UNL     1       3.769   1.017  -0.703  1.00  0.00     0.203 C 
ATOM     15  H5  UNL     1       2.837   2.162   0.627  1.00  0.00     0.170 HD
HETATM   16  N6  UNL     1       3.768  -0.237  -1.341  1.00  0.00    -0.066 NA
HETATM   17  N7  UNL     1       4.770   1.970  -1.018  1.00  0.00    -0.066 NA
ATOM     18  H3  UNL     1       0.692   0.639  -1.157  1.00  0.00     0.169 HD
ENDBRANCH   4  10
TORSDOF 3
