REMARK  5 active torsions:
REMARK  status: ('A' for Active; 'I' for Inactive)
REMARK    1  A    between atoms: C3_3  and  C4_4 
REMARK    2  A    between atoms: C5_5  and  C6_6 
REMARK       I    between atoms: C6_6  and  N1_8 
REMARK    3  A    between atoms: N1_8  and  C7_10 
REMARK    4  A    between atoms: C7_10  and  C8_11 
REMARK    5  A    between atoms: C8_11  and  C9_12 
ROOT
HETATM    1  C1  UNL     1       7.341  -0.178  -0.036  1.00  0.00     0.113 C 
HETATM    2  C2  UNL     1       5.881   0.001  -0.097  1.00  0.00    -0.097 C 
HETATM    3  C3  UNL     1       4.685   0.136  -0.163  1.00  0.00    -0.015 C 
ENDROOT
BRANCH   3   4
HETATM    4  C4  UNL     1       3.284   0.284  -0.262  1.00  0.00    -0.005 C 
HETATM    5  C5  UNL     1       2.088   0.396  -0.353  1.00  0.00     0.009 C 
BRANCH   5   6
HETATM    6  C6  UNL     1       0.626   0.544  -0.441  1.00  0.00     0.301 C 
HETATM    7  O1  UNL     1       0.149   0.139  -1.505  1.00  0.00    -0.258 OA
HETATM    8  N1  UNL     1      -0.099   1.091   0.601  1.00  0.00    -0.327 N 
ATOM      9  H1  UNL     1       0.478   1.378   1.391  1.00  0.00     0.169 HD
BRANCH   8  10
HETATM   10  C7  UNL     1      -1.466   1.331   0.792  1.00  0.00     0.088 C 
BRANCH  10  11
HETATM   11  C8  UNL     1      -2.448   0.238   0.892  1.00  0.00    -0.006 C 
BRANCH  11  12
HETATM   12  C9  UNL     1      -2.719  -0.685  -0.214  1.00  0.00     0.001 C 
HETATM   13  C10 UNL     1      -3.807  -1.685   0.314  1.00  0.00     0.013 C 
HETATM   14  C11 UNL     1      -3.359   0.000  -1.421  1.00  0.00     0.013 C 
ENDBRANCH  11  12
ENDBRANCH  10  11
ENDBRANCH   8  10
ENDBRANCH   5   6
ENDBRANCH   3   4
TORSDOF 5
