REMARK  5 active torsions:
REMARK  status: ('A' for Active; 'I' for Inactive)
REMARK    1  A    between atoms: C2_2  and  C3_3 
REMARK    2  A    between atoms: C2_2  and  C9_9 
REMARK    3  A    between atoms: C4_4  and  C5_5 
REMARK    4  A    between atoms: C6_6  and  C7_7 
REMARK    5  A    between atoms: C9_9  and  C11_11 
ROOT
HETATM    1  C1  UNL     1      -2.090   2.195   0.716  1.00  0.00     0.029 C 
HETATM    2  C2  UNL     1      -1.611   1.161   0.060  1.00  0.00    -0.001 C 
ENDROOT
BRANCH   2   3
HETATM    3  C3  UNL     1      -0.219   0.803   0.231  1.00  0.00    -0.057 C 
HETATM    4  C4  UNL     1       0.947   0.502   0.355  1.00  0.00    -0.010 C 
BRANCH   4   5
HETATM    5  C5  UNL     1       2.316   0.132   0.481  1.00  0.00    -0.015 C 
HETATM    6  C6  UNL     1       3.478  -0.191   0.573  1.00  0.00    -0.093 C 
BRANCH   6   7
HETATM    7  C7  UNL     1       4.897  -0.592   0.666  1.00  0.00     0.090 C 
HETATM    8  C8  UNL     1       5.315  -1.282  -0.637  1.00  0.00     0.018 C 
ENDBRANCH   6   7
ENDBRANCH   4   5
ENDBRANCH   2   3
BRANCH   2   9
HETATM    9  C9  UNL     1      -2.450   0.350  -0.851  1.00  0.00     0.112 C 
HETATM   10  C10 UNL     1      -3.876   0.858  -0.840  1.00  0.00     0.025 C 
BRANCH   9  11
HETATM   11  C11 UNL     1      -2.507  -1.077  -0.406  1.00  0.00     0.239 C 
HETATM   12  N1  UNL     1      -3.051  -1.290   0.908  1.00  0.00    -0.062 NA
HETATM   13  O1  UNL     1      -2.115  -2.030  -1.115  1.00  0.00    -0.276 OA
ENDBRANCH   9  11
ENDBRANCH   2   9
TORSDOF 5
