REMARK  10 active torsions:
REMARK  status: ('A' for Active; 'I' for Inactive)
REMARK    1  A    between atoms: C2_2  and  N1_4 
REMARK    2  A    between atoms: N1_4  and  C4_6 
REMARK    3  A    between atoms: C4_6  and  C5_7 
REMARK    4  A    between atoms: C4_6  and  C19_33 
REMARK       I    between atoms: C5_7  and  N2_9 
REMARK    5  A    between atoms: N2_9  and  C6_11 
REMARK    6  A    between atoms: C6_11  and  C7_12 
REMARK    7  A    between atoms: C6_11  and  C12_19 
REMARK       I    between atoms: C7_12  and  N3_14 
REMARK    8  A    between atoms: C12_19  and  C14_21 
REMARK       I    between atoms: C14_21  and  N4_23 
REMARK    9  A    between atoms: N4_23  and  C15_25 
REMARK   10  A    between atoms: C18_30  and  O6_31 
ROOT
HETATM    1  C6  UNL     1       0.415   1.263   0.207  1.00  0.00     0.189 C 
ENDROOT
BRANCH   1   2
HETATM    2  N2  UNL     1      -0.501   0.159   0.211  1.00  0.00    -0.345 N 
HETATM    3  C5  UNL     1      -1.139  -0.490  -0.847  1.00  0.00     0.241 C 
HETATM    4  O1  UNL     1      -0.962  -0.138  -2.032  1.00  0.00    -0.271 OA
ATOM      5  H2  UNL     1      -0.721  -0.211   1.136  1.00  0.00     0.163 HD
BRANCH   3   6
HETATM    6  C4  UNL     1      -2.075  -1.655  -0.622  1.00  0.00     0.173 C 
BRANCH   6   7
HETATM    7  N1  UNL     1      -2.355  -2.201  -1.941  1.00  0.00    -0.406 N 
ATOM      8  H1  UNL     1      -2.034  -1.750  -2.798  1.00  0.00     0.154 HD
BRANCH   7   9
HETATM    9  C2  UNL     1      -3.104  -3.403  -1.953  1.00  0.00     0.069 C 
HETATM   10  C1  UNL     1      -3.212  -3.842  -3.421  1.00  0.00     0.031 C 
HETATM   11  C3  UNL     1      -2.473  -4.538  -1.195  1.00  0.00     0.031 C 
ENDBRANCH   7   9
ENDBRANCH   6   7
BRANCH   6  12
HETATM   12  C19 UNL     1      -3.383  -1.156  -0.079  1.00  0.00     0.009 C 
HETATM   13  C20 UNL     1      -3.312  -0.555   1.293  1.00  0.00     0.012 C 
HETATM   14  C21 UNL     1      -3.999  -0.148  -1.059  1.00  0.00     0.012 C 
ENDBRANCH   6  12
ENDBRANCH   3   6
ENDBRANCH   1   2
BRANCH   1  15
HETATM   15  C7  UNL     1      -0.256   2.561   0.148  1.00  0.00     0.243 C 
HETATM   16  O2  UNL     1      -1.243   2.715  -0.609  1.00  0.00    -0.271 OA
HETATM   17  N3  UNL     1       0.177   3.652   0.930  1.00  0.00    -0.346 N 
HETATM   18  C8  UNL     1       1.204   3.966   1.925  1.00  0.00     0.128 C 
HETATM   19  C10 UNL     1      -0.253   5.054   1.098  1.00  0.00     0.084 C 
HETATM   20  C9  UNL     1       0.240   4.963   2.516  1.00  0.00     0.045 C 
HETATM   21  C11 UNL     1       0.533   6.019   0.261  1.00  0.00     0.032 C 
ENDBRANCH   1  15
BRANCH   1  22
HETATM   22  C12 UNL     1       1.420   1.147  -0.943  1.00  0.00     0.106 C 
HETATM   23  C13 UNL     1       2.379   2.335  -0.926  1.00  0.00     0.022 C 
BRANCH  22  24
HETATM   24  C14 UNL     1       2.168  -0.123  -0.914  1.00  0.00     0.224 C 
HETATM   25  O3  UNL     1       2.262  -0.840  -1.936  1.00  0.00    -0.273 OA
HETATM   26  N4  UNL     1       2.822  -0.603   0.259  1.00  0.00    -0.351 N 
ATOM     27  H4  UNL     1       2.762  -0.040   1.107  1.00  0.00     0.163 HD
BRANCH  26  28
HETATM   28  C15 UNL     1       3.556  -1.827   0.314  1.00  0.00     0.149 C 
HETATM   29  C16 UNL     1       2.986  -2.809   1.338  1.00  0.00     0.141 C 
HETATM   30  C17 UNL     1       4.226  -3.556   1.709  1.00  0.00     0.263 C 
HETATM   31  O4  UNL     1       4.263  -4.611   2.400  1.00  0.00    -0.265 OA
HETATM   32  O5  UNL     1       5.346  -2.913   1.177  1.00  0.00    -0.288 OA
HETATM   33  C18 UNL     1       4.929  -1.582   0.899  1.00  0.00     0.289 C 
BRANCH  33  34
HETATM   34  O6  UNL     1       4.793  -0.879   2.094  1.00  0.00    -0.369 OA
ATOM     35  H6  UNL     1       5.655  -0.725   2.461  1.00  0.00     0.212 HD
ENDBRANCH  33  34
ENDBRANCH  26  28
ENDBRANCH  22  24
ENDBRANCH   1  22
TORSDOF 10
