REMARK  11 active torsions:
REMARK  status: ('A' for Active; 'I' for Inactive)
REMARK    1  A    between atoms: C2_2  and  C3_3 
REMARK       I    between atoms: C3_3  and  N1_5 
REMARK    2  A    between atoms: C7_9  and  O2_10 
REMARK    3  A    between atoms: C8_12  and  O3_13 
REMARK    4  A    between atoms: C9_15  and  C10_16 
REMARK    5  A    between atoms: C10_16  and  O4_17 
REMARK    6  A    between atoms: C11_19  and  C12_20 
REMARK    7  A    between atoms: C12_20  and  C13_21 
REMARK    8  A    between atoms: C13_21  and  C14_22 
REMARK    9  A    between atoms: C14_22  and  C15_23 
REMARK   10  A    between atoms: C15_23  and  C16_24 
REMARK       I    between atoms: C16_24  and  N2_26 
REMARK   11  A    between atoms: C19_32  and  C20_33 
ROOT
HETATM    1  C3  UNL     1      -4.278   1.785   1.138  1.00  0.00     0.219 C 
HETATM    2  O1  UNL     1      -3.446   2.058   2.060  1.00  0.00    -0.273 OA
HETATM    3  N1  UNL     1      -4.395   0.528   0.526  1.00  0.00    -0.347 N 
HETATM    4  C4  UNL     1      -5.392   0.274  -0.531  1.00  0.00     0.127 C 
HETATM    5  C5  UNL     1      -5.767  -1.184  -0.314  1.00  0.00     0.029 C 
HETATM    6  C6  UNL     1      -4.389  -1.765  -0.026  1.00  0.00     0.042 C 
HETATM    7  C7  UNL     1      -3.794  -2.111  -1.362  1.00  0.00     0.153 C 
HETATM    8  C8  UNL     1      -2.392  -2.613  -1.157  1.00  0.00     0.153 C 
HETATM    9  C9  UNL     1      -1.871  -2.145   0.207  1.00  0.00     0.046 C 
HETATM   10  C11 UNL     1      -2.227  -0.722   0.464  1.00  0.00     0.017 C 
HETATM   11  C23 UNL     1      -3.707  -0.685   0.729  1.00  0.00     0.098 C 
ENDROOT
BRANCH  10  12
HETATM   12  C12 UNL     1      -1.702   0.255  -0.452  1.00  0.00     0.007 C 
BRANCH  12  13
HETATM   13  C13 UNL     1      -0.232   0.510  -0.609  1.00  0.00     0.001 C 
BRANCH  13  14
HETATM   14  C14 UNL     1       0.438   0.951   0.644  1.00  0.00     0.009 C 
BRANCH  14  15
HETATM   15  C15 UNL     1       1.864   1.337   0.483  1.00  0.00     0.103 C 
BRANCH  15  16
HETATM   16  C16 UNL     1       2.784   0.330   0.008  1.00  0.00     0.219 C 
HETATM   17  O5  UNL     1       2.492  -0.854  -0.204  1.00  0.00    -0.273 OA
HETATM   18  N2  UNL     1       4.152   0.698  -0.247  1.00  0.00    -0.349 N 
HETATM   19  C17 UNL     1       4.653   2.043  -0.047  1.00  0.00     0.153 C 
HETATM   20  C22 UNL     1       5.104  -0.279  -0.726  1.00  0.00     0.158 C 
HETATM   21  C18 UNL     1       5.856   1.995   0.882  1.00  0.00     0.252 C 
HETATM   22  N3  UNL     1       6.256   0.658   1.210  1.00  0.00    -0.068 N 
HETATM   23  C19 UNL     1       6.387  -0.197   0.064  1.00  0.00     0.203 C 
ATOM     24  H32 UNL     1       7.116   0.662   1.758  1.00  0.00     0.277 HD
ATOM     25  H31 UNL     1       5.621   0.249   1.895  1.00  0.00     0.277 HD
BRANCH  23  26
HETATM   26  C20 UNL     1       7.544   0.292  -0.785  1.00  0.00     0.030 C 
HETATM   27  C21 UNL     1       7.756  -0.546  -2.012  1.00  0.00     0.007 C 
ENDBRANCH  23  26
ENDBRANCH  15  16
ENDBRANCH  14  15
ENDBRANCH  13  14
ENDBRANCH  12  13
ENDBRANCH  10  12
BRANCH   9  28
HETATM   28  C10 UNL     1      -0.508  -2.630   0.405  1.00  0.00     0.172 C 
BRANCH  28  29
HETATM   29  O4  UNL     1      -0.581  -4.063   0.378  1.00  0.00    -0.400 OA
ATOM     30  H4  UNL     1       0.306  -4.379   0.507  1.00  0.00     0.209 HD
ENDBRANCH  28  29
ENDBRANCH   9  28
BRANCH   8  31
HETATM   31  O3  UNL     1      -2.421  -4.004  -1.123  1.00  0.00    -0.393 OA
ATOM     32  H3  UNL     1      -1.535  -4.321  -0.993  1.00  0.00     0.210 HD
ENDBRANCH   8  31
BRANCH   7  33
HETATM   33  O2  UNL     1      -4.594  -3.191  -1.848  1.00  0.00    -0.393 OA
ATOM     34  H2  UNL     1      -4.218  -3.410  -2.693  1.00  0.00     0.210 HD
ENDBRANCH   7  33
BRANCH   1  35
HETATM   35  C2  UNL     1      -5.156   2.899   0.718  1.00  0.00     0.098 C 
HETATM   36  C1  UNL     1      -4.914   4.169   1.459  1.00  0.00     0.014 C 
ENDBRANCH   1  35
TORSDOF 11
