REMARK  7 active torsions:
REMARK  status: ('A' for Active; 'I' for Inactive)
REMARK    1  A    between atoms: C2_2  and  C3_3 
REMARK    2  A    between atoms: C2_2  and  N2_9 
REMARK    3  A    between atoms: C3_3  and  C4_4 
REMARK    4  A    between atoms: C4_4  and  N1_5 
REMARK    5  A    between atoms: N2_9  and  C5_12 
REMARK    6  A    between atoms: C5_12  and  C6_13 
REMARK    7  A    between atoms: C9_19  and  N4_20 
ROOT
HETATM    1  C5  UNL     1      -0.390   0.136  -0.225  1.00  0.00     0.241 C 
ENDROOT
BRANCH   1   2
HETATM    2  N2  UNL     1       0.359   1.184   0.403  1.00  0.00    -0.071 N 
ATOM      3  H22 UNL     1       0.138   1.236   1.397  1.00  0.00     0.277 HD
ATOM      4  H21 UNL     1       0.019   2.097   0.103  1.00  0.00     0.277 HD
BRANCH   2   5
HETATM    5  C2  UNL     1       1.785   1.084   0.205  1.00  0.00     0.183 C 
HETATM    6  C1  UNL     1       2.061   1.257  -1.282  1.00  0.00     0.040 C 
BRANCH   5   7
HETATM    7  C3  UNL     1       2.245  -0.270   0.686  1.00  0.00     0.059 C 
BRANCH   7   8
HETATM    8  C4  UNL     1       3.712  -0.495   0.502  1.00  0.00     0.231 C 
BRANCH   8   9
HETATM    9  N1  UNL     1       4.186  -0.404  -0.842  1.00  0.00    -0.079 N 
ATOM     10  H13 UNL     1       3.658  -1.038  -1.442  1.00  0.00     0.274 HD
ATOM     11  H12 UNL     1       3.917   0.493  -1.246  1.00  0.00     0.274 HD
ATOM     12  H11 UNL     1       5.187  -0.557  -0.967  1.00  0.00     0.274 HD
ENDBRANCH   8   9
ENDBRANCH   7   8
ENDBRANCH   5   7
ENDBRANCH   2   5
ENDBRANCH   1   2
BRANCH   1  13
HETATM   13  C6  UNL     1      -1.876   0.383  -0.200  1.00  0.00     0.069 C 
HETATM   14  C7  UNL     1      -2.453   0.536   1.182  1.00  0.00     0.240 C 
HETATM   15  N3  UNL     1      -3.883   0.267   1.029  1.00  0.00    -0.073 N 
HETATM   16  C8  UNL     1      -4.045  -0.471  -0.209  1.00  0.00     0.265 C 
ATOM     17  H32 UNL     1      -4.290  -0.208   1.835  1.00  0.00     0.277 HD
ATOM     18  H31 UNL     1      -4.456   1.110   1.071  1.00  0.00     0.277 HD
HETATM   19  C9  UNL     1      -2.634  -0.891  -0.619  1.00  0.00     0.216 C 
BRANCH  19  20
HETATM   20  N4  UNL     1      -2.268  -2.032   0.151  1.00  0.00    -0.073 N 
ATOM     21  H43 UNL     1      -1.259  -2.182   0.124  1.00  0.00     0.274 HD
ATOM     22  H42 UNL     1      -2.382  -1.851   1.148  1.00  0.00     0.274 HD
ATOM     23  H41 UNL     1      -2.770  -2.876  -0.126  1.00  0.00     0.274 HD
ENDBRANCH  19  20
ENDBRANCH   1  13
TORSDOF 7
