REMARK  5 active torsions:
REMARK  status: ('A' for Active; 'I' for Inactive)
REMARK    1  A    between atoms: N1_1  and  N2_4 
REMARK       I    between atoms: N2_4  and  C1_6 
REMARK    2  A    between atoms: C1_6  and  C2_8 
REMARK    3  A    between atoms: C2_8  and  N3_9 
REMARK       I    between atoms: N3_9  and  C3_11 
REMARK    4  A    between atoms: C3_11  and  C4_13 
REMARK    5  A    between atoms: C4_13  and  N4_14 
ROOT
HETATM    1  N4  UNL     1      -1.281  -1.295   0.729  1.00  0.00    -0.273 N 
HETATM    2  C5  UNL     1      -1.860  -0.288   0.051  1.00  0.00     0.160 A 
HETATM    3  C6  UNL     1      -2.304   0.651   0.962  1.00  0.00     0.151 A 
HETATM    4  N5  UNL     1      -1.983   0.194   2.191  1.00  0.00    -0.300 N 
ATOM      5  H5  UNL     1      -2.176   0.661   3.077  1.00  0.00     0.171 HD
HETATM    6  C7  UNL     1      -1.363  -0.987   2.036  1.00  0.00     0.329 A 
HETATM    7  O3  UNL     1      -0.935  -1.674   3.023  1.00  0.00    -0.246 OA
HETATM    8  C8  UNL     1      -2.993   1.910   0.684  1.00  0.00     0.280 C 
HETATM    9  O4  UNL     1      -2.943   2.761   1.609  1.00  0.00    -0.265 OA
HETATM   10  N6  UNL     1      -3.706   2.276  -0.503  1.00  0.00    -0.272 N 
ATOM     11  H6  UNL     1      -4.298   3.104  -0.439  1.00  0.00     0.173 HD
HETATM   12  C9  UNL     1      -3.681   1.613  -1.762  1.00  0.00     0.341 C 
HETATM   13  O5  UNL     1      -4.586   1.966  -2.561  1.00  0.00    -0.245 OA
HETATM   14  N7  UNL     1      -2.757   0.623  -2.183  1.00  0.00    -0.250 N 
ATOM     15  H7  UNL     1      -2.643   0.516  -3.191  1.00  0.00     0.192 HD
HETATM   16  N8  UNL     1      -1.984  -0.224  -1.383  1.00  0.00    -0.279 N 
ATOM     17  H8  UNL     1      -1.420  -0.903  -1.894  1.00  0.00     0.189 HD
ENDROOT
BRANCH   1  18
HETATM   18  C4  UNL     1      -0.699  -2.456   0.133  1.00  0.00     0.238 C 
BRANCH  18  19
HETATM   19  C3  UNL     1       0.729  -2.308  -0.189  1.00  0.00     0.236 C 
HETATM   20  N3  UNL     1       1.464  -1.124   0.066  1.00  0.00    -0.351 N 
ATOM     21  H3  UNL     1       0.988  -0.330   0.494  1.00  0.00     0.163 HD
HETATM   22  O2  UNL     1       1.324  -3.278  -0.716  1.00  0.00    -0.272 OA
BRANCH  20  23
HETATM   23  C2  UNL     1       2.857  -1.007  -0.259  1.00  0.00     0.227 C 
BRANCH  23  24
HETATM   24  C1  UNL     1       3.412   0.319   0.098  1.00  0.00     0.253 C 
HETATM   25  N2  UNL     1       4.783   0.587  -0.164  1.00  0.00    -0.275 N 
ATOM     26  H2  UNL     1       5.357  -0.139  -0.593  1.00  0.00     0.189 HD
HETATM   27  O1  UNL     1       2.718   1.224   0.626  1.00  0.00    -0.270 OA
BRANCH  25  28
HETATM   28  N1  UNL     1       5.367   1.819   0.150  1.00  0.00    -0.343 N 
ATOM     29  H12 UNL     1       4.779   2.534   0.578  1.00  0.00     0.176 HD
ATOM     30  H11 UNL     1       6.351   2.011  -0.038  1.00  0.00     0.176 HD
ENDBRANCH  25  28
ENDBRANCH  23  24
ENDBRANCH  20  23
ENDBRANCH  18  19
ENDBRANCH   1  18
TORSDOF 5
