REMARK  9 active torsions:
REMARK  status: ('A' for Active; 'I' for Inactive)
REMARK    1  A    between atoms: C3_4  and  C4_5 
REMARK       I    between atoms: C4_5  and  N2_7 
REMARK    2  A    between atoms: N2_7  and  C5_9 
REMARK    3  A    between atoms: C5_9  and  C6_10 
REMARK    4  A    between atoms: C5_9  and  C7_13 
REMARK    5  A    between atoms: C7_13  and  N4_14 
REMARK    6  A    between atoms: C7_13  and  C8_18 
REMARK    7  A    between atoms: C9_23  and  N7_24 
REMARK    8  A    between atoms: N7_24  and  N8_26 
REMARK    9  A    between atoms: C10_31  and  N10_32 
ROOT
HETATM    1  N1  UNL     1       2.010  -2.610   2.906  1.00  0.00    -0.191 NA
HETATM    2  C1  UNL     1       2.250  -1.870   2.048  1.00  0.00     0.106 C 
HETATM    3  C2  UNL     1       2.575  -0.956   0.993  1.00  0.00     0.121 A 
HETATM    4  C3  UNL     1       1.626  -0.413   0.154  1.00  0.00     0.141 A 
HETATM    5  N6  UNL     1       2.096   0.429  -0.786  1.00  0.00    -0.183 N 
ATOM      6  H6  UNL     1       1.429   0.854  -1.430  1.00  0.00     0.184 HD
HETATM    7  C9  UNL     1       3.409   0.742  -0.922  1.00  0.00     0.698 A 
HETATM    8  N9  UNL     1       4.307   0.199  -0.092  1.00  0.00    -0.174 N 
ATOM      9  H9  UNL     1       5.294   0.433  -0.194  1.00  0.00     0.186 HD
HETATM   10  C10 UNL     1       3.927  -0.641   0.862  1.00  0.00     0.138 A 
ENDROOT
BRANCH   4  11
HETATM   11  C4  UNL     1       0.220  -0.740   0.290  1.00  0.00     0.271 C 
HETATM   12  O1  UNL     1      -0.121  -1.537   1.198  1.00  0.00    -0.266 OA
HETATM   13  N2  UNL     1      -0.787  -0.198  -0.559  1.00  0.00    -0.340 N 
ATOM     14  H2  UNL     1      -0.511   0.449  -1.297  1.00  0.00     0.163 HD
BRANCH  13  15
HETATM   15  C5  UNL     1      -2.168  -0.527  -0.415  1.00  0.00     0.213 C 
BRANCH  15  16
HETATM   16  C6  UNL     1      -2.726  -1.254  -1.573  1.00  0.00     0.256 C 
HETATM   17  N3  UNL     1      -4.065  -1.673  -1.625  1.00  0.00    -0.060 NA
HETATM   18  O2  UNL     1      -1.974  -1.504  -2.538  1.00  0.00    -0.274 OA
ENDBRANCH  15  16
BRANCH  15  19
HETATM   19  C7  UNL     1      -3.029   0.678  -0.062  1.00  0.00     0.303 C 
BRANCH  19  20
HETATM   20  N4  UNL     1      -4.418   0.308   0.075  1.00  0.00    -0.064 N 
ATOM     21  H43 UNL     1      -4.763  -0.167  -0.759  1.00  0.00     0.275 HD
ATOM     22  H42 UNL     1      -4.539  -0.449   0.748  1.00  0.00     0.275 HD
ATOM     23  H41 UNL     1      -4.995   1.115   0.311  1.00  0.00     0.275 HD
ENDBRANCH  19  20
BRANCH  19  24
HETATM   24  C8  UNL     1      -2.601   1.286   1.225  1.00  0.00     0.264 C 
HETATM   25  N5  UNL     1      -3.451   1.417   2.346  1.00  0.00    -0.060 NA
HETATM   26  O3  UNL     1      -1.409   1.694   1.278  1.00  0.00    -0.274 OA
ENDBRANCH  19  24
ENDBRANCH  15  19
ENDBRANCH  13  15
ENDBRANCH   4  11
BRANCH  10  27
HETATM   27  N10 UNL     1       4.831  -1.139   1.638  1.00  0.00    -0.384 N 
ATOM     28 2H10 UNL     1       4.539  -1.785   2.371  1.00  0.00     0.157 HD
ATOM     29 1H10 UNL     1       5.820  -0.909   1.542  1.00  0.00     0.157 HD
ENDBRANCH  10  27
BRANCH   7  30
HETATM   30  N7  UNL     1       3.818   1.554  -1.837  1.00  0.00    -0.138 N 
ATOM     31  H7  UNL     1       3.148   1.977  -2.479  1.00  0.00     0.205 HD
BRANCH  30  32
HETATM   32  N8  UNL     1       5.175   1.853  -1.948  1.00  0.00    -0.331 N 
ATOM     33  H82 UNL     1       5.832   1.421  -1.298  1.00  0.00     0.177 HD
ATOM     34  H81 UNL     1       5.498   2.495  -2.672  1.00  0.00     0.177 HD
ENDBRANCH  30  32
ENDBRANCH   7  30
TORSDOF 9
