REMARK  6 active torsions:
REMARK  status: ('A' for Active; 'I' for Inactive)
REMARK    1  A    between atoms: N1_1  and  C1_4 
REMARK    2  A    between atoms: C7_17  and  C8_18 
REMARK    3  A    between atoms: C9_22  and  C10_23 
REMARK    4  A    between atoms: C10_23  and  O2_24 
REMARK    5  A    between atoms: C10_23  and  C11_26 
REMARK       I    between atoms: C11_26  and  N6_28 
REMARK    6  A    between atoms: N7_30  and  N8_32 
ROOT
HETATM    1  C8  UNL     1      -0.173  -0.338   0.359  1.00  0.00     0.373 C 
HETATM    2  N5  UNL     1       0.777  -0.533  -0.729  1.00  0.00    -0.034 N 
ATOM      3  H51 UNL     1       0.943   0.269  -1.337  1.00  0.00     0.281 HD
ATOM      4  H52 UNL     1       0.476  -1.138  -1.493  1.00  0.00     0.281 HD
HETATM    5  C9  UNL     1       1.904  -0.994   0.056  1.00  0.00     0.250 C 
HETATM    6  C12 UNL     1       1.909   0.027   1.144  1.00  0.00     0.207 C 
HETATM    7  O4  UNL     1       0.652   0.652   1.029  1.00  0.00    -0.352 OA
ENDROOT
BRANCH   1   8
HETATM    8  C7  UNL     1      -1.387   0.409  -0.006  1.00  0.00     0.080 A 
HETATM    9  C3  UNL     1      -2.561  -0.161  -0.238  1.00  0.00     0.086 A 
HETATM   10  C2  UNL     1      -2.702  -1.524  -0.149  1.00  0.00     0.274 A 
HETATM   11  C4  UNL     1      -3.685   0.620  -0.553  1.00  0.00     0.065 A 
HETATM   12  N2  UNL     1      -3.923  -2.095  -0.364  1.00  0.00    -0.156 N 
HETATM   13  O1  UNL     1      -1.724  -2.247   0.125  1.00  0.00    -0.267 OA
HETATM   14  C1  UNL     1      -4.991  -1.348  -0.664  1.00  0.00     0.679 A 
ATOM     15  H2  UNL     1      -4.022  -3.108  -0.295  1.00  0.00     0.187 HD
HETATM   16  N3  UNL     1      -4.862   0.005  -0.756  1.00  0.00    -0.191 N 
ATOM     17  H3  UNL     1      -5.682   0.567  -0.985  1.00  0.00     0.184 HD
HETATM   18  C5  UNL     1      -3.652   1.927  -0.659  1.00  0.00     0.024 A 
HETATM   19  C6  UNL     1      -2.419   2.704  -0.454  1.00  0.00     0.149 A 
HETATM   20  N4  UNL     1      -1.340   1.835  -0.131  1.00  0.00    -0.385 N 
ATOM     21  H4  UNL     1      -0.434   2.276   0.029  1.00  0.00     0.159 HD
BRANCH  14  22
HETATM   22  N1  UNL     1      -6.136  -1.892  -0.866  1.00  0.00    -0.234 N 
ATOM     23  H12 UNL     1      -6.233  -2.905  -0.797  1.00  0.00     0.174 HD
ATOM     24  H11 UNL     1      -6.951  -1.322  -1.095  1.00  0.00     0.174 HD
ENDBRANCH  14  22
ENDBRANCH   1   8
BRANCH   5  25
HETATM   25  C10 UNL     1       3.185  -1.145  -0.678  1.00  0.00     0.244 C 
BRANCH  25  26
HETATM   26  O2  UNL     1       4.124  -1.604   0.282  1.00  0.00    -0.384 OA
ATOM     27  H2  UNL     1       4.944  -1.701  -0.188  1.00  0.00     0.210 HD
ENDBRANCH  25  26
BRANCH  25  28
HETATM   28  C11 UNL     1       3.731   0.039  -1.314  1.00  0.00     0.268 C 
HETATM   29  O3  UNL     1       3.102   0.625  -2.226  1.00  0.00    -0.269 OA
HETATM   30  N6  UNL     1       4.986   0.565  -0.926  1.00  0.00    -0.254 N 
HETATM   31  N7  UNL     1       5.550   0.422   0.177  1.00  0.00    -0.247 N 
ATOM     32  H6  UNL     1       5.482   1.120  -1.623  1.00  0.00     0.191 HD
ATOM     33  H7  UNL     1       5.111  -0.122   0.920  1.00  0.00     0.207 HD
BRANCH  31  34
HETATM   34  N8  UNL     1       6.797   1.023   0.373  1.00  0.00    -0.331 N 
ATOM     35  H82 UNL     1       7.223   1.563  -0.380  1.00  0.00     0.178 HD
ATOM     36  H81 UNL     1       7.258   0.906   1.275  1.00  0.00     0.178 HD
ENDBRANCH  31  34
ENDBRANCH  25  28
ENDBRANCH   5  25
TORSDOF 6
