REMARK  7 active torsions:
REMARK  status: ('A' for Active; 'I' for Inactive)
REMARK    1  A    between atoms: N1_1  and  C1_5 
REMARK    2  A    between atoms: C4_14  and  N4_15 
REMARK    3  A    between atoms: C4_14  and  C5_19 
REMARK    4  A    between atoms: C5_19  and  O3_20 
REMARK    5  A    between atoms: C5_19  and  C6_22 
REMARK    6  A    between atoms: C6_22  and  C7_23 
REMARK    7  A    between atoms: C7_23  and  N5_24 
ROOT
HETATM    1  C1  UNL     1      -2.415   0.837   0.344  1.00  0.00     0.334 C 
HETATM    2  N2  UNL     1      -3.702   0.455   0.856  1.00  0.00    -0.312 N 
ATOM      3  H2  UNL     1      -4.453   1.142   0.913  1.00  0.00     0.166 HD
HETATM    4  C2  UNL     1      -3.925  -0.875   1.280  1.00  0.00     0.324 C 
HETATM    5  O1  UNL     1      -4.728  -1.171   2.202  1.00  0.00    -0.247 OA
HETATM    6  N3  UNL     1      -3.160  -1.885   0.575  1.00  0.00    -0.277 N 
ATOM      7  H3  UNL     1      -3.265  -2.869   0.822  1.00  0.00     0.173 HD
HETATM    8  C3  UNL     1      -2.265  -1.505  -0.459  1.00  0.00     0.268 C 
HETATM    9  O2  UNL     1      -1.666  -2.389  -1.097  1.00  0.00    -0.270 OA
HETATM   10  C4  UNL     1      -2.035  -0.082  -0.789  1.00  0.00     0.273 C 
ENDROOT
BRANCH  10  11
HETATM   11  N4  UNL     1      -2.982   0.230  -1.869  1.00  0.00    -0.055 N 
ATOM     12  H43 UNL     1      -3.961   0.160  -1.592  1.00  0.00     0.276 HD
ATOM     13  H42 UNL     1      -3.003   1.217  -2.127  1.00  0.00     0.276 HD
ATOM     14  H41 UNL     1      -2.725  -0.392  -2.636  1.00  0.00     0.276 HD
ENDBRANCH  10  11
BRANCH  10  15
HETATM   15  C5  UNL     1      -0.668   0.195  -1.345  1.00  0.00     0.169 C 
BRANCH  15  16
HETATM   16  O3  UNL     1      -0.495  -0.637  -2.455  1.00  0.00    -0.392 OA
ATOM     17  H3  UNL     1       0.370  -0.462  -2.807  1.00  0.00     0.210 HD
ENDBRANCH  15  16
BRANCH  15  18
HETATM   18  C6  UNL     1       0.436  -0.006  -0.318  1.00  0.00     0.055 C 
BRANCH  18  19
HETATM   19  C7  UNL     1       1.756   0.297  -0.976  1.00  0.00     0.141 C 
BRANCH  19  20
HETATM   20  N5  UNL     1       2.889   0.152  -0.133  1.00  0.00    -0.251 N 
HETATM   21  C8  UNL     1       3.339   1.195   0.593  1.00  0.00     0.334 A 
HETATM   22  O4  UNL     1       2.719   2.280   0.490  1.00  0.00    -0.246 OA
HETATM   23  N6  UNL     1       4.412   1.008   1.375  1.00  0.00    -0.260 N 
HETATM   24  C9  UNL     1       5.038  -0.174   1.449  1.00  0.00     0.332 A 
ATOM     25  H6  UNL     1       4.762   1.789   1.930  1.00  0.00     0.175 HD
HETATM   26  O5  UNL     1       6.042  -0.322   2.190  1.00  0.00    -0.246 OA
HETATM   27  N7  UNL     1       4.586  -1.219   0.720  1.00  0.00    -0.260 N 
HETATM   28  C10 UNL     1       3.499  -1.050  -0.079  1.00  0.00     0.334 A 
ATOM     29  H7  UNL     1       5.055  -2.124   0.769  1.00  0.00     0.175 HD
HETATM   30  O6  UNL     1       3.115  -2.050  -0.738  1.00  0.00    -0.246 OA
ENDBRANCH  19  20
ENDBRANCH  18  19
ENDBRANCH  15  18
ENDBRANCH  10  15
BRANCH   1  31
HETATM   31  N1  UNL     1      -2.470   2.176  -0.166  1.00  0.00    -0.055 N 
ATOM     32  H13 UNL     1      -3.208   2.291  -0.861  1.00  0.00     0.276 HD
ATOM     33  H12 UNL     1      -2.817   2.837   0.530  1.00  0.00     0.276 HD
ATOM     34  H11 UNL     1      -1.556   2.447  -0.529  1.00  0.00     0.276 HD
ENDBRANCH   1  31
TORSDOF 7
