REMARK  8 active torsions:
REMARK  status: ('A' for Active; 'I' for Inactive)
REMARK    1  A    between atoms: N1_1  and  N2_4 
REMARK    2  A    between atoms: C1_6  and  N3_7 
REMARK    3  A    between atoms: C1_6  and  C2_12 
REMARK    4  A    between atoms: N3_7  and  N4_9 
REMARK    5  A    between atoms: C2_12  and  N5_13 
REMARK    6  A    between atoms: C2_12  and  C3_17 
REMARK    7  A    between atoms: C3_17  and  C4_18 
REMARK    8  A    between atoms: C3_17  and  N7_21 
ROOT
HETATM    1  C3  UNL     1      -1.409  -0.579  -0.355  1.00  0.00     0.211 C 
ENDROOT
BRANCH   1   2
HETATM    2  C2  UNL     1      -2.478   0.209   0.420  1.00  0.00     0.284 C 
BRANCH   2   3
HETATM    3  C1  UNL     1      -3.657   0.549  -0.353  1.00  0.00     0.143 C 
HETATM    4  N2  UNL     1      -3.555   1.201  -1.449  1.00  0.00    -0.293 N 
ATOM      5  H2  UNL     1      -2.623   1.471  -1.765  1.00  0.00     0.187 HD
BRANCH   4   6
HETATM    6  N1  UNL     1      -4.653   1.564  -2.238  1.00  0.00    -0.344 N 
ATOM      7  H12 UNL     1      -5.577   1.286  -1.907  1.00  0.00     0.176 HD
ATOM      8  H11 UNL     1      -4.572   2.084  -3.112  1.00  0.00     0.176 HD
ENDBRANCH   4   6
BRANCH   3   9
HETATM    9  N3  UNL     1      -4.933   0.165   0.100  1.00  0.00    -0.293 N 
ATOM     10  H3  UNL     1      -5.369  -0.700  -0.221  1.00  0.00     0.187 HD
BRANCH   9  11
HETATM   11  N4  UNL     1      -5.588   1.015   1.012  1.00  0.00    -0.344 N 
ATOM     12  H42 UNL     1      -5.139   1.876   1.324  1.00  0.00     0.176 HD
ATOM     13  H41 UNL     1      -6.513   0.737   1.340  1.00  0.00     0.176 HD
ENDBRANCH   9  11
ENDBRANCH   3   9
ENDBRANCH   2   3
BRANCH   2  14
HETATM   14  N5  UNL     1      -2.795  -0.463   1.671  1.00  0.00    -0.066 N 
ATOM     15  H53 UNL     1      -3.448   0.090   2.226  1.00  0.00     0.275 HD
ATOM     16  H52 UNL     1      -3.373  -1.287   1.506  1.00  0.00     0.275 HD
ATOM     17  H51 UNL     1      -1.966  -0.702   2.215  1.00  0.00     0.275 HD
ENDBRANCH   2  14
ENDBRANCH   1   2
BRANCH   1  18
HETATM   18  C4  UNL     1      -1.996  -1.811  -0.807  1.00  0.00     0.256 C 
HETATM   19  N6  UNL     1      -1.553  -3.145  -0.647  1.00  0.00    -0.060 NA
HETATM   20  O1  UNL     1      -3.096  -1.757  -1.466  1.00  0.00    -0.274 OA
ENDBRANCH   1  18
BRANCH   1  21
HETATM   21  N7  UNL     1      -0.231  -0.472   0.302  1.00  0.00    -0.369 N 
HETATM   22  C5  UNL     1       0.509   0.667   0.499  1.00  0.00     0.104 C 
HETATM   23  C6  UNL     1       0.407   2.076   0.474  1.00  0.00     0.104 C 
HETATM   24  N8  UNL     1       1.693   2.700   0.199  1.00  0.00    -0.373 N 
HETATM   25  C7  UNL     1       2.836   2.343   0.952  1.00  0.00     0.104 C 
ATOM     26  H8  UNL     1       1.770   3.398  -0.540  1.00  0.00     0.164 HD
HETATM   27  C8  UNL     1       3.582   1.222   0.435  1.00  0.00     0.100 C 
HETATM   28  N9  UNL     1       4.918   0.865   0.568  1.00  0.00    -0.393 N 
HETATM   29  C9  UNL     1       5.025  -0.418  -0.164  1.00  0.00     0.163 C 
ATOM     30  H9  UNL     1       5.656   1.371   1.058  1.00  0.00     0.159 HD
HETATM   31  C10 UNL     1       3.948  -1.432   0.039  1.00  0.00     0.079 C 
HETATM   32  N10 UNL     1       2.866  -1.418  -0.824  1.00  0.00    -0.379 N 
HETATM   33  C11 UNL     1       1.600  -1.857  -0.672  1.00  0.00     0.080 C 
ATOM     34  H10 UNL     1       3.060  -1.003  -1.735  1.00  0.00     0.164 HD
HETATM   35  C12 UNL     1       0.703  -1.572   0.470  1.00  0.00     0.167 C 
ENDBRANCH   1  21
TORSDOF 8
