REMARK  10 active torsions:
REMARK  status: ('A' for Active; 'I' for Inactive)
REMARK    1  A    between atoms: C3_5  and  C4_6 
REMARK    2  A    between atoms: C4_6  and  N2_7 
REMARK    3  A    between atoms: C6_14  and  N5_15 
REMARK    4  A    between atoms: C7_18  and  N6_19 
REMARK    5  A    between atoms: N6_19  and  C8_21 
REMARK    6  A    between atoms: C8_21  and  C9_22 
REMARK    7  A    between atoms: C8_21  and  C10_27 
REMARK    8  A    between atoms: C9_22  and  N7_23 
REMARK    9  A    between atoms: C10_27  and  O2_28 
REMARK   10  A    between atoms: N8_30  and  N9_31 
ROOT
HETATM    1  C1  UNL     1      -1.602   4.009  -2.747  1.00  0.00     0.049 C 
HETATM    2  C2  UNL     1      -1.082   3.046  -2.012  1.00  0.00     0.094 A 
HETATM    3  N1  UNL     1      -1.852   2.173  -1.361  1.00  0.00    -0.348 N 
ATOM      4  H1  UNL     1      -2.863   2.273  -1.448  1.00  0.00     0.166 HD
HETATM    5  C3  UNL     1      -1.376   1.155  -0.586  1.00  0.00     0.097 A 
HETATM    6  C7  UNL     1       0.027   1.060  -0.498  1.00  0.00     0.155 A 
HETATM    7  N8  UNL     1       0.826   1.926  -1.141  1.00  0.00    -0.206 N 
HETATM    8  C11 UNL     1       0.267   2.907  -1.890  1.00  0.00     0.293 A 
HETATM    9  O3  UNL     1       1.050   3.709  -2.486  1.00  0.00    -0.264 OA
ENDROOT
BRANCH   5  10
HETATM   10  C4  UNL     1      -2.231   0.376   0.005  1.00  0.00     0.168 C 
BRANCH  10  11
HETATM   11  N2  UNL     1      -2.092  -0.729   0.848  1.00  0.00    -0.092 N 
HETATM   12  N3  UNL     1      -2.037  -0.722   2.168  1.00  0.00    -0.230 N 
HETATM   13  C5  UNL     1      -1.974  -2.013   2.611  1.00  0.00     0.354 A 
ATOM     14  H3  UNL     1      -2.041   0.110   2.759  1.00  0.00     0.193 HD
HETATM   15  O1  UNL     1      -1.911  -2.389   3.811  1.00  0.00    -0.245 OA
HETATM   16  N4  UNL     1      -1.989  -2.825   1.531  1.00  0.00    -0.139 N 
HETATM   17  C6  UNL     1      -2.063  -2.007   0.448  1.00  0.00     0.701 A 
ATOM     18  H4  UNL     1      -1.952  -3.844   1.529  1.00  0.00     0.189 HD
BRANCH  17  19
HETATM   19  N5  UNL     1      -2.103  -2.451  -0.750  1.00  0.00    -0.233 N 
ATOM     20  H52 UNL     1      -2.159  -1.837  -1.563  1.00  0.00     0.174 HD
ATOM     21  H51 UNL     1      -2.081  -3.424  -1.055  1.00  0.00     0.174 HD
ENDBRANCH  17  19
ENDBRANCH  10  11
ENDBRANCH   5  10
BRANCH   6  22
HETATM   22  N6  UNL     1       0.455   0.107   0.211  1.00  0.00    -0.365 N 
ATOM     23  H6  UNL     1      -0.289  -0.458   0.619  1.00  0.00     0.161 HD
BRANCH  22  24
HETATM   24  C8  UNL     1       1.743  -0.337   0.555  1.00  0.00     0.132 C 
BRANCH  24  25
HETATM   25  C9  UNL     1       2.302  -1.444  -0.332  1.00  0.00     0.256 C 
BRANCH  25  26
HETATM   26  N7  UNL     1       1.539  -2.644  -0.333  1.00  0.00    -0.077 N 
ATOM     27  H73 UNL     1       1.412  -2.984   0.620  1.00  0.00     0.274 HD
ATOM     28  H72 UNL     1       0.569  -2.447  -0.580  1.00  0.00     0.274 HD
ATOM     29  H71 UNL     1       1.913  -3.385  -0.926  1.00  0.00     0.274 HD
ENDBRANCH  25  26
ENDBRANCH  24  25
BRANCH  24  30
HETATM   30  C10 UNL     1       1.701  -0.889   2.011  1.00  0.00     0.190 C 
BRANCH  30  31
HETATM   31  O2  UNL     1       3.011  -1.305   2.351  1.00  0.00    -0.399 OA
ATOM     32  H2  UNL     1       2.985  -1.642   3.239  1.00  0.00     0.209 HD
ENDBRANCH  30  31
ENDBRANCH  24  30
ENDBRANCH  22  24
ENDBRANCH   6  22
BRANCH   7  33
HETATM   33  N9  UNL     1       2.240   1.894  -1.085  1.00  0.00    -0.334 N 
ATOM     34  H92 UNL     1       2.661   1.155  -0.521  1.00  0.00     0.177 HD
ATOM     35  H91 UNL     1       2.847   2.552  -1.574  1.00  0.00     0.177 HD
ENDBRANCH   7  33
TORSDOF 10
