REMARK  7 active torsions:
REMARK  status: ('A' for Active; 'I' for Inactive)
REMARK    1  A    between atoms: C2_2  and  O1_3 
REMARK    2  A    between atoms: O1_3  and  C3_4 
REMARK    3  A    between atoms: C3_4  and  C4_6 
REMARK    4  A    between atoms: C4_6  and  N1_8 
REMARK    5  A    between atoms: C4_6  and  C6_12 
REMARK       I    between atoms: C6_12  and  N2_14 
REMARK    6  A    between atoms: N2_14  and  C7_16 
REMARK    7  A    between atoms: C10_24  and  C11_25 
ROOT
HETATM    1  C7  UNL     1      -0.934  -0.526  -0.170  1.00  0.00     0.403 C 
HETATM    2  N3  UNL     1      -1.678  -1.686   0.344  1.00  0.00    -0.034 N 
ATOM      3  H31 UNL     1      -1.141  -2.546   0.234  1.00  0.00     0.281 HD
ATOM      4  H32 UNL     1      -2.471  -1.911  -0.257  1.00  0.00     0.281 HD
HETATM    5  C8  UNL     1      -2.093  -1.506   1.701  1.00  0.00     0.254 C 
HETATM    6  C9  UNL     1      -3.589  -1.762   1.808  1.00  0.00     0.158 C 
HETATM    7  N4  UNL     1      -4.254  -0.584   1.310  1.00  0.00    -0.145 NA
HETATM    8  N5  UNL     1      -3.840  -0.206   0.048  1.00  0.00    -0.116 NA
HETATM    9  C10 UNL     1      -3.433   1.170   0.084  1.00  0.00     0.296 C 
HETATM   10  N7  UNL     1      -2.255   1.348  -0.767  1.00  0.00    -0.110 NA
HETATM   11  N8  UNL     1      -1.772   0.114  -1.131  1.00  0.00    -0.291 N 
ATOM     12  H8  UNL     1      -1.998  -0.316  -2.028  1.00  0.00     0.179 HD
ENDROOT
BRANCH   1  13
HETATM   13  N2  UNL     1       0.301  -1.028  -0.724  1.00  0.00    -0.314 N 
HETATM   14  C6  UNL     1       1.574  -0.738  -0.181  1.00  0.00     0.266 C 
HETATM   15  O3  UNL     1       1.677  -0.013   0.830  1.00  0.00    -0.270 OA
ATOM     16  H2  UNL     1       0.253  -1.623  -1.551  1.00  0.00     0.166 HD
BRANCH  14  17
HETATM   17  C4  UNL     1       2.799  -1.285  -0.798  1.00  0.00     0.285 C 
HETATM   18  C5  UNL     1       3.475  -2.206   0.196  1.00  0.00     0.068 C 
BRANCH  17  19
HETATM   19  C3  UNL     1       3.712  -0.176  -1.199  1.00  0.00     0.304 C 
HETATM   20  O2  UNL     1       4.105  -0.003  -2.378  1.00  0.00    -0.262 OA
BRANCH  19  21
HETATM   21  O1  UNL     1       4.137   0.694  -0.220  1.00  0.00    -0.320 OA
BRANCH  21  22
HETATM   22  C2  UNL     1       4.996   1.782  -0.449  1.00  0.00     0.174 C 
HETATM   23  C1  UNL     1       5.200   2.467   0.906  1.00  0.00     0.034 C 
ENDBRANCH  21  22
ENDBRANCH  19  21
ENDBRANCH  17  19
BRANCH  17  24
HETATM   24  N1  UNL     1       2.456  -2.099  -1.960  1.00  0.00    -0.052 N 
ATOM     25  H13 UNL     1       2.065  -1.538  -2.717  1.00  0.00     0.276 HD
ATOM     26  H12 UNL     1       3.286  -2.444  -2.442  1.00  0.00     0.276 HD
ATOM     27  H11 UNL     1       1.832  -2.857  -1.686  1.00  0.00     0.276 HD
ENDBRANCH  17  24
ENDBRANCH  14  17
ENDBRANCH   1  13
BRANCH   9  28
HETATM   28  C11 UNL     1      -4.506   2.033  -0.453  1.00  0.00     0.269 C 
HETATM   29  N6  UNL     1      -4.297   3.433  -0.503  1.00  0.00    -0.059 NA
HETATM   30  O4  UNL     1      -5.570   1.518  -0.851  1.00  0.00    -0.273 OA
ENDBRANCH   9  28
TORSDOF 7
