REMARK  8 active torsions:
REMARK  status: ('A' for Active; 'I' for Inactive)
REMARK    1  A    between atoms: N1_1  and  C1_5 
REMARK    2  A    between atoms: C1_5  and  C2_6 
REMARK    3  A    between atoms: C2_6  and  N2_7 
REMARK    4  A    between atoms: C6_21  and  N5_22 
REMARK       I    between atoms: N5_22  and  C7_24 
REMARK    5  A    between atoms: C7_24  and  C8_26 
REMARK    6  A    between atoms: C8_26  and  N6_27 
REMARK    7  A    between atoms: C8_26  and  C9_31 
REMARK       I    between atoms: C9_31  and  N7_33 
REMARK    8  A    between atoms: N7_33  and  N8_35 
ROOT
HETATM    1  C2  UNL     1      -2.086   0.416   0.156  1.00  0.00     0.255 C 
HETATM    2  C3  UNL     1      -2.652  -0.474  -0.867  1.00  0.00     0.266 C 
HETATM    3  O1  UNL     1      -2.832   0.034  -1.991  1.00  0.00    -0.270 OA
HETATM    4  N3  UNL     1      -3.024  -1.830  -0.755  1.00  0.00    -0.277 N 
ATOM      5  H3  UNL     1      -3.542  -2.228  -1.538  1.00  0.00     0.173 HD
HETATM    6  C4  UNL     1      -2.751  -2.704   0.340  1.00  0.00     0.329 C 
HETATM    7  O2  UNL     1      -3.270  -3.851   0.330  1.00  0.00    -0.247 OA
HETATM    8  N4  UNL     1      -1.930  -2.415   1.480  1.00  0.00    -0.277 N 
ATOM      9  H4  UNL     1      -1.991  -3.056   2.271  1.00  0.00     0.173 HD
HETATM   10  C5  UNL     1      -1.035  -1.309   1.605  1.00  0.00     0.251 C 
HETATM   11  O3  UNL     1      -0.313  -1.382   2.632  1.00  0.00    -0.271 OA
HETATM   12  C6  UNL     1      -0.805  -0.121   0.774  1.00  0.00     0.224 C 
ENDROOT
BRANCH  12  13
HETATM   13  N5  UNL     1       0.228  -0.324  -0.201  1.00  0.00    -0.343 N 
HETATM   14  C7  UNL     1       1.441   0.443  -0.200  1.00  0.00     0.258 C 
HETATM   15  O4  UNL     1       1.605   1.320   0.682  1.00  0.00    -0.271 OA
ATOM     16  H5  UNL     1       0.096  -1.037  -0.918  1.00  0.00     0.163 HD
BRANCH  14  17
HETATM   17  C8  UNL     1       2.511   0.256  -1.184  1.00  0.00     0.367 C 
BRANCH  17  18
HETATM   18  N6  UNL     1       2.198  -0.769  -2.161  1.00  0.00    -0.058 N 
ATOM     19  H63 UNL     1       1.962  -1.650  -1.705  1.00  0.00     0.275 HD
ATOM     20  H62 UNL     1       1.307  -0.578  -2.620  1.00  0.00     0.275 HD
ATOM     21  H61 UNL     1       2.943  -0.899  -2.846  1.00  0.00     0.275 HD
ENDBRANCH  17  18
BRANCH  17  22
HETATM   22  C9  UNL     1       3.825  -0.062  -0.531  1.00  0.00     0.275 C 
HETATM   23  O5  UNL     1       4.409  -1.144  -0.869  1.00  0.00    -0.269 OA
HETATM   24  N7  UNL     1       4.424   0.776   0.420  1.00  0.00    -0.274 N 
ATOM     25  H7  UNL     1       3.970   1.646   0.699  1.00  0.00     0.189 HD
BRANCH  24  26
HETATM   26  N8  UNL     1       5.660   0.404   0.987  1.00  0.00    -0.343 N 
ATOM     27  H82 UNL     1       6.101  -0.469   0.697  1.00  0.00     0.176 HD
ATOM     28  H81 UNL     1       6.096   1.014   1.679  1.00  0.00     0.176 HD
ENDBRANCH  24  26
ENDBRANCH  17  22
ENDBRANCH  14  17
ENDBRANCH  12  13
BRANCH   1  29
HETATM   29  C1  UNL     1      -1.865   1.809  -0.375  1.00  0.00     0.281 C 
BRANCH  29  30
HETATM   30  N1  UNL     1      -3.003   2.464  -0.849  1.00  0.00    -0.076 N 
ATOM     31  H13 UNL     1      -3.465   1.892  -1.556  1.00  0.00     0.274 HD
ATOM     32  H12 UNL     1      -3.723   2.477  -0.127  1.00  0.00     0.274 HD
ATOM     33  H11 UNL     1      -2.853   3.407  -1.208  1.00  0.00     0.274 HD
ENDBRANCH  29  30
ENDBRANCH   1  29
BRANCH   1  34
HETATM   34  N2  UNL     1      -3.036   0.544   1.269  1.00  0.00    -0.057 N 
ATOM     35  H23 UNL     1      -2.735   1.207   1.984  1.00  0.00     0.276 HD
ATOM     36  H22 UNL     1      -3.900   1.021   1.011  1.00  0.00     0.276 HD
ATOM     37  H21 UNL     1      -3.186  -0.399   1.628  1.00  0.00     0.276 HD
ENDBRANCH   1  34
TORSDOF 8
