REMARK  6 active torsions:
REMARK  status: ('A' for Active; 'I' for Inactive)
REMARK    1  A    between atoms: C3_4  and  O2_5 
REMARK    2  A    between atoms: O2_5  and  C4_6 
REMARK    3  A    between atoms: C6_8  and  O3_9 
REMARK    4  A    between atoms: C7_11  and  O4_12 
REMARK    5  A    between atoms: C8_14  and  O5_15 
REMARK    6  A    between atoms: C10_18  and  O6_19 
ROOT
HETATM    1  C4  UNL     1      -1.112  -0.576   0.499  1.00  0.00     0.158 C 
HETATM    2  C5  UNL     1      -1.922  -0.875  -0.749  1.00  0.00     0.069 C 
HETATM    3  C6  UNL     1      -3.291  -0.237  -0.484  1.00  0.00     0.152 C 
HETATM    4  C7  UNL     1      -2.859   1.021   0.265  1.00  0.00     0.178 C 
HETATM    5  C8  UNL     1      -1.878   0.466   1.273  1.00  0.00     0.178 C 
ENDROOT
BRANCH   1   6
HETATM    6  O2  UNL     1       0.128  -0.124   0.094  1.00  0.00    -0.353 OA
BRANCH   6   7
HETATM    7  C3  UNL     1       1.173  -0.920   0.480  1.00  0.00     0.263 C 
HETATM    8  O1  UNL     1       2.059  -0.304   1.360  1.00  0.00    -0.354 OA
HETATM    9  C2  UNL     1       2.895   0.362   0.472  1.00  0.00     0.149 C 
HETATM   10  C1  UNL     1       2.214   1.388  -0.358  1.00  0.00     0.042 C 
HETATM   11  C10 UNL     1       3.328  -0.790  -0.439  1.00  0.00     0.151 C 
HETATM   12  C9  UNL     1       1.980  -1.499  -0.623  1.00  0.00     0.095 C 
BRANCH  11  13
HETATM   13  O6  UNL     1       4.242  -1.607   0.198  1.00  0.00    -0.393 OA
ATOM     14  H6  UNL     1       4.511  -2.322  -0.367  1.00  0.00     0.210 HD
ENDBRANCH  11  13
ENDBRANCH   6   7
ENDBRANCH   1   6
BRANCH   5  15
HETATM   15  O5  UNL     1      -1.057   1.533   1.660  1.00  0.00    -0.390 OA
ATOM     16  H5  UNL     1      -1.540   2.190   2.148  1.00  0.00     0.210 HD
ENDBRANCH   5  15
BRANCH   3  17
HETATM   17  O3  UNL     1      -3.907   0.102  -1.685  1.00  0.00    -0.393 OA
ATOM     18  H3  UNL     1      -4.755   0.497  -1.521  1.00  0.00     0.210 HD
ENDBRANCH   3  17
BRANCH   4  19
HETATM   19  O4  UNL     1      -2.131   1.786  -0.641  1.00  0.00    -0.390 OA
ATOM     20  H4  UNL     1      -1.862   2.569  -0.175  1.00  0.00     0.210 HD
ENDBRANCH   4  19
TORSDOF 6
