REMARK  7 active torsions:
REMARK  status: ('A' for Active; 'I' for Inactive)
REMARK    1  A    between atoms: C3_3  and  O1_4 
REMARK    2  A    between atoms: C4_6  and  O2_7 
REMARK    3  A    between atoms: C5_9  and  O3_10 
REMARK    4  A    between atoms: C6_12  and  N1_13 
REMARK    5  A    between atoms: N1_13  and  O4_15 
REMARK    6  A    between atoms: O4_15  and  C8_16 
REMARK    7  A    between atoms: C9_17  and  C10_18 
ROOT
HETATM    1  C1  UNL     1      -1.950  -1.632   1.405  1.00  0.00     0.015 C 
HETATM    2  C2  UNL     1      -1.785  -0.679   0.266  1.00  0.00     0.040 C 
HETATM    3  C3  UNL     1      -2.700   0.533   0.344  1.00  0.00     0.155 C 
HETATM    4  C4  UNL     1      -2.148   1.342  -0.841  1.00  0.00     0.178 C 
HETATM    5  C5  UNL     1      -0.639   1.145  -0.694  1.00  0.00     0.174 C 
HETATM    6  C6  UNL     1      -0.438   0.015   0.269  1.00  0.00     0.147 C 
ENDROOT
BRANCH   6   7
HETATM    7  N1  UNL     1       0.664  -0.803   0.063  1.00  0.00    -0.276 N 
HETATM    8  C7  UNL     1       0.823  -1.503  -1.137  1.00  0.00     0.180 C 
BRANCH   7   9
HETATM    9  O4  UNL     1       1.600  -0.942   1.002  1.00  0.00    -0.187 OA
BRANCH   9  10
HETATM   10  C8  UNL     1       2.908  -0.607   0.678  1.00  0.00     0.090 C 
HETATM   11  C9  UNL     1       4.036  -0.303   0.378  1.00  0.00    -0.029 C 
BRANCH  11  12
HETATM   12  C10 UNL     1       5.365   0.079   0.003  1.00  0.00     0.148 C 
HETATM   13  N2  UNL     1       5.677   1.245  -0.446  1.00  0.00    -0.401 N 
ATOM     14  H22 UNL     1       4.922   1.925  -0.534  1.00  0.00     0.156 HD
ATOM     15  H21 UNL     1       6.623   1.517  -0.713  1.00  0.00     0.156 HD
ENDBRANCH  11  12
ENDBRANCH   9  10
ENDBRANCH   7   9
ENDBRANCH   6   7
BRANCH   5  16
HETATM   16  O3  UNL     1      -0.112   2.353  -0.248  1.00  0.00    -0.391 OA
ATOM     17  H3  UNL     1       0.826   2.231  -0.157  1.00  0.00     0.210 HD
ENDBRANCH   5  16
BRANCH   3  18
HETATM   18  O1  UNL     1      -2.454   1.234   1.505  1.00  0.00    -0.392 OA
ATOM     19  H1  UNL     1      -3.026   1.991   1.554  1.00  0.00     0.210 HD
ENDBRANCH   3  18
BRANCH   4  20
HETATM   20  O2  UNL     1      -2.514   0.685  -2.005  1.00  0.00    -0.390 OA
ATOM     21  H2  UNL     1      -2.173   1.185  -2.737  1.00  0.00     0.210 HD
ENDBRANCH   4  20
TORSDOF 7
