REMARK  7 active torsions:
REMARK  status: ('A' for Active; 'I' for Inactive)
REMARK    1  A    between atoms: N1_3  and  O1_4 
REMARK    2  A    between atoms: N1_3  and  C3_6 
REMARK    3  A    between atoms: C3_6  and  C6_16 
REMARK       I    between atoms: N2_7  and  C4_9 
REMARK       I    between atoms: C4_9  and  N3_11 
REMARK       I    between atoms: N3_11  and  C5_13 
REMARK    4  A    between atoms: C6_16  and  O5_17 
REMARK    5  A    between atoms: C6_16  and  C7_19 
REMARK    6  A    between atoms: C7_19  and  C8_21 
REMARK    7  A    between atoms: C10_26  and  C11_27 
ROOT
HETATM    1  C6  UNL     1      -0.099  -0.985  -1.473  1.00  0.00     0.259 C 
ENDROOT
BRANCH   1   2
HETATM    2  C3  UNL     1      -1.304  -0.595  -0.704  1.00  0.00     0.149 C 
HETATM    3  N2  UNL     1      -1.460   0.587  -0.253  1.00  0.00    -0.293 N 
HETATM    4  C4  UNL     1      -2.555   1.080   0.485  1.00  0.00     0.330 C 
ATOM      5  H2  UNL     1      -0.709   1.249  -0.448  1.00  0.00     0.172 HD
HETATM    6  O2  UNL     1      -3.504   1.674  -0.129  1.00  0.00    -0.246 OA
HETATM    7  N3  UNL     1      -2.629   0.932   1.904  1.00  0.00    -0.253 N 
HETATM    8  C5  UNL     1      -3.737   1.436   2.615  1.00  0.00     0.291 C 
ATOM      9  H3  UNL     1      -1.877   0.459   2.405  1.00  0.00     0.176 HD
HETATM   10  O3  UNL     1      -4.668   2.019   2.003  1.00  0.00    -0.629 OA
HETATM   11  O4  UNL     1      -3.803   1.289   3.991  1.00  0.00    -0.629 OA
BRANCH   2  12
HETATM   12  N1  UNL     1      -2.303  -1.573  -0.476  1.00  0.00    -0.225 N 
HETATM   13  C2  UNL     1      -2.065  -2.843  -0.706  1.00  0.00     0.093 C 
HETATM   14  C1  UNL     1      -3.106  -3.848  -0.469  1.00  0.00     0.057 C 
BRANCH  12  15
HETATM   15  O1  UNL     1      -3.530  -1.207  -0.014  1.00  0.00    -0.282 OA
ATOM     16  H1  UNL     1      -3.702  -0.288   0.152  1.00  0.00     0.245 HD
ENDBRANCH  12  15
ENDBRANCH   2  12
ENDBRANCH   1   2
BRANCH   1  17
HETATM   17  O5  UNL     1      -0.565  -1.378  -2.730  1.00  0.00    -0.380 OA
ATOM     18  H5  UNL     1       0.208  -1.628  -3.223  1.00  0.00     0.211 HD
ENDBRANCH   1  17
BRANCH   1  19
HETATM   19  C7  UNL     1       0.906   0.058  -1.633  1.00  0.00     0.195 C 
HETATM   20  O6  UNL     1       1.163   0.486  -2.756  1.00  0.00    -0.292 OA
BRANCH  19  21
HETATM   21  C8  UNL     1       1.641   0.634  -0.512  1.00  0.00     0.286 C 
HETATM   22  C9  UNL     1       2.564  -0.336   0.180  1.00  0.00     0.276 C 
HETATM   23  N4  UNL     1       3.679   0.455   0.668  1.00  0.00    -0.034 N 
HETATM   24  C10 UNL     1       3.404   1.813   0.244  1.00  0.00     0.482 C 
ATOM     25  H42 UNL     1       3.839   0.363   1.671  1.00  0.00     0.280 HD
ATOM     26  H41 UNL     1       4.590   0.108   0.368  1.00  0.00     0.280 HD
HETATM   27  N5  UNL     1       2.600   1.662  -0.948  1.00  0.00    -0.023 N 
ATOM     28  H52 UNL     1       3.117   1.446  -1.801  1.00  0.00     0.281 HD
ATOM     29  H51 UNL     1       2.187   2.522  -1.310  1.00  0.00     0.281 HD
BRANCH  24  30
HETATM   30  C11 UNL     1       4.670   2.514   0.014  1.00  0.00     0.233 C 
HETATM   31  O7  UNL     1       5.760   1.950   0.185  1.00  0.00    -0.645 OA
HETATM   32  O8  UNL     1       4.598   3.852  -0.406  1.00  0.00    -0.645 OA
ENDBRANCH  24  30
ENDBRANCH  19  21
ENDBRANCH   1  19
TORSDOF 7
