REMARK  8 active torsions:
REMARK  status: ('A' for Active; 'I' for Inactive)
REMARK    1  A    between atoms: C2_3  and  C3_4 
REMARK    2  A    between atoms: N2_5  and  O1_7 
REMARK    3  A    between atoms: N3_11  and  C6_12 
REMARK    4  A    between atoms: N5_15  and  C7_16 
REMARK    5  A    between atoms: C7_16  and  C8_17 
REMARK    6  A    between atoms: C10_20  and  N6_21 
REMARK    7  A    between atoms: C12_27  and  N8_28 
REMARK    8  A    between atoms: N9_31  and  N10_32 
ROOT
HETATM    1  C6  UNL     1       0.313  -0.257  -1.256  1.00  0.00     0.740 A 
HETATM    2  N4  UNL     1      -0.765   0.495  -0.997  1.00  0.00    -0.126 N 
ATOM      3  H4  UNL     1      -0.647   1.407  -0.555  1.00  0.00     0.206 HD
HETATM    4  N5  UNL     1      -1.987   0.072  -1.307  1.00  0.00    -0.280 N 
HETATM    5  C11 UNL     1      -2.193  -1.124  -1.891  1.00  0.00     0.161 A 
HETATM    6  C12 UNL     1      -1.095  -1.928  -2.173  1.00  0.00     0.155 A 
HETATM    7  N9  UNL     1       0.110  -1.453  -1.840  1.00  0.00    -0.072 N 
ENDROOT
BRANCH   1   8
HETATM    8  N3  UNL     1       1.640   0.170  -0.936  1.00  0.00    -0.092 N 
HETATM    9  N1  UNL     1       2.168   0.336   0.263  1.00  0.00    -0.275 N 
HETATM   10  C1  UNL     1       1.464   0.104   1.508  1.00  0.00     0.179 C 
HETATM   11  C2  UNL     1       3.448   0.749   0.199  1.00  0.00     0.070 A 
HETATM   12  C4  UNL     1       3.756   0.853  -1.139  1.00  0.00     0.052 A 
HETATM   13  C5  UNL     1       2.616   0.488  -1.816  1.00  0.00     0.138 A 
BRANCH  11  14
HETATM   14  C3  UNL     1       4.345   1.035   1.315  1.00  0.00     0.144 C 
HETATM   15  N2  UNL     1       3.976   0.911   2.544  1.00  0.00    -0.278 N 
ATOM     16  H2  UNL     1       3.024   0.603   2.743  1.00  0.00     0.193 HD
BRANCH  15  17
HETATM   17  O1  UNL     1       4.812   1.177   3.587  1.00  0.00    -0.290 OA
ATOM     18  H1  UNL     1       4.540   1.086   4.493  1.00  0.00     0.244 HD
ENDBRANCH  15  17
ENDBRANCH  11  14
ENDBRANCH   1   8
BRANCH   7  19
HETATM   19  N10 UNL     1       1.255  -2.228  -2.104  1.00  0.00    -0.322 N 
ATOM     20 2H10 UNL     1       2.174  -1.866  -1.850  1.00  0.00     0.178 HD
ATOM     21 1H10 UNL     1       1.101  -3.134  -2.546  1.00  0.00     0.178 HD
ENDBRANCH   7  19
BRANCH   4  22
HETATM   22  C7  UNL     1      -3.138   0.897  -1.020  1.00  0.00     0.206 C 
BRANCH  22  23
HETATM   23  C8  UNL     1      -3.675   0.591   0.370  1.00  0.00     0.037 A 
HETATM   24  C9  UNL     1      -4.614  -0.394   0.520  1.00  0.00     0.080 A 
HETATM   25  S1  UNL     1      -4.895  -0.361   2.204  1.00  0.00    -0.064 SA
HETATM   26  C10 UNL     1      -3.812   0.892   2.612  1.00  0.00     0.142 A 
HETATM   27  N7  UNL     1      -3.284   1.228   1.437  1.00  0.00    -0.338 N 
ATOM     28  H7  UNL     1      -2.587   1.970   1.373  1.00  0.00     0.168 HD
BRANCH  26  29
HETATM   29  N6  UNL     1      -3.553   1.408   3.795  1.00  0.00    -0.380 N 
ATOM     30  H62 UNL     1      -3.958   1.151   4.695  1.00  0.00     0.158 HD
ATOM     31  H61 UNL     1      -2.905   2.157   4.039  1.00  0.00     0.158 HD
ENDBRANCH  26  29
ENDBRANCH  22  23
ENDBRANCH   4  22
BRANCH   6  32
HETATM   32  N8  UNL     1      -1.266  -3.091  -2.739  1.00  0.00    -0.382 N 
ATOM     33  H82 UNL     1      -2.185  -3.453  -2.993  1.00  0.00     0.157 HD
ATOM     34  H81 UNL     1      -0.460  -3.681  -2.946  1.00  0.00     0.157 HD
ENDBRANCH   6  32
TORSDOF 8
