REMARK  1 active torsions:
REMARK  status: ('A' for Active; 'I' for Inactive)
REMARK       I    between atoms: N1_2  and  C3_4 
REMARK    1  A    between atoms: N3_6  and  N4_8 
ROOT
HETATM    1  N4  UNL     1       0.049  -0.141  -0.850  1.00  0.00    -0.319 N 
HETATM    2  C4  UNL     1      -0.933   0.365  -0.197  1.00  0.00     0.119 A 
HETATM    3  C5  UNL     1      -2.282   0.734   0.231  1.00  0.00    -0.015 A 
HETATM    4  C6  UNL     1      -2.745   0.306   1.607  1.00  0.00     0.018 C 
HETATM    5  C7  UNL     1      -2.711   2.142  -0.126  1.00  0.00     0.018 C 
HETATM    6  C8  UNL     1      -2.230  -0.283  -0.771  1.00  0.00    -0.011 A 
HETATM    7  C9  UNL     1      -2.277  -1.760  -0.309  1.00  0.00     0.018 C 
HETATM    8  C10 UNL     1      -1.844  -0.175  -2.220  1.00  0.00     0.033 C 
HETATM    9  C11 UNL     1      -0.434  -0.839  -2.059  1.00  0.00     0.144 C 
ENDROOT
BRANCH   1  10
HETATM   10  N3  UNL     1       1.385  -0.038  -0.588  1.00  0.00    -0.275 N 
HETATM   11  C3  UNL     1       1.973  -0.080   0.531  1.00  0.00     0.204 C 
HETATM   12  N1  UNL     1       3.409   0.058   0.497  1.00  0.00    -0.363 N 
HETATM   13  N2  UNL     1       1.306  -0.252   1.770  1.00  0.00    -0.062 NA
HETATM   14  C1  UNL     1       4.182  -0.348  -0.645  1.00  0.00     0.152 C 
HETATM   15  C2  UNL     1       4.056   0.616   1.641  1.00  0.00     0.152 C 
ATOM     16  H3  UNL     1       1.988   0.089  -1.401  1.00  0.00     0.189 HD
ENDBRANCH   1  10
TORSDOF 1
