REMARK  0 active torsions:
REMARK  status: ('A' for Active; 'I' for Inactive)
REMARK       I    between atoms: C3_3  and  N1_5 
ROOT
HETATM    1  C1  UNL     1       4.573   0.583  -2.143  1.00  0.00     0.022 C 
HETATM    2  C2  UNL     1       4.073   0.244  -1.099  1.00  0.00    -0.016 C 
HETATM    3  C3  UNL     1       3.493  -0.173   0.168  1.00  0.00     0.297 C 
HETATM    4  O1  UNL     1       4.211  -0.211   1.188  1.00  0.00    -0.258 OA
HETATM    5  N1  UNL     1       2.139  -0.524   0.216  1.00  0.00    -0.341 N 
HETATM    6  C4  UNL     1       1.267  -0.496  -0.944  1.00  0.00     0.129 C 
HETATM    7  C5  UNL     1      -0.059  -1.084  -0.508  1.00  0.00     0.051 C 
HETATM    8  C6  UNL     1      -0.635  -0.132   0.536  1.00  0.00     0.032 C 
HETATM    9  C7  UNL     1      -1.977  -0.632   1.038  1.00  0.00     0.031 C 
HETATM   10  C8  UNL     1      -3.091   0.296   0.592  1.00  0.00     0.007 C 
HETATM   11  C9  UNL     1      -2.962   0.588  -0.887  1.00  0.00     0.044 C 
HETATM   12  C10 UNL     1      -1.663   1.311  -1.098  1.00  0.00     0.056 C 
HETATM   13  N2  UNL     1      -0.714   1.166  -0.068  1.00  0.00    -0.393 N 
ATOM     14  H2  UNL     1      -0.118   1.938   0.231  1.00  0.00     0.159 HD
HETATM   15  C11 UNL     1       0.337  -0.040   1.696  1.00  0.00     0.051 C 
HETATM   16  C12 UNL     1       1.551  -0.940   1.469  1.00  0.00     0.129 C 
ENDROOT
TORSDOF 0
