REMARK  2 active torsions:
REMARK  status: ('A' for Active; 'I' for Inactive)
REMARK    1  A    between atoms: N1_2  and  C2_4 
REMARK    2  A    between atoms: C2_4  and  N2_6 
ROOT
HETATM    1  N2  UNL     1       1.532  -0.375   0.352  1.00  0.00    -0.357 N 
HETATM    2  C3  UNL     1       0.947  -1.108   1.454  1.00  0.00     0.126 C 
HETATM    3  C4  UNL     1      -0.283  -0.235   1.741  1.00  0.00     0.033 C 
HETATM    4  C5  UNL     1      -0.816  -0.066   0.339  1.00  0.00     0.005 C 
HETATM    5  C6  UNL     1      -1.690  -1.218  -0.078  1.00  0.00     0.043 C 
HETATM    6  C7  UNL     1      -3.039  -0.802   0.471  1.00  0.00     0.272 C 
HETATM    7  N3  UNL     1      -3.092   0.595   0.169  1.00  0.00     0.085 N 
HETATM    8  C8  UNL     1      -3.695   0.785  -1.132  1.00  0.00     0.309 C 
HETATM    9  C9  UNL     1      -1.738   1.110   0.205  1.00  0.00     0.283 C 
HETATM   10  C10 UNL     1       0.436   0.058  -0.487  1.00  0.00     0.136 C 
ENDROOT
BRANCH   1  11
HETATM   11  C2  UNL     1       2.936  -0.154   0.184  1.00  0.00     0.169 C 
HETATM   12  S1  UNL     1       4.009  -0.747   1.281  1.00  0.00    -0.041 SA
BRANCH  11  13
HETATM   13  N1  UNL     1       3.458   0.569  -0.910  1.00  0.00    -0.371 N 
HETATM   14  C1  UNL     1       4.872   0.772  -1.047  1.00  0.00     0.148 C 
ATOM     15  H1  UNL     1       2.823   0.951  -1.611  1.00  0.00     0.161 HD
ENDBRANCH  11  13
ENDBRANCH   1  11
TORSDOF 2
