REMARK  3 active torsions:
REMARK  status: ('A' for Active; 'I' for Inactive)
REMARK    1  A    between atoms: O1_1  and  C1_3 
REMARK    2  A    between atoms: C1_3  and  N1_4 
REMARK    3  A    between atoms: C1_3  and  N2_9 
ROOT
HETATM    1  N2  UNL     1      -0.469   0.284  -0.271  1.00  0.00    -0.347 N 
HETATM    2  C6  UNL     1      -1.504   1.280  -0.554  1.00  0.00     0.128 C 
HETATM    3  C7  UNL     1      -2.690   0.805  -1.292  1.00  0.00     0.039 C 
HETATM    4  C8  UNL     1      -3.805   0.248  -0.500  1.00  0.00     0.115 C 
HETATM    5  N3  UNL     1      -3.540   0.194   0.922  1.00  0.00    -0.421 N 
ATOM      6  H3  UNL     1      -4.048   0.777   1.587  1.00  0.00     0.153 HD
HETATM    7  C9  UNL     1      -2.537  -0.712   1.338  1.00  0.00     0.115 C 
HETATM    8  C10 UNL     1      -1.911  -1.571   0.311  1.00  0.00     0.039 C 
HETATM    9  C11 UNL     1      -0.454  -1.130  -0.030  1.00  0.00     0.128 C 
ENDROOT
BRANCH   1  10
HETATM   10  C1  UNL     1       0.771   0.934  -0.220  1.00  0.00     0.217 C 
BRANCH  10  11
HETATM   11  O1  UNL     1       0.760   2.248  -0.371  1.00  0.00    -0.333 OA
ATOM     12  H1  UNL     1      -0.118   2.588  -0.497  1.00  0.00     0.220 HD
ENDBRANCH  10  11
BRANCH  10  13
HETATM   13  N1  UNL     1       2.057   0.436  -0.035  1.00  0.00    -0.348 N 
HETATM   14  C2  UNL     1       2.551  -0.883   0.135  1.00  0.00     0.126 C 
HETATM   15  C3  UNL     1       4.059  -0.862  -0.170  1.00  0.00     0.021 C 
HETATM   16  C4  UNL     1       4.404   0.517   0.396  1.00  0.00     0.021 C 
HETATM   17  C5  UNL     1       3.231   1.359   0.028  1.00  0.00     0.126 C 
ENDBRANCH  10  13
ENDBRANCH   1  10
TORSDOF 3
