REMARK  7 active torsions:
REMARK  status: ('A' for Active; 'I' for Inactive)
REMARK    1  A    between atoms: C2_2  and  O1_3 
REMARK    2  A    between atoms: C2_2  and  C22_26 
REMARK    3  A    between atoms: O1_3  and  C3_4 
REMARK    4  A    between atoms: C3_4  and  C5_6 
REMARK    5  A    between atoms: C3_4  and  C16_19 
REMARK    6  A    between atoms: C5_6  and  C6_7 
REMARK    7  A    between atoms: C6_7  and  O2_8 
ROOT
HETATM    1  C16 UNL     1      -2.814  -0.720   0.553  1.00  0.00     0.080 C 
HETATM    2  C17 UNL     1      -2.370  -0.390   1.906  1.00  0.00     0.072 C 
HETATM    3  N1  UNL     1      -2.032  -0.124   3.002  1.00  0.00    -0.196 NA
HETATM    4  C18 UNL     1      -2.906  -2.221   0.502  1.00  0.00     0.028 C 
HETATM    5  C19 UNL     1      -4.301  -2.579   0.999  1.00  0.00     0.002 C 
HETATM    6  C20 UNL     1      -5.091  -1.313   1.085  1.00  0.00     0.002 C 
HETATM    7  C21 UNL     1      -4.219  -0.268   0.387  1.00  0.00     0.028 C 
ENDROOT
BRANCH   1   8
HETATM    8  C3  UNL     1      -1.802  -0.161  -0.413  1.00  0.00     0.082 C 
HETATM    9  C4  UNL     1      -2.122  -0.753  -1.780  1.00  0.00     0.048 C 
BRANCH   8  10
HETATM   10  O1  UNL     1      -1.582   1.150  -0.423  1.00  0.00    -0.363 OA
BRANCH  10  11
HETATM   11  C2  UNL     1      -2.432   2.081  -0.799  1.00  0.00     0.219 C 
HETATM   12  C1  UNL     1      -1.968   2.882  -2.052  1.00  0.00     0.051 C 
BRANCH  11  13
HETATM   13  C22 UNL     1      -2.535   3.124   0.234  1.00  0.00     0.202 C 
HETATM   14  O3  UNL     1      -3.338   4.088   0.136  1.00  0.00    -0.646 OA
HETATM   15  O4  UNL     1      -1.740   3.070   1.354  1.00  0.00    -0.646 OA
ENDBRANCH  11  13
ENDBRANCH  10  11
ENDBRANCH   8  10
BRANCH   8  16
HETATM   16  C5  UNL     1      -0.493  -0.784   0.068  1.00  0.00     0.077 C 
BRANCH  16  17
HETATM   17  C6  UNL     1       0.719  -0.552  -0.711  1.00  0.00     0.060 C 
HETATM   18  C7  UNL     1       1.328   0.792  -0.725  1.00  0.00     0.038 C 
HETATM   19  C8  UNL     1       1.816   1.290   0.612  1.00  0.00     0.003 C 
HETATM   20  C9  UNL     1       3.272   1.747   0.556  1.00  0.00     0.000 C 
HETATM   21  C10 UNL     1       4.189   0.890   1.355  1.00  0.00     0.000 C 
HETATM   22  C11 UNL     1       5.370   0.363   0.605  1.00  0.00     0.000 C 
HETATM   23  C12 UNL     1       5.029  -0.501  -0.563  1.00  0.00     0.000 C 
HETATM   24  C13 UNL     1       4.238  -1.727  -0.212  1.00  0.00     0.000 C 
HETATM   25  C14 UNL     1       2.918  -1.773  -0.997  1.00  0.00     0.003 C 
HETATM   26  C15 UNL     1       1.745  -1.546  -0.111  1.00  0.00     0.038 C 
BRANCH  17  27
HETATM   27  O2  UNL     1       0.653  -1.007  -2.047  1.00  0.00    -0.390 OA
ATOM     28  H2  UNL     1       1.442  -0.856  -2.554  1.00  0.00     0.210 HD
ENDBRANCH  17  27
ENDBRANCH  16  17
ENDBRANCH   8  16
ENDBRANCH   1   8
TORSDOF 7
