REMARK  7 active torsions:
REMARK  status: ('A' for Active; 'I' for Inactive)
REMARK    1  A    between atoms: O1_2  and  C2_3 
REMARK    2  A    between atoms: C4_5  and  C5_6 
REMARK    3  A    between atoms: C5_6  and  C6_7 
REMARK    4  A    between atoms: C6_7  and  C7_8 
REMARK    5  A    between atoms: C7_8  and  O2_9 
REMARK    6  A    between atoms: C9_12  and  C10_13 
REMARK    7  A    between atoms: C24_28  and  O4_29 
ROOT
HETATM    1  C2  UNL     1       3.448  -0.291   1.996  1.00  0.00     0.102 A 
HETATM    2  C3  UNL     1       4.174  -0.831   0.961  1.00  0.00     0.046 A 
HETATM    3  C4  UNL     1       3.661  -0.940  -0.309  1.00  0.00    -0.055 A 
HETATM    4  C8  UNL     1       2.373  -0.483  -0.522  1.00  0.00     0.020 A 
HETATM    5  C9  UNL     1       1.596   0.066   0.465  1.00  0.00     0.007 A 
HETATM    6  C24 UNL     1       2.176   0.147   1.730  1.00  0.00     0.107 A 
ENDROOT
BRANCH   5   7
HETATM    7  C10 UNL     1       0.208   0.567   0.257  1.00  0.00     0.158 C 
HETATM    8  C11 UNL     1      -0.308   0.282  -1.129  1.00  0.00     0.042 C 
HETATM    9  C12 UNL     1      -1.742   0.626  -1.188  1.00  0.00    -0.000 C 
HETATM   10  C13 UNL     1      -2.545   0.218  -2.346  1.00  0.00     0.010 C 
HETATM   11  C22 UNL     1      -2.418  -0.146  -0.050  1.00  0.00    -0.010 C 
HETATM   12  C14 UNL     1      -3.968   0.335  -1.765  1.00  0.00    -0.013 C 
HETATM   13  C15 UNL     1      -4.772  -0.809  -2.393  1.00  0.00     0.010 C 
HETATM   14  C16 UNL     1      -3.856   0.057  -0.305  1.00  0.00     0.004 C 
HETATM   15  C17 UNL     1      -4.360   1.142   0.598  1.00  0.00    -0.013 C 
HETATM   16  C18 UNL     1      -5.874   1.220   0.385  1.00  0.00     0.010 C 
HETATM   17  C19 UNL     1      -4.162   0.668   2.029  1.00  0.00     0.007 C 
HETATM   18  C20 UNL     1      -2.728   0.397   2.376  1.00  0.00     0.033 C 
HETATM   19  C21 UNL     1      -1.885   0.562   1.181  1.00  0.00     0.131 C 
HETATM   20  O3  UNL     1      -0.572   0.105   1.286  1.00  0.00    -0.375 OA
HETATM   21  C23 UNL     1      -2.094  -1.597  -0.055  1.00  0.00     0.018 C 
ENDBRANCH   5   7
BRANCH   6  22
HETATM   22  O4  UNL     1       1.415   0.698   2.750  1.00  0.00    -0.357 OA
ATOM     23  H4  UNL     1       0.534   1.001   2.566  1.00  0.00     0.217 HD
ENDBRANCH   6  22
BRANCH   3  24
HETATM   24  C5  UNL     1       4.403  -1.511  -1.445  1.00  0.00     0.041 C 
BRANCH  24  25
HETATM   25  C6  UNL     1       5.202  -0.506  -2.218  1.00  0.00     0.030 C 
BRANCH  25  26
HETATM   26  C7  UNL     1       6.246   0.199  -1.385  1.00  0.00     0.164 C 
BRANCH  26  27
HETATM   27  O2  UNL     1       6.906   1.096  -2.226  1.00  0.00    -0.401 OA
ATOM     28  H2  UNL     1       7.563   1.539  -1.702  1.00  0.00     0.209 HD
ENDBRANCH  26  27
ENDBRANCH  25  26
ENDBRANCH  24  25
ENDBRANCH   3  24
BRANCH   1  29
HETATM   29  O1  UNL     1       3.949  -0.169   3.300  1.00  0.00    -0.353 OA
HETATM   30  C1  UNL     1       5.272  -0.640   3.512  1.00  0.00     0.210 C 
ENDBRANCH   1  29
TORSDOF 7
