REMARK  11 active torsions:
REMARK  status: ('A' for Active; 'I' for Inactive)
REMARK    1  A    between atoms: O1_1  and  N1_3 
REMARK    2  A    between atoms: C1_5  and  N2_6 
REMARK    3  A    between atoms: C1_5  and  S1_17 
REMARK    4  A    between atoms: N2_6  and  C2_8 
REMARK    5  A    between atoms: S1_17  and  C11_18 
REMARK    6  A    between atoms: C11_18  and  C12_19 
REMARK    7  A    between atoms: C12_19  and  C13_20 
REMARK    8  A    between atoms: C13_20  and  C14_21 
REMARK    9  A    between atoms: C15_22  and  C16_23 
REMARK   10  A    between atoms: C16_23  and  O2_24 
REMARK   11  A    between atoms: O2_24  and  C17_25 
ROOT
HETATM    1  N1  UNL     1      -4.018  -3.327  -0.459  1.00  0.00    -0.247 N 
ATOM      2  H1  UNL     1      -4.874  -3.171  -0.991  1.00  0.00     0.196 HD
HETATM    3  C1  UNL     1      -3.206  -2.343  -0.355  1.00  0.00     0.160 C 
ENDROOT
BRANCH   3   4
HETATM    4  N2  UNL     1      -3.526  -1.116  -0.967  1.00  0.00    -0.360 N 
ATOM      5  H2  UNL     1      -3.044  -0.892  -1.837  1.00  0.00     0.162 HD
BRANCH   4   6
HETATM    6  C2  UNL     1      -4.461  -0.162  -0.481  1.00  0.00     0.033 C 
HETATM    7  C3  UNL     1      -4.148   0.372   0.888  1.00  0.00     0.035 C 
HETATM    8  C4  UNL     1      -5.183   1.364   1.333  1.00  0.00    -0.012 C 
HETATM    9  C5  UNL     1      -6.604   0.790   1.219  1.00  0.00     0.010 C 
HETATM   10  C9  UNL     1      -5.316   2.513   0.321  1.00  0.00     0.010 C 
HETATM   11  C6  UNL     1      -6.664   0.613  -0.306  1.00  0.00    -0.008 C 
HETATM   12  C7  UNL     1      -5.901  -0.689  -0.568  1.00  0.00     0.036 C 
HETATM   13  C8  UNL     1      -5.812   1.705  -0.887  1.00  0.00    -0.008 C 
HETATM   14  C10 UNL     1      -4.551   1.016  -1.427  1.00  0.00     0.036 C 
ENDBRANCH   4   6
ENDBRANCH   3   4
BRANCH   3  15
HETATM   15  S1  UNL     1      -1.716  -2.585   0.560  1.00  0.00    -0.092 SA
BRANCH  15  16
HETATM   16  C11 UNL     1      -0.621  -1.186   0.641  1.00  0.00     0.083 C 
BRANCH  16  17
HETATM   17  C12 UNL     1       0.015  -0.783  -0.646  1.00  0.00     0.022 C 
BRANCH  17  18
HETATM   18  C13 UNL     1       0.916   0.410  -0.443  1.00  0.00     0.095 C 
BRANCH  18  19
HETATM   19  C14 UNL     1       1.975   0.143   0.498  1.00  0.00    -0.104 C 
HETATM   20  C15 UNL     1       2.852  -0.059   1.291  1.00  0.00    -0.081 C 
BRANCH  20  21
HETATM   21  C16 UNL     1       3.899  -0.282   2.262  1.00  0.00     0.261 C 
BRANCH  21  22
HETATM   22  O2  UNL     1       5.131   0.208   1.906  1.00  0.00    -0.374 OA
BRANCH  22  23
HETATM   23  C17 UNL     1       5.662  -0.314   0.752  1.00  0.00     0.122 C 
HETATM   24  C18 UNL     1       7.045  -0.898   0.961  1.00  0.00     0.032 C 
HETATM   25  C19 UNL     1       8.082   0.205   1.112  1.00  0.00     0.002 C 
HETATM   26  C20 UNL     1       8.272   0.962  -0.170  1.00  0.00     0.000 C 
HETATM   27  C21 UNL     1       7.087   0.702  -1.050  1.00  0.00     0.002 C 
HETATM   28  C22 UNL     1       5.803   0.820  -0.250  1.00  0.00     0.032 C 
ENDBRANCH  22  23
ENDBRANCH  21  22
ENDBRANCH  20  21
ENDBRANCH  18  19
ENDBRANCH  17  18
ENDBRANCH  16  17
ENDBRANCH  15  16
ENDBRANCH   3  15
BRANCH   1  29
HETATM   29  O1  UNL     1      -3.837  -4.563   0.079  1.00  0.00    -0.288 OA
ATOM     30  H1  UNL     1      -4.440  -5.293   0.002  1.00  0.00     0.244 HD
ENDBRANCH   1  29
TORSDOF 11
