REMARK  7 active torsions:
REMARK  status: ('A' for Active; 'I' for Inactive)
REMARK    1  A    between atoms: C2_2  and  O1_3 
REMARK    2  A    between atoms: O1_3  and  C3_4 
REMARK    3  A    between atoms: C3_4  and  O2_5 
REMARK    4  A    between atoms: C3_4  and  C5_7 
REMARK    5  A    between atoms: C5_7  and  O3_8 
REMARK    6  A    between atoms: C15_19  and  C16_20 
REMARK    7  A    between atoms: C16_20  and  O4_23 
ROOT
HETATM    1  C5  UNL     1      -2.245   0.438  -0.696  1.00  0.00     0.115 C 
HETATM    2  C6  UNL     1      -2.151  -0.901  -1.384  1.00  0.00     0.044 C 
HETATM    3  C7  UNL     1      -0.673  -1.144  -1.637  1.00  0.00     0.014 C 
HETATM    4  C8  UNL     1       0.040   0.175  -1.319  1.00  0.00    -0.026 C 
HETATM    5  C9  UNL     1      -0.194   1.021  -2.554  1.00  0.00     0.017 C 
HETATM    6  C10 UNL     1       1.483  -0.008  -0.963  1.00  0.00    -0.032 C 
HETATM    7  C11 UNL     1       2.223   1.026  -1.856  1.00  0.00     0.016 C 
HETATM    8  C12 UNL     1       1.960  -1.333  -1.550  1.00  0.00     0.010 C 
HETATM    9  C13 UNL     1       2.311  -2.371  -0.540  1.00  0.00     0.001 C 
HETATM   10  C14 UNL     1       3.493  -1.713   0.197  1.00  0.00     0.008 C 
HETATM   11  C15 UNL     1       2.836  -0.698   1.089  1.00  0.00     0.024 C 
HETATM   12  C19 UNL     1       1.901   0.245   0.432  1.00  0.00     0.001 C 
HETATM   13  C20 UNL     1       0.790   0.507   1.439  1.00  0.00     0.007 C 
HETATM   14  C21 UNL     1      -0.526  -0.066   1.001  1.00  0.00     0.013 C 
HETATM   15  C22 UNL     1      -0.862   0.723  -0.246  1.00  0.00    -0.000 C 
HETATM   16  C23 UNL     1      -0.708   2.186   0.013  1.00  0.00     0.019 C 
ENDROOT
BRANCH   1  17
HETATM   17  C3  UNL     1      -3.310   0.352   0.351  1.00  0.00     0.293 C 
BRANCH  17  18
HETATM   18  O1  UNL     1      -4.494  -0.058  -0.340  1.00  0.00    -0.359 OA
BRANCH  18  19
HETATM   19  C2  UNL     1      -5.114  -1.126   0.237  1.00  0.00     0.166 C 
HETATM   20  C1  UNL     1      -6.359  -1.461  -0.598  1.00  0.00     0.033 C 
ENDBRANCH  18  19
ENDBRANCH  17  18
BRANCH  17  21
HETATM   21  O2  UNL     1      -3.673   1.614   0.865  1.00  0.00    -0.363 OA
HETATM   22  C4  UNL     1      -3.865   1.617   2.230  1.00  0.00     0.204 C 
ENDBRANCH  17  21
ENDBRANCH   1  17
BRANCH   1  23
HETATM   23  O3  UNL     1      -2.719   1.417  -1.607  1.00  0.00    -0.384 OA
ATOM     24  H3  UNL     1      -2.043   1.472  -2.272  1.00  0.00     0.210 HD
ENDBRANCH   1  23
BRANCH  11  25
HETATM   25  C16 UNL     1       3.935  -0.081   1.904  1.00  0.00     0.054 C 
HETATM   26  C17 UNL     1       3.502   0.970   2.874  1.00  0.00     0.045 C 
HETATM   27  C18 UNL     1       5.063   0.496   1.071  1.00  0.00     0.045 C 
BRANCH  25  28
HETATM   28  O4  UNL     1       4.565  -1.075   2.701  1.00  0.00    -0.390 OA
ATOM     29  H4  UNL     1       5.261  -0.684   3.217  1.00  0.00     0.210 HD
ENDBRANCH  25  28
ENDBRANCH  11  25
TORSDOF 7
