REMARK  6 active torsions:
REMARK  status: ('A' for Active; 'I' for Inactive)
REMARK    1  A    between atoms: C5_5  and  C6_6 
REMARK    2  A    between atoms: C6_6  and  O1_7 
REMARK    3  A    between atoms: C6_6  and  C7_9 
REMARK    4  A    between atoms: C7_9  and  C8_10 
REMARK    5  A    between atoms: C8_10  and  C9_11 
REMARK    6  A    between atoms: C16_19  and  O2_20 
ROOT
HETATM    1  C9  UNL     1       1.181  -2.043   0.436  1.00  0.00     0.262 A 
HETATM    2  N1  UNL     1      -0.089  -1.640   0.559  1.00  0.00     0.112 N 
HETATM    3  C10 UNL     1      -1.006  -0.698   0.852  1.00  0.00     0.233 C 
HETATM    4  C11 UNL     1      -1.733  -1.108   2.151  1.00  0.00     0.063 C 
HETATM    5  C12 UNL     1      -3.061  -0.490   2.233  1.00  0.00    -0.021 C 
HETATM    6  C13 UNL     1      -3.732   0.107   1.279  1.00  0.00    -0.075 C 
HETATM    7  C14 UNL     1      -5.104   0.699   1.528  1.00  0.00     0.037 C 
HETATM    8  C15 UNL     1      -5.161   1.951   0.705  1.00  0.00     0.036 C 
HETATM    9  C16 UNL     1      -3.801   2.550   0.434  1.00  0.00     0.119 C 
HETATM   10  C17 UNL     1      -2.919   1.689  -0.417  1.00  0.00     0.045 C 
HETATM   11  C18 UNL     1      -3.175   0.232  -0.077  1.00  0.00    -0.013 C 
HETATM   12  C19 UNL     1      -4.272  -0.258  -1.037  1.00  0.00     0.021 C 
HETATM   13  C20 UNL     1      -2.004  -0.637  -0.285  1.00  0.00     0.032 C 
HETATM   14  C21 UNL     1      -1.272  -0.340  -1.574  1.00  0.00     0.010 C 
HETATM   15  C22 UNL     1      -0.018  -1.163  -1.701  1.00  0.00     0.044 C 
HETATM   16  C23 UNL     1       0.837  -0.993  -0.455  1.00  0.00     0.188 A 
HETATM   17  C24 UNL     1       1.170   0.425  -0.192  1.00  0.00     0.051 C 
ENDROOT
BRANCH   1  18
HETATM   18  C8  UNL     1       2.321  -1.872   1.407  1.00  0.00     0.041 C 
BRANCH  18  19
HETATM   19  C7  UNL     1       3.611  -2.513   0.999  1.00  0.00     0.041 C 
BRANCH  19  20
HETATM   20  C6  UNL     1       4.288  -2.051  -0.229  1.00  0.00     0.175 C 
BRANCH  20  21
HETATM   21  C5  UNL     1       4.733  -0.652  -0.252  1.00  0.00     0.082 A 
HETATM   22  C4  UNL     1       5.266  -0.045  -1.367  1.00  0.00     0.038 A 
HETATM   23  C3  UNL     1       5.565   1.254  -1.018  1.00  0.00     0.035 A 
HETATM   24  C2  UNL     1       5.199   1.384   0.302  1.00  0.00     0.049 A 
HETATM   25  C1  UNL     1       5.354   2.654   1.089  1.00  0.00     0.076 C 
HETATM   26  O3  UNL     1       4.723   0.251   0.698  1.00  0.00    -0.317 OA
ENDBRANCH  20  21
BRANCH  20  27
HETATM   27  O1  UNL     1       3.531  -2.349  -1.381  1.00  0.00    -0.389 OA
ATOM     28  H1  UNL     1       3.243  -3.254  -1.366  1.00  0.00     0.210 HD
ENDBRANCH  20  27
ENDBRANCH  19  20
ENDBRANCH  18  19
ENDBRANCH   1  18
BRANCH   9  29
HETATM   29  O2  UNL     1      -4.019   3.810  -0.153  1.00  0.00    -0.396 OA
ATOM     30  H2  UNL     1      -3.164   4.187  -0.323  1.00  0.00     0.210 HD
ENDBRANCH   9  29
TORSDOF 6
