REMARK  6 active torsions:
REMARK  status: ('A' for Active; 'I' for Inactive)
REMARK    1  A    between atoms: N1_2  and  C2_5 
REMARK    2  A    between atoms: C2_5  and  C3_6 
REMARK    3  A    between atoms: C3_6  and  C4_7 
REMARK    4  A    between atoms: C4_7  and  O1_8 
REMARK    5  A    between atoms: O1_8  and  C5_9 
REMARK    6  A    between atoms: C13_18  and  O3_19 
ROOT
HETATM    1  C5  UNL     1       2.233   0.755   0.019  1.00  0.00     0.071 A 
HETATM    2  C6  UNL     1       0.988   1.159   0.426  1.00  0.00    -0.034 A 
HETATM    3  C7  UNL     1       0.291   0.484   1.528  1.00  0.00     0.043 C 
HETATM    4  C8  UNL     1      -1.083   0.017   1.317  1.00  0.00    -0.006 C 
HETATM    5  C9  UNL     1      -2.026   0.706   2.295  1.00  0.00     0.006 C 
HETATM    6  C10 UNL     1      -3.464   0.409   2.083  1.00  0.00     0.013 C 
HETATM    7  C11 UNL     1      -3.901   0.207   0.671  1.00  0.00     0.067 C 
HETATM    8  C12 UNL     1      -5.180  -0.590   0.695  1.00  0.00     0.160 C 
HETATM    9  O2  UNL     1      -5.762  -0.802   1.744  1.00  0.00    -0.295 OA
HETATM   10  C13 UNL     1      -5.725  -1.113  -0.558  1.00  0.00     0.188 C 
HETATM   11  C14 UNL     1      -4.733  -1.502  -1.590  1.00  0.00     0.040 C 
HETATM   12  C15 UNL     1      -3.432  -0.787  -1.533  1.00  0.00     0.013 C 
HETATM   13  C16 UNL     1      -2.922  -0.595  -0.140  1.00  0.00    -0.029 C 
HETATM   14  C17 UNL     1      -2.802  -1.974   0.485  1.00  0.00     0.016 C 
HETATM   15  C18 UNL     1      -1.603   0.097  -0.081  1.00  0.00    -0.001 C 
HETATM   16  C19 UNL     1      -1.687   1.555  -0.487  1.00  0.00     0.007 C 
HETATM   17  C20 UNL     1      -0.518   1.932  -1.347  1.00  0.00     0.018 C 
HETATM   18  C21 UNL     1       0.649   2.291  -0.448  1.00  0.00    -0.000 A 
HETATM   19  C22 UNL     1       0.408   3.571   0.305  1.00  0.00     0.024 C 
HETATM   20  C23 UNL     1       1.800   2.489  -1.353  1.00  0.00    -0.010 A 
HETATM   21  C24 UNL     1       2.695   1.580  -1.054  1.00  0.00     0.034 A 
ENDROOT
BRANCH   1  22
HETATM   22  O1  UNL     1       2.873  -0.293   0.611  1.00  0.00    -0.351 OA
BRANCH  22  23
HETATM   23  C4  UNL     1       3.788  -1.225   0.208  1.00  0.00     0.177 C 
BRANCH  23  24
HETATM   24  C3  UNL     1       5.144  -0.770  -0.228  1.00  0.00     0.054 C 
BRANCH  24  25
HETATM   25  C2  UNL     1       5.924  -2.030  -0.612  1.00  0.00     0.234 C 
BRANCH  25  26
HETATM   26  N1  UNL     1       7.269  -1.744  -1.032  1.00  0.00    -0.079 N 
HETATM   27  C1  UNL     1       8.093  -1.274   0.073  1.00  0.00     0.266 C 
ATOM     28  H12 UNL     1       7.283  -1.086  -1.811  1.00  0.00     0.276 HD
ATOM     29  H11 UNL     1       7.692  -2.548  -1.495  1.00  0.00     0.276 HD
ENDBRANCH  25  26
ENDBRANCH  24  25
ENDBRANCH  23  24
ENDBRANCH  22  23
ENDBRANCH   1  22
BRANCH  10  30
HETATM   30  O3  UNL     1      -6.672  -0.189  -1.051  1.00  0.00    -0.388 OA
ATOM     31  H3  UNL     1      -7.026  -0.529  -1.865  1.00  0.00     0.210 HD
ENDBRANCH  10  30
TORSDOF 6
