REMARK  6 active torsions:
REMARK  status: ('A' for Active; 'I' for Inactive)
REMARK    1  A    between atoms: C3_3  and  C4_4 
REMARK    2  A    between atoms: C4_4  and  C5_5 
REMARK    3  A    between atoms: C5_5  and  O1_8 
REMARK    4  A    between atoms: C11_13  and  O2_14 
REMARK    5  A    between atoms: O2_14  and  C12_15 
REMARK    6  A    between atoms: C19_22  and  C20_23 
ROOT
HETATM    1  C1  UNL     1      -2.967  -0.801  -2.939  1.00  0.00     0.044 C 
HETATM    2  C2  UNL     1      -2.073  -0.023  -2.076  1.00  0.00    -0.073 C 
HETATM    3  C3  UNL     1      -1.505  -0.528  -0.921  1.00  0.00    -0.032 C 
HETATM    4  C8  UNL     1      -0.573   0.444  -0.315  1.00  0.00    -0.056 C 
HETATM    5  C9  UNL     1       0.474  -0.058   0.597  1.00  0.00     0.027 C 
HETATM    6  C10 UNL     1       1.619  -0.642  -0.261  1.00  0.00     0.073 C 
HETATM    7  C11 UNL     1       2.921  -0.674   0.435  1.00  0.00     0.043 C 
HETATM    8  C15 UNL     1       3.348   0.454   0.979  1.00  0.00     0.006 C 
HETATM    9  C16 UNL     1       2.379   1.599   0.776  1.00  0.00     0.035 C 
HETATM   10  C17 UNL     1       1.096   1.019   1.399  1.00  0.00    -0.002 C 
HETATM   11  C18 UNL     1       0.244   2.167   1.815  1.00  0.00     0.022 C 
HETATM   12  C19 UNL     1      -0.387   2.740   0.601  1.00  0.00     0.099 C 
HETATM   13  C21 UNL     1      -1.336   1.672   0.069  1.00  0.00    -0.006 C 
HETATM   14  C22 UNL     1      -2.341   1.434   1.131  1.00  0.00     0.021 C 
HETATM   15  C23 UNL     1      -1.936   2.279  -1.186  1.00  0.00     0.019 C 
HETATM   16  C24 UNL     1      -1.750   1.384  -2.385  1.00  0.00     0.036 C 
ENDROOT
BRANCH   3  17
HETATM   17  C4  UNL     1      -1.866  -1.880  -0.626  1.00  0.00     0.021 C 
BRANCH  17  18
HETATM   18  C5  UNL     1      -2.742  -2.383   0.407  1.00  0.00     0.069 C 
HETATM   19  C6  UNL     1      -4.167  -1.932   0.457  1.00  0.00     0.050 C 
HETATM   20  C7  UNL     1      -2.229  -2.508   1.810  1.00  0.00     0.050 C 
BRANCH  18  21
HETATM   21  O1  UNL     1      -2.910  -3.802   0.050  1.00  0.00    -0.387 OA
ATOM     22  H1  UNL     1      -3.486  -4.133   0.729  1.00  0.00     0.211 HD
ENDBRANCH  18  21
ENDBRANCH  17  18
ENDBRANCH   3  17
BRANCH  12  23
HETATM   23  C20 UNL     1      -0.968   4.063   0.734  1.00  0.00     0.178 C 
HETATM   24  O3  UNL     1      -2.158   4.417   0.556  1.00  0.00    -0.648 OA
HETATM   25  O4  UNL     1      -0.120   5.126   1.112  1.00  0.00    -0.648 OA
ENDBRANCH  12  23
BRANCH   7  26
HETATM   26  O2  UNL     1       3.685  -1.858   0.519  1.00  0.00    -0.351 OA
BRANCH  26  27
HETATM   27  C12 UNL     1       4.803  -2.088  -0.282  1.00  0.00     0.120 C 
HETATM   28  C13 UNL     1       4.436  -2.070  -1.731  1.00  0.00     0.040 C 
HETATM   29  C14 UNL     1       5.908  -1.082   0.016  1.00  0.00     0.040 C 
ENDBRANCH  26  27
ENDBRANCH   7  26
TORSDOF 6
