REMARK  4 active torsions:
REMARK  status: ('A' for Active; 'I' for Inactive)
REMARK       I    between atoms: N1_2  and  C3_4 
REMARK    1  A    between atoms: C3_4  and  C4_6 
REMARK       I    between atoms: N2_9  and  C7_10 
REMARK    2  A    between atoms: N4_12  and  C8_14 
REMARK    3  A    between atoms: C8_14  and  N5_16 
REMARK    4  A    between atoms: N5_16  and  C9_18 
ROOT
HETATM    1  C4  UNL     1      -2.090   0.623  -1.020  1.00  0.00     0.081 C 
HETATM    2  C5  UNL     1      -1.174  -0.054  -2.008  1.00  0.00     0.034 C 
HETATM    3  C6  UNL     1      -0.106  -0.885  -1.332  1.00  0.00     0.126 C 
HETATM    4  N2  UNL     1       0.509  -0.158  -0.235  1.00  0.00    -0.355 N 
HETATM    5  C7  UNL     1       1.438  -0.788   0.591  1.00  0.00     0.192 C 
HETATM    6  N3  UNL     1       1.115  -2.015   1.224  1.00  0.00    -0.063 NA
HETATM    7  N4  UNL     1       2.595  -0.224   0.761  1.00  0.00    -0.307 N 
ATOM      8  H4  UNL     1       2.782   0.658   0.285  1.00  0.00     0.171 HD
HETATM    9  C11 UNL     1       0.082   1.220  -0.091  1.00  0.00     0.126 C 
HETATM   10  C12 UNL     1      -1.408   1.185   0.180  1.00  0.00     0.034 C 
ENDROOT
BRANCH   7  11
HETATM   11  C8  UNL     1       3.613  -0.781   1.581  1.00  0.00     0.176 C 
HETATM   12  S1  UNL     1       3.295  -1.448   3.037  1.00  0.00    -0.041 SA
BRANCH  11  13
HETATM   13  N5  UNL     1       4.954  -0.756   1.115  1.00  0.00    -0.336 N 
ATOM     14  H5  UNL     1       5.698  -1.151   1.690  1.00  0.00     0.164 HD
BRANCH  13  15
HETATM   15  C9  UNL     1       5.276  -0.166  -0.187  1.00  0.00     0.164 C 
HETATM   16  C10 UNL     1       4.880   1.284  -0.235  1.00  0.00     0.070 C 
HETATM   17 CL1  UNL     1       7.023  -0.306  -0.426  1.00  0.00    -0.083 Cl
HETATM   18 BR1  UNL     1       4.398  -1.200  -1.562  1.00  0.00    -0.044 Br
ENDBRANCH  13  15
ENDBRANCH  11  13
ENDBRANCH   7  11
BRANCH   1  19
HETATM   19  C3  UNL     1      -3.152  -0.322  -0.536  1.00  0.00     0.223 C 
HETATM   20  N1  UNL     1      -4.189   0.096   0.320  1.00  0.00    -0.360 N 
HETATM   21  C1  UNL     1      -4.272   1.460   0.753  1.00  0.00     0.152 C 
HETATM   22  C2  UNL     1      -5.174  -0.855   0.762  1.00  0.00     0.152 C 
HETATM   23  O1  UNL     1      -3.056  -1.522  -0.946  1.00  0.00    -0.273 OA
ENDBRANCH   1  19
TORSDOF 4
