REMARK  5 active torsions:
REMARK  status: ('A' for Active; 'I' for Inactive)
REMARK    1  A    between atoms: N2_4  and  N3_6 
REMARK       I    between atoms: N3_6  and  C1_8 
REMARK       I    between atoms: C1_8  and  N4_10 
REMARK       I    between atoms: C2_12  and  N5_13 
REMARK       I    between atoms: C2_12  and  N7_26 
REMARK    2  A    between atoms: C3_15  and  C4_16 
REMARK       I    between atoms: N6_21  and  C8_22 
REMARK    3  A    between atoms: C8_22  and  C9_24 
REMARK    4  A    between atoms: N7_26  and  C10_28 
REMARK    5  A    between atoms: C10_28  and  C11_29 
ROOT
HETATM    1  N3  UNL     1       0.641   4.684   0.319  1.00  0.00    -0.237 N 
ATOM      2  H3  UNL     1       1.444   4.883  -0.278  1.00  0.00     0.193 HD
HETATM    3  C1  UNL     1       0.462   3.392   0.854  1.00  0.00     0.354 C 
HETATM    4  O1  UNL     1      -0.535   3.140   1.596  1.00  0.00    -0.245 OA
HETATM    5  N4  UNL     1       1.409   2.379   0.552  1.00  0.00    -0.140 N 
ATOM      6  H4  UNL     1       2.316   2.673   0.190  1.00  0.00     0.189 HD
HETATM    7  C2  UNL     1       1.207   1.117   0.702  1.00  0.00     0.682 C 
HETATM    8  N5  UNL     1      -0.003   0.612   1.192  1.00  0.00    -0.203 N 
ATOM      9  H5  UNL     1      -0.073   0.496   2.203  1.00  0.00     0.183 HD
HETATM   10  C3  UNL     1      -1.032   0.280   0.503  1.00  0.00     0.104 C 
HETATM   11  N7  UNL     1       2.271   0.246   0.348  1.00  0.00    -0.222 N 
ATOM     12  H7  UNL     1       3.156   0.333   0.848  1.00  0.00     0.178 HD
ENDROOT
BRANCH  11  13
HETATM   13  C10 UNL     1       2.163  -0.751  -0.680  1.00  0.00     0.176 C 
BRANCH  13  14
HETATM   14  C11 UNL     1       3.427  -1.515  -0.825  1.00  0.00    -0.040 A 
HETATM   15  C12 UNL     1       3.616  -2.671  -0.094  1.00  0.00     0.010 A 
HETATM   16  C13 UNL     1       4.783  -3.417  -0.198  1.00  0.00     0.019 A 
HETATM   17  C14 UNL     1       5.740  -2.948  -1.065  1.00  0.00     0.011 A 
HETATM   18 BR2  UNL     1       7.365  -3.950  -1.238  1.00  0.00    -0.051 Br
HETATM   19  C15 UNL     1       5.567  -1.791  -1.807  1.00  0.00     0.019 A 
HETATM   20  C16 UNL     1       4.393  -1.053  -1.693  1.00  0.00     0.010 A 
ENDBRANCH  13  14
ENDBRANCH  11  13
BRANCH  10  21
HETATM   21  C4  UNL     1      -2.218  -0.237   1.216  1.00  0.00     0.127 C 
HETATM   22  C5  UNL     1      -2.022  -1.740   1.344  1.00  0.00     0.048 C 
HETATM   23  C6  UNL     1      -3.181  -2.329   0.557  1.00  0.00     0.078 C 
HETATM   24 BR1  UNL     1      -2.621  -2.492  -1.269  1.00  0.00    -0.089 Br
HETATM   25  C7  UNL     1      -4.226  -1.247   0.732  1.00  0.00     0.142 C 
HETATM   26  N6  UNL     1      -3.453  -0.047   0.479  1.00  0.00    -0.341 N 
HETATM   27  C8  UNL     1      -3.820   1.078  -0.318  1.00  0.00     0.234 C 
HETATM   28  O2  UNL     1      -3.030   2.047  -0.437  1.00  0.00    -0.272 OA
BRANCH  27  29
HETATM   29  C9  UNL     1      -5.128   1.125  -1.013  1.00  0.00     0.217 C 
HETATM   30 CL1  UNL     1      -5.055   0.455  -2.656  1.00  0.00    -0.121 Cl
ENDBRANCH  27  29
ENDBRANCH  10  21
BRANCH   1  31
HETATM   31  N2  UNL     1      -0.276   5.684   0.605  1.00  0.00    -0.245 N 
HETATM   32  N1  UNL     1      -1.503   5.472   0.372  1.00  0.00    -0.331 N 
ATOM     33  H12 UNL     1      -1.795   4.576  -0.019  1.00  0.00     0.178 HD
ATOM     34  H11 UNL     1      -2.178   6.208   0.582  1.00  0.00     0.178 HD
ATOM     35  H2  UNL     1       0.032   6.574   0.996  1.00  0.00     0.208 HD
ENDBRANCH   1  31
TORSDOF 5
