REMARK  8 active torsions:
REMARK  status: ('A' for Active; 'I' for Inactive)
REMARK    1  A    between atoms: C3_3  and  N6_29 
REMARK       I    between atoms: N1_4  and  C4_6 
REMARK    2  A    between atoms: C4_6  and  C5_8 
REMARK    3  A    between atoms: C5_8  and  C6_9 
REMARK    4  A    between atoms: C5_8  and  N2_16 
REMARK    5  A    between atoms: C6_9  and  C7_10 
REMARK       I    between atoms: N2_16  and  C13_18 
REMARK    6  A    between atoms: C13_18  and  C14_20 
REMARK    7  A    between atoms: C14_20  and  C16_22 
REMARK       I    between atoms: C16_22  and  N3_24 
REMARK    8  A    between atoms: N6_29  and  C18_31 
ROOT
HETATM    1  C1  UNL     1      -6.047  -0.445  -2.572  1.00  0.00     0.021 C 
HETATM    2  C2  UNL     1      -5.019  -0.190  -1.997  1.00  0.00    -0.041 C 
HETATM    3  C3  UNL     1      -3.766   0.135  -1.322  1.00  0.00     0.164 C 
HETATM    4  N1  UNL     1      -2.727   0.315  -2.058  1.00  0.00    -0.304 N 
ATOM      5  H1  UNL     1      -2.790   0.231  -3.073  1.00  0.00     0.171 HD
HETATM    6  C4  UNL     1      -1.494   0.631  -1.439  1.00  0.00     0.246 C 
HETATM    7  O1  UNL     1      -1.375   1.767  -0.871  1.00  0.00    -0.271 OA
ENDROOT
BRANCH   3   8
HETATM    8  N6  UNL     1      -3.675   0.245   0.070  1.00  0.00    -0.321 N 
ATOM      9  H6  UNL     1      -3.180  -0.493   0.571  1.00  0.00     0.169 HD
BRANCH   8  10
HETATM   10  C18 UNL     1      -4.165   1.199   0.759  1.00  0.00     0.109 A 
HETATM   11  C19 UNL     1      -4.840   2.221   0.158  1.00  0.00     0.049 A 
HETATM   12  C20 UNL     1      -5.367   3.241   0.910  1.00  0.00     0.008 A 
HETATM   13  C21 UNL     1      -5.189   3.195   2.295  1.00  0.00     0.061 A 
HETATM   14  C22 UNL     1      -4.502   2.151   2.877  1.00  0.00     0.189 A 
HETATM   15  F1  UNL     1      -4.358   2.157   4.223  1.00  0.00    -0.186 F 
HETATM   16  N7  UNL     1      -4.017   1.196   2.094  1.00  0.00    -0.319 N 
ATOM     17  H7  UNL     1      -3.509   0.424   2.526  1.00  0.00     0.169 HD
ENDBRANCH   8  10
ENDBRANCH   3   8
BRANCH   6  18
HETATM   18  C5  UNL     1      -0.364  -0.319  -1.442  1.00  0.00     0.181 C 
BRANCH  18  19
HETATM   19  C6  UNL     1      -0.816  -1.588  -0.760  1.00  0.00     0.073 C 
BRANCH  19  20
HETATM   20  C7  UNL     1       0.272  -2.619  -0.719  1.00  0.00    -0.056 A 
HETATM   21  C8  UNL     1       0.402  -3.526  -1.747  1.00  0.00     0.007 A 
HETATM   22  C9  UNL     1       1.395  -4.489  -1.734  1.00  0.00     0.001 A 
HETATM   23  C10 UNL     1       2.256  -4.519  -0.662  1.00  0.00     0.000 A 
HETATM   24  C11 UNL     1       2.139  -3.619   0.375  1.00  0.00     0.001 A 
HETATM   25  C12 UNL     1       1.150  -2.685   0.329  1.00  0.00     0.007 A 
ENDBRANCH  19  20
ENDBRANCH  18  19
BRANCH  18  26
HETATM   26  N2  UNL     1       0.770   0.282  -0.736  1.00  0.00    -0.343 N 
HETATM   27  C13 UNL     1       1.991   0.390  -1.403  1.00  0.00     0.257 C 
HETATM   28  O2  UNL     1       2.017  -0.059  -2.611  1.00  0.00    -0.267 OA
ATOM     29  H2  UNL     1       0.669   0.615   0.223  1.00  0.00     0.163 HD
BRANCH  27  30
HETATM   30  C14 UNL     1       3.199   0.937  -0.901  1.00  0.00     0.090 C 
HETATM   31  C15 UNL     1       4.277   0.946  -1.709  1.00  0.00     0.035 C 
BRANCH  30  32
HETATM   32  C16 UNL     1       3.360   1.488   0.415  1.00  0.00     0.262 C 
HETATM   33  O3  UNL     1       2.459   1.550   1.273  1.00  0.00    -0.267 OA
HETATM   34  N3  UNL     1       4.625   2.031   0.853  1.00  0.00    -0.299 N 
HETATM   35  C17 UNL     1       5.251   1.541   1.874  1.00  0.00     0.203 C 
ATOM     36  H3  UNL     1       5.033   2.817   0.347  1.00  0.00     0.171 HD
HETATM   37  N4  UNL     1       4.668   0.450   2.561  1.00  0.00    -0.066 NA
HETATM   38  N5  UNL     1       6.476   2.152   2.209  1.00  0.00    -0.066 NA
ENDBRANCH  30  32
ENDBRANCH  27  30
ENDBRANCH  18  26
ENDBRANCH   6  18
TORSDOF 8
