REMARK  8 active torsions:
REMARK  status: ('A' for Active; 'I' for Inactive)
REMARK    1  A    between atoms: C2_2  and  C4_4 
REMARK    2  A    between atoms: C9_9  and  C10_10 
REMARK    3  A    between atoms: C16_18  and  C17_19 
REMARK    4  A    between atoms: C17_19  and  N2_20 
REMARK    5  A    between atoms: N2_20  and  C19_22 
REMARK    6  A    between atoms: N2_20  and  C21_25 
REMARK    7  A    between atoms: C19_22  and  C20_23 
REMARK    8  A    between atoms: C27_31  and  O1_32 
ROOT
HETATM    1  C10 UNL     1      -4.462   0.544  -0.553  1.00  0.00     0.047 C 
HETATM    2  C11 UNL     1      -3.405  -0.204  -0.589  1.00  0.00     0.104 A 
HETATM    3  N1  UNL     1      -2.151   0.367  -0.242  1.00  0.00    -0.335 N 
ATOM      4  H1  UNL     1      -2.112   1.363  -0.028  1.00  0.00     0.168 HD
HETATM    5  C12 UNL     1      -0.882  -0.430  -0.177  1.00  0.00     0.148 A 
HETATM    6  C13 UNL     1       0.043   0.392   0.284  1.00  0.00     0.080 A 
HETATM    7  C14 UNL     1       0.906   1.132   0.705  1.00  0.00     0.034 A 
HETATM    8  C15 UNL     1       2.168   1.570   0.803  1.00  0.00     0.020 A 
HETATM    9  C16 UNL     1       3.102   0.828   0.017  1.00  0.00     0.039 A 
HETATM   10  C27 UNL     1       2.417  -0.156  -0.629  1.00  0.00     0.152 A 
HETATM   11  N3  UNL     1       1.170  -0.454  -0.620  1.00  0.00    -0.333 N 
ATOM     12  H3  UNL     1       0.851  -1.239  -1.187  1.00  0.00     0.168 HD
HETATM   13  N4  UNL     1      -1.013  -1.716  -0.470  1.00  0.00    -0.281 N 
ATOM     14  H4  UNL     1      -0.169  -2.287  -0.427  1.00  0.00     0.188 HD
HETATM   15  N5  UNL     1      -2.211  -2.371  -0.836  1.00  0.00    -0.263 N 
ATOM     16  H5  UNL     1      -2.218  -3.368  -1.050  1.00  0.00     0.190 HD
HETATM   17  C28 UNL     1      -3.393  -1.611  -0.897  1.00  0.00     0.286 A 
HETATM   18  O2  UNL     1      -4.466  -2.179  -1.225  1.00  0.00    -0.264 OA
ENDROOT
BRANCH  10  19
HETATM   19  O1  UNL     1       3.135  -0.949  -1.395  1.00  0.00    -0.345 OA
ATOM     20  H1  UNL     1       2.657  -1.635  -1.846  1.00  0.00     0.219 HD
ENDBRANCH  10  19
BRANCH   9  21
HETATM   21  C17 UNL     1       4.318   1.179   0.024  1.00  0.00     0.224 C 
BRANCH  21  22
HETATM   22  N2  UNL     1       5.519   0.816  -0.528  1.00  0.00    -0.019 N 
HETATM   23  C18 UNL     1       5.560   0.625  -1.969  1.00  0.00     0.285 C 
BRANCH  22  24
HETATM   24  C19 UNL     1       6.529   1.896  -0.290  1.00  0.00     0.260 C 
BRANCH  24  25
HETATM   25  C20 UNL     1       6.066   3.226  -0.721  1.00  0.00     0.114 C 
HETATM   26 BR1  UNL     1       7.541   4.463  -0.330  1.00  0.00    -0.095 Br
ENDBRANCH  24  25
ENDBRANCH  22  24
BRANCH  22  27
HETATM   27  C21 UNL     1       6.123  -0.291   0.123  1.00  0.00     0.141 A 
HETATM   28  C22 UNL     1       5.587  -0.826   1.254  1.00  0.00     0.038 A 
HETATM   29  C23 UNL     1       6.196  -1.906   1.873  1.00  0.00     0.002 A 
HETATM   30  C24 UNL     1       7.362  -2.446   1.342  1.00  0.00     0.000 A 
HETATM   31  C25 UNL     1       7.930  -1.917   0.184  1.00  0.00     0.002 A 
HETATM   32  C26 UNL     1       7.295  -0.862  -0.384  1.00  0.00     0.038 A 
ENDBRANCH  22  27
ENDBRANCH  21  22
ENDBRANCH   9  21
BRANCH   1  33
HETATM   33  C9  UNL     1      -5.827   0.285  -0.854  1.00  0.00    -0.027 A 
HETATM   34  C4  UNL     1      -6.800   0.054   0.081  1.00  0.00    -0.044 A 
HETATM   35  C5  UNL     1      -8.127   0.011  -0.350  1.00  0.00     0.008 A 
HETATM   36  C6  UNL     1      -8.516   0.175  -1.642  1.00  0.00     0.001 A 
HETATM   37  C7  UNL     1      -7.531   0.403  -2.598  1.00  0.00     0.001 A 
HETATM   38  C8  UNL     1      -6.233   0.460  -2.209  1.00  0.00     0.012 A 
BRANCH  34  39
HETATM   39  C2  UNL     1      -6.538  -0.151   1.522  1.00  0.00     0.011 C 
HETATM   40  C1  UNL     1      -7.863  -0.048   2.310  1.00  0.00     0.015 C 
HETATM   41  C3  UNL     1      -6.004  -1.520   1.876  1.00  0.00     0.015 C 
ENDBRANCH  34  39
ENDBRANCH   1  33
TORSDOF 8
