REMARK  9 active torsions:
REMARK  status: ('A' for Active; 'I' for Inactive)
REMARK       I    between atoms: N1_5  and  C5_7 
REMARK    1  A    between atoms: C5_7  and  C6_9 
REMARK    2  A    between atoms: C6_9  and  C7_10 
REMARK    3  A    between atoms: C7_10  and  N2_11 
REMARK    4  A    between atoms: N2_11  and  C10_14 
REMARK    5  A    between atoms: C10_14  and  C11_15 
REMARK    6  A    between atoms: C12_17  and  C13_18 
REMARK       I    between atoms: C13_18  and  N3_20 
REMARK    7  A    between atoms: N3_20  and  C14_22 
REMARK    8  A    between atoms: C17_29  and  C18_30 
REMARK    9  A    between atoms: C18_30  and  N6_31 
ROOT
HETATM    1  C13 UNL     1       0.894  -2.502  -1.250  1.00  0.00     0.234 C 
HETATM    2  O2  UNL     1       1.599  -3.209  -2.047  1.00  0.00    -0.272 OA
HETATM    3  N3  UNL     1       1.551  -1.450  -0.605  1.00  0.00    -0.311 N 
ATOM      4  H3  UNL     1       1.855  -1.606   0.356  1.00  0.00     0.170 HD
ENDROOT
BRANCH   1   5
HETATM    5  C12 UNL     1      -0.544  -2.808  -1.041  1.00  0.00     0.138 A 
HETATM    6  C2  UNL     1      -1.271  -2.420   0.160  1.00  0.00     0.009 A 
HETATM    7  C1  UNL     1      -2.362  -3.378   0.617  1.00  0.00     0.022 C 
HETATM    8  C3  UNL     1      -0.617  -1.624   1.264  1.00  0.00     0.022 C 
HETATM    9  C4  UNL     1      -1.510  -1.660  -1.130  1.00  0.00     0.013 A 
HETATM   10  N1  UNL     1      -2.046  -0.760  -1.855  1.00  0.00    -0.333 N 
HETATM   11  C5  UNL     1      -2.974   0.178  -1.429  1.00  0.00     0.223 C 
ATOM     12  H1  UNL     1      -1.768  -0.726  -2.836  1.00  0.00     0.168 HD
HETATM   13  O1  UNL     1      -3.518   0.876  -2.369  1.00  0.00    -0.273 OA
BRANCH  11  14
HETATM   14  C6  UNL     1      -3.384   0.451  -0.048  1.00  0.00     0.131 C 
BRANCH  14  15
HETATM   15  C7  UNL     1      -4.601   1.280   0.132  1.00  0.00     0.245 C 
BRANCH  15  16
HETATM   16  N2  UNL     1      -5.855   0.748  -0.340  1.00  0.00    -0.073 N 
HETATM   17  C8  UNL     1      -5.774  -0.606  -0.865  1.00  0.00     0.272 C 
HETATM   18  C9  UNL     1      -6.368   1.588  -1.377  1.00  0.00     0.272 C 
BRANCH  16  19
HETATM   19  C10 UNL     1      -6.718   0.706   0.842  1.00  0.00     0.247 C 
BRANCH  19  20
HETATM   20  C11 UNL     1      -8.042   1.353   0.689  1.00  0.00     0.113 C 
HETATM   21 BR1  UNL     1      -8.968   1.137   2.402  1.00  0.00    -0.095 Br
ENDBRANCH  19  20
ENDBRANCH  16  19
ENDBRANCH  15  16
ENDBRANCH  14  15
ENDBRANCH  11  14
ENDBRANCH   1   5
BRANCH   3  22
HETATM   22  C14 UNL     1       1.803  -0.299  -1.128  1.00  0.00     0.133 A 
HETATM   23  N4  UNL     1       1.504   0.139  -2.367  1.00  0.00    -0.285 N 
HETATM   24  N5  UNL     1       1.922   1.380  -2.523  1.00  0.00    -0.300 N 
ATOM     25  H4  UNL     1       1.024  -0.410  -3.080  1.00  0.00     0.188 HD
HETATM   26  C15 UNL     1       2.520   1.814  -1.379  1.00  0.00     0.062 A 
ATOM     27  H5  UNL     1       1.814   1.932  -3.374  1.00  0.00     0.186 HD
HETATM   28  C16 UNL     1       2.446   0.756  -0.502  1.00  0.00     0.044 A 
HETATM   29  C24 UNL     1       3.201   2.940  -0.702  1.00  0.00     0.228 A 
HETATM   30  C17 UNL     1       3.090   1.225   0.730  1.00  0.00     0.186 A 
HETATM   31  O3  UNL     1       3.547   2.485   0.524  1.00  0.00    -0.373 OA
BRANCH  30  32
HETATM   32  C18 UNL     1       4.054   0.289   1.365  1.00  0.00     0.274 C 
BRANCH  32  33
HETATM   33  N6  UNL     1       5.288   0.052   0.707  1.00  0.00    -0.068 N 
HETATM   34  C19 UNL     1       5.232  -0.657  -0.534  1.00  0.00     0.272 C 
HETATM   35  C20 UNL     1       6.061  -0.814   1.619  1.00  0.00     0.237 C 
HETATM   36  C21 UNL     1       7.494  -0.492   1.391  1.00  0.00     0.029 C 
HETATM   37  C22 UNL     1       7.554   0.808   0.670  1.00  0.00     0.029 C 
HETATM   38  C23 UNL     1       6.118   1.219   0.508  1.00  0.00     0.237 C 
ENDBRANCH  32  33
ENDBRANCH  30  32
ENDBRANCH   3  22
TORSDOF 9
