REMARK  8 active torsions:
REMARK  status: ('A' for Active; 'I' for Inactive)
REMARK       I    between atoms: C2_2  and  N1_4 
REMARK    1  A    between atoms: N1_4  and  C3_6 
REMARK    2  A    between atoms: N2_10  and  C7_12 
REMARK    3  A    between atoms: C11_17  and  C12_18 
REMARK    4  A    between atoms: C12_18  and  C13_19 
REMARK    5  A    between atoms: C14_20  and  C15_21 
REMARK    6  A    between atoms: C15_21  and  C16_22 
REMARK    7  A    between atoms: C16_22  and  N3_23 
REMARK    8  A    between atoms: N3_23  and  C17_25 
ROOT
HETATM    1  C7  UNL     1      -2.063  -0.094  -0.597  1.00  0.00     0.197 C 
HETATM    2  C8  UNL     1      -2.526   1.182  -1.295  1.00  0.00     0.035 C 
HETATM    3  C9  UNL     1      -1.883   0.952  -2.684  1.00  0.00     0.018 C 
HETATM    4  C10 UNL     1      -0.438   0.699  -2.110  1.00  0.00     0.064 C 
HETATM    5 BR2  UNL     1       0.046   2.413  -1.428  1.00  0.00    -0.091 Br
HETATM    6  C11 UNL     1      -0.721  -0.371  -1.088  1.00  0.00     0.034 C 
ENDROOT
BRANCH   6   7
HETATM    7  C12 UNL     1       0.410  -0.654  -0.214  1.00  0.00     0.034 C 
BRANCH   7   8
HETATM    8  C13 UNL     1       1.623  -0.928  -1.038  1.00  0.00    -0.030 C 
HETATM    9  C14 UNL     1       2.782  -0.349  -0.988  1.00  0.00    -0.029 C 
BRANCH   9  10
HETATM   10  C15 UNL     1       3.252   0.733  -0.115  1.00  0.00     0.047 C 
BRANCH  10  11
HETATM   11  C16 UNL     1       4.463   0.311   0.731  1.00  0.00     0.142 C 
BRANCH  11  12
HETATM   12  N3  UNL     1       5.567  -0.059  -0.095  1.00  0.00    -0.226 N 
ATOM     13  H3  UNL     1       5.350  -0.622  -0.918  1.00  0.00     0.177 HD
BRANCH  12  14
HETATM   14  C17 UNL     1       6.802   0.239   0.085  1.00  0.00     0.680 A 
HETATM   15  N4  UNL     1       7.294   0.961   1.093  1.00  0.00    -0.202 N 
HETATM   16  C18 UNL     1       8.611   1.239   1.220  1.00  0.00     0.111 A 
ATOM     17  H4  UNL     1       6.649   1.319   1.798  1.00  0.00     0.183 HD
HETATM   18  C19 UNL     1       9.499   0.766   0.277  1.00  0.00     0.092 A 
HETATM   19  C20 UNL     1       8.995   0.009  -0.785  1.00  0.00     0.260 A 
HETATM   20  O2  UNL     1       9.801  -0.429  -1.655  1.00  0.00    -0.268 OA
HETATM   21  N5  UNL     1       7.685  -0.220  -0.836  1.00  0.00    -0.156 N 
ATOM     22  H5  UNL     1       7.324  -0.773  -1.613  1.00  0.00     0.187 HD
ENDBRANCH  12  14
ENDBRANCH  11  12
ENDBRANCH  10  11
ENDBRANCH   9  10
ENDBRANCH   7   8
ENDBRANCH   6   7
BRANCH   1  23
HETATM   23  N2  UNL     1      -2.406  -0.191   0.763  1.00  0.00    -0.051 N 
HETATM   24  C5  UNL     1      -2.633  -1.569   1.136  1.00  0.00     0.263 C 
HETATM   25  C4  UNL     1      -3.989  -1.970   0.602  1.00  0.00     0.072 C 
HETATM   26 BR1  UNL     1      -2.760  -1.667   3.079  1.00  0.00    -0.060 Br
HETATM   27  C3  UNL     1      -4.717  -0.657   0.337  1.00  0.00     0.113 C 
HETATM   28  C21 UNL     1      -3.776   0.334   0.902  1.00  0.00     0.264 C 
HETATM   29  C6  UNL     1      -1.642   0.531   1.727  1.00  0.00     0.274 C 
BRANCH  27  30
HETATM   30  N1  UNL     1      -5.936  -0.606   1.153  1.00  0.00    -0.355 N 
HETATM   31  C2  UNL     1      -7.176  -0.440   0.499  1.00  0.00     0.213 C 
HETATM   32  C1  UNL     1      -8.443  -0.383   1.293  1.00  0.00     0.117 C 
HETATM   33  O1  UNL     1      -7.270  -0.334  -0.753  1.00  0.00    -0.274 OA
ATOM     34  H1  UNL     1      -5.888  -0.689   2.169  1.00  0.00     0.162 HD
ENDBRANCH  27  30
ENDBRANCH   1  23
TORSDOF 8
