REMARK  10 active torsions:
REMARK  status: ('A' for Active; 'I' for Inactive)
REMARK    1  A    between atoms: C5_5  and  C6_6 
REMARK    2  A    between atoms: C6_6  and  C7_7 
REMARK    3  A    between atoms: C9_14  and  C10_15 
REMARK    4  A    between atoms: C10_15  and  C11_16 
REMARK    5  A    between atoms: C11_16  and  C12_17 
REMARK    6  A    between atoms: C12_17  and  C13_18 
REMARK    7  A    between atoms: C16_21  and  C17_22 
REMARK    8  A    between atoms: C17_22  and  C18_26 
REMARK    9  A    between atoms: C18_26  and  O2_27 
REMARK   10  A    between atoms: C18_26  and  N4_29 
REMARK       I    between atoms: C19_31  and  N6_33 
ROOT
HETATM    1  C13 UNL     1       0.212   1.104  -1.389  1.00  0.00    -0.058 A 
HETATM    2  C14 UNL     1       0.814   2.321  -1.620  1.00  0.00     0.008 A 
HETATM    3  C15 UNL     1       2.036   2.674  -1.063  1.00  0.00     0.014 A 
HETATM    4  C16 UNL     1       2.709   1.785  -0.232  1.00  0.00    -0.005 A 
HETATM    5  C23 UNL     1       2.115   0.568   0.003  1.00  0.00     0.014 A 
HETATM    6  C24 UNL     1       0.879   0.245  -0.577  1.00  0.00     0.008 A 
ENDROOT
BRANCH   1   7
HETATM    7  C12 UNL     1      -1.065   0.752  -2.028  1.00  0.00     0.039 C 
BRANCH   7   8
HETATM    8  C11 UNL     1      -2.211   1.336  -1.303  1.00  0.00     0.011 C 
BRANCH   8   9
HETATM    9  C10 UNL     1      -2.501   0.935   0.083  1.00  0.00     0.060 C 
BRANCH   9  10
HETATM   10  C9  UNL     1      -2.864  -0.461   0.332  1.00  0.00     0.040 A 
HETATM   11  C7  UNL     1      -4.073  -1.096   0.035  1.00  0.00     0.061 A 
HETATM   12  N1  UNL     1      -4.014  -2.396   0.454  1.00  0.00    -0.307 N 
HETATM   13  C8  UNL     1      -2.817  -2.572   0.993  1.00  0.00     0.325 A 
ATOM     14  H1  UNL     1      -4.751  -3.096   0.368  1.00  0.00     0.170 HD
HETATM   15  O1  UNL     1      -2.432  -3.668   1.483  1.00  0.00    -0.247 OA
HETATM   16  N2  UNL     1      -2.139  -1.418   0.917  1.00  0.00    -0.310 N 
ATOM     17  H2  UNL     1      -1.188  -1.287   1.263  1.00  0.00     0.170 HD
BRANCH  11  18
HETATM   18  C6  UNL     1      -5.231  -0.500  -0.606  1.00  0.00     0.061 C 
BRANCH  18  19
HETATM   19  C5  UNL     1      -6.407  -0.477   0.019  1.00  0.00     0.034 A 
HETATM   20  C4  UNL     1      -6.655  -0.989   1.282  1.00  0.00     0.032 A 
HETATM   21  C3  UNL     1      -7.988  -0.797   1.615  1.00  0.00     0.031 A 
HETATM   22  C2  UNL     1      -8.551  -0.157   0.530  1.00  0.00     0.023 A 
HETATM   23  C1  UNL     1      -9.817   0.214   0.431  1.00  0.00     0.043 C 
HETATM   24  N7  UNL     1      -7.572   0.018  -0.407  1.00  0.00    -0.357 N 
ATOM     25  H7  UNL     1      -7.712   0.467  -1.312  1.00  0.00     0.166 HD
ENDBRANCH  18  19
ENDBRANCH  11  18
ENDBRANCH   9  10
ENDBRANCH   8   9
ENDBRANCH   7   8
ENDBRANCH   1   7
BRANCH   4  26
HETATM   26  C17 UNL     1       3.995   2.201   0.363  1.00  0.00     0.100 C 
HETATM   27  N3  UNL     1       4.431   3.335   0.206  1.00  0.00    -0.318 N 
HETATM   28 BR1  UNL     1       4.434   4.976  -0.386  1.00  0.00     0.047 Br
ATOM     29  H3  UNL     1       5.307   3.298   0.728  1.00  0.00     0.174 HD
BRANCH  26  30
HETATM   30  C18 UNL     1       4.835   1.296   1.159  1.00  0.00     0.171 C 
BRANCH  30  31
HETATM   31  O2  UNL     1       5.938   1.822   1.605  1.00  0.00    -0.344 OA
ATOM     32  H2  UNL     1       6.481   1.237   2.120  1.00  0.00     0.219 HD
ENDBRANCH  30  31
BRANCH  30  33
HETATM   33  N4  UNL     1       4.652  -0.022   1.512  1.00  0.00    -0.309 N 
HETATM   34  C19 UNL     1       5.493  -0.984   1.329  1.00  0.00     0.192 C 
HETATM   35  N5  UNL     1       5.139  -2.307   1.762  1.00  0.00    -0.063 NA
HETATM   36  N6  UNL     1       6.763  -0.849   0.724  1.00  0.00    -0.355 N 
HETATM   37  C20 UNL     1       7.258  -0.303  -0.519  1.00  0.00     0.127 C 
HETATM   38  C22 UNL     1       8.123  -1.194   1.069  1.00  0.00     0.127 C 
HETATM   39  C21 UNL     1       8.383  -1.344  -0.429  1.00  0.00     0.040 C 
ATOM     40  H4  UNL     1       3.768  -0.261   1.961  1.00  0.00     0.170 HD
ENDBRANCH  30  33
ENDBRANCH  26  30
ENDBRANCH   4  26
TORSDOF 10
