REMARK  10 active torsions:
REMARK  status: ('A' for Active; 'I' for Inactive)
REMARK    1  A    between atoms: C2_2  and  C3_3 
REMARK    2  A    between atoms: C3_3  and  C4_4 
REMARK    3  A    between atoms: C9_13  and  N2_14 
REMARK       I    between atoms: N2_14  and  C10_16 
REMARK    4  A    between atoms: C10_16  and  C11_18 
REMARK       I    between atoms: C11_18  and  N3_20 
REMARK    5  A    between atoms: N3_20  and  C12_22 
REMARK    6  A    between atoms: C12_22  and  C13_23 
REMARK    7  A    between atoms: C13_23  and  N4_24 
REMARK    8  A    between atoms: C19_30  and  C20_31 
REMARK    9  A    between atoms: C20_31  and  C22_33 
REMARK   10  A    between atoms: C23_34  and  C24_35 
ROOT
HETATM    1  C24 UNL     1       7.083   1.849   0.029  1.00  0.00    -0.015 C 
HETATM    2  C25 UNL     1       7.992   2.209   0.736  1.00  0.00    -0.097 C 
HETATM    3  C26 UNL     1       9.089   2.626   1.608  1.00  0.00     0.113 C 
ENDROOT
BRANCH   1   4
HETATM    4  C23 UNL     1       6.011   1.418  -0.782  1.00  0.00    -0.010 C 
HETATM    5  C22 UNL     1       5.078   1.024  -1.477  1.00  0.00    -0.056 C 
BRANCH   5   6
HETATM    6  C20 UNL     1       4.004   0.571  -2.315  1.00  0.00     0.018 C 
HETATM    7  C21 UNL     1       3.863   1.197  -3.474  1.00  0.00     0.031 C 
BRANCH   6   8
HETATM    8  C19 UNL     1       3.150  -0.543  -1.875  1.00  0.00     0.230 C 
HETATM    9  N4  UNL     1       2.199  -0.249  -0.839  1.00  0.00    -0.060 N 
HETATM   10  C14 UNL     1       1.220  -1.350  -0.903  1.00  0.00     0.273 C 
HETATM   11  C15 UNL     1       2.782  -0.329   0.472  1.00  0.00     0.238 C 
HETATM   12  C16 UNL     1       3.512  -1.572   0.785  1.00  0.00     0.028 C 
HETATM   13  C17 UNL     1       4.312  -2.166  -0.305  1.00  0.00     0.004 C 
HETATM   14  C18 UNL     1       3.952  -1.780  -1.681  1.00  0.00     0.039 C 
BRANCH   9  15
HETATM   15  C13 UNL     1       1.522   0.968  -1.061  1.00  0.00     0.257 C 
BRANCH  15  16
HETATM   16  C12 UNL     1       0.831   1.656   0.033  1.00  0.00     0.151 C 
BRANCH  16  17
HETATM   17  N3  UNL     1      -0.273   0.999   0.672  1.00  0.00    -0.351 N 
HETATM   18  C11 UNL     1      -1.486   0.618   0.050  1.00  0.00     0.309 C 
HETATM   19  O3  UNL     1      -1.629   0.871  -1.173  1.00  0.00    -0.262 OA
ATOM     20  H3  UNL     1      -0.175   0.787   1.665  1.00  0.00     0.162 HD
BRANCH  18  21
HETATM   21  C10 UNL     1      -2.523  -0.043   0.810  1.00  0.00     0.310 C 
HETATM   22  N2  UNL     1      -3.746  -0.435   0.172  1.00  0.00    -0.339 N 
ATOM     23  H2  UNL     1      -3.886  -0.248  -0.821  1.00  0.00     0.164 HD
HETATM   24  O2  UNL     1      -2.327  -0.263   2.037  1.00  0.00    -0.262 OA
BRANCH  22  25
HETATM   25  C9  UNL     1      -4.793  -1.103   0.944  1.00  0.00     0.165 C 
HETATM   26  C4  UNL     1      -6.001  -0.194   1.047  1.00  0.00    -0.025 C 
HETATM   27  C5  UNL     1      -7.220  -0.588   0.861  1.00  0.00     0.084 C 
HETATM   28 BR1  UNL     1      -8.722   0.590   1.059  1.00  0.00    -0.045 Br
HETATM   29  C6  UNL     1      -7.536  -1.986   0.436  1.00  0.00     0.263 C 
HETATM   30  O1  UNL     1      -8.730  -2.327   0.272  1.00  0.00    -0.267 OA
HETATM   31  N1  UNL     1      -6.441  -2.845   0.243  1.00  0.00    -0.325 N 
HETATM   32  C7  UNL     1      -5.102  -2.427   0.433  1.00  0.00     0.030 C 
ATOM     33  H1  UNL     1      -6.618  -3.807  -0.045  1.00  0.00     0.169 HD
HETATM   34  C8  UNL     1      -4.085  -3.272   0.130  1.00  0.00     0.041 C 
BRANCH  26  35
HETATM   35  C3  UNL     1      -5.633   1.186   1.424  1.00  0.00     0.064 C 
BRANCH  35  36
HETATM   36  C2  UNL     1      -6.642   2.161   1.739  1.00  0.00    -0.032 C 
HETATM   37  C1  UNL     1      -6.809   3.282   0.989  1.00  0.00     0.007 C 
ENDBRANCH  35  36
ENDBRANCH  26  35
ENDBRANCH  22  25
ENDBRANCH  18  21
ENDBRANCH  16  17
ENDBRANCH  15  16
ENDBRANCH   9  15
ENDBRANCH   6   8
ENDBRANCH   5   6
ENDBRANCH   1   4
TORSDOF 10
