REMARK  3 active torsions:
REMARK  status: ('A' for Active; 'I' for Inactive)
REMARK    1  A    between atoms: O1_2  and  C2_3 
REMARK    2  A    between atoms: C5_6  and  C6_7 
REMARK    3  A    between atoms: C6_7  and  C7_8 
ROOT
HETATM    1  C7  UNL     1      -1.317   0.633  -0.267  1.00  0.00     0.188 C 
HETATM    2  C8  UNL     1      -1.747  -0.748   0.150  1.00  0.00     0.033 C 
HETATM    3  C9  UNL     1      -3.263  -0.876   0.199  1.00  0.00     0.004 C 
HETATM    4  C10 UNL     1      -3.930   0.380   0.686  1.00  0.00     0.027 C 
HETATM    5  C11 UNL     1      -3.544   1.540  -0.200  1.00  0.00     0.232 C 
HETATM    6  N1  UNL     1      -2.436   1.185  -1.055  1.00  0.00    -0.071 N 
ATOM      7  H11 UNL     1      -2.723   0.548  -1.798  1.00  0.00     0.277 HD
ATOM      8  H12 UNL     1      -2.138   1.972  -1.632  1.00  0.00     0.277 HD
ENDROOT
BRANCH   1   9
HETATM    9  C6  UNL     1      -0.156   0.609  -1.173  1.00  0.00     0.065 C 
BRANCH   9  10
HETATM   10  C5  UNL     1       1.115   0.042  -0.764  1.00  0.00     0.126 C 
HETATM   11  C4  UNL     1       1.211  -1.383  -0.370  1.00  0.00     0.037 C 
HETATM   12  C3  UNL     1       2.722  -1.449  -0.057  1.00  0.00     0.063 C 
HETATM   13  C2  UNL     1       2.987  -0.006   0.302  1.00  0.00     0.259 C 
HETATM   14  O2  UNL     1       1.757   0.664   0.301  1.00  0.00    -0.356 OA
BRANCH  13  15
HETATM   15  O1  UNL     1       3.601   0.045   1.550  1.00  0.00    -0.366 OA
HETATM   16  C1  UNL     1       4.855   0.646   1.458  1.00  0.00     0.204 C 
ENDBRANCH  13  15
ENDBRANCH   9  10
ENDBRANCH   1   9
TORSDOF 3
