REMARK  4 active torsions:
REMARK  status: ('A' for Active; 'I' for Inactive)
REMARK    1  A    between atoms: N1_2  and  C2_5 
REMARK    2  A    between atoms: C2_5  and  C3_6 
REMARK    3  A    between atoms: C3_6  and  O1_7 
REMARK    4  A    between atoms: C3_6  and  C5_10 
ROOT
HETATM    1  O1  UNL     1       0.774  -1.490   1.794  1.00  0.00    -0.276 OA
HETATM    2  C4  UNL     1       0.574  -1.450   3.132  1.00  0.00     0.229 C 
HETATM    3  N2  UNL     1       0.396  -1.435   4.280  1.00  0.00    -0.164 NA
ENDROOT
BRANCH   1   4
HETATM    4  C3  UNL     1       0.823  -0.306   0.979  1.00  0.00     0.173 C 
BRANCH   4   5
HETATM    5  C2  UNL     1       2.270  -0.326   0.448  1.00  0.00     0.265 C 
BRANCH   5   6
HETATM    6  N1  UNL     1       2.461   0.834  -0.404  1.00  0.00    -0.077 N 
HETATM    7  C1  UNL     1       3.822   0.820  -0.906  1.00  0.00     0.267 C 
ATOM      8  H12 UNL     1       2.227   1.708   0.067  1.00  0.00     0.276 HD
ATOM      9  H11 UNL     1       1.769   0.888  -1.152  1.00  0.00     0.276 HD
ENDBRANCH   5   6
ENDBRANCH   4   5
BRANCH   4  10
HETATM   10  C5  UNL     1      -0.115  -0.513  -0.160  1.00  0.00     0.035 A 
HETATM   11  C6  UNL     1      -1.570  -0.521   0.158  1.00  0.00    -0.034 A 
HETATM   12  C7  UNL     1      -2.352  -1.657  -0.484  1.00  0.00     0.016 C 
HETATM   13  C8  UNL     1      -2.111  -0.102   1.489  1.00  0.00     0.016 C 
HETATM   14  C9  UNL     1      -0.958   0.520  -0.749  1.00  0.00    -0.034 A 
HETATM   15  C10 UNL     1      -1.035   1.924  -0.205  1.00  0.00     0.016 C 
HETATM   16  C11 UNL     1      -1.368   0.413  -2.204  1.00  0.00     0.016 C 
ENDBRANCH   4  10
ENDBRANCH   1   4
TORSDOF 4
