REMARK  3 active torsions:
REMARK  status: ('A' for Active; 'I' for Inactive)
REMARK    1  A    between atoms: S1_2  and  O3_4 
REMARK    2  A    between atoms: O3_4  and  N1_5 
REMARK    3  A    between atoms: N1_5  and  C1_6 
ROOT
HETATM    1  C1  UNL     1       0.490   0.124   0.031  1.00  0.00     0.108 C 
HETATM    2  C2  UNL     1      -0.136  -1.205   0.224  1.00  0.00     0.024 C 
HETATM    3  C3  UNL     1      -1.522  -1.188   0.769  1.00  0.00     0.002 C 
HETATM    4  C4  UNL     1      -2.466  -0.813  -0.358  1.00  0.00     0.000 C 
HETATM    5  C5  UNL     1      -2.160   0.604  -0.827  1.00  0.00     0.000 C 
HETATM    6  C6  UNL     1      -1.642   1.452   0.274  1.00  0.00     0.002 C 
HETATM    7  C7  UNL     1      -0.238   1.267   0.653  1.00  0.00     0.024 C 
ENDROOT
BRANCH   1   8
HETATM    8  N1  UNL     1       1.795   0.074   0.717  1.00  0.00    -0.076 NA
BRANCH   8   9
HETATM    9  O3  UNL     1       2.574  -0.892   0.192  1.00  0.00    -0.146 OA
BRANCH   9  10
HETATM   10  S1  UNL     1       4.120  -0.278   0.016  1.00  0.00     0.419 S 
HETATM   11  O1  UNL     1       5.036  -1.425  -0.272  1.00  0.00    -0.178 OA
HETATM   12  O2  UNL     1       4.183   0.668  -1.168  1.00  0.00    -0.178 OA
ENDBRANCH   9  10
ENDBRANCH   8   9
ENDBRANCH   1   8
TORSDOF 3
