REMARK  3 active torsions:
REMARK  status: ('A' for Active; 'I' for Inactive)
REMARK    1  A    between atoms: C2_2  and  C4_4 
REMARK    2  A    between atoms: C5_5  and  C6_6 
REMARK    3  A    between atoms: C8_8  and  C9_9 
ROOT
HETATM    1  C6  UNL     1       1.389   0.106   0.538  1.00  0.00     0.070 A 
HETATM    2  C7  UNL     1       2.093   1.452   0.591  1.00  0.00     0.024 A 
HETATM    3  C8  UNL     1       2.292   0.571  -0.556  1.00  0.00     0.012 A 
ENDROOT
BRANCH   1   4
HETATM    4  C5  UNL     1      -0.072   0.112   0.291  1.00  0.00    -0.101 C 
HETATM    5  C4  UNL     1      -1.258   0.116   0.070  1.00  0.00    -0.102 C 
BRANCH   5   6
HETATM    6  C2  UNL     1      -2.692   0.125  -0.223  1.00  0.00     0.057 C 
HETATM    7  C1  UNL     1      -3.446   0.243   1.082  1.00  0.00     0.023 C 
HETATM    8  C3  UNL     1      -3.112  -1.161  -0.912  1.00  0.00     0.023 C 
ENDBRANCH   5   6
ENDBRANCH   1   4
BRANCH   3   9
HETATM    9  C9  UNL     1       3.537  -0.222  -0.792  1.00  0.00     0.092 C 
HETATM   10  S1  UNL     1       4.631  -0.289   0.635  1.00  0.00    -0.097 SA
ENDBRANCH   3   9
TORSDOF 3
