REMARK  1 active torsions:
REMARK  status: ('A' for Active; 'I' for Inactive)
REMARK    1  A    between atoms: N1_2  and  C2_4 
ROOT
HETATM    1  C2  UNL     1      -0.298   0.379   0.422  1.00  0.00     0.028 C 
HETATM    2  C3  UNL     1       0.906   0.762   1.278  1.00  0.00     0.031 C 
HETATM    3  C4  UNL     1       2.029   1.132   0.352  1.00  0.00     0.002 C 
HETATM    4  C5  UNL     1       2.508  -0.117  -0.336  1.00  0.00     0.001 C 
HETATM    5  C6  UNL     1       1.427  -1.183  -0.268  1.00  0.00     0.007 C 
HETATM    6  C7  UNL     1       0.107  -0.536  -0.679  1.00  0.00     0.013 C 
HETATM    7  C8  UNL     1      -0.911  -1.639  -0.748  1.00  0.00     0.007 C 
HETATM    8  C9  UNL     1      -1.979  -1.307   0.287  1.00  0.00     0.003 C 
HETATM    9  C10 UNL     1      -1.182  -0.501   1.276  1.00  0.00     0.031 C 
ENDROOT
BRANCH   1  10
HETATM   10  N1  UNL     1      -0.901   1.606   0.035  1.00  0.00    -0.416 N 
HETATM   11  C1  UNL     1      -1.548   1.648  -1.225  1.00  0.00     0.140 C 
ATOM     12  H1  UNL     1      -0.869   2.426   0.641  1.00  0.00     0.153 HD
ENDBRANCH   1  10
TORSDOF 1
