REMARK  1 active torsions:
REMARK  status: ('A' for Active; 'I' for Inactive)
REMARK    1  A    between atoms: S1_2  and  C2_3 
ROOT
HETATM    1  C2  UNL     1       0.910   0.283   1.009  1.00  0.00     0.246 C 
HETATM    2  C3  UNL     1       0.550  -0.878   0.087  1.00  0.00     0.044 C 
HETATM    3  C4  UNL     1      -0.687  -1.591   0.495  1.00  0.00     0.003 C 
HETATM    4  C5  UNL     1      -1.959  -1.196  -0.140  1.00  0.00     0.000 C 
HETATM    5  C6  UNL     1      -1.915  -0.110  -1.156  1.00  0.00     0.002 C 
HETATM    6  C7  UNL     1      -1.962   1.218  -0.441  1.00  0.00     0.027 C 
HETATM    7  C8  UNL     1      -0.535   1.709  -0.292  1.00  0.00     0.233 C 
HETATM    8  N1  UNL     1      -0.089   1.315   1.017  1.00  0.00    -0.062 N 
ATOM      9  H11 UNL     1       0.238   2.126   1.543  1.00  0.00     0.278 HD
ATOM     10  H12 UNL     1      -0.882   1.041   1.598  1.00  0.00     0.278 HD
ENDROOT
BRANCH   1  11
HETATM   11  S1  UNL     1       2.480   1.011   0.535  1.00  0.00    -0.141 SA
HETATM   12  C1  UNL     1       3.723  -0.173   0.027  1.00  0.00     0.092 C 
ENDBRANCH   1  11
TORSDOF 1
