REMARK  1 active torsions:
REMARK  status: ('A' for Active; 'I' for Inactive)
REMARK    1  A    between atoms: N1_2  and  C2_5 
ROOT
HETATM    1  C2  UNL     1       1.276  -0.271  -0.889  1.00  0.00     0.186 C 
HETATM    2  C3  UNL     1       1.526  -1.432   0.023  1.00  0.00     0.033 C 
HETATM    3  C4  UNL     1       0.427  -1.613   1.064  1.00  0.00     0.003 C 
HETATM    4  C5  UNL     1      -0.866  -1.546   0.258  1.00  0.00     0.010 C 
HETATM    5  C6  UNL     1      -1.097  -0.094  -0.050  1.00  0.00    -0.038 C 
HETATM    6  C7  UNL     1      -2.322   0.071  -0.924  1.00  0.00     0.010 C 
HETATM    7  C8  UNL     1      -2.705   1.274  -0.075  1.00  0.00     0.002 C 
HETATM    8  C9  UNL     1      -1.825   0.689   1.012  1.00  0.00     0.010 C 
HETATM    9  C10 UNL     1       0.137   0.609  -0.495  1.00  0.00     0.042 C 
ENDROOT
BRANCH   1  10
HETATM   10  N1  UNL     1       2.473   0.567  -0.938  1.00  0.00    -0.075 N 
HETATM   11  C1  UNL     1       2.777   1.173   0.330  1.00  0.00     0.267 C 
ATOM     12  H12 UNL     1       2.397   1.271  -1.672  1.00  0.00     0.277 HD
ATOM     13  H11 UNL     1       3.272   0.043  -1.295  1.00  0.00     0.277 HD
ENDBRANCH   1  10
TORSDOF 1
