REMARK  1 active torsions:
REMARK  status: ('A' for Active; 'I' for Inactive)
REMARK    1  A    between atoms: N1_1  and  C1_5 
ROOT
HETATM    1  C1  UNL     1       1.515   0.055   0.098  1.00  0.00     0.191 C 
HETATM    2  C2  UNL     1       0.695  -1.148  -0.254  1.00  0.00     0.017 C 
HETATM    3  C3  UNL     1      -0.238  -0.936  -1.405  1.00  0.00     0.011 C 
HETATM    4  C4  UNL     1      -1.193   0.177  -1.079  1.00  0.00    -0.013 C 
HETATM    5  C5  UNL     1      -1.965  -0.071   0.200  1.00  0.00     0.009 C 
HETATM    6  C6  UNL     1      -0.987  -0.293   1.339  1.00  0.00    -0.013 C 
HETATM    7  C7  UNL     1      -0.146  -1.483   0.986  1.00  0.00     0.011 C 
HETATM    8  C8  UNL     1      -0.209   0.971   1.523  1.00  0.00     0.011 C 
HETATM    9  C9  UNL     1       0.613   1.253   0.256  1.00  0.00     0.017 C 
HETATM   10  C10 UNL     1      -0.345   1.436  -0.875  1.00  0.00     0.011 C 
ENDROOT
BRANCH   1  11
HETATM   11  N1  UNL     1       2.633   0.283  -0.764  1.00  0.00    -0.074 N 
ATOM     12  H13 UNL     1       3.223  -0.548  -0.808  1.00  0.00     0.274 HD
ATOM     13  H12 UNL     1       2.328   0.333  -1.736  1.00  0.00     0.274 HD
ATOM     14  H11 UNL     1       3.191   1.102  -0.524  1.00  0.00     0.274 HD
ENDBRANCH   1  11
TORSDOF 1
