REMARK  2 active torsions:
REMARK  status: ('A' for Active; 'I' for Inactive)
REMARK    1  A    between atoms: C6_6  and  N1_7 
REMARK    2  A    between atoms: C9_13  and  N2_14 
ROOT
HETATM    1  C1  UNL     1      -3.206   0.235  -0.532  1.00  0.00     0.012 C 
HETATM    2  C2  UNL     1      -1.880   0.408   0.055  1.00  0.00     0.013 C 
HETATM    3  C3  UNL     1      -0.867   1.085  -0.870  1.00  0.00     0.011 C 
HETATM    4  C4  UNL     1       0.341   1.063   0.053  1.00  0.00    -0.006 C 
HETATM    5  C5  UNL     1       1.638   1.084  -0.668  1.00  0.00     0.037 C 
HETATM    6  C6  UNL     1       2.426  -0.076  -0.118  1.00  0.00     0.184 C 
HETATM    7  C7  UNL     1       1.373  -1.089   0.358  1.00  0.00     0.039 C 
HETATM    8  C8  UNL     1       0.216  -0.291   0.737  1.00  0.00     0.022 C 
HETATM    9  C9  UNL     1      -1.137  -0.818   0.452  1.00  0.00     0.191 C 
ENDROOT
BRANCH   6  10
HETATM   10  N1  UNL     1       3.230   0.270   1.011  1.00  0.00    -0.075 N 
ATOM     11  H13 UNL     1       3.845   1.053   0.791  1.00  0.00     0.274 HD
ATOM     12  H12 UNL     1       2.663   0.701   1.741  1.00  0.00     0.274 HD
ATOM     13  H11 UNL     1       3.764  -0.515   1.383  1.00  0.00     0.274 HD
ENDBRANCH   6  10
BRANCH   9  14
HETATM   14  N2  UNL     1      -1.202  -1.806  -0.590  1.00  0.00    -0.074 N 
ATOM     15  H23 UNL     1      -2.165  -2.015  -0.855  1.00  0.00     0.274 HD
ATOM     16  H22 UNL     1      -0.875  -1.437  -1.483  1.00  0.00     0.274 HD
ATOM     17  H21 UNL     1      -0.693  -2.647  -0.318  1.00  0.00     0.274 HD
ENDBRANCH   9  14
TORSDOF 2
