REMARK  3 active torsions:
REMARK  status: ('A' for Active; 'I' for Inactive)
REMARK    1  A    between atoms: C2_2  and  N1_4 
REMARK    2  A    between atoms: C2_2  and  N2_8 
REMARK    3  A    between atoms: N2_8  and  C4_10 
ROOT
HETATM    1  N2  UNL     1      -0.922  -1.039   0.069  1.00  0.00    -0.387 N 
ATOM      2  H2  UNL     1      -1.108  -2.037   0.170  1.00  0.00     0.156 HD
ENDROOT
BRANCH   1   3
HETATM    3  C2  UNL     1      -2.021  -0.205  -0.101  1.00  0.00     0.184 C 
HETATM    4  C1  UNL     1      -2.208   0.443  -1.442  1.00  0.00     0.070 C 
HETATM    5  C3  UNL     1      -2.184   0.884   0.941  1.00  0.00     0.070 C 
BRANCH   3   6
HETATM    6  N1  UNL     1      -3.202  -1.061   0.111  1.00  0.00    -0.054 N 
ATOM      7  H13 UNL     1      -4.087  -0.561   0.022  1.00  0.00     0.277 HD
ATOM      8  H12 UNL     1      -3.360  -1.729  -0.644  1.00  0.00     0.277 HD
ATOM      9  H11 UNL     1      -3.075  -1.501   1.022  1.00  0.00     0.277 HD
ENDBRANCH   3   6
ENDBRANCH   1   3
BRANCH   1  10
HETATM   10  C4  UNL     1       0.398  -0.640   0.114  1.00  0.00     0.079 C 
HETATM   11  C5  UNL     1       1.019  -0.075  -1.147  1.00  0.00     0.024 C 
HETATM   12  C6  UNL     1       2.503   0.010  -1.063  1.00  0.00     0.002 C 
HETATM   13  C7  UNL     1       3.110   0.255   0.251  1.00  0.00     0.000 C 
HETATM   14  C8  UNL     1       2.264   0.101   1.459  1.00  0.00     0.002 C 
HETATM   15  C9  UNL     1       0.782   0.343   1.191  1.00  0.00     0.024 C 
ENDBRANCH   1  10
TORSDOF 3
