REMARK  2 active torsions:
REMARK  status: ('A' for Active; 'I' for Inactive)
REMARK    1  A    between atoms: C8_8  and  C9_9 
REMARK    2  A    between atoms: C9_9  and  N1_10 
ROOT
HETATM    1  C1  UNL     1      -1.023  -0.771  -1.499  1.00  0.00     0.016 C 
HETATM    2  C2  UNL     1      -0.474  -0.767  -0.107  1.00  0.00    -0.035 C 
HETATM    3  C3  UNL     1      -0.187  -2.181   0.354  1.00  0.00     0.016 C 
HETATM    4  C4  UNL     1      -1.300  -0.038   0.923  1.00  0.00    -0.005 C 
HETATM    5  C5  UNL     1      -1.893   1.242   0.373  1.00  0.00     0.005 C 
HETATM    6  C6  UNL     1      -0.820   2.177  -0.110  1.00  0.00     0.001 C 
HETATM    7  C7  UNL     1       0.424   1.483  -0.571  1.00  0.00     0.012 C 
HETATM    8  C8  UNL     1       0.628   0.210   0.173  1.00  0.00    -0.009 C 
HETATM    9  C10 UNL     1       0.029   0.368   1.578  1.00  0.00     0.017 C 
ENDROOT
BRANCH   8  10
HETATM   10  C9  UNL     1       2.007  -0.335   0.264  1.00  0.00     0.239 C 
BRANCH  10  11
HETATM   11  N1  UNL     1       2.448  -0.993  -0.952  1.00  0.00    -0.079 N 
ATOM     12  H13 UNL     1       1.789  -1.721  -1.229  1.00  0.00     0.274 HD
ATOM     13  H12 UNL     1       2.358  -0.369  -1.754  1.00  0.00     0.274 HD
ATOM     14  H11 UNL     1       3.395  -1.367  -0.890  1.00  0.00     0.274 HD
ENDBRANCH  10  11
ENDBRANCH   8  10
TORSDOF 2
