REMARK  3 active torsions:
REMARK  status: ('A' for Active; 'I' for Inactive)
REMARK    1  A    between atoms: C2_2  and  O1_6 
REMARK    2  A    between atoms: O1_6  and  C3_7 
REMARK       I    between atoms: C3_7  and  N2_9 
REMARK    3  A    between atoms: N2_9  and  C4_11 
ROOT
HETATM    1  O1  UNL     1       0.624   0.591   0.402  1.00  0.00    -0.248 OA
ENDROOT
BRANCH   1   2
HETATM    2  C2  UNL     1      -0.714   0.260   0.257  1.00  0.00     0.131 C 
HETATM    3  C1  UNL     1      -1.760   1.249   0.604  1.00  0.00     0.098 C 
HETATM    4  N1  UNL     1      -1.015  -0.903  -0.178  1.00  0.00    -0.304 N 
HETATM    5  S1  UNL     1      -2.651  -1.475  -0.417  1.00  0.00     0.044 SA
ATOM      6  H1  UNL     1      -0.251  -1.540  -0.401  1.00  0.00     0.176 HD
ENDBRANCH   1   2
BRANCH   1   7
HETATM    7  C3  UNL     1       1.648  -0.295   0.092  1.00  0.00     0.373 C 
HETATM    8  O2  UNL     1       1.331  -1.419  -0.328  1.00  0.00    -0.238 OA
HETATM    9  N2  UNL     1       2.979   0.154   0.281  1.00  0.00    -0.280 N 
ATOM     10  H2  UNL     1       3.199   1.149   0.230  1.00  0.00     0.173 HD
BRANCH   9  11
HETATM   11  C4  UNL     1       3.895  -0.694   0.515  1.00  0.00     0.357 C 
HETATM   12  O3  UNL     1       4.992  -1.225   0.540  1.00  0.00    -0.283 OA
ENDBRANCH   9  11
ENDBRANCH   1   7
TORSDOF 3
