REMARK  3 active torsions:
REMARK  status: ('A' for Active; 'I' for Inactive)
REMARK    1  A    between atoms: S1_2  and  C2_3 
REMARK    2  A    between atoms: C2_3  and  N1_5 
REMARK    3  A    between atoms: N1_5  and  O1_7 
ROOT
HETATM    1  O1  UNL     1       1.946  -0.919  -0.172  1.00  0.00    -0.158 OA
HETATM    2  C3  UNL     1       2.982  -0.221   0.425  1.00  0.00     0.253 C 
HETATM    3  N2  UNL     1       3.843   0.377   0.912  1.00  0.00    -0.162 NA
ENDROOT
BRANCH   1   4
HETATM    4  N1  UNL     1       0.689  -0.461   0.067  1.00  0.00    -0.232 N 
ATOM      5  H1  UNL     1       0.363   0.377  -0.415  1.00  0.00     0.197 HD
BRANCH   4   6
HETATM    6  C2  UNL     1      -0.174  -1.119   0.967  1.00  0.00     0.159 C 
HETATM    7  S2  UNL     1       0.374  -2.459   1.725  1.00  0.00    -0.051 SA
BRANCH   6   8
HETATM    8  S1  UNL     1      -1.809  -0.478   1.244  1.00  0.00    -0.103 SA
HETATM    9  C1  UNL     1      -2.004   0.999   0.218  1.00  0.00     0.098 C 
ENDBRANCH   6   8
ENDBRANCH   4   6
ENDBRANCH   1   4
TORSDOF 3
