REMARK  0 active torsions:
REMARK  status: ('A' for Active; 'I' for Inactive)
ROOT
HETATM    1  C1  UNL     1      -1.588  -0.920   0.724  1.00  0.00     0.048 C 
HETATM    2  C2  UNL     1      -0.531  -0.182  -0.107  1.00  0.00     0.081 C 
HETATM    3  C3  UNL     1      -1.076   1.103  -0.595  1.00  0.00     0.048 C 
HETATM    4  O1  UNL     1      -0.090  -0.974  -1.187  1.00  0.00    -0.359 OA
HETATM    5  C4  UNL     1       1.230  -0.841  -0.844  1.00  0.00     0.242 C 
HETATM    6  S1  UNL     1       2.066   0.620  -1.587  1.00  0.00     0.054 SA
HETATM    7  O2  UNL     1       1.937   1.624  -0.173  1.00  0.00    -0.206 OA
HETATM    8  N1  UNL     1       1.556   0.858   0.811  1.00  0.00    -0.278 N 
ATOM      9  H1  UNL     1       1.795   1.068   1.780  1.00  0.00     0.189 HD
HETATM   10  C5  UNL     1       0.814  -0.249   0.469  1.00  0.00     0.182 C 
ENDROOT
TORSDOF 0
