REMARK  1 active torsions:
REMARK  status: ('A' for Active; 'I' for Inactive)
REMARK    1  A    between atoms: O1_1  and  N1_3 
ROOT
HETATM    1  N1  UNL     1       1.973  -1.391  -0.124  1.00  0.00    -0.277 N 
ATOM      2  H1  UNL     1       1.968  -2.387   0.097  1.00  0.00     0.193 HD
HETATM    3  C1  UNL     1       0.884  -0.715  -0.096  1.00  0.00     0.015 C 
HETATM    4  C2  UNL     1       0.919   0.707  -0.418  1.00  0.00     0.055 C 
HETATM    5  C3  UNL     1      -0.236   1.502   0.071  1.00  0.00     0.011 C 
HETATM    6  C4  UNL     1      -1.335   0.706   0.695  1.00  0.00     0.075 C 
HETATM    7  C5  UNL     1      -1.532  -0.602  -0.061  1.00  0.00     0.234 A 
HETATM    8  C6  UNL     1      -0.345  -1.466   0.272  1.00  0.00     0.128 C 
HETATM    9  O2  UNL     1      -2.761  -1.199   0.093  1.00  0.00    -0.194 OA
HETATM   10  O3  UNL     1      -2.267  -0.725  -1.135  1.00  0.00    -0.194 OA
ENDROOT
BRANCH   1  11
HETATM   11  O1  UNL     1       3.142  -0.762  -0.454  1.00  0.00    -0.290 OA
ATOM     12  H1  UNL     1       3.949  -1.263  -0.475  1.00  0.00     0.244 HD
ENDBRANCH   1  11
TORSDOF 1
