REMARK  1 active torsions:
REMARK  status: ('A' for Active; 'I' for Inactive)
REMARK    1  A    between atoms: C4_7  and  O4_8 
ROOT
HETATM    1  O1  UNL     1       1.356   1.860   1.196  1.00  0.00    -0.258 OA
HETATM    2  C1  UNL     1       0.627   1.108   0.512  1.00  0.00     0.334 C 
HETATM    3  O2  UNL     1      -0.651   1.484   0.135  1.00  0.00    -0.313 OA
HETATM    4  C2  UNL     1      -1.522   0.423  -0.221  1.00  0.00     0.222 C 
HETATM    5  C3  UNL     1      -0.716  -0.793  -0.674  1.00  0.00     0.218 C 
HETATM    6  O3  UNL     1       0.103  -1.206   0.350  1.00  0.00    -0.320 OA
HETATM    7  C4  UNL     1       1.084  -0.231   0.063  1.00  0.00     0.310 C 
HETATM    8  S1  UNL     1       0.683  -0.365  -1.697  1.00  0.00    -0.057 SA
ENDROOT
BRANCH   7   9
HETATM    9  O4  UNL     1       2.366  -0.574   0.413  1.00  0.00    -0.349 OA
ATOM     10  H4  UNL     1       2.658  -1.431   0.126  1.00  0.00     0.214 HD
ENDBRANCH   7   9
TORSDOF 1
