REMARK  0 active torsions:
REMARK  status: ('A' for Active; 'I' for Inactive)
ROOT
HETATM    1  C1  UNL     1      -1.428   1.589   0.243  1.00  0.00     0.079 C 
HETATM    2  C2  UNL     1      -0.402   0.603  -0.184  1.00  0.00     0.179 C 
HETATM    3  O1  UNL     1      -0.841  -0.413  -0.980  1.00  0.00    -0.338 OA
HETATM    4  C3  UNL     1      -1.102  -1.490  -0.152  1.00  0.00     0.300 C 
HETATM    5  N1  UNL     1      -0.718  -1.084   1.199  1.00  0.00    -0.135 NA
HETATM    6  N2  UNL     1       0.215  -0.080   0.945  1.00  0.00    -0.189 NA
HETATM    7  C4  UNL     1       1.432  -0.685   0.408  1.00  0.00     0.124 C 
HETATM    8  C5  UNL     1       2.318   0.501   0.053  1.00  0.00     0.094 C 
HETATM    9  S1  UNL     1       1.060   1.465  -0.884  1.00  0.00    -0.113 SA
ENDROOT
TORSDOF 0
