REMARK  10 active torsions:
REMARK  status: ('A' for Active; 'I' for Inactive)
REMARK    1  A    between atoms: C2_2  and  C3_3 
REMARK    2  A    between atoms: C3_3  and  C4_4 
REMARK    3  A    between atoms: C4_4  and  C5_5 
REMARK    4  A    between atoms: C5_5  and  C6_6 
REMARK    5  A    between atoms: C6_6  and  C7_7 
REMARK    6  A    between atoms: C7_7  and  C8_8 
REMARK    7  A    between atoms: C9_9  and  O1_10 
REMARK    8  A    between atoms: N1_12  and  C10_13 
REMARK    9  A    between atoms: C14_17  and  N2_18 
REMARK   10  A    between atoms: N3_21  and  C15_22 
ROOT
HETATM    1  C8  UNL     1      -0.278   0.946   0.052  1.00  0.00     0.062 A 
HETATM    2  C9  UNL     1      -0.983  -0.222   0.182  1.00  0.00     0.170 A 
HETATM    3  N1  UNL     1      -2.345  -0.228   0.380  1.00  0.00    -0.153 N 
HETATM    4  C14 UNL     1      -2.956   0.943   0.441  1.00  0.00     0.685 A 
HETATM    5  N3  UNL     1      -2.262   2.128   0.312  1.00  0.00    -0.147 N 
HETATM    6  C17 UNL     1      -0.945   2.145   0.120  1.00  0.00     0.272 A 
HETATM    7  O2  UNL     1      -0.321   3.258   0.003  1.00  0.00    -0.267 OA
ENDROOT
BRANCH   1   8
HETATM    8  C7  UNL     1       1.203   0.971  -0.170  1.00  0.00     0.052 C 
BRANCH   8   9
HETATM    9  C6  UNL     1       1.558   0.634  -1.566  1.00  0.00     0.032 C 
BRANCH   9  10
HETATM   10  C5  UNL     1       2.983   0.640  -1.934  1.00  0.00    -0.030 C 
BRANCH  10  11
HETATM   11  C4  UNL     1       3.954  -0.297  -1.383  1.00  0.00    -0.031 C 
BRANCH  11  12
HETATM   12  C3  UNL     1       4.230  -0.382   0.064  1.00  0.00     0.026 C 
BRANCH  12  13
HETATM   13  C2  UNL     1       5.390  -1.424   0.191  1.00  0.00    -0.001 C 
HETATM   14  C1  UNL     1       5.738  -1.567   1.657  1.00  0.00     0.005 C 
ENDBRANCH  12  13
ENDBRANCH  11  12
ENDBRANCH  10  11
ENDBRANCH   9  10
ENDBRANCH   8   9
ENDBRANCH   1   8
BRANCH   2  15
HETATM   15  O1  UNL     1      -0.256  -1.422   0.105  1.00  0.00    -0.345 OA
ATOM     16  H1  UNL     1      -0.745  -2.232   0.195  1.00  0.00     0.219 HD
ENDBRANCH   2  15
BRANCH   3  17
HETATM   17  C10 UNL     1      -2.906  -1.509   0.493  1.00  0.00     0.046 C 
HETATM   18  C11 UNL     1      -2.189  -2.187   1.683  1.00  0.00     0.039 C 
HETATM   19  C12 UNL     1      -4.333  -1.732   0.705  1.00  0.00     0.039 C 
HETATM   20  C13 UNL     1      -2.513  -2.365  -0.735  1.00  0.00     0.039 C 
ENDBRANCH   3  17
BRANCH   5  21
HETATM   21  C15 UNL     1      -3.009   3.360   0.391  1.00  0.00     0.146 C 
HETATM   22  C16 UNL     1      -3.507   3.818  -0.962  1.00  0.00     0.027 C 
ENDBRANCH   5  21
BRANCH   4  23
HETATM   23  N2  UNL     1      -4.161   1.039   0.614  1.00  0.00    -0.234 N 
ATOM     24  H22 UNL     1      -4.674   0.163   0.709  1.00  0.00     0.174 HD
ATOM     25  H21 UNL     1      -4.632   1.942   0.661  1.00  0.00     0.174 HD
ENDBRANCH   4  23
TORSDOF 10
