REMARK  4 active torsions:
REMARK  status: ('A' for Active; 'I' for Inactive)
REMARK    1  A    between atoms: C2_2  and  N1_3 
REMARK    2  A    between atoms: N1_3  and  C3_5 
REMARK    3  A    between atoms: C5_7  and  C6_8 
REMARK    4  A    between atoms: C6_8  and  N2_9 
ROOT
HETATM    1  C3  UNL     1      -1.693  -0.267   0.765  1.00  0.00     0.090 C 
HETATM    2  C4  UNL     1      -0.598  -1.183   1.189  1.00  0.00     0.032 C 
HETATM    3  C5  UNL     1       0.583  -0.850   0.236  1.00  0.00     0.022 C 
HETATM    4  C9  UNL     1       0.253   0.438  -0.367  1.00  0.00     0.020 C 
HETATM    5  C10 UNL     1       1.296   1.517  -0.356  1.00  0.00     0.125 C 
HETATM    6  N3  UNL     1       0.657   2.827  -0.567  1.00  0.00    -0.392 N 
ATOM      7  H3  UNL     1       1.246   3.660  -0.581  1.00  0.00     0.159 HD
HETATM    8  C11 UNL     1      -0.747   2.983  -0.753  1.00  0.00     0.019 C 
HETATM    9  C12 UNL     1      -1.324   4.144  -1.475  1.00  0.00     0.069 C 
HETATM   10  C13 UNL     1      -1.536   2.046  -0.230  1.00  0.00     0.040 C 
HETATM   11 CL1  UNL     1      -3.262   2.198  -0.436  1.00  0.00    -0.086 Cl
HETATM   12  C14 UNL     1      -0.874   0.973   0.488  1.00  0.00     0.061 C 
ENDROOT
BRANCH   1  13
HETATM   13  N1  UNL     1      -2.616  -0.601  -0.196  1.00  0.00    -0.397 N 
ATOM     14  H1  UNL     1      -2.586  -0.084  -1.075  1.00  0.00     0.159 HD
BRANCH  13  15
HETATM   15  C2  UNL     1      -3.593  -1.593  -0.065  1.00  0.00     0.051 C 
HETATM   16  C1  UNL     1      -3.277  -3.029  -0.062  1.00  0.00     0.054 C 
ENDBRANCH  13  15
ENDBRANCH   1  13
BRANCH   3  17
HETATM   17  C6  UNL     1       1.866  -0.977   0.984  1.00  0.00     0.276 C 
BRANCH  17  18
HETATM   18  N2  UNL     1       3.019  -0.697   0.212  1.00  0.00     0.080 N 
HETATM   19  C7  UNL     1       3.303  -1.634  -0.834  1.00  0.00     0.309 C 
HETATM   20  C8  UNL     1       4.186  -0.380   1.010  1.00  0.00     0.309 C 
ENDBRANCH  17  18
ENDBRANCH   3  17
TORSDOF 4
