REMARK  6 active torsions:
REMARK  status: ('A' for Active; 'I' for Inactive)
REMARK    1  A    between atoms: N1_4  and  N2_6 
REMARK    2  A    between atoms: N2_6  and  C3_8 
REMARK    3  A    between atoms: C3_8  and  N3_10 
REMARK    4  A    between atoms: N3_10  and  C4_12 
REMARK    5  A    between atoms: C4_12  and  C5_13 
REMARK    6  A    between atoms: C5_13  and  N4_14 
ROOT
HETATM    1  N3  UNL     1       0.968   1.342  -1.099  1.00  0.00    -0.361 N 
ATOM      2  H3  UNL     1       0.986   0.693  -1.886  1.00  0.00     0.162 HD
ENDROOT
BRANCH   1   3
HETATM    3  C3  UNL     1       2.043   1.302  -0.147  1.00  0.00     0.186 C 
HETATM    4  S1  UNL     1       2.098   2.309   1.130  1.00  0.00    -0.040 SA
BRANCH   3   5
HETATM    5  N2  UNL     1       3.101   0.371  -0.308  1.00  0.00    -0.275 N 
ATOM      6  H2  UNL     1       3.108  -0.275  -1.098  1.00  0.00     0.189 HD
BRANCH   5   7
HETATM    7  N1  UNL     1       4.130   0.354   0.631  1.00  0.00    -0.292 N 
HETATM    8  C2  UNL     1       4.828  -0.679   0.866  1.00  0.00     0.091 C 
HETATM    9  C1  UNL     1       4.561  -1.929   0.127  1.00  0.00     0.083 C 
HETATM   10 CL1  UNL     1       6.102  -0.659   2.047  1.00  0.00    -0.068 Cl
ATOM     11  H1  UNL     1       4.331   1.208   1.151  1.00  0.00     0.187 HD
ENDBRANCH   5   7
ENDBRANCH   3   5
ENDBRANCH   1   3
BRANCH   1  12
HETATM   12  C4  UNL     1      -0.128   2.258  -0.986  1.00  0.00     0.166 C 
BRANCH  12  13
HETATM   13  C5  UNL     1      -1.076   1.991   0.154  1.00  0.00     0.082 C 
BRANCH  13  14
HETATM   14  N4  UNL     1      -1.738   0.764   0.130  1.00  0.00    -0.372 N 
HETATM   15  C6  UNL     1      -1.058  -0.426   0.328  1.00  0.00     0.063 C 
HETATM   16  C7  UNL     1      -1.867  -1.621   0.701  1.00  0.00     0.044 C 
HETATM   17  C8  UNL     1      -3.291  -1.627   0.273  1.00  0.00     0.007 C 
HETATM   18  C9  UNL     1      -3.599  -0.467  -0.668  1.00  0.00     0.021 C 
HETATM   19  C10 UNL     1      -3.150   0.773   0.114  1.00  0.00     0.127 C 
ENDBRANCH  13  14
ENDBRANCH  12  13
ENDBRANCH   1  12
TORSDOF 6
