REMARK  4 active torsions:
REMARK  status: ('A' for Active; 'I' for Inactive)
REMARK    1  A    between atoms: C7_10  and  C8_11 
REMARK    2  A    between atoms: C8_11  and  O2_12 
REMARK    3  A    between atoms: O2_12  and  C9_13 
REMARK    4  A    between atoms: C9_13  and  C10_14 
ROOT
HETATM    1  O1  UNL     1      -2.101   3.080   0.314  1.00  0.00    -0.273 OA
HETATM    2  C1  UNL     1      -2.764   2.020   0.189  1.00  0.00     0.222 C 
HETATM    3  N1  UNL     1      -4.174   1.953   0.494  1.00  0.00    -0.360 N 
ATOM      4  H1  UNL     1      -4.767   2.753   0.718  1.00  0.00     0.162 HD
HETATM    5  C2  UNL     1      -4.618   0.572   0.433  1.00  0.00     0.128 C 
HETATM    6  C3  UNL     1      -3.316  -0.159   0.674  1.00  0.00     0.017 C 
HETATM    7  C4  UNL     1      -3.278  -1.545   0.139  1.00  0.00     0.007 C 
HETATM    8  C5  UNL     1      -1.837  -2.037   0.328  1.00  0.00     0.001 C 
HETATM    9  C6  UNL     1      -0.878  -1.184  -0.423  1.00  0.00     0.007 C 
HETATM   10  C7  UNL     1      -0.978   0.290  -0.101  1.00  0.00     0.023 C 
HETATM   11  C14 UNL     1      -2.409   0.676  -0.243  1.00  0.00     0.089 C 
ENDROOT
BRANCH  10  12
HETATM   12  C8  UNL     1      -0.381   0.552   1.227  1.00  0.00     0.173 C 
BRANCH  12  13
HETATM   13  O2  UNL     1       0.949   0.187   1.267  1.00  0.00    -0.389 OA
BRANCH  13  14
HETATM   14  C9  UNL     1       1.772   0.838   0.379  1.00  0.00     0.200 C 
BRANCH  14  15
HETATM   15  C10 UNL     1       3.218   0.362   0.546  1.00  0.00     0.212 C 
HETATM   16  C11 UNL     1       4.069   1.020  -0.540  1.00  0.00     0.074 C 
HETATM   17  C12 UNL     1       4.902  -0.089  -1.140  1.00  0.00     0.197 C 
HETATM   18  F1  UNL     1       6.241   0.216  -0.997  1.00  0.00    -0.248 F 
HETATM   19  C13 UNL     1       4.571  -1.307  -0.319  1.00  0.00     0.269 C 
HETATM   20  N2  UNL     1       3.283  -1.048   0.298  1.00  0.00    -0.066 N 
ATOM     21  H22 UNL     1       3.117  -1.611   1.132  1.00  0.00     0.277 HD
ATOM     22  H21 UNL     1       2.497  -1.396  -0.251  1.00  0.00     0.277 HD
ENDBRANCH  14  15
ENDBRANCH  13  14
ENDBRANCH  12  13
ENDBRANCH  10  12
TORSDOF 4
