REMARK  6 active torsions:
REMARK  status: ('A' for Active; 'I' for Inactive)
REMARK    1  A    between atoms: C3_6  and  N2_7 
REMARK    2  A    between atoms: N2_7  and  C4_9 
REMARK    3  A    between atoms: C4_9  and  C5_10 
REMARK    4  A    between atoms: C10_18  and  N4_19 
REMARK    5  A    between atoms: N4_19  and  C11_21 
REMARK    6  A    between atoms: C11_21  and  C12_22 
ROOT
HETATM    1  F1  UNL     1       2.949  -2.747  -2.108  1.00  0.00    -0.201 F 
HETATM    2  C1  UNL     1       1.849  -2.193  -1.544  1.00  0.00     0.176 A 
HETATM    3  C2  UNL     1       0.625  -2.774  -1.709  1.00  0.00     0.152 A 
HETATM    4  N1  UNL     1      -0.448  -2.205  -1.139  1.00  0.00    -0.199 N 
ATOM      5  H1  UNL     1      -1.367  -2.632  -1.256  1.00  0.00     0.183 HD
HETATM    6  C3  UNL     1      -0.327  -1.078  -0.415  1.00  0.00     0.679 A 
HETATM    7  N3  UNL     1       0.864  -0.480  -0.234  1.00  0.00    -0.174 N 
ATOM      8  H3  UNL     1       0.945   0.375   0.316  1.00  0.00     0.186 HD
HETATM    9  C10 UNL     1       1.940  -1.043  -0.799  1.00  0.00     0.157 A 
ENDROOT
BRANCH   6  10
HETATM   10  N2  UNL     1      -1.359  -0.555   0.116  1.00  0.00    -0.224 N 
ATOM     11  H2  UNL     1      -2.252  -1.024  -0.035  1.00  0.00     0.177 HD
BRANCH  10  12
HETATM   12  C4  UNL     1      -1.369   0.638   0.908  1.00  0.00     0.170 C 
BRANCH  12  13
HETATM   13  C5  UNL     1      -2.831   1.095   1.061  1.00  0.00     0.139 C 
HETATM   14  C6  UNL     1      -3.293   1.593  -0.255  1.00  0.00     0.034 C 
HETATM   15  C7  UNL     1      -3.977   0.564  -1.093  1.00  0.00     0.005 C 
HETATM   16  C8  UNL     1      -5.027  -0.100  -0.211  1.00  0.00     0.026 C 
HETATM   17  C9  UNL     1      -4.308  -0.729   0.964  1.00  0.00     0.168 C 
HETATM   18  O1  UNL     1      -3.510   0.100   1.670  1.00  0.00    -0.384 OA
ENDBRANCH  12  13
ENDBRANCH  10  12
ENDBRANCH   6  10
BRANCH   9  19
HETATM   19  N4  UNL     1       3.092  -0.499  -0.647  1.00  0.00    -0.373 N 
ATOM     20  H4  UNL     1       3.898  -0.944  -1.087  1.00  0.00     0.161 HD
BRANCH  19  21
HETATM   21  C11 UNL     1       3.308   0.701   0.109  1.00  0.00     0.126 C 
BRANCH  21  22
HETATM   22  C12 UNL     1       4.729   1.178  -0.131  1.00  0.00     0.003 A 
HETATM   23  C13 UNL     1       5.793   0.163   0.289  1.00  0.00     0.007 A 
HETATM   24  C14 UNL     1       5.610   1.454   1.026  1.00  0.00     0.007 A 
ENDBRANCH  21  22
ENDBRANCH  19  21
ENDBRANCH   9  19
TORSDOF 6
