REMARK  3 active torsions:
REMARK  status: ('A' for Active; 'I' for Inactive)
REMARK    1  A    between atoms: C2_2  and  O1_3 
REMARK    2  A    between atoms: O1_3  and  C3_4 
REMARK    3  A    between atoms: C11_12  and  N1_13 
ROOT
HETATM    1  C3  UNL     1      -1.058   0.665   0.262  1.00  0.00     0.148 C 
HETATM    2  C4  UNL     1      -2.089  -0.290   0.839  1.00  0.00     0.017 C 
HETATM    3  C5  UNL     1      -3.021  -0.798  -0.234  1.00  0.00     0.007 C 
HETATM    4  C6  UNL     1      -2.933  -2.306  -0.260  1.00  0.00     0.001 C 
HETATM    5  C7  UNL     1      -1.484  -2.658  -0.511  1.00  0.00     0.005 C 
HETATM    6  C8  UNL     1      -0.653  -2.182   0.629  1.00  0.00    -0.012 C 
HETATM    7  C9  UNL     1      -1.412  -1.340   1.637  1.00  0.00     0.012 C 
HETATM    8  C10 UNL     1       0.526  -1.319   0.209  1.00  0.00     0.032 C 
HETATM    9  C11 UNL     1       0.146   0.008  -0.347  1.00  0.00     0.111 C 
ENDROOT
BRANCH   9  10
HETATM   10  N1  UNL     1       1.113   0.985  -0.430  1.00  0.00    -0.379 N 
HETATM   11  C12 UNL     1       2.456   0.962  -0.219  1.00  0.00     0.110 C 
HETATM   12  C13 UNL     1       3.030   0.616   1.091  1.00  0.00     0.266 C 
HETATM   13  C15 UNL     1       3.332   0.312  -1.262  1.00  0.00     0.242 C 
HETATM   14  O2  UNL     1       2.562   0.904   2.211  1.00  0.00    -0.266 OA
HETATM   15  N2  UNL     1       4.238  -0.115   0.884  1.00  0.00    -0.353 N 
HETATM   16  C14 UNL     1       4.121  -0.693  -0.438  1.00  0.00     0.166 C 
ATOM     17  H2  UNL     1       5.020  -0.210   1.532  1.00  0.00     0.162 HD
HETATM   18  F1  UNL     1       2.646  -0.230  -2.298  1.00  0.00    -0.241 F 
ATOM     19  H1  UNL     1       0.753   1.900  -0.701  1.00  0.00     0.160 HD
ENDBRANCH   9  10
BRANCH   1  20
HETATM   20  O1  UNL     1      -1.715   1.402  -0.739  1.00  0.00    -0.384 OA
BRANCH  20  21
HETATM   21  C2  UNL     1      -2.061   2.669  -0.447  1.00  0.00     0.163 C 
HETATM   22  C1  UNL     1      -1.002   3.666  -0.096  1.00  0.00     0.033 C 
ENDBRANCH  20  21
ENDBRANCH   1  20
TORSDOF 3
