REMARK  6 active torsions:
REMARK  status: ('A' for Active; 'I' for Inactive)
REMARK    1  A    between atoms: C2_2  and  N1_3 
REMARK    2  A    between atoms: N1_3  and  C4_5 
REMARK    3  A    between atoms: C4_5  and  C5_6 
REMARK    4  A    between atoms: C8_9  and  N2_10 
REMARK    5  A    between atoms: N2_10  and  C9_12 
REMARK    6  A    between atoms: C9_12  and  C10_13 
ROOT
HETATM    1  C5  UNL     1      -1.567  -0.091   0.118  1.00  0.00     0.155 C 
HETATM    2  C6  UNL     1      -1.794   0.075   1.596  1.00  0.00     0.052 C 
HETATM    3  C7  UNL     1      -0.168   0.482  -0.156  1.00  0.00     0.070 C 
HETATM    4  C8  UNL     1       0.691  -0.701   0.071  1.00  0.00     0.105 C 
HETATM    5  C14 UNL     1      -0.132  -1.824  -0.518  1.00  0.00     0.258 C 
HETATM    6  N3  UNL     1      -1.483  -1.506  -0.196  1.00  0.00    -0.060 N 
ATOM      7  H31 UNL     1      -2.134  -1.782  -0.931  1.00  0.00     0.278 HD
ATOM      8  H32 UNL     1      -1.855  -2.094   0.550  1.00  0.00     0.278 HD
ENDROOT
BRANCH   4   9
HETATM    9  N2  UNL     1       1.999  -0.637  -0.498  1.00  0.00    -0.413 N 
ATOM     10  H2  UNL     1       2.305  -1.296  -1.214  1.00  0.00     0.153 HD
BRANCH   9  11
HETATM   11  C9  UNL     1       2.844   0.382  -0.020  1.00  0.00     0.146 C 
BRANCH  11  12
HETATM   12  C10 UNL     1       4.188   0.248  -0.755  1.00  0.00     0.138 C 
HETATM   13  C11 UNL     1       5.120   1.315  -0.282  1.00  0.00     0.035 C 
HETATM   14  C12 UNL     1       6.008   0.548   0.682  1.00  0.00     0.029 C 
HETATM   15  C13 UNL     1       5.968  -0.830   0.058  1.00  0.00     0.168 C 
HETATM   16  O1  UNL     1       4.697  -0.986  -0.472  1.00  0.00    -0.384 OA
ENDBRANCH  11  12
ENDBRANCH   9  11
ENDBRANCH   4   9
BRANCH   1  17
HETATM   17  C4  UNL     1      -2.590   0.609  -0.743  1.00  0.00     0.101 C 
BRANCH  17  18
HETATM   18  N1  UNL     1      -3.925   0.216  -0.599  1.00  0.00    -0.376 N 
HETATM   19  C3  UNL     1      -4.397  -0.814  -1.450  1.00  0.00     0.154 C 
BRANCH  18  20
HETATM   20  C2  UNL     1      -4.643   0.505   0.570  1.00  0.00     0.058 C 
HETATM   21  C1  UNL     1      -6.014   1.120   0.316  1.00  0.00     0.055 C 
ENDBRANCH  18  20
ENDBRANCH  17  18
ENDBRANCH   1  17
TORSDOF 6
