REMARK  6 active torsions:
REMARK  status: ('A' for Active; 'I' for Inactive)
REMARK    1  A    between atoms: C2_2  and  O1_3 
REMARK    2  A    between atoms: O1_3  and  C3_4 
REMARK    3  A    between atoms: C3_4  and  C4_5 
REMARK    4  A    between atoms: C4_5  and  N1_6 
REMARK    5  A    between atoms: N1_6  and  C5_7 
REMARK    6  A    between atoms: N1_6  and  C9_14 
ROOT
HETATM    1  N1  UNL     1      -0.400   0.191   0.296  1.00  0.00    -0.364 N 
ENDROOT
BRANCH   1   2
HETATM    2  C4  UNL     1       0.714  -0.460   0.813  1.00  0.00     0.086 C 
BRANCH   2   3
HETATM    3  C3  UNL     1       1.945  -0.314  -0.024  1.00  0.00     0.212 C 
BRANCH   3   4
HETATM    4  O1  UNL     1       2.974  -1.022   0.641  1.00  0.00    -0.387 OA
BRANCH   4   5
HETATM    5  C2  UNL     1       4.166  -0.942  -0.038  1.00  0.00     0.163 C 
HETATM    6  C1  UNL     1       5.204  -1.717   0.766  1.00  0.00     0.033 C 
ENDBRANCH   4   5
ENDBRANCH   3   4
ENDBRANCH   2   3
ENDBRANCH   1   2
BRANCH   1   7
HETATM    7  C5  UNL     1      -0.573   1.553   0.307  1.00  0.00     0.112 C 
HETATM    8  C6  UNL     1       0.337   2.479  -0.422  1.00  0.00     0.054 C 
HETATM    9  C7  UNL     1      -0.424   3.811  -0.311  1.00  0.00     0.234 C 
HETATM   10  N2  UNL     1      -1.792   3.499  -0.134  1.00  0.00    -0.073 N 
HETATM   11  C8  UNL     1      -1.918   2.044  -0.230  1.00  0.00     0.257 C 
ATOM     12  H22 UNL     1      -2.180   3.878   0.730  1.00  0.00     0.277 HD
ATOM     13  H21 UNL     1      -2.403   3.997  -0.782  1.00  0.00     0.277 HD
ENDBRANCH   1   7
BRANCH   1  14
HETATM   14  C9  UNL     1      -1.498  -0.643  -0.084  1.00  0.00     0.188 C 
HETATM   15  C10 UNL     1      -1.013  -1.587  -1.200  1.00  0.00     0.120 C 
HETATM   16  S1  UNL     1      -2.504  -2.477  -1.735  1.00  0.00    -0.164 SA
HETATM   17  C11 UNL     1      -3.814  -1.909  -0.594  1.00  0.00     0.093 C 
HETATM   18  C12 UNL     1      -3.268  -2.028   0.793  1.00  0.00     0.126 C 
HETATM   19  N3  UNL     1      -2.023  -1.349   1.029  1.00  0.00    -0.400 N 
ATOM     20  H3  UNL     1      -1.551  -1.373   1.933  1.00  0.00     0.155 HD
ENDBRANCH   1  14
TORSDOF 6
