REMARK  6 active torsions:
REMARK  status: ('A' for Active; 'I' for Inactive)
REMARK    1  A    between atoms: C3_5  and  C4_6 
REMARK    2  A    between atoms: C4_6  and  N2_7 
REMARK    3  A    between atoms: C8_11  and  C9_12 
REMARK    4  A    between atoms: C9_12  and  N3_13 
REMARK    5  A    between atoms: N3_13  and  C10_15 
REMARK    6  A    between atoms: C10_15  and  C11_16 
ROOT
HETATM    1  N2  UNL     1       1.993  -0.097   0.240  1.00  0.00     0.103 N 
HETATM    2  C5  UNL     1       2.196  -1.567   0.190  1.00  0.00     0.274 C 
HETATM    3  C6  UNL     1       1.029  -2.082   1.008  1.00  0.00     0.033 C 
HETATM    4  C7  UNL     1      -0.035  -0.997   0.841  1.00  0.00     0.043 C 
HETATM    5  C8  UNL     1       0.586  -0.066  -0.146  1.00  0.00     0.261 C 
ENDROOT
BRANCH   5   6
HETATM    6  C9  UNL     1       0.037   1.307  -0.132  1.00  0.00     0.091 C 
BRANCH   6   7
HETATM    7  N3  UNL     1      -1.294   1.496  -0.487  1.00  0.00    -0.398 N 
ATOM      8  H3  UNL     1      -1.501   1.912  -1.395  1.00  0.00     0.158 HD
BRANCH   7   9
HETATM    9  C10 UNL     1      -2.363   1.142   0.343  1.00  0.00     0.150 C 
BRANCH   9  10
HETATM   10  C11 UNL     1      -3.652   1.365  -0.479  1.00  0.00     0.139 C 
HETATM   11  C12 UNL     1      -4.887   1.050   0.290  1.00  0.00     0.035 C 
HETATM   12  C13 UNL     1      -5.201  -0.359  -0.144  1.00  0.00     0.029 C 
HETATM   13  C14 UNL     1      -4.078  -0.670  -1.108  1.00  0.00     0.168 C 
HETATM   14  O1  UNL     1      -3.611   0.547  -1.593  1.00  0.00    -0.384 OA
ENDBRANCH   9  10
ENDBRANCH   7   9
ENDBRANCH   6   7
ENDBRANCH   5   6
BRANCH   1  15
HETATM   15  C4  UNL     1       2.841   0.548  -0.740  1.00  0.00     0.331 C 
BRANCH  15  16
HETATM   16  C3  UNL     1       4.261   0.161  -0.512  1.00  0.00     0.054 A 
HETATM   17  C2  UNL     1       5.075  -0.457  -1.425  1.00  0.00     0.115 A 
HETATM   18  N1  UNL     1       6.257  -0.642  -0.844  1.00  0.00    -0.360 N 
HETATM   19  C1  UNL     1       6.219  -0.159   0.419  1.00  0.00     0.180 A 
ATOM     20  H1  UNL     1       7.067  -1.080  -1.283  1.00  0.00     0.166 HD
HETATM   21  N4  UNL     1       4.971   0.336   0.610  1.00  0.00    -0.353 N 
ATOM     22  H4  UNL     1       4.629   0.770   1.467  1.00  0.00     0.166 HD
ENDBRANCH  15  16
ENDBRANCH   1  15
TORSDOF 6
