REMARK  8 active torsions:
REMARK  status: ('A' for Active; 'I' for Inactive)
REMARK    1  A    between atoms: S1_2  and  C2_3 
REMARK    2  A    between atoms: C2_3  and  C3_4 
REMARK    3  A    between atoms: C3_4  and  C4_5 
REMARK    4  A    between atoms: C4_5  and  N3_13 
REMARK    5  A    between atoms: N1_6  and  N2_8 
REMARK    6  A    between atoms: N2_8  and  C5_10 
REMARK    7  A    between atoms: N3_13  and  C8_15 
REMARK    8  A    between atoms: C15_22  and  O1_23 
ROOT
HETATM    1  C4  UNL     1       0.952   0.893   0.865  1.00  0.00     0.092 C 
HETATM    2  N1  UNL     1       2.024   0.180   0.792  1.00  0.00    -0.293 N 
ATOM      3  H1  UNL     1       2.879   0.606   0.435  1.00  0.00     0.188 HD
ENDROOT
BRANCH   1   4
HETATM    4  C3  UNL     1       0.916   2.317   0.447  1.00  0.00     0.087 C 
BRANCH   4   5
HETATM    5  C2  UNL     1       2.272   2.777  -0.060  1.00  0.00     0.081 C 
BRANCH   5   6
HETATM    6  S1  UNL     1       2.239   4.500  -0.573  1.00  0.00    -0.173 SA
HETATM    7  C1  UNL     1       1.181   4.750  -2.025  1.00  0.00     0.089 C 
ENDBRANCH   5   6
ENDBRANCH   4   5
ENDBRANCH   1   4
BRANCH   1   8
HETATM    8  N3  UNL     1      -0.281   0.358   1.357  1.00  0.00    -0.371 N 
ATOM      9  H3  UNL     1      -0.314  -0.083   2.276  1.00  0.00     0.161 HD
BRANCH   8  10
HETATM   10  C8  UNL     1      -1.468   0.442   0.560  1.00  0.00     0.116 C 
HETATM   11  C9  UNL     1      -1.206  -0.312  -0.745  1.00  0.00     0.011 C 
HETATM   12  C10 UNL     1      -1.355  -1.783  -0.420  1.00  0.00     0.007 C 
HETATM   13  C14 UNL     1      -2.268   0.146  -1.725  1.00  0.00     0.007 C 
HETATM   14  C11 UNL     1      -2.837  -2.112  -0.313  1.00  0.00     0.007 C 
HETATM   15  C12 UNL     1      -3.534  -0.847   0.132  1.00  0.00     0.016 C 
HETATM   16  C13 UNL     1      -3.587   0.173  -0.986  1.00  0.00     0.007 C 
HETATM   17  C15 UNL     1      -2.651  -0.218   1.220  1.00  0.00     0.145 C 
BRANCH  17  18
HETATM   18  O1  UNL     1      -3.452   0.715   1.879  1.00  0.00    -0.393 OA
ATOM     19  H1  UNL     1      -4.198   0.299   2.295  1.00  0.00     0.210 HD
ENDBRANCH  17  18
ENDBRANCH   8  10
ENDBRANCH   1   8
BRANCH   2  20
HETATM   20  N2  UNL     1       2.046  -1.159   1.188  1.00  0.00    -0.331 N 
ATOM     21  H2  UNL     1       1.222  -1.553   1.642  1.00  0.00     0.180 HD
BRANCH  20  22
HETATM   22  C5  UNL     1       3.189  -1.997   0.977  1.00  0.00     0.091 C 
HETATM   23  C6  UNL     1       3.538  -2.119  -0.502  1.00  0.00     0.033 C 
HETATM   24  C7  UNL     1       2.934  -3.401   1.482  1.00  0.00     0.033 C 
ENDBRANCH  20  22
ENDBRANCH   2  20
TORSDOF 8
