REMARK  2 active torsions:
REMARK  status: ('A' for Active; 'I' for Inactive)
REMARK       I    between atoms: N1_2  and  C2_4 
REMARK       I    between atoms: C2_4  and  N3_18 
REMARK    1  A    between atoms: N2_5  and  S1_7 
REMARK    2  A    between atoms: S1_7  and  C3_10 
ROOT
HETATM    1  S1  UNL     1      -0.025   0.701  -0.900  1.00  0.00     0.277 S 
HETATM    2  O1  UNL     1      -0.504   2.103  -0.672  1.00  0.00    -0.200 OA
HETATM    3  O2  UNL     1      -0.200   0.428  -2.383  1.00  0.00    -0.200 OA
ENDROOT
BRANCH   1   4
HETATM    4  N2  UNL     1      -1.041  -0.363  -0.005  1.00  0.00    -0.113 N 
HETATM    5  C2  UNL     1      -2.322  -0.202  -0.101  1.00  0.00     0.684 C 
HETATM    6  N1  UNL     1      -2.902   0.806  -0.909  1.00  0.00    -0.230 N 
HETATM    7  N3  UNL     1      -3.210  -1.068   0.629  1.00  0.00    -0.226 N 
HETATM    8  C1  UNL     1      -3.594   1.957  -0.425  1.00  0.00     0.165 C 
ATOM      9  H1  UNL     1      -2.818   0.701  -1.920  1.00  0.00     0.177 HD
HETATM   10  C11 UNL     1      -4.366  -0.521   1.317  1.00  0.00     0.168 C 
HETATM   11  C12 UNL     1      -2.997  -2.490   0.709  1.00  0.00     0.168 C 
ATOM     12  H2  UNL     1      -0.646  -1.097   0.582  1.00  0.00     0.197 HD
ENDBRANCH   1   4
BRANCH   1  13
HETATM   13  C3  UNL     1       1.632   0.591  -0.433  1.00  0.00     0.086 A 
HETATM   14  C4  UNL     1       2.271   1.710   0.055  1.00  0.00     0.026 A 
HETATM   15  C5  UNL     1       3.597   1.707   0.451  1.00  0.00     0.008 A 
HETATM   16  C6  UNL     1       4.336   0.541   0.364  1.00  0.00    -0.061 A 
HETATM   17  C7  UNL     1       5.771   0.497   0.782  1.00  0.00     0.048 C 
HETATM   18  C8  UNL     1       3.683  -0.572  -0.126  1.00  0.00     0.015 A 
HETATM   19  C9  UNL     1       2.373  -0.580  -0.521  1.00  0.00    -0.038 A 
HETATM   20  C10 UNL     1       1.680  -1.783  -1.047  1.00  0.00     0.050 C 
ENDBRANCH   1  13
TORSDOF 2
