REMARK  4 active torsions:
REMARK  status: ('A' for Active; 'I' for Inactive)
REMARK       I    between atoms: C1_2  and  N1_3 
REMARK    1  A    between atoms: C1_2  and  C9_20 
REMARK    2  A    between atoms: N1_3  and  C2_5 
REMARK    3  A    between atoms: N3_8  and  O2_9 
REMARK    4  A    between atoms: N4_17  and  O3_18 
ROOT
HETATM    1  C2  UNL     1       0.565  -0.114   0.084  1.00  0.00     0.728 A 
HETATM    2  N2  UNL     1       1.036  -1.406  -0.023  1.00  0.00    -0.103 N 
ATOM      3  H2  UNL     1       0.351  -2.160  -0.076  1.00  0.00     0.208 HD
HETATM    4  N3  UNL     1       2.297  -1.726  -0.061  1.00  0.00    -0.147 N 
HETATM    5  C3  UNL     1       3.208  -0.738   0.008  1.00  0.00     0.111 A 
HETATM    6  C4  UNL     1       4.550  -1.051  -0.031  1.00  0.00     0.036 A 
HETATM    7  C5  UNL     1       5.527  -0.077   0.036  1.00  0.00     0.003 A 
HETATM    8  C6  UNL     1       5.103   1.230   0.144  1.00  0.00     0.002 A 
HETATM    9  C7  UNL     1       3.769   1.587   0.186  1.00  0.00     0.035 A 
HETATM   10  C8  UNL     1       2.808   0.578   0.116  1.00  0.00     0.112 A 
HETATM   11  N4  UNL     1       1.486   0.864   0.152  1.00  0.00    -0.049 N 
ENDROOT
BRANCH   1  12
HETATM   12  N1  UNL     1      -0.657   0.016   0.107  1.00  0.00    -0.152 N 
HETATM   13  C1  UNL     1      -1.701   0.864   0.185  1.00  0.00     0.270 C 
HETATM   14  O1  UNL     1      -1.565   2.112   0.280  1.00  0.00    -0.267 OA
ATOM     15  H1  UNL     1      -1.050  -0.923   0.037  1.00  0.00     0.188 HD
BRANCH  13  16
HETATM   16  C9  UNL     1      -3.112   0.371   0.163  1.00  0.00     0.032 A 
HETATM   17  C10 UNL     1      -3.424  -0.955   0.064  1.00  0.00     0.017 A 
HETATM   18  C11 UNL     1      -4.736  -1.365   0.048  1.00  0.00     0.001 A 
HETATM   19  C12 UNL     1      -5.767  -0.468   0.130  1.00  0.00     0.000 A 
HETATM   20  C13 UNL     1      -5.466   0.872   0.230  1.00  0.00     0.001 A 
HETATM   21  C14 UNL     1      -4.143   1.261   0.244  1.00  0.00     0.017 A 
ENDBRANCH  13  16
ENDBRANCH   1  12
BRANCH  11  22
HETATM   22  O3  UNL     1       1.175   2.189   0.261  1.00  0.00    -0.269 OA
ATOM     23  H3  UNL     1       1.825   2.880   0.309  1.00  0.00     0.245 HD
ENDBRANCH  11  22
BRANCH   4  24
HETATM   24  O2  UNL     1       2.704  -3.031  -0.169  1.00  0.00    -0.267 OA
ATOM     25  H2  UNL     1       3.624  -3.265  -0.197  1.00  0.00     0.247 HD
ENDBRANCH   4  24
TORSDOF 4
