REMARK  3 active torsions:
REMARK  status: ('A' for Active; 'I' for Inactive)
REMARK    1  A    between atoms: N1_5  and  S1_6 
REMARK    2  A    between atoms: S1_6  and  N2_7 
REMARK       I    between atoms: N3_14  and  C7_15 
REMARK    3  A    between atoms: C7_15  and  C8_17 
ROOT
HETATM    1  C1  UNL     1      -0.693  -1.484   2.425  1.00  0.00     0.034 C 
HETATM    2  C2  UNL     1      -0.755  -1.406   0.947  1.00  0.00     0.107 C 
HETATM    3  C3  UNL     1      -2.055  -0.750   0.446  1.00  0.00     0.120 C 
HETATM    4  C4  UNL     1      -2.332   0.530   1.149  1.00  0.00     0.036 C 
HETATM    5  N1  UNL     1      -1.904  -0.620  -0.948  1.00  0.00    -0.266 N 
HETATM    6  C5  UNL     1      -0.932  -1.421  -1.579  1.00  0.00     0.098 C 
HETATM    7  C6  UNL     1       0.497  -1.176  -1.108  1.00  0.00     0.171 C 
HETATM    8  N3  UNL     1       0.388  -0.790   0.313  1.00  0.00    -0.340 N 
HETATM    9  C7  UNL     1       1.312   0.077   0.917  1.00  0.00     0.228 C 
HETATM   10  O3  UNL     1       1.142   0.356   2.146  1.00  0.00    -0.273 OA
ENDROOT
BRANCH   5  11
HETATM   11  S1  UNL     1      -2.561   0.664  -1.749  1.00  0.00     0.318 S 
HETATM   12  O1  UNL     1      -2.208   0.574  -3.222  1.00  0.00    -0.183 OA
HETATM   13  O2  UNL     1      -1.914   1.958  -1.270  1.00  0.00    -0.183 OA
BRANCH  11  14
HETATM   14  N2  UNL     1      -4.280   0.804  -1.667  1.00  0.00    -0.311 N 
ATOM     15  H22 UNL     1      -4.841   0.126  -1.151  1.00  0.00     0.170 HD
ATOM     16  H21 UNL     1      -4.686   1.598  -2.162  1.00  0.00     0.170 HD
ENDBRANCH  11  14
ENDBRANCH   5  11
BRANCH   9  17
HETATM   17  C8  UNL     1       2.480   0.706   0.245  1.00  0.00     0.030 C 
HETATM   18  C9  UNL     1       2.088   1.722  -0.804  1.00  0.00     0.025 C 
HETATM   19  C10 UNL     1       3.395  -0.354  -0.359  1.00  0.00     0.025 C 
HETATM   20  C11 UNL     1       3.309   1.445   1.283  1.00  0.00     0.025 C 
ENDBRANCH   9  17
TORSDOF 3
