REMARK  4 active torsions:
REMARK  status: ('A' for Active; 'I' for Inactive)
REMARK    1  A    between atoms: S1_2  and  N1_5 
REMARK    2  A    between atoms: N1_5  and  C2_7 
REMARK    3  A    between atoms: C4_11  and  C5_12 
REMARK    4  A    between atoms: C6_13  and  C7_14 
ROOT
HETATM    1  C2  UNL     1      -3.156  -0.726  -0.548  1.00  0.00     0.691 A 
HETATM    2  N2  UNL     1      -2.596   0.485  -0.401  1.00  0.00    -0.200 N 
ATOM      3  H2  UNL     1      -3.199   1.308  -0.404  1.00  0.00     0.183 HD
HETATM    4  C3  UNL     1      -1.271   0.656  -0.250  1.00  0.00     0.128 A 
HETATM    5  C4  UNL     1      -0.443  -0.450  -0.244  1.00  0.00     0.050 A 
HETATM    6  C13 UNL     1      -1.003  -1.683  -0.392  1.00  0.00     0.128 A 
HETATM    7  N3  UNL     1      -2.350  -1.802  -0.542  1.00  0.00    -0.200 N 
ATOM      8  H3  UNL     1      -2.758  -2.730  -0.653  1.00  0.00     0.183 HD
ENDROOT
BRANCH   5   9
HETATM    9  C5  UNL     1       0.989  -0.263  -0.080  1.00  0.00    -0.059 C 
HETATM   10  C6  UNL     1       2.181  -0.125   0.045  1.00  0.00    -0.061 C 
BRANCH  10  11
HETATM   11  C7  UNL     1       3.602   0.019   0.181  1.00  0.00     0.018 A 
HETATM   12  C8  UNL     1       4.478  -1.057   0.132  1.00  0.00     0.020 A 
HETATM   13  C9  UNL     1       5.840  -0.889   0.265  1.00  0.00     0.001 A 
HETATM   14  C10 UNL     1       6.323   0.386   0.450  1.00  0.00     0.000 A 
HETATM   15  C11 UNL     1       5.503   1.484   0.506  1.00  0.00     0.001 A 
HETATM   16  C12 UNL     1       4.137   1.269   0.367  1.00  0.00     0.020 A 
ENDBRANCH  10  11
ENDBRANCH   5   9
BRANCH   1  17
HETATM   17  N1  UNL     1      -4.420  -0.926  -0.695  1.00  0.00    -0.117 N 
ATOM     18  H1  UNL     1      -4.735  -1.891  -0.798  1.00  0.00     0.197 HD
BRANCH  17  19
HETATM   19  S1  UNL     1      -5.606   0.297  -0.730  1.00  0.00     0.240 S 
HETATM   20  C1  UNL     1      -5.805   1.038   0.890  1.00  0.00     0.186 C 
HETATM   21  O1  UNL     1      -5.376   1.332  -1.767  1.00  0.00    -0.206 OA
HETATM   22  O2  UNL     1      -6.935  -0.370  -1.053  1.00  0.00    -0.206 OA
ENDBRANCH  17  19
ENDBRANCH   1  17
TORSDOF 4
