REMARK  6 active torsions:
REMARK  status: ('A' for Active; 'I' for Inactive)
REMARK    1  A    between atoms: C2_2  and  O1_4 
REMARK    2  A    between atoms: O1_4  and  C4_5 
REMARK    3  A    between atoms: C5_6  and  O2_7 
REMARK    4  A    between atoms: C8_12  and  O4_13 
REMARK    5  A    between atoms: O4_13  and  C9_14 
REMARK    6  A    between atoms: C9_14  and  C10_16 
ROOT
HETATM    1  C4  UNL     1      -1.569   0.399   0.495  1.00  0.00     0.208 C 
HETATM    2  C5  UNL     1      -1.794   0.424   1.983  1.00  0.00     0.288 C 
HETATM    3  O3  UNL     1      -1.440   1.699   2.349  1.00  0.00    -0.351 OA
HETATM    4  C6  UNL     1      -0.393   2.120   1.572  1.00  0.00     0.153 C 
HETATM    5  C7  UNL     1      -0.657   3.577   1.189  1.00  0.00     0.042 C 
HETATM    6  C8  UNL     1      -0.324   1.246   0.350  1.00  0.00     0.194 C 
ENDROOT
BRANCH   6   7
HETATM    7  O4  UNL     1       0.849   0.479   0.288  1.00  0.00    -0.306 OA
BRANCH   7   8
HETATM    8  C9  UNL     1       1.735   0.588  -0.777  1.00  0.00     0.300 C 
HETATM    9  O5  UNL     1       1.506   1.384  -1.720  1.00  0.00    -0.259 OA
BRANCH   8  10
HETATM   10  C10 UNL     1       2.960  -0.218  -0.836  1.00  0.00     0.081 A 
HETATM   11  C11 UNL     1       3.903  -0.200  -1.825  1.00  0.00     0.027 A 
HETATM   12  C12 UNL     1       4.959  -1.023  -1.685  1.00  0.00     0.033 A 
HETATM   13  C13 UNL     1       4.995  -1.808  -0.561  1.00  0.00     0.075 A 
HETATM   14 CL1  UNL     1       6.249  -2.978  -0.112  1.00  0.00    -0.076 Cl
HETATM   15  S1  UNL     1       3.566  -1.373   0.254  1.00  0.00    -0.072 SA
ENDBRANCH   8  10
ENDBRANCH   7   8
ENDBRANCH   6   7
BRANCH   1  16
HETATM   16  O1  UNL     1      -1.363  -0.835  -0.033  1.00  0.00    -0.374 OA
BRANCH  16  17
HETATM   17  C2  UNL     1      -2.207  -1.187  -1.065  1.00  0.00     0.114 C 
HETATM   18  C1  UNL     1      -3.000  -2.400  -0.616  1.00  0.00     0.039 C 
HETATM   19  C3  UNL     1      -1.487  -1.576  -2.329  1.00  0.00     0.039 C 
ENDBRANCH  16  17
ENDBRANCH   1  16
BRANCH   2  20
HETATM   20  O2  UNL     1      -0.976  -0.470   2.659  1.00  0.00    -0.369 OA
ATOM     21  H2  UNL     1      -1.118  -0.454   3.598  1.00  0.00     0.212 HD
ENDBRANCH   2  20
TORSDOF 6
