REMARK  7 active torsions:
REMARK  status: ('A' for Active; 'I' for Inactive)
REMARK    1  A    between atoms: C2_2  and  O2_4 
REMARK    2  A    between atoms: O2_4  and  C3_5 
REMARK       I    between atoms: N1_9  and  C6_10 
REMARK    3  A    between atoms: C6_10  and  O4_12 
REMARK    4  A    between atoms: O4_12  and  C7_13 
REMARK    5  A    between atoms: C11_17  and  C12_18 
REMARK    6  A    between atoms: C12_18  and  O5_19 
REMARK    7  A    between atoms: C12_18  and  C13_21 
ROOT
HETATM    1  C3  UNL     1       1.954   1.587   0.046  1.00  0.00     0.144 A 
HETATM    2  C4  UNL     1       1.146   2.674   0.185  1.00  0.00     0.168 A 
HETATM    3  F1  UNL     1       1.501   3.987   0.265  1.00  0.00    -0.202 F 
HETATM    4  C5  UNL     1      -0.117   2.206   0.229  1.00  0.00     0.147 A 
HETATM    5  N1  UNL     1      -0.114   0.829   0.114  1.00  0.00    -0.264 N 
HETATM    6  C6  UNL     1      -1.309   0.080   0.097  1.00  0.00     0.372 C 
HETATM    7  O3  UNL     1      -1.476  -1.141  -0.090  1.00  0.00    -0.238 OA
HETATM    8  C11 UNL     1       1.127   0.406   0.007  1.00  0.00     0.087 A 
ENDROOT
BRANCH   6   9
HETATM    9  O4  UNL     1      -2.539   0.728   0.322  1.00  0.00    -0.293 OA
BRANCH   9  10
HETATM   10  C7  UNL     1      -3.791   0.165   0.339  1.00  0.00     0.061 C 
HETATM   11  C8  UNL     1      -4.768   1.325   0.702  1.00  0.00     0.046 C 
HETATM   12  C9  UNL     1      -4.208  -0.212  -1.090  1.00  0.00     0.046 C 
HETATM   13  C10 UNL     1      -4.047  -0.960   1.280  1.00  0.00     0.046 C 
ENDBRANCH   9  10
ENDBRANCH   6   9
BRANCH   8  14
HETATM   14  C12 UNL     1       1.792  -0.870  -0.119  1.00  0.00     0.175 C 
BRANCH  14  15
HETATM   15  O5  UNL     1       1.945  -1.202  -1.519  1.00  0.00    -0.389 OA
ATOM     16  H5  UNL     1       2.382  -2.041  -1.602  1.00  0.00     0.210 HD
ENDBRANCH  14  15
BRANCH  14  17
HETATM   17  C13 UNL     1       1.326  -2.116   0.524  1.00  0.00     0.020 A 
HETATM   18  C14 UNL     1       2.207  -3.377   0.227  1.00  0.00     0.008 A 
HETATM   19  C15 UNL     1       2.254  -2.706   1.586  1.00  0.00     0.008 A 
ENDBRANCH  14  17
ENDBRANCH   8  14
BRANCH   1  20
HETATM   20  O2  UNL     1       3.308   1.643  -0.030  1.00  0.00    -0.274 OA
BRANCH  20  21
HETATM   21  C2  UNL     1       4.114   1.865  -1.112  1.00  0.00     0.260 C 
HETATM   22  C1  UNL     1       5.624   1.892  -0.986  1.00  0.00     0.126 C 
HETATM   23  O1  UNL     1       3.561   2.050  -2.225  1.00  0.00    -0.265 OA
ENDBRANCH  20  21
ENDBRANCH   1  20
TORSDOF 7
