REMARK  5 active torsions:
REMARK  status: ('A' for Active; 'I' for Inactive)
REMARK    1  A    between atoms: O1_2  and  C2_3 
REMARK    2  A    between atoms: C2_3  and  C3_5 
REMARK    3  A    between atoms: C7_11  and  O3_12 
REMARK    4  A    between atoms: O3_12  and  C8_13 
REMARK       I    between atoms: C8_13  and  N1_15 
REMARK    5  A    between atoms: N1_15  and  C9_17 
ROOT
HETATM    1  C3  UNL     1      -2.567  -1.365   0.900  1.00  0.00     0.116 A 
HETATM    2  S1  UNL     1      -3.316  -2.886   0.946  1.00  0.00    -0.069 SA
HETATM    3  C4  UNL     1      -2.712  -3.540  -0.502  1.00  0.00     0.084 A 
HETATM    4 CL1  UNL     1      -3.018  -5.137  -1.215  1.00  0.00    -0.076 Cl
HETATM    5  C5  UNL     1      -1.923  -2.534  -0.997  1.00  0.00     0.002 A 
HETATM    6  C6  UNL     1      -1.184  -2.731  -2.319  1.00  0.00     0.054 C 
HETATM    7  C7  UNL     1      -1.846  -1.397  -0.267  1.00  0.00     0.112 A 
ENDROOT
BRANCH   7   8
HETATM    8  O3  UNL     1      -1.043  -0.293  -0.711  1.00  0.00    -0.259 OA
BRANCH   8   9
HETATM    9  C8  UNL     1       0.281  -0.207  -0.331  1.00  0.00     0.366 C 
HETATM   10  O4  UNL     1       0.723  -1.127   0.403  1.00  0.00    -0.238 OA
HETATM   11  N1  UNL     1       1.145   0.857  -0.729  1.00  0.00    -0.325 N 
ATOM     12  H1  UNL     1       0.761   1.590  -1.325  1.00  0.00     0.165 HD
BRANCH  11  13
HETATM   13  C9  UNL     1       2.514   0.954  -0.342  1.00  0.00     0.156 C 
HETATM   14  C10 UNL     1       2.841   2.297   0.326  1.00  0.00     0.040 C 
HETATM   15  C11 UNL     1       4.157   2.200  -0.420  1.00  0.00     0.083 C 
HETATM   16  C12 UNL     1       3.467   1.339  -1.414  1.00  0.00     0.149 C 
HETATM   17  O5  UNL     1       3.603   1.059  -2.585  1.00  0.00    -0.296 OA
ENDBRANCH  11  13
ENDBRANCH   8   9
ENDBRANCH   7   8
BRANCH   1  18
HETATM   18  C2  UNL     1      -2.658  -0.261   1.874  1.00  0.00     0.302 C 
HETATM   19  O2  UNL     1      -3.371  -0.408   2.893  1.00  0.00    -0.259 OA
BRANCH  18  20
HETATM   20  O1  UNL     1      -1.982   0.907   1.678  1.00  0.00    -0.322 OA
HETATM   21  C1  UNL     1      -2.050   1.978   2.589  1.00  0.00     0.213 C 
ENDBRANCH  18  20
ENDBRANCH   1  18
TORSDOF 5
