REMARK  3 active torsions:
REMARK  status: ('A' for Active; 'I' for Inactive)
REMARK    1  A    between atoms: C4_5  and  N1_6 
REMARK    2  A    between atoms: N1_6  and  C5_9 
REMARK    3  A    between atoms: C5_9  and  C6_10 
ROOT
HETATM    1  C1  UNL     1      -2.264  -2.910  -0.391  1.00  0.00     0.040 C 
HETATM    2  C2  UNL     1      -2.017  -1.462  -0.725  1.00  0.00     0.121 C 
HETATM    3  O1  UNL     1      -0.902  -1.364  -1.509  1.00  0.00    -0.383 OA
HETATM    4  C3  UNL     1      -0.620  -0.055  -1.916  1.00  0.00     0.207 C 
HETATM    5  C4  UNL     1      -0.170   0.633  -0.658  1.00  0.00     0.153 C 
HETATM    6  C9  UNL     1       0.149   2.076  -0.804  1.00  0.00     0.081 C 
HETATM    7  C10 UNL     1      -0.639   2.825   0.285  1.00  0.00     0.140 C 
HETATM    8  C11 UNL     1       0.146   3.802   0.981  1.00  0.00     0.084 C 
HETATM    9  N3  UNL     1       0.766   4.580   1.546  1.00  0.00    -0.195 NA
HETATM   10  C12 UNL     1      -1.830   3.404  -0.314  1.00  0.00     0.084 C 
HETATM   11  N4  UNL     1      -2.803   3.867  -0.779  1.00  0.00    -0.195 NA
HETATM   12  C13 UNL     1      -1.107   1.680   1.204  1.00  0.00     0.047 C 
HETATM   13  C14 UNL     1      -1.457   0.700   0.159  1.00  0.00     0.033 C 
HETATM   14  C15 UNL     1      -2.041  -0.584   0.505  1.00  0.00     0.017 C 
HETATM   15  C16 UNL     1      -1.524  -1.258   1.748  1.00  0.00     0.013 C 
ENDROOT
BRANCH   5  16
HETATM   16  N1  UNL     1       0.855  -0.128  -0.040  1.00  0.00    -0.059 N 
ATOM     17  H12 UNL     1       1.094   0.232   0.884  1.00  0.00     0.278 HD
ATOM     18  H11 UNL     1       0.528  -1.053   0.240  1.00  0.00     0.278 HD
BRANCH  16  19
HETATM   19  C5  UNL     1       1.999  -0.200  -0.900  1.00  0.00     0.281 C 
BRANCH  19  20
HETATM   20  C6  UNL     1       3.118  -0.986  -0.265  1.00  0.00     0.029 A 
HETATM   21  C7  UNL     1       4.116  -0.500   0.537  1.00  0.00     0.079 A 
HETATM   22  C8  UNL     1       5.010  -1.385   0.991  1.00  0.00     0.195 A 
HETATM   23  F1  UNL     1       6.070  -1.035   1.811  1.00  0.00    -0.186 F 
HETATM   24  N2  UNL     1       4.863  -2.661   0.631  1.00  0.00    -0.303 N 
HETATM   25  S1  UNL     1       3.487  -2.645  -0.337  1.00  0.00    -0.015 SA
ATOM     26  H2  UNL     1       5.447  -3.458   0.883  1.00  0.00     0.176 HD
ENDBRANCH  19  20
ENDBRANCH  16  19
ENDBRANCH   5  16
TORSDOF 3
