REMARK  3 active torsions:
REMARK  status: ('A' for Active; 'I' for Inactive)
REMARK    1  A    between atoms: C5_7  and  S1_8 
REMARK    2  A    between atoms: S1_8  and  C6_9 
REMARK    3  A    between atoms: C7_14  and  C8_15 
ROOT
HETATM    1  C6  UNL     1      -0.999  -0.516  -0.153  1.00  0.00     0.109 A 
HETATM    2  N1  UNL     1      -1.289  -0.514   1.143  1.00  0.00    -0.292 N 
ATOM      3  H1  UNL     1      -0.638  -0.731   1.898  1.00  0.00     0.187 HD
HETATM    4  N2  UNL     1      -2.561  -0.185   1.294  1.00  0.00    -0.302 N 
ATOM      5  H2  UNL     1      -3.038  -0.109   2.192  1.00  0.00     0.186 HD
HETATM    6  C7  UNL     1      -3.136   0.035   0.107  1.00  0.00     0.054 A 
HETATM    7  C11 UNL     1      -2.155  -0.170  -0.847  1.00  0.00     0.093 A 
HETATM    8 CL1  UNL     1      -2.346  -0.019  -2.588  1.00  0.00    -0.079 Cl
ENDROOT
BRANCH   1   9
HETATM    9  S1  UNL     1       0.542  -0.876  -0.993  1.00  0.00    -0.084 SA
BRANCH   9  10
HETATM   10  C5  UNL     1       1.450   0.694  -1.137  1.00  0.00     0.253 C 
HETATM   11  C4  UNL     1       2.751   0.496  -1.825  1.00  0.00     0.285 C 
HETATM   12  O1  UNL     1       3.932   0.442  -1.102  1.00  0.00    -0.282 OA
HETATM   13  O2  UNL     1       2.796   0.375  -3.076  1.00  0.00    -0.263 OA
HETATM   14  C2  UNL     1       3.903  -0.049   0.223  1.00  0.00     0.175 C 
HETATM   15  C1  UNL     1       3.926  -1.555   0.150  1.00  0.00     0.079 C 
HETATM   16  C3  UNL     1       5.118   0.402   1.006  1.00  0.00     0.079 C 
HETATM   17  O4  UNL     1       2.769   0.448   0.908  1.00  0.00    -0.282 OA
HETATM   18  C12 UNL     1       1.754   1.137   0.257  1.00  0.00     0.285 C 
HETATM   19  O3  UNL     1       1.122   2.087   0.814  1.00  0.00    -0.263 OA
ENDBRANCH   9  10
ENDBRANCH   1   9
BRANCH   6  20
HETATM   20  C8  UNL     1      -4.527   0.422  -0.220  1.00  0.00     0.039 A 
HETATM   21  C9  UNL     1      -5.538   0.629   0.823  1.00  0.00     0.011 A 
HETATM   22  C10 UNL     1      -5.551  -0.669   0.009  1.00  0.00     0.011 A 
ENDBRANCH   6  20
TORSDOF 3
