REMARK  10 active torsions:
REMARK  status: ('A' for Active; 'I' for Inactive)
REMARK       I    between atoms: N1_2  and  C2_4 
REMARK    1  A    between atoms: C2_4  and  C3_6 
REMARK    2  A    between atoms: C3_6  and  N2_7 
REMARK    3  A    between atoms: C3_6  and  C27_41 
REMARK       I    between atoms: N2_7  and  C4_9 
REMARK    4  A    between atoms: C4_9  and  C5_11 
REMARK    5  A    between atoms: C5_11  and  C6_12 
REMARK    6  A    between atoms: C5_11  and  N3_20 
REMARK    7  A    between atoms: C6_12  and  C7_13 
REMARK       I    between atoms: N3_20  and  C14_22 
REMARK       I    between atoms: C14_22  and  N4_24 
REMARK    8  A    between atoms: N5_27  and  C17_28 
REMARK    9  A    between atoms: C17_28  and  O4_29 
REMARK   10  A    between atoms: C17_28  and  N6_31 
ROOT
HETATM    1  C5  UNL     1      -2.112   0.356   0.085  1.00  0.00     0.178 C 
ENDROOT
BRANCH   1   2
HETATM    2  C4  UNL     1      -2.538  -1.055   0.190  1.00  0.00     0.241 C 
HETATM    3  N2  UNL     1      -3.821  -1.515  -0.097  1.00  0.00    -0.345 N 
ATOM      4  H2  UNL     1      -4.534  -0.855  -0.407  1.00  0.00     0.163 HD
HETATM    5  O2  UNL     1      -1.671  -1.913   0.568  1.00  0.00    -0.271 OA
BRANCH   3   6
HETATM    6  C3  UNL     1      -4.162  -2.938   0.040  1.00  0.00     0.184 C 
BRANCH   6   7
HETATM    7  C2  UNL     1      -4.020  -3.600  -1.294  1.00  0.00     0.240 C 
HETATM    8  N1  UNL     1      -4.155  -4.973  -1.546  1.00  0.00    -0.364 N 
HETATM    9  C1  UNL     1      -3.992  -5.500  -2.906  1.00  0.00     0.149 C 
ATOM     10  H1  UNL     1      -4.368  -5.610  -0.778  1.00  0.00     0.161 HD
HETATM   11  O1  UNL     1      -3.746  -2.856  -2.306  1.00  0.00    -0.271 OA
ENDBRANCH   6   7
BRANCH   6  12
HETATM   12  C27 UNL     1      -5.549  -3.030   0.610  1.00  0.00    -0.022 C 
HETATM   13  C28 UNL     1      -6.565  -2.388  -0.331  1.00  0.00     0.017 C 
HETATM   14  C29 UNL     1      -5.973  -4.412   0.972  1.00  0.00     0.017 C 
HETATM   15  C30 UNL     1      -5.634  -2.163   1.891  1.00  0.00     0.017 C 
ENDBRANCH   6  12
ENDBRANCH   3   6
ENDBRANCH   1   2
BRANCH   1  16
HETATM   16  C6  UNL     1      -2.593   1.027  -1.183  1.00  0.00     0.039 C 
BRANCH  16  17
HETATM   17  C7  UNL     1      -2.194   2.454  -1.309  1.00  0.00    -0.012 C 
HETATM   18  C8  UNL     1      -2.731   3.311  -0.178  1.00  0.00     0.005 C 
HETATM   19  C9  UNL     1      -2.488   4.753  -0.563  1.00  0.00     0.000 C 
HETATM   20  C10 UNL     1      -3.747   5.456  -0.958  1.00  0.00     0.000 C 
HETATM   21  C11 UNL     1      -4.326   4.957  -2.248  1.00  0.00     0.000 C 
HETATM   22  C12 UNL     1      -4.232   3.459  -2.402  1.00  0.00     0.000 C 
HETATM   23  C13 UNL     1      -2.821   2.988  -2.591  1.00  0.00     0.005 C 
ENDBRANCH  16  17
ENDBRANCH   1  16
BRANCH   1  24
HETATM   24  N3  UNL     1      -0.721   0.461   0.354  1.00  0.00    -0.330 N 
HETATM   25  C14 UNL     1       0.326   0.335  -0.582  1.00  0.00     0.319 C 
HETATM   26  O3  UNL     1       0.084   0.094  -1.813  1.00  0.00    -0.247 OA
HETATM   27  N4  UNL     1       1.695   0.459  -0.263  1.00  0.00    -0.327 N 
HETATM   28  C15 UNL     1       2.736   0.346  -1.280  1.00  0.00     0.148 C 
HETATM   29  C25 UNL     1       2.131   0.698   1.078  1.00  0.00     0.102 C 
HETATM   30  C16 UNL     1       3.979   1.090  -0.832  1.00  0.00     0.146 C 
HETATM   31  N5  UNL     1       4.471   0.508   0.438  1.00  0.00    -0.344 N 
HETATM   32  C24 UNL     1       3.502   0.042   1.374  1.00  0.00     0.151 C 
HETATM   33  C26 UNL     1       2.253   2.163   1.426  1.00  0.00     0.034 C 
ATOM     34  H3  UNL     1      -0.453   0.646   1.321  1.00  0.00     0.165 HD
BRANCH  31  35
HETATM   35  C17 UNL     1       5.874   0.491   0.583  1.00  0.00     0.217 C 
BRANCH  35  36
HETATM   36  O4  UNL     1       6.566   1.022  -0.393  1.00  0.00    -0.332 OA
ATOM     37  H4  UNL     1       7.511   1.011  -0.295  1.00  0.00     0.220 HD
ENDBRANCH  35  36
BRANCH  35  38
HETATM   38  N6  UNL     1       6.643  -0.012   1.621  1.00  0.00    -0.343 N 
HETATM   39  C18 UNL     1       6.118  -0.709   2.789  1.00  0.00     0.127 C 
HETATM   40  C19 UNL     1       7.185  -1.598   3.404  1.00  0.00     0.020 C 
HETATM   41  C20 UNL     1       8.113  -2.194   2.422  1.00  0.00     0.004 C 
HETATM   42  C21 UNL     1       8.582  -1.296   1.311  1.00  0.00     0.025 C 
HETATM   43  C22 UNL     1       8.105   0.106   1.643  1.00  0.00     0.083 C 
HETATM   44  C23 UNL     1       8.703   1.192   0.861  1.00  0.00     0.032 C 
ENDBRANCH  35  38
ENDBRANCH  31  35
ENDBRANCH   1  24
TORSDOF 10
