REMARK  9 active torsions:
REMARK  status: ('A' for Active; 'I' for Inactive)
REMARK    1  A    between atoms: C2_2  and  N1_5 
REMARK       I    between atoms: N1_5  and  C5_7 
REMARK       I    between atoms: C5_7  and  N2_9 
REMARK    2  A    between atoms: N2_9  and  C6_11 
REMARK    3  A    between atoms: C6_11  and  C7_12 
REMARK    4  A    between atoms: C6_11  and  C26_39 
REMARK    5  A    between atoms: C7_12  and  O2_13 
REMARK    6  A    between atoms: C7_12  and  N3_15 
REMARK    7  A    between atoms: C12_20  and  C13_21 
REMARK       I    between atoms: C13_21  and  N4_23 
REMARK    8  A    between atoms: N4_23  and  C14_25 
REMARK    9  A    between atoms: C14_25  and  C15_26 
REMARK       I    between atoms: C15_26  and  N5_28 
ROOT
HETATM    1  N3  UNL     1       0.666  -1.414  -1.530  1.00  0.00    -0.350 N 
HETATM    2  C8  UNL     1       0.759  -2.839  -1.400  1.00  0.00     0.125 C 
HETATM    3  C9  UNL     1      -0.556  -3.539  -1.604  1.00  0.00     0.020 C 
HETATM    4  C10 UNL     1      -1.252  -3.178  -2.885  1.00  0.00     0.004 C 
HETATM    5  C11 UNL     1      -1.004  -1.728  -3.240  1.00  0.00     0.035 C 
HETATM    6  C12 UNL     1      -0.605  -0.895  -2.090  1.00  0.00     0.178 C 
ENDROOT
BRANCH   1   7
HETATM    7  C7  UNL     1       1.679  -0.478  -1.209  1.00  0.00     0.138 C 
BRANCH   7   8
HETATM    8  C6  UNL     1       3.068  -0.651  -0.807  1.00  0.00     0.165 C 
BRANCH   8   9
HETATM    9  N2  UNL     1       3.614   0.616  -0.292  1.00  0.00    -0.331 N 
HETATM   10  C5  UNL     1       4.405   1.508  -1.025  1.00  0.00     0.317 C 
HETATM   11  N1  UNL     1       4.869   2.700  -0.399  1.00  0.00    -0.335 N 
HETATM   12  O1  UNL     1       4.701   1.261  -2.224  1.00  0.00    -0.247 OA
ATOM     13  H1  UNL     1       4.625   2.862   0.578  1.00  0.00     0.165 HD
ATOM     14  H2  UNL     1       3.399   0.863   0.674  1.00  0.00     0.165 HD
BRANCH  11  15
HETATM   15  C2  UNL     1       5.657   3.676  -1.073  1.00  0.00     0.023 C 
HETATM   16  C1  UNL     1       6.929   3.025  -1.590  1.00  0.00     0.037 C 
HETATM   17  C3  UNL     1       4.853   4.307  -2.197  1.00  0.00     0.037 C 
HETATM   18  C4  UNL     1       6.064   4.790  -0.118  1.00  0.00     0.037 C 
ENDBRANCH  11  15
ENDBRANCH   8   9
BRANCH   8  19
HETATM   19  C26 UNL     1       3.487  -1.805  -0.005  1.00  0.00     0.016 C 
HETATM   20  C27 UNL     1       5.049  -1.900  -0.012  1.00  0.00     0.007 C 
HETATM   21  C28 UNL     1       5.445  -3.171   0.667  1.00  0.00     0.000 C 
HETATM   22  C29 UNL     1       4.914  -3.291   2.079  1.00  0.00     0.000 C 
HETATM   23  C30 UNL     1       3.417  -3.127   2.033  1.00  0.00     0.000 C 
HETATM   24  C31 UNL     1       3.144  -1.736   1.454  1.00  0.00     0.007 C 
ENDBRANCH   8  19
ENDBRANCH   7   8
BRANCH   7  25
HETATM   25  O2  UNL     1       1.240   0.760  -1.306  1.00  0.00    -0.348 OA
ATOM     26  H2  UNL     1       0.334   0.873  -1.568  1.00  0.00     0.219 HD
ENDBRANCH   7  25
ENDBRANCH   1   7
BRANCH   6  27
HETATM   27  C13 UNL     1      -1.602  -0.643  -1.039  1.00  0.00     0.241 C 
HETATM   28  O3  UNL     1      -1.222  -0.671   0.163  1.00  0.00    -0.271 OA
HETATM   29  N4  UNL     1      -2.930  -0.377  -1.347  1.00  0.00    -0.341 N 
ATOM     30  H4  UNL     1      -3.172  -0.382  -2.338  1.00  0.00     0.163 HD
BRANCH  29  31
HETATM   31  C14 UNL     1      -4.019  -0.092  -0.420  1.00  0.00     0.114 C 
HETATM   32  C21 UNL     1      -5.240   0.186  -1.251  1.00  0.00     0.041 C 
HETATM   33  C22 UNL     1      -6.162  -0.924  -1.534  1.00  0.00     0.003 C 
HETATM   34  C23 UNL     1      -5.494  -2.250  -1.266  1.00  0.00     0.000 C 
HETATM   35  C24 UNL     1      -5.217  -2.214   0.249  1.00  0.00     0.003 C 
HETATM   36  C25 UNL     1      -4.130  -1.232   0.538  1.00  0.00     0.041 C 
BRANCH  31  37
HETATM   37  C15 UNL     1      -3.661   1.168   0.296  1.00  0.00     0.248 C 
HETATM   38  O4  UNL     1      -2.563   1.728  -0.037  1.00  0.00    -0.271 OA
HETATM   39  N5  UNL     1      -4.405   1.803   1.297  1.00  0.00    -0.350 N 
HETATM   40  C16 UNL     1      -5.671   1.403   1.837  1.00  0.00     0.126 C 
HETATM   41  C20 UNL     1      -3.847   3.032   1.897  1.00  0.00     0.126 C 
HETATM   42  C17 UNL     1      -5.495   1.403   3.361  1.00  0.00     0.020 C 
HETATM   43  C18 UNL     1      -5.483   2.860   3.781  1.00  0.00     0.003 C 
HETATM   44  C19 UNL     1      -4.905   3.744   2.699  1.00  0.00     0.020 C 
ENDBRANCH  31  37
ENDBRANCH  29  31
ENDBRANCH   6  27
TORSDOF 9
