REMARK  4 active torsions:
REMARK  status: ('A' for Active; 'I' for Inactive)
REMARK    1  A    between atoms: O1_2  and  C2_3 
REMARK    2  A    between atoms: C2_3  and  N2_7 
REMARK    3  A    between atoms: N2_7  and  N3_9 
REMARK    4  A    between atoms: N3_9  and  C3_10 
ROOT
HETATM    1  N2  UNL     1       1.204   0.588  -0.509  1.00  0.00    -0.269 N 
ATOM      2  H2  UNL     1       0.647   0.364  -1.333  1.00  0.00     0.186 HD
ENDROOT
BRANCH   1   3
HETATM    3  C2  UNL     1       2.629   0.418  -0.510  1.00  0.00     0.228 C 
HETATM    4  N1  UNL     1       3.440   1.363  -0.816  1.00  0.00    -0.364 N 
ATOM      5  H12 UNL     1       4.453   1.242  -0.817  1.00  0.00     0.159 HD
ATOM      6  H11 UNL     1       3.047   2.270  -1.069  1.00  0.00     0.159 HD
BRANCH   3   7
HETATM    7  O1  UNL     1       3.164  -0.818  -0.165  1.00  0.00    -0.327 OA
HETATM    8  C1  UNL     1       4.511  -1.102  -0.394  1.00  0.00     0.213 C 
ENDBRANCH   3   7
ENDBRANCH   1   3
BRANCH   1   9
HETATM    9  N3  UNL     1       0.615   1.062   0.638  1.00  0.00    -0.133 NA
BRANCH   9  10
HETATM   10  C3  UNL     1      -0.778   0.673   0.784  1.00  0.00     0.099 C 
HETATM   11  C4  UNL     1      -1.622   1.184  -0.364  1.00  0.00     0.023 C 
HETATM   12  C5  UNL     1      -3.052   0.751  -0.010  1.00  0.00     0.002 C 
HETATM   13  C6  UNL     1      -3.099  -0.716  -0.286  1.00  0.00     0.000 C 
HETATM   14  C7  UNL     1      -1.933  -1.490   0.195  1.00  0.00     0.002 C 
HETATM   15  C8  UNL     1      -0.967  -0.777   1.056  1.00  0.00     0.023 C 
ENDBRANCH   9  10
ENDBRANCH   1   9
TORSDOF 4
