REMARK  4 active torsions:
REMARK  status: ('A' for Active; 'I' for Inactive)
REMARK    1  A    between atoms: C2_2  and  C5_5 
REMARK    2  A    between atoms: C5_5  and  N1_6 
REMARK    3  A    between atoms: N1_6  and  C6_8 
REMARK    4  A    between atoms: C9_14  and  N3_15 
ROOT
HETATM    1  C6  UNL     1       1.299   0.637  -0.409  1.00  0.00     0.310 C 
HETATM    2  N2  UNL     1       1.769   1.969   0.016  1.00  0.00    -0.052 N 
ATOM      3  H21 UNL     1       1.395   2.283   0.912  1.00  0.00     0.279 HD
ATOM      4  H22 UNL     1       1.396   2.744  -0.533  1.00  0.00     0.279 HD
HETATM    5  C7  UNL     1       3.234   1.844  -0.023  1.00  0.00     0.237 C 
HETATM    6  C8  UNL     1       3.398   0.536   0.721  1.00  0.00     0.064 C 
HETATM    7  C9  UNL     1       2.131  -0.270   0.420  1.00  0.00     0.234 C 
ENDROOT
BRANCH   1   8
HETATM    8  N1  UNL     1      -0.108   0.607  -0.175  1.00  0.00    -0.393 N 
ATOM      9  H1  UNL     1      -0.613   1.424   0.169  1.00  0.00     0.155 HD
BRANCH   8  10
HETATM   10  C5  UNL     1      -0.770  -0.625  -0.448  1.00  0.00     0.124 C 
BRANCH  10  11
HETATM   11  C2  UNL     1      -2.247  -0.480  -0.142  1.00  0.00    -0.036 C 
HETATM   12  C1  UNL     1      -2.994  -1.773  -0.423  1.00  0.00     0.016 C 
HETATM   13  C3  UNL     1      -2.466  -0.197   1.340  1.00  0.00     0.016 C 
HETATM   14  C4  UNL     1      -2.892   0.657  -0.906  1.00  0.00     0.016 C 
ENDBRANCH  10  11
ENDBRANCH   8  10
ENDBRANCH   1   8
BRANCH   7  15
HETATM   15  N3  UNL     1       2.554  -1.488  -0.189  1.00  0.00    -0.071 N 
ATOM     16  H33 UNL     1       1.741  -1.995  -0.540  1.00  0.00     0.274 HD
ATOM     17  H32 UNL     1       3.039  -1.283  -1.063  1.00  0.00     0.274 HD
ATOM     18  H31 UNL     1       3.126  -2.111   0.381  1.00  0.00     0.274 HD
ENDBRANCH   7  15
TORSDOF 4
