REMARK  7 active torsions:
REMARK  status: ('A' for Active; 'I' for Inactive)
REMARK    1  A    between atoms: C1_2  and  N1_3 
REMARK    2  A    between atoms: N1_3  and  S1_5 
REMARK    3  A    between atoms: S1_5  and  C2_8 
REMARK    4  A    between atoms: C5_11  and  S2_12 
REMARK    5  A    between atoms: S2_12  and  N2_15 
REMARK    6  A    between atoms: N2_15  and  C6_17 
REMARK    7  A    between atoms: C6_17  and  C7_18 
ROOT
HETATM    1  C2  UNL     1      -2.869  -0.142   0.284  1.00  0.00     0.080 A 
HETATM    2  C3  UNL     1      -2.078  -1.153   0.784  1.00  0.00     0.027 A 
HETATM    3  C4  UNL     1      -0.907  -1.520   0.114  1.00  0.00     0.027 A 
HETATM    4  C5  UNL     1      -0.514  -0.894  -1.046  1.00  0.00     0.079 A 
HETATM    5  C12 UNL     1      -1.319   0.111  -1.525  1.00  0.00     0.027 A 
HETATM    6  C13 UNL     1      -2.474   0.485  -0.880  1.00  0.00     0.027 A 
ENDROOT
BRANCH   4   7
HETATM    7  S2  UNL     1       0.947  -1.326  -1.911  1.00  0.00     0.259 S 
HETATM    8  O4  UNL     1       1.280  -2.778  -1.709  1.00  0.00    -0.201 OA
HETATM    9  O5  UNL     1       0.745  -1.068  -3.364  1.00  0.00    -0.201 OA
BRANCH   7  10
HETATM   10  N2  UNL     1       2.220  -0.386  -1.334  1.00  0.00    -0.311 N 
ATOM     11  H2  UNL     1       2.734   0.261  -1.932  1.00  0.00     0.172 HD
BRANCH  10  12
HETATM   12  C6  UNL     1       2.530  -0.556   0.047  1.00  0.00     0.172 C 
BRANCH  12  13
HETATM   13  C7  UNL     1       3.640   0.269   0.533  1.00  0.00    -0.025 A 
HETATM   14  C8  UNL     1       3.507   1.535   1.046  1.00  0.00     0.011 A 
HETATM   15  C9  UNL     1       4.611   2.234   1.478  1.00  0.00     0.018 A 
HETATM   16  C10 UNL     1       5.876   1.663   1.399  1.00  0.00     0.087 A 
HETATM   17  N3  UNL     1       6.001   0.423   0.896  1.00  0.00    -0.375 N 
HETATM   18  C11 UNL     1       4.912  -0.264   0.471  1.00  0.00     0.096 A 
ATOM     19  H3  UNL     1       6.924  -0.006   0.833  1.00  0.00     0.164 HD
ENDBRANCH  12  13
ENDBRANCH  10  12
ENDBRANCH   7  10
ENDBRANCH   4   7
BRANCH   1  20
HETATM   20  S1  UNL     1      -4.353   0.347   1.103  1.00  0.00     0.264 S 
HETATM   21  O2  UNL     1      -4.210   0.021   2.580  1.00  0.00    -0.200 OA
HETATM   22  O3  UNL     1      -4.558   1.827   0.959  1.00  0.00    -0.200 OA
BRANCH  20  23
HETATM   23  N1  UNL     1      -5.698  -0.549   0.524  1.00  0.00    -0.258 N 
ATOM     24  H1  UNL     1      -5.934  -1.443   0.954  1.00  0.00     0.181 HD
BRANCH  23  25
HETATM   25  C1  UNL     1      -6.480  -0.055  -0.544  1.00  0.00     0.363 C 
HETATM   26  O1  UNL     1      -6.182   1.041  -1.062  1.00  0.00    -0.283 OA
ENDBRANCH  23  25
ENDBRANCH  20  23
ENDBRANCH   1  20
TORSDOF 7
