REMARK  8 active torsions:
REMARK  status: ('A' for Active; 'I' for Inactive)
REMARK    1  A    between atoms: C4_4  and  C5_5 
REMARK    2  A    between atoms: C5_5  and  O2_7 
REMARK    3  A    between atoms: O2_7  and  C6_8 
REMARK    4  A    between atoms: C6_8  and  C7_9 
REMARK       I    between atoms: C7_9  and  N1_11 
REMARK    5  A    between atoms: N1_11  and  C8_13 
REMARK    6  A    between atoms: C8_13  and  C10_15 
REMARK    7  A    between atoms: C10_15  and  O4_16 
REMARK    8  A    between atoms: C10_15  and  C11_18 
ROOT
HETATM    1  C7  UNL     1      -0.179  -1.720  -2.041  1.00  0.00     0.242 C 
HETATM    2  O3  UNL     1      -0.940  -2.427  -2.737  1.00  0.00    -0.271 OA
HETATM    3  N1  UNL     1      -0.670  -0.610  -1.353  1.00  0.00    -0.352 N 
ATOM      4  H1  UNL     1      -0.015  -0.060  -0.797  1.00  0.00     0.163 HD
ENDROOT
BRANCH   1   5
HETATM    5  C6  UNL     1       1.262  -2.056  -1.940  1.00  0.00     0.281 C 
BRANCH   5   6
HETATM    6  O2  UNL     1       1.939  -1.115  -1.095  1.00  0.00    -0.312 OA
BRANCH   6   7
HETATM    7  C5  UNL     1       3.300  -1.254  -0.870  1.00  0.00     0.266 C 
HETATM    8  O1  UNL     1       3.884  -2.217  -1.429  1.00  0.00    -0.265 OA
BRANCH   7   9
HETATM    9  C4  UNL     1       4.081  -0.350  -0.027  1.00  0.00     0.115 C 
HETATM   10  C3  UNL     1       5.521  -0.751   0.027  1.00  0.00     0.024 C 
HETATM   11  C2  UNL     1       6.186  -0.013   1.153  1.00  0.00     0.011 C 
HETATM   12  C1  UNL     1       6.847   1.249   0.687  1.00  0.00     0.012 C 
HETATM   13  C18 UNL     1       5.234   0.199   2.298  1.00  0.00     0.128 C 
HETATM   14  C17 UNL     1       4.066   1.060   1.956  1.00  0.00     0.065 C 
HETATM   15  O5  UNL     1       4.361  -0.907   2.306  1.00  0.00    -0.379 OA
HETATM   16  C16 UNL     1       3.563  -0.263   1.391  1.00  0.00     0.138 C 
ENDBRANCH   7   9
ENDBRANCH   6   7
ENDBRANCH   5   6
ENDBRANCH   1   5
BRANCH   3  17
HETATM   17  C8  UNL     1      -2.084  -0.188  -1.385  1.00  0.00     0.109 C 
HETATM   18  C9  UNL     1      -2.100   1.150  -2.030  1.00  0.00     0.035 C 
BRANCH  17  19
HETATM   19  C10 UNL     1      -2.543  -0.274   0.017  1.00  0.00     0.146 C 
BRANCH  19  20
HETATM   20  O4  UNL     1      -1.775   0.586   0.820  1.00  0.00    -0.393 OA
ATOM     21  H4  UNL     1      -2.070   0.531   1.721  1.00  0.00     0.210 HD
ENDBRANCH  19  20
BRANCH  19  22
HETATM   22  C11 UNL     1      -3.958  -0.113   0.335  1.00  0.00     0.046 C 
HETATM   23  C12 UNL     1      -4.894  -1.101  -0.307  1.00  0.00     0.039 C 
HETATM   24  C13 UNL     1      -6.236  -0.433  -0.099  1.00  0.00     0.272 C 
HETATM   25  N2  UNL     1      -6.031   0.976   0.012  1.00  0.00     0.084 N 
HETATM   26  C14 UNL     1      -6.722   1.600   1.101  1.00  0.00     0.309 C 
HETATM   27  C15 UNL     1      -4.594   1.210   0.141  1.00  0.00     0.279 C 
ENDBRANCH  19  22
ENDBRANCH  17  19
ENDBRANCH   3  17
TORSDOF 8
