REMARK  7 active torsions:
REMARK  status: ('A' for Active; 'I' for Inactive)
REMARK    1  A    between atoms: O1_2  and  C2_3 
REMARK    2  A    between atoms: C2_3  and  C3_4 
REMARK    3  A    between atoms: C3_4  and  O2_5 
REMARK    4  A    between atoms: C3_4  and  C4_7 
REMARK    5  A    between atoms: C4_7  and  N1_8 
REMARK    6  A    between atoms: N1_8  and  C5_11 
REMARK    7  A    between atoms: C8_14  and  N2_15 
REMARK       I    between atoms: N3_23  and  C16_24 
ROOT
HETATM    1  C5  UNL     1       2.435  -0.585   0.410  1.00  0.00     0.186 C 
HETATM    2  C6  UNL     1       1.921   0.609  -0.346  1.00  0.00     0.035 C 
HETATM    3  C7  UNL     1       0.426   0.694  -0.149  1.00  0.00     0.027 C 
HETATM    4  C8  UNL     1      -0.316  -0.545  -0.474  1.00  0.00     0.079 C 
HETATM    5  C18 UNL     1       0.378  -1.839  -0.177  1.00  0.00     0.027 C 
HETATM    6  C19 UNL     1       1.865  -1.810  -0.215  1.00  0.00     0.035 C 
ENDROOT
BRANCH   4   7
HETATM    7  N2  UNL     1      -1.616  -0.501   0.164  1.00  0.00    -0.404 N 
HETATM    8  C9  UNL     1      -2.408  -1.664  -0.074  1.00  0.00     0.119 C 
HETATM    9  C10 UNL     1      -3.824  -1.454  -0.429  1.00  0.00     0.045 C 
HETATM   10  C11 UNL     1      -4.190  -0.158  -1.067  1.00  0.00     0.090 C 
HETATM   11  C12 UNL     1      -3.039   0.815  -1.203  1.00  0.00     0.050 C 
HETATM   12  N3  UNL     1      -5.186   0.535  -0.237  1.00  0.00    -0.348 N 
HETATM   13  C13 UNL     1      -2.292   0.734   0.130  1.00  0.00     0.083 C 
HETATM   14  C14 UNL     1      -3.282   0.927   1.255  1.00  0.00     0.045 C 
HETATM   15  C15 UNL     1      -4.631   1.407   0.770  1.00  0.00     0.128 C 
HETATM   16  C16 UNL     1      -6.559   0.325  -0.451  1.00  0.00     0.216 C 
HETATM   17  C17 UNL     1      -7.552   1.035   0.397  1.00  0.00     0.117 C 
HETATM   18  O3  UNL     1      -6.945  -0.460  -1.358  1.00  0.00    -0.274 OA
ENDBRANCH   4   7
BRANCH   1  19
HETATM   19  N1  UNL     1       3.875  -0.574   0.452  1.00  0.00    -0.068 N 
ATOM     20  H12 UNL     1       4.226  -1.306   1.070  1.00  0.00     0.277 HD
ATOM     21  H11 UNL     1       4.218   0.246   0.953  1.00  0.00     0.277 HD
BRANCH  19  22
HETATM   22  C4  UNL     1       4.480  -0.669  -0.852  1.00  0.00     0.266 C 
BRANCH  22  23
HETATM   23  C3  UNL     1       5.984  -0.666  -0.710  1.00  0.00     0.167 C 
BRANCH  23  24
HETATM   24  C2  UNL     1       6.475   0.620  -0.077  1.00  0.00     0.200 C 
BRANCH  24  25
HETATM   25  O1  UNL     1       6.015   0.754   1.229  1.00  0.00    -0.393 OA
HETATM   26  C1  UNL     1       6.460   1.928   1.815  1.00  0.00     0.201 C 
ENDBRANCH  24  25
ENDBRANCH  23  24
BRANCH  23  27
HETATM   27  O2  UNL     1       6.449  -1.732   0.055  1.00  0.00    -0.392 OA
ATOM     28  H2  UNL     1       6.141  -2.538  -0.342  1.00  0.00     0.210 HD
ENDBRANCH  23  27
ENDBRANCH  22  23
ENDBRANCH  19  22
ENDBRANCH   1  19
TORSDOF 7
