REMARK  7 active torsions:
REMARK  status: ('A' for Active; 'I' for Inactive)
REMARK    1  A    between atoms: C2_2  and  O1_3 
REMARK    2  A    between atoms: O1_3  and  C3_4 
REMARK    3  A    between atoms: C7_9  and  C8_10 
REMARK    4  A    between atoms: C8_10  and  C10_12 
REMARK    5  A    between atoms: C13_16  and  N1_17 
REMARK    6  A    between atoms: N1_17  and  C14_19 
REMARK    7  A    between atoms: C17_25  and  N3_26 
ROOT
HETATM    1  C10 UNL     1      -0.334  -0.051  -0.915  1.00  0.00    -0.045 A 
HETATM    2  C11 UNL     1       0.029   0.699   0.187  1.00  0.00     0.034 A 
HETATM    3  C12 UNL     1       1.267   0.518   0.806  1.00  0.00     0.063 A 
HETATM    4 CL2  UNL     1       1.664   1.513   2.213  1.00  0.00    -0.082 Cl
HETATM    5  C13 UNL     1       2.155  -0.413   0.333  1.00  0.00     0.077 A 
HETATM    6  C18 UNL     1       1.783  -1.158  -0.771  1.00  0.00     0.063 A 
HETATM    7 CL4  UNL     1       2.864  -2.362  -1.429  1.00  0.00    -0.082 Cl
HETATM    8  C19 UNL     1       0.548  -0.983  -1.396  1.00  0.00     0.034 A 
ENDROOT
BRANCH   5   9
HETATM    9  N1  UNL     1       3.409  -0.620   0.932  1.00  0.00    -0.339 N 
ATOM     10  H1  UNL     1       3.536  -1.473   1.477  1.00  0.00     0.167 HD
BRANCH   9  11
HETATM   11  C14 UNL     1       4.410   0.184   0.846  1.00  0.00     0.124 A 
HETATM   12  C15 UNL     1       4.380   1.363   0.147  1.00  0.00     0.092 A 
HETATM   13  C16 UNL     1       5.505   2.151   0.118  1.00  0.00     0.122 A 
HETATM   14 CL3  UNL     1       5.545   3.685  -0.761  1.00  0.00    -0.064 Cl
HETATM   15  N2  UNL     1       6.617   1.763   0.769  1.00  0.00    -0.181 N 
HETATM   16  C17 UNL     1       6.636   0.599   1.455  1.00  0.00     0.678 A 
ATOM     17  H2  UNL     1       7.450   2.351   0.744  1.00  0.00     0.185 HD
HETATM   18  N4  UNL     1       5.539  -0.163   1.480  1.00  0.00    -0.177 N 
ATOM     19  H4  UNL     1       5.561  -1.040   2.000  1.00  0.00     0.185 HD
BRANCH  16  20
HETATM   20  N3  UNL     1       7.730   0.243   2.080  1.00  0.00    -0.234 N 
ATOM     21  H32 UNL     1       8.568   0.825   2.061  1.00  0.00     0.174 HD
ATOM     22  H31 UNL     1       7.744  -0.636   2.598  1.00  0.00     0.174 HD
ENDBRANCH  16  20
ENDBRANCH   9  11
ENDBRANCH   5   9
BRANCH   1  23
HETATM   23  C8  UNL     1      -1.639   0.169  -1.533  1.00  0.00     0.064 C 
HETATM   24  C9  UNL     1      -1.651  -0.008  -3.032  1.00  0.00     0.021 C 
BRANCH  23  25
HETATM   25  C7  UNL     1      -2.660  -0.757  -0.958  1.00  0.00     0.021 A 
HETATM   26  C6  UNL     1      -2.867  -2.010  -1.488  1.00  0.00     0.049 A 
HETATM   27  C5  UNL     1      -3.835  -2.820  -0.902  1.00  0.00     0.040 A 
HETATM   28  C4  UNL     1      -4.571  -2.384   0.180  1.00  0.00     0.079 A 
HETATM   29 CL1  UNL     1      -4.104  -4.425  -1.576  1.00  0.00    -0.084 Cl
HETATM   30  C3  UNL     1      -4.333  -1.118   0.684  1.00  0.00     0.143 A 
HETATM   31  N5  UNL     1      -3.402  -0.369   0.103  1.00  0.00    -0.340 N 
ATOM     32  H5  UNL     1      -3.236   0.563   0.484  1.00  0.00     0.167 HD
BRANCH  30  33
HETATM   33  O1  UNL     1      -5.091  -0.704   1.777  1.00  0.00    -0.336 OA
BRANCH  33  34
HETATM   34  C2  UNL     1      -4.867   0.589   2.311  1.00  0.00     0.173 C 
HETATM   35  C1  UNL     1      -5.107   1.687   1.325  1.00  0.00     0.034 C 
ENDBRANCH  33  34
ENDBRANCH  30  33
ENDBRANCH  23  25
ENDBRANCH   1  23
TORSDOF 7
