REMARK  7 active torsions:
REMARK  status: ('A' for Active; 'I' for Inactive)
REMARK    1  A    between atoms: C7_8  and  C8_9 
REMARK    2  A    between atoms: C8_9  and  N2_10 
REMARK    3  A    between atoms: N2_10  and  C9_12 
REMARK    4  A    between atoms: C9_12  and  C10_13 
REMARK    5  A    between atoms: C13_16  and  C14_17 
REMARK    6  A    between atoms: C14_17  and  O1_18 
REMARK    7  A    between atoms: C22_29  and  C23_30 
ROOT
HETATM    1  C1  UNL     1      -5.388  -1.948  -0.192  1.00  0.00     0.015 C 
HETATM    2  C2  UNL     1      -5.000  -1.029  -1.313  1.00  0.00    -0.043 C 
HETATM    3  C3  UNL     1      -5.407  -1.620  -2.633  1.00  0.00     0.015 C 
HETATM    4  C4  UNL     1      -3.510  -0.749  -1.326  1.00  0.00     0.049 C 
HETATM    5  C5  UNL     1      -3.129   0.084  -0.133  1.00  0.00    -0.034 A 
HETATM    6  C6  UNL     1      -1.757   0.091   0.177  1.00  0.00     0.105 A 
HETATM    7  N1  UNL     1      -1.270   0.776   1.218  1.00  0.00    -0.317 N 
HETATM    8  C7  UNL     1      -0.034   0.916   1.698  1.00  0.00     0.080 A 
HETATM    9  C17 UNL     1      -0.135   1.745   2.825  1.00  0.00     0.099 A 
HETATM   10  N3  UNL     1       0.980   2.128   3.612  1.00  0.00    -0.098 NA
HETATM   11  C18 UNL     1      -1.445   2.091   3.000  1.00  0.00     0.087 A 
HETATM   12 CL1  UNL     1      -2.127   3.094   4.236  1.00  0.00    -0.080 Cl
HETATM   13  C19 UNL     1      -2.141   1.477   1.986  1.00  0.00     0.063 A 
HETATM   14  C20 UNL     1      -3.508   1.476   1.686  1.00  0.00     0.040 A 
HETATM   15  C21 UNL     1      -4.044   0.780   0.617  1.00  0.00    -0.035 A 
HETATM   16  C22 UNL     1      -5.457   0.761   0.285  1.00  0.00     0.128 C 
HETATM   17  C24 UNL     1      -5.722   0.284  -1.134  1.00  0.00     0.027 C 
ENDROOT
BRANCH   8  18
HETATM   18  C8  UNL     1       1.273   0.337   1.242  1.00  0.00     0.119 C 
BRANCH  18  19
HETATM   19  N2  UNL     1       1.250  -0.418   0.084  1.00  0.00    -0.376 N 
ATOM     20  H2  UNL     1       0.395  -0.398  -0.472  1.00  0.00     0.164 HD
BRANCH  19  21
HETATM   21  C9  UNL     1       2.299  -1.202  -0.383  1.00  0.00     0.065 C 
BRANCH  21  22
HETATM   22  C10 UNL     1       3.577  -0.622  -0.845  1.00  0.00     0.024 C 
HETATM   23  C11 UNL     1       4.492  -1.763  -1.408  1.00  0.00     0.010 C 
HETATM   24  C12 UNL     1       5.926  -1.391  -1.305  1.00  0.00     0.007 C 
HETATM   25  C13 UNL     1       6.227   0.073  -1.250  1.00  0.00     0.009 C 
HETATM   26  C15 UNL     1       5.436   0.826  -0.200  1.00  0.00     0.007 C 
HETATM   27  C16 UNL     1       4.411  -0.149   0.347  1.00  0.00     0.010 C 
BRANCH  25  28
HETATM   28  C14 UNL     1       7.693   0.180  -0.802  1.00  0.00     0.168 C 
BRANCH  28  29
HETATM   29  O1  UNL     1       7.840  -0.425   0.462  1.00  0.00    -0.400 OA
ATOM     30  H1  UNL     1       8.746  -0.359   0.739  1.00  0.00     0.209 HD
ENDBRANCH  28  29
ENDBRANCH  25  28
ENDBRANCH  21  22
ENDBRANCH  19  21
ENDBRANCH  18  19
ENDBRANCH   8  18
BRANCH  16  31
HETATM   31  C23 UNL     1      -6.270   1.978   0.543  1.00  0.00     0.395 C 
HETATM   32  F1  UNL     1      -6.367   2.407   1.834  1.00  0.00    -0.170 F 
HETATM   33  F2  UNL     1      -7.586   1.651   0.162  1.00  0.00    -0.170 F 
HETATM   34  F3  UNL     1      -5.935   3.025  -0.322  1.00  0.00    -0.170 F 
ENDBRANCH  16  31
TORSDOF 7
