REMARK  7 active torsions:
REMARK  status: ('A' for Active; 'I' for Inactive)
REMARK    1  A    between atoms: C2_2  and  O1_3 
REMARK    2  A    between atoms: O1_3  and  C3_4 
REMARK    3  A    between atoms: C3_4  and  C4_5 
REMARK    4  A    between atoms: C5_6  and  C6_7 
REMARK    5  A    between atoms: C10_11  and  C11_13 
REMARK       I    between atoms: C11_13  and  N1_15 
REMARK    6  A    between atoms: C13_17  and  N2_18 
REMARK    7  A    between atoms: N3_20  and  O3_22 
ROOT
HETATM    1  C3  UNL     1      -0.739  -0.244   0.258  1.00  0.00     0.113 C 
HETATM    2  C9  UNL     1       0.513  -0.888  -0.032  1.00  0.00     0.007 C 
HETATM    3  C10 UNL     1       1.627  -0.442  -0.484  1.00  0.00     0.192 C 
HETATM    4  F1  UNL     1       2.630  -1.459  -0.582  1.00  0.00    -0.200 F 
HETATM    5  C14 UNL     1       0.612  -2.426  -0.017  1.00  0.00     0.022 C 
HETATM    6  C15 UNL     1       0.674  -2.855  -1.487  1.00  0.00     0.010 C 
HETATM    7  C16 UNL     1      -0.384  -2.065  -2.198  1.00  0.00     0.007 C 
HETATM    8  C17 UNL     1      -1.633  -1.948  -1.403  1.00  0.00     0.005 C 
HETATM    9  C18 UNL     1      -1.810  -2.949  -0.294  1.00  0.00    -0.039 C 
HETATM   10  C19 UNL     1      -2.292  -4.254  -0.950  1.00  0.00     0.015 C 
HETATM   11  C20 UNL     1      -2.991  -2.399   0.470  1.00  0.00     0.010 C 
HETATM   12  C21 UNL     1      -3.153  -0.964   0.051  1.00  0.00     0.014 C 
HETATM   13  C22 UNL     1      -1.856  -0.661  -0.728  1.00  0.00    -0.001 C 
HETATM   14  C23 UNL     1      -2.126   0.384  -1.777  1.00  0.00     0.019 C 
HETATM   15  C24 UNL     1      -0.571  -3.140   0.524  1.00  0.00     0.019 C 
ENDROOT
BRANCH   1  16
HETATM   16  O1  UNL     1      -1.230  -0.854   1.471  1.00  0.00    -0.371 OA
BRANCH  16  17
HETATM   17  C2  UNL     1      -0.724  -0.440   2.634  1.00  0.00     0.165 C 
HETATM   18  C1  UNL     1      -1.288  -1.243   3.840  1.00  0.00     0.033 C 
ENDBRANCH  16  17
ENDBRANCH   1  16
BRANCH   1  19
HETATM   19  C4  UNL     1      -0.923   1.166   0.489  1.00  0.00     0.013 C 
HETATM   20  C5  UNL     1      -0.287   2.062   1.198  1.00  0.00    -0.024 C 
BRANCH  20  21
HETATM   21  C6  UNL     1      -0.675   3.480   1.283  1.00  0.00    -0.000 C 
HETATM   22  C7  UNL     1      -0.830   3.788   2.781  1.00  0.00     0.013 C 
HETATM   23  C8  UNL     1       0.419   4.420   0.800  1.00  0.00     0.013 C 
ENDBRANCH  20  21
ENDBRANCH   1  19
BRANCH   3  24
HETATM   24  C11 UNL     1       2.118   0.753  -1.100  1.00  0.00     0.306 C 
HETATM   25  O2  UNL     1       1.422   1.726  -1.419  1.00  0.00    -0.263 OA
HETATM   26  N1  UNL     1       3.518   0.951  -1.422  1.00  0.00    -0.211 N 
HETATM   27  C12 UNL     1       4.108   2.001  -1.991  1.00  0.00     0.172 A 
HETATM   28  N5  UNL     1       4.426   0.039  -1.157  1.00  0.00    -0.232 N 
HETATM   29  C13 UNL     1       5.451   1.710  -2.077  1.00  0.00     0.155 A 
HETATM   30  N4  UNL     1       5.602   0.491  -1.551  1.00  0.00    -0.268 N 
ATOM     31  H4  UNL     1       6.486  -0.011  -1.467  1.00  0.00     0.190 HD
ATOM     32  H5  UNL     1       4.252  -0.866  -0.720  1.00  0.00     0.209 HD
BRANCH  29  33
HETATM   33  N2  UNL     1       6.439   2.581  -2.630  1.00  0.00    -0.264 N 
HETATM   34  N3  UNL     1       6.423   3.832  -2.440  1.00  0.00    -0.208 N 
ATOM     35  H3  UNL     1       7.147   4.419  -2.853  1.00  0.00     0.215 HD
ATOM     36  H2  UNL     1       7.185   2.180  -3.199  1.00  0.00     0.190 HD
BRANCH  34  37
HETATM   37  O3  UNL     1       5.427   4.402  -1.675  1.00  0.00    -0.274 OA
ATOM     38  H3  UNL     1       5.415   5.341  -1.532  1.00  0.00     0.246 HD
ENDBRANCH  34  37
ENDBRANCH  29  33
ENDBRANCH   3  24
TORSDOF 7
