REMARK  8 active torsions:
REMARK  status: ('A' for Active; 'I' for Inactive)
REMARK    1  A    between atoms: N1_2  and  C1_4 
REMARK    2  A    between atoms: C4_7  and  N2_8 
REMARK    3  A    between atoms: N3_10  and  C5_12 
REMARK    4  A    between atoms: C9_16  and  C10_17 
REMARK    5  A    between atoms: C10_17  and  C11_18 
REMARK    6  A    between atoms: C11_18  and  C12_19 
REMARK    7  A    between atoms: N4_26  and  O3_28 
REMARK    8  A    between atoms: C18_30  and  O4_31 
ROOT
HETATM    1  C5  UNL     1       1.173  -1.103  -1.094  1.00  0.00     0.082 A 
HETATM    2  C6  UNL     1       1.261  -1.775  -2.277  1.00  0.00     0.034 A 
HETATM    3  C7  UNL     1       0.103  -2.002  -2.978  1.00  0.00     0.003 A 
HETATM    4  C8  UNL     1      -1.134  -1.553  -2.488  1.00  0.00     0.016 A 
HETATM    5  C9  UNL     1      -1.250  -0.873  -1.297  1.00  0.00     0.024 A 
HETATM    6  C18 UNL     1      -0.073  -0.658  -0.613  1.00  0.00     0.106 A 
ENDROOT
BRANCH   1   7
HETATM    7  N3  UNL     1       2.349  -0.841  -0.325  1.00  0.00    -0.298 N 
HETATM    8  N2  UNL     1       3.217   0.009  -0.698  1.00  0.00    -0.300 N 
ATOM      9  H2  UNL     1       3.097   0.533  -1.565  1.00  0.00     0.187 HD
ATOM     10  H3  UNL     1       2.496  -1.350   0.547  1.00  0.00     0.187 HD
BRANCH   8  11
HETATM   11  C4  UNL     1       4.354   0.210   0.120  1.00  0.00     0.048 A 
HETATM   12  C3  UNL     1       4.793  -0.813   0.931  1.00  0.00     0.033 A 
HETATM   13  C2  UNL     1       5.900  -0.669   1.751  1.00  0.00     0.038 A 
HETATM   14  C1  UNL     1       6.568   0.538   1.742  1.00  0.00     0.103 A 
HETATM   15  C20 UNL     1       6.154   1.580   0.942  1.00  0.00     0.038 A 
HETATM   16  C19 UNL     1       5.045   1.426   0.125  1.00  0.00     0.033 A 
BRANCH  14  17
HETATM   17  N1  UNL     1       7.701   0.673   2.587  1.00  0.00    -0.116 N 
HETATM   18  O1  UNL     1       8.353   1.752   2.622  1.00  0.00    -0.532 OA
HETATM   19  O2  UNL     1       8.149  -0.336   3.399  1.00  0.00    -0.532 OA
ENDBRANCH  14  17
ENDBRANCH   8  11
ENDBRANCH   1   7
BRANCH   6  20
HETATM   20  O4  UNL     1      -0.087   0.010   0.583  1.00  0.00    -0.357 OA
ATOM     21  H4  UNL     1      -0.928   0.310   0.908  1.00  0.00     0.217 HD
ENDBRANCH   6  20
BRANCH   5  22
HETATM   22  C10 UNL     1      -2.558  -0.411  -0.807  1.00  0.00     0.049 C 
HETATM   23  N4  UNL     1      -3.631  -0.608  -1.425  1.00  0.00    -0.272 N 
ATOM     24  H4  UNL     1      -4.400  -0.199  -0.894  1.00  0.00     0.194 HD
BRANCH  22  25
HETATM   25  C11 UNL     1      -2.680   0.343   0.491  1.00  0.00     0.098 C 
BRANCH  25  26
HETATM   26  C12 UNL     1      -4.120   0.649   0.683  1.00  0.00    -0.052 A 
HETATM   27  C13 UNL     1      -4.924  -0.239   1.357  1.00  0.00     0.009 A 
HETATM   28  C14 UNL     1      -6.280   0.024   1.551  1.00  0.00     0.019 A 
HETATM   29  C15 UNL     1      -6.826   1.194   1.060  1.00  0.00     0.011 A 
HETATM   30 BR1  UNL     1      -8.691   1.513   1.350  1.00  0.00    -0.051 Br
HETATM   31  C16 UNL     1      -6.031   2.090   0.384  1.00  0.00     0.019 A 
HETATM   32  C17 UNL     1      -4.671   1.805   0.201  1.00  0.00     0.009 A 
ENDBRANCH  25  26
ENDBRANCH  22  25
BRANCH  23  33
HETATM   33  O3  UNL     1      -4.103  -1.149  -2.501  1.00  0.00    -0.290 OA
ATOM     34  H3  UNL     1      -4.916  -1.298  -2.969  1.00  0.00     0.244 HD
ENDBRANCH  23  33
ENDBRANCH   5  22
TORSDOF 8
