REMARK  8 active torsions:
REMARK  status: ('A' for Active; 'I' for Inactive)
REMARK    1  A    between atoms: C2_2  and  O1_3 
REMARK    2  A    between atoms: C2_2  and  C3_5 
REMARK    3  A    between atoms: C4_6  and  C5_7 
REMARK    4  A    between atoms: C5_7  and  C7_9 
REMARK    5  A    between atoms: C5_7  and  C16_25 
REMARK    6  A    between atoms: C7_9  and  O2_10 
REMARK    7  A    between atoms: O2_10  and  N1_11 
REMARK    8  A    between atoms: C16_25  and  N4_26 
ROOT
HETATM    1  C5  UNL     1       1.782   0.862  -0.686  1.00  0.00     0.070 C 
HETATM    2  C6  UNL     1       2.210   0.820  -2.124  1.00  0.00     0.033 C 
ENDROOT
BRANCH   1   3
HETATM    3  C4  UNL     1       1.566   2.304  -0.378  1.00  0.00    -0.090 C 
HETATM    4  C3  UNL     1       1.406   3.478  -0.149  1.00  0.00    -0.074 C 
BRANCH   4   5
HETATM    5  C2  UNL     1       1.222   4.916   0.104  1.00  0.00     0.192 C 
HETATM    6  C1  UNL     1       0.455   5.131   1.375  1.00  0.00     0.053 C 
BRANCH   5   7
HETATM    7  O1  UNL     1       0.605   5.511  -0.996  1.00  0.00    -0.384 OA
ATOM      8  H1  UNL     1       1.091   5.375  -1.801  1.00  0.00     0.211 HD
ENDBRANCH   5   7
ENDBRANCH   4   5
ENDBRANCH   1   3
BRANCH   1   9
HETATM    9  C7  UNL     1       0.440   0.181  -0.580  1.00  0.00     0.225 C 
BRANCH   9  10
HETATM   10  O2  UNL     1      -0.462   0.740  -1.473  1.00  0.00    -0.279 OA
BRANCH  10  11
HETATM   11  N1  UNL     1      -1.738   0.425  -1.727  1.00  0.00    -0.267 N 
HETATM   12  C8  UNL     1      -2.752   0.356  -1.005  1.00  0.00     0.086 C 
HETATM   13  C9  UNL     1      -2.965   0.594   0.435  1.00  0.00     0.102 C 
HETATM   14  C15 UNL     1      -4.097  -0.032  -1.487  1.00  0.00     0.226 C 
HETATM   15  C10 UNL     1      -4.026  -0.480   0.720  1.00  0.00     0.134 C 
HETATM   16  C11 UNL     1      -4.677  -0.228   2.064  1.00  0.00     0.047 C 
HETATM   17  C12 UNL     1      -3.333  -1.804   0.658  1.00  0.00     0.047 C 
HETATM   18  N2  UNL     1      -4.909  -0.362  -0.390  1.00  0.00    -0.020 N 
HETATM   19  C13 UNL     1      -5.671  -1.585  -0.617  1.00  0.00     0.281 C 
HETATM   20  C14 UNL     1      -5.897   0.695  -0.206  1.00  0.00     0.281 C 
HETATM   21  N3  UNL     1      -4.476  -0.063  -2.706  1.00  0.00    -0.378 N 
ATOM     22  H32 UNL     1      -3.886   0.177  -3.503  1.00  0.00     0.157 HD
ATOM     23  H31 UNL     1      -5.403  -0.330  -3.038  1.00  0.00     0.157 HD
ATOM     24  H1  UNL     1      -1.916   0.196  -2.705  1.00  0.00     0.194 HD
ENDBRANCH  10  11
ENDBRANCH   9  10
ENDBRANCH   1   9
BRANCH   1  25
HETATM   25  C16 UNL     1       2.772   0.364   0.298  1.00  0.00     0.296 C 
BRANCH  25  26
HETATM   26  N4  UNL     1       3.152  -0.993   0.254  1.00  0.00     0.093 N 
HETATM   27  C17 UNL     1       3.928  -1.373  -0.892  1.00  0.00     0.302 C 
HETATM   28  C18 UNL     1       5.057  -2.325  -0.524  1.00  0.00     0.302 C 
HETATM   29  N5  UNL     1       4.589  -3.335   0.419  1.00  0.00     0.087 N 
HETATM   30  C19 UNL     1       5.704  -4.253   0.626  1.00  0.00     0.310 C 
HETATM   31  C20 UNL     1       4.149  -2.740   1.658  1.00  0.00     0.302 C 
HETATM   32  C21 UNL     1       3.963  -1.262   1.429  1.00  0.00     0.302 C 
ENDBRANCH  25  26
ENDBRANCH   1  25
TORSDOF 8
