REMARK  6 active torsions:
REMARK  status: ('A' for Active; 'I' for Inactive)
REMARK    1  A    between atoms: C5_5  and  C6_6 
REMARK       I    between atoms: C6_6  and  N1_8 
REMARK       I    between atoms: N1_8  and  C7_10 
REMARK    2  A    between atoms: C7_10  and  C8_12 
REMARK    3  A    between atoms: C8_12  and  S1_13 
REMARK    4  A    between atoms: S1_13  and  C9_14 
REMARK    5  A    between atoms: C9_14  and  C10_15 
REMARK       I    between atoms: C10_15  and  N2_17 
REMARK    6  A    between atoms: C13_20  and  C14_21 
ROOT
HETATM    1  C8  UNL     1      -0.883  -0.552   0.363  1.00  0.00     0.177 C 
ENDROOT
BRANCH   1   2
HETATM    2  C7  UNL     1       0.445  -0.138   0.856  1.00  0.00     0.233 C 
HETATM    3  N1  UNL     1       1.600  -0.680   0.207  1.00  0.00    -0.297 N 
HETATM    4  C6  UNL     1       2.924  -0.444   0.642  1.00  0.00     0.228 C 
ATOM      5  H1  UNL     1       1.460  -1.269  -0.614  1.00  0.00     0.171 HD
HETATM    6  O1  UNL     1       3.082   0.301   1.656  1.00  0.00    -0.273 OA
HETATM    7  O2  UNL     1       0.543   0.669   1.829  1.00  0.00    -0.272 OA
BRANCH   4   8
HETATM    8  C5  UNL     1       4.042  -1.072  -0.108  1.00  0.00     0.078 C 
HETATM    9  C4  UNL     1       5.293  -1.255   0.693  1.00  0.00     0.014 C 
HETATM   10  C3  UNL     1       6.423  -1.564  -0.294  1.00  0.00     0.005 C 
HETATM   11  C2  UNL     1       6.798  -0.228  -0.926  1.00  0.00    -0.019 C 
HETATM   12  C1  UNL     1       7.902   0.460  -0.183  1.00  0.00     0.010 C 
HETATM   13  C18 UNL     1       5.584   0.699  -0.929  1.00  0.00     0.005 C 
HETATM   14  C17 UNL     1       4.331  -0.113  -1.261  1.00  0.00     0.014 C 
ENDBRANCH   4   8
ENDBRANCH   1   2
BRANCH   1  15
HETATM   15  S1  UNL     1      -1.290   0.314  -1.148  1.00  0.00    -0.150 SA
BRANCH  15  16
HETATM   16  C9  UNL     1      -1.617   2.053  -0.808  1.00  0.00     0.177 C 
BRANCH  16  17
HETATM   17  C10 UNL     1      -2.850   2.224   0.002  1.00  0.00     0.229 C 
HETATM   18  O3  UNL     1      -2.786   3.035   0.999  1.00  0.00    -0.273 OA
HETATM   19  N2  UNL     1      -4.079   1.586  -0.216  1.00  0.00    -0.351 N 
HETATM   20  C11 UNL     1      -5.194   1.853   0.721  1.00  0.00     0.126 C 
HETATM   21  C16 UNL     1      -4.436   0.695  -1.283  1.00  0.00     0.126 C 
HETATM   22  C12 UNL     1      -6.142   0.713   0.826  1.00  0.00     0.033 C 
HETATM   23  C13 UNL     1      -5.534  -0.636   0.532  1.00  0.00     0.078 C 
HETATM   24  C15 UNL     1      -4.797  -0.660  -0.774  1.00  0.00     0.033 C 
BRANCH  23  25
HETATM   25  C14 UNL     1      -6.692  -1.593   0.444  1.00  0.00     0.235 C 
HETATM   26  N3  UNL     1      -7.568  -1.651   1.556  1.00  0.00    -0.062 NA
HETATM   27  O4  UNL     1      -6.900  -2.317  -0.545  1.00  0.00    -0.277 OA
ENDBRANCH  23  25
ENDBRANCH  16  17
ENDBRANCH  15  16
ENDBRANCH   1  15
TORSDOF 6
