REMARK  5 active torsions:
REMARK  status: ('A' for Active; 'I' for Inactive)
REMARK    1  A    between atoms: O1_2  and  C2_3 
REMARK    2  A    between atoms: C2_3  and  C3_4 
REMARK    3  A    between atoms: C6_7  and  O2_8 
REMARK    4  A    between atoms: C10_13  and  O3_14 
REMARK    5  A    between atoms: C16_21  and  C18_23 
ROOT
HETATM    1  C3  UNL     1      -1.259   0.627   0.788  1.00  0.00    -0.008 C 
HETATM    2  C4  UNL     1      -1.645   1.123   2.162  1.00  0.00     0.018 C 
HETATM    3  C5  UNL     1       0.167   0.164   0.896  1.00  0.00     0.030 C 
HETATM    4  C6  UNL     1       1.081   0.972   1.709  1.00  0.00     0.124 C 
HETATM    5  C7  UNL     1       2.549   0.736   1.500  1.00  0.00     0.044 C 
HETATM    6  C8  UNL     1       2.959   0.479   0.098  1.00  0.00    -0.012 C 
HETATM    7  C9  UNL     1       2.887   1.680  -0.799  1.00  0.00     0.018 C 
HETATM    8  C10 UNL     1       4.300  -0.159  -0.047  1.00  0.00     0.126 C 
HETATM    9  C11 UNL     1       4.183  -0.923  -1.361  1.00  0.00     0.033 C 
HETATM   10  C12 UNL     1       2.703  -1.037  -1.656  1.00  0.00     0.008 C 
HETATM   11  C13 UNL     1       2.062  -0.644  -0.386  1.00  0.00     0.001 C 
HETATM   12  C14 UNL     1       0.627  -0.187  -0.511  1.00  0.00    -0.001 C 
HETATM   13  C15 UNL     1      -0.149  -1.389  -0.928  1.00  0.00     0.026 C 
HETATM   14  C16 UNL     1      -1.590  -1.444  -0.644  1.00  0.00     0.053 C 
HETATM   15  C17 UNL     1      -2.342  -1.234  -1.964  1.00  0.00     0.027 C 
HETATM   16  C19 UNL     1      -2.109  -0.613   0.489  1.00  0.00    -0.021 C 
HETATM   17  C20 UNL     1      -2.160  -1.488   1.731  1.00  0.00     0.017 C 
HETATM   18  C21 UNL     1      -3.563  -0.264   0.244  1.00  0.00     0.017 C 
ENDROOT
BRANCH   1  19
HETATM   19  C2  UNL     1      -1.463   1.747  -0.175  1.00  0.00     0.177 C 
BRANCH  19  20
HETATM   20  O1  UNL     1      -2.794   2.165  -0.169  1.00  0.00    -0.395 OA
HETATM   21  C1  UNL     1      -3.040   3.196  -1.039  1.00  0.00     0.201 C 
ENDBRANCH  19  20
ENDBRANCH   1  19
BRANCH   4  22
HETATM   22  O2  UNL     1       0.912   2.345   1.712  1.00  0.00    -0.395 OA
ATOM     23  H2  UNL     1       1.504   2.869   2.239  1.00  0.00     0.210 HD
ENDBRANCH   4  22
BRANCH  14  24
HETATM   24  C18 UNL     1      -1.906  -2.886  -0.333  1.00  0.00     0.182 C 
HETATM   25  O4  UNL     1      -0.978  -3.753  -0.182  1.00  0.00    -0.647 OA
HETATM   26  O5  UNL     1      -3.187  -3.373  -0.190  1.00  0.00    -0.647 OA
ENDBRANCH  14  24
BRANCH   8  27
HETATM   27  O3  UNL     1       4.545  -1.018   1.019  1.00  0.00    -0.395 OA
ATOM     28  H3  UNL     1       5.399  -1.424   0.927  1.00  0.00     0.210 HD
ENDBRANCH   8  27
TORSDOF 5
