REMARK  6 active torsions:
REMARK  status: ('A' for Active; 'I' for Inactive)
REMARK    1  A    between atoms: C2_2  and  N1_3 
REMARK       I    between atoms: N1_3  and  C3_5 
REMARK    2  A    between atoms: C3_5  and  O2_7 
REMARK    3  A    between atoms: O2_7  and  C4_8 
REMARK    4  A    between atoms: C4_8  and  C5_9 
REMARK    5  A    between atoms: C7_11  and  O3_12 
REMARK    6  A    between atoms: C8_14  and  O4_15 
ROOT
HETATM    1  C5  UNL     1       0.973   0.102  -0.788  1.00  0.00     0.021 C 
HETATM    2  C6  UNL     1       0.898  -0.908  -1.872  1.00  0.00     0.041 C 
HETATM    3  C7  UNL     1       0.276  -0.131  -3.047  1.00  0.00     0.147 C 
HETATM    4  C8  UNL     1      -1.152   0.083  -2.647  1.00  0.00     0.152 C 
HETATM    5  C9  UNL     1      -1.401   0.719  -1.323  1.00  0.00     0.031 C 
HETATM    6  C10 UNL     1      -2.823   0.438  -0.958  1.00  0.00     0.009 C 
HETATM    7  C11 UNL     1      -3.338  -0.888  -1.420  1.00  0.00     0.033 C 
HETATM    8  C12 UNL     1      -4.474  -1.174  -0.548  1.00  0.00    -0.029 C 
HETATM    9  C13 UNL     1      -4.391  -0.454   0.536  1.00  0.00    -0.020 C 
HETATM   10  C14 UNL     1      -3.170   0.394   0.478  1.00  0.00    -0.015 C 
HETATM   11  C15 UNL     1      -3.701   1.745   0.988  1.00  0.00     0.021 C 
HETATM   12  C16 UNL     1      -2.151  -0.211   1.373  1.00  0.00    -0.036 C 
HETATM   13  C17 UNL     1      -2.608  -1.582   1.905  1.00  0.00     0.016 C 
HETATM   14  C18 UNL     1      -1.973   0.639   2.629  1.00  0.00     0.016 C 
HETATM   15  C19 UNL     1      -0.821  -0.443   0.753  1.00  0.00     0.020 C 
HETATM   16  C20 UNL     1      -0.380   0.568  -0.262  1.00  0.00    -0.031 C 
HETATM   17  C21 UNL     1      -0.020   1.900   0.429  1.00  0.00     0.016 C 
ENDROOT
BRANCH   1  18
HETATM   18  C4  UNL     1       1.918  -0.243   0.322  1.00  0.00     0.186 C 
BRANCH  18  19
HETATM   19  O2  UNL     1       3.210  -0.376  -0.230  1.00  0.00    -0.304 OA
BRANCH  19  20
HETATM   20  C3  UNL     1       4.309  -0.695   0.553  1.00  0.00     0.360 C 
HETATM   21  N1  UNL     1       5.564  -0.810  -0.068  1.00  0.00    -0.337 N 
ATOM     22  H1  UNL     1       5.638  -0.658  -1.074  1.00  0.00     0.164 HD
HETATM   23  O1  UNL     1       4.137  -0.869   1.801  1.00  0.00    -0.239 OA
BRANCH  21  24
HETATM   24  C2  UNL     1       6.774  -1.145   0.698  1.00  0.00     0.120 C 
HETATM   25  C1  UNL     1       7.011  -0.090   1.757  1.00  0.00     0.026 C 
ENDBRANCH  21  24
ENDBRANCH  19  20
ENDBRANCH  18  19
ENDBRANCH   1  18
BRANCH   3  26
HETATM   26  O3  UNL     1       0.990   1.034  -3.236  1.00  0.00    -0.393 OA
ATOM     27  H3  UNL     1       0.606   1.513  -3.961  1.00  0.00     0.210 HD
ENDBRANCH   3  26
BRANCH   4  28
HETATM   28  O4  UNL     1      -1.696   0.909  -3.649  1.00  0.00    -0.393 OA
ATOM     29  H4  UNL     1      -2.601   1.045  -3.395  1.00  0.00     0.210 HD
ENDBRANCH   4  28
TORSDOF 6
