REMARK  6 active torsions:
REMARK  status: ('A' for Active; 'I' for Inactive)
REMARK    1  A    between atoms: C2_2  and  N1_4 
REMARK    2  A    between atoms: C7_15  and  C8_16 
REMARK    3  A    between atoms: C8_16  and  C9_17 
REMARK    4  A    between atoms: C8_16  and  S1_24 
REMARK    5  A    between atoms: C9_17  and  N5_18 
REMARK    6  A    between atoms: C9_17  and  O1_22 
ROOT
HETATM    1  N1  UNL     1       3.204  -0.603  -0.687  1.00  0.00    -0.369 N 
ATOM      2  H1  UNL     1       2.912  -0.952  -1.600  1.00  0.00     0.161 HD
HETATM    3  C4  UNL     1       2.322  -0.223   0.181  1.00  0.00     0.147 A 
HETATM    4  N2  UNL     1       2.585   0.253   1.410  1.00  0.00    -0.282 N 
ATOM      5  H2  UNL     1       3.504   0.383   1.834  1.00  0.00     0.188 HD
HETATM    6  N3  UNL     1       1.413   0.518   1.957  1.00  0.00    -0.282 N 
ATOM      7  H3  UNL     1       1.291   0.895   2.897  1.00  0.00     0.188 HD
HETATM    8  C5  UNL     1       0.401   0.230   1.123  1.00  0.00     0.154 A 
HETATM    9  C6  UNL     1       0.952  -0.254  -0.041  1.00  0.00     0.125 A 
HETATM   10  N4  UNL     1      -0.060  -0.538  -0.864  1.00  0.00    -0.335 N 
ATOM     11  H4  UNL     1       0.044  -0.915  -1.806  1.00  0.00     0.168 HD
HETATM   12  C7  UNL     1      -1.270  -0.249  -0.259  1.00  0.00     0.131 A 
HETATM   13  N6  UNL     1      -0.962   0.218   0.953  1.00  0.00    -0.320 N 
HETATM   14  C11 UNL     1      -1.823   0.655   2.002  1.00  0.00     0.159 C 
ENDROOT
BRANCH  12  15
HETATM   15  C8  UNL     1      -2.580  -0.451  -0.865  1.00  0.00     0.136 C 
BRANCH  15  16
HETATM   16  C9  UNL     1      -3.628  -1.090   0.001  1.00  0.00     0.365 C 
BRANCH  16  17
HETATM   17  N5  UNL     1      -4.892  -1.240  -0.747  1.00  0.00    -0.048 N 
ATOM     18  H53 UNL     1      -5.210  -0.353  -1.137  1.00  0.00     0.277 HD
ATOM     19  H52 UNL     1      -4.758  -1.750  -1.620  1.00  0.00     0.277 HD
ATOM     20  H51 UNL     1      -5.604  -1.674  -0.159  1.00  0.00     0.277 HD
ENDBRANCH  16  17
BRANCH  16  21
HETATM   21  O1  UNL     1      -3.211  -2.407   0.285  1.00  0.00    -0.366 OA
ATOM     22  H1  UNL     1      -3.874  -2.811   0.833  1.00  0.00     0.212 HD
ENDBRANCH  16  21
ENDBRANCH  15  16
BRANCH  15  23
HETATM   23  S1  UNL     1      -3.188   0.897  -1.837  1.00  0.00     0.176 S 
HETATM   24  C10 UNL     1      -3.598   2.344  -0.972  1.00  0.00     0.166 C 
HETATM   25  O2  UNL     1      -2.211   1.257  -2.937  1.00  0.00    -0.223 OA
HETATM   26  O3  UNL     1      -4.418   0.374  -2.571  1.00  0.00    -0.223 OA
ENDBRANCH  15  23
ENDBRANCH  12  15
BRANCH   1  27
HETATM   27  C2  UNL     1       4.609  -0.527  -0.349  1.00  0.00     0.075 C 
HETATM   28  C1  UNL     1       5.125   0.881  -0.561  1.00  0.00     0.031 C 
HETATM   29  C3  UNL     1       5.431  -1.526  -1.147  1.00  0.00     0.031 C 
ENDBRANCH   1  27
TORSDOF 6
