REMARK  6 active torsions:
REMARK  status: ('A' for Active; 'I' for Inactive)
REMARK    1  A    between atoms: C2_2  and  N1_4 
REMARK    2  A    between atoms: C5_9  and  N3_10 
REMARK    3  A    between atoms: N5_19  and  C11_21 
REMARK    4  A    between atoms: C11_21  and  C13_23 
REMARK    5  A    between atoms: C13_23  and  N6_24 
REMARK    6  A    between atoms: C14_28  and  N7_29 
ROOT
HETATM    1  N1  UNL     1      -3.138  -1.020  -0.040  1.00  0.00    -0.222 N 
ATOM      2  H1  UNL     1      -3.693  -0.203  -0.296  1.00  0.00     0.178 HD
HETATM    3  C4  UNL     1      -1.871  -0.896  -0.066  1.00  0.00     0.694 C 
HETATM    4  N2  UNL     1      -1.379   0.324  -0.436  1.00  0.00    -0.022 N 
ATOM      5  H2  UNL     1      -2.035   0.915  -0.946  1.00  0.00     0.203 HD
HETATM    6  C5  UNL     1      -0.172   0.865  -0.235  1.00  0.00     0.696 C 
HETATM    7  N4  UNL     1       0.993   0.184  -0.268  1.00  0.00    -0.173 N 
ATOM      8  H4  UNL     1       1.824   0.761  -0.399  1.00  0.00     0.186 HD
HETATM    9  C10 UNL     1       1.232  -1.131  -0.156  1.00  0.00     0.162 C 
HETATM   10  N5  UNL     1       2.298  -1.677  -0.459  1.00  0.00    -0.367 N 
ATOM     11  H5  UNL     1       2.306  -2.686  -0.307  1.00  0.00     0.161 HD
HETATM   12  C14 UNL     1       0.258  -2.029   0.325  1.00  0.00     0.159 C 
HETATM   13  N8  UNL     1      -1.104  -1.945   0.261  1.00  0.00    -0.173 N 
ATOM     14  H8  UNL     1      -1.608  -2.801   0.495  1.00  0.00     0.186 HD
ENDROOT
BRANCH  10  15
HETATM   15  C11 UNL     1       3.495  -1.170  -0.971  1.00  0.00     0.104 C 
HETATM   16  C12 UNL     1       3.564   0.327  -1.148  1.00  0.00     0.034 C 
BRANCH  15  17
HETATM   17  C13 UNL     1       4.725  -1.614  -0.178  1.00  0.00     0.254 C 
BRANCH  17  18
HETATM   18  N6  UNL     1       4.680  -1.201   1.184  1.00  0.00    -0.077 N 
ATOM     19  H63 UNL     1       4.543  -0.193   1.256  1.00  0.00     0.274 HD
ATOM     20  H62 UNL     1       3.821  -1.517   1.634  1.00  0.00     0.274 HD
ATOM     21  H61 UNL     1       5.500  -1.497   1.713  1.00  0.00     0.274 HD
ENDBRANCH  17  18
ENDBRANCH  15  17
ENDBRANCH  10  15
BRANCH  12  22
HETATM   22  N7  UNL     1       0.687  -3.090   0.912  1.00  0.00    -0.382 N 
ATOM     23  H72 UNL     1       1.704  -3.153   0.960  1.00  0.00     0.157 HD
ATOM     24  H71 UNL     1      -0.018  -3.740   1.260  1.00  0.00     0.157 HD
ENDBRANCH  12  22
BRANCH   6  25
HETATM   25  N3  UNL     1      -0.125   2.244   0.043  1.00  0.00    -0.213 N 
HETATM   26  C6  UNL     1       1.120   2.969   0.231  1.00  0.00     0.167 C 
HETATM   27  C7  UNL     1       0.818   4.468   0.237  1.00  0.00     0.188 C 
HETATM   28  O1  UNL     1      -0.052   4.817   1.246  1.00  0.00    -0.388 OA
HETATM   29  C8  UNL     1      -1.142   3.994   1.353  1.00  0.00     0.188 C 
HETATM   30  C9  UNL     1      -1.331   3.055   0.176  1.00  0.00     0.167 C 
ENDBRANCH   6  25
BRANCH   1  31
HETATM   31  C2  UNL     1      -3.845  -2.204   0.317  1.00  0.00     0.091 C 
HETATM   32  C1  UNL     1      -3.900  -3.233  -0.761  1.00  0.00     0.032 C 
HETATM   33  C3  UNL     1      -5.299  -1.766   0.604  1.00  0.00     0.032 C 
ENDBRANCH   1  31
TORSDOF 6
