REMARK  5 active torsions:
REMARK  status: ('A' for Active; 'I' for Inactive)
REMARK    1  A    between atoms: C2_2  and  N1_4 
REMARK       I    between atoms: N1_4  and  C5_6 
REMARK       I    between atoms: C5_6  and  N2_8 
REMARK    2  A    between atoms: N2_8  and  S1_10 
REMARK    3  A    between atoms: S1_10  and  C6_13 
REMARK    4  A    between atoms: C8_17  and  C9_18 
REMARK       I    between atoms: C9_18  and  N4_20 
REMARK    5  A    between atoms: N4_20  and  N5_22 
ROOT
HETATM    1  C6  UNL     1       1.371   1.619  -0.478  1.00  0.00     0.097 A 
HETATM    2  C7  UNL     1       1.842   1.656   0.810  1.00  0.00     0.113 A 
HETATM    3  N3  UNL     1       2.837   0.879   1.210  1.00  0.00    -0.358 N 
ATOM      4  H3  UNL     1       3.152   0.944   2.178  1.00  0.00     0.165 HD
HETATM    5  C8  UNL     1       3.457  -0.005   0.376  1.00  0.00     0.126 A 
HETATM    6  C10 UNL     1       3.005  -0.059  -0.913  1.00  0.00     0.080 A 
HETATM    7  N6  UNL     1       3.573  -0.956  -1.857  1.00  0.00    -0.100 NA
HETATM    8  C11 UNL     1       1.960   0.746  -1.361  1.00  0.00     0.055 A 
ENDROOT
BRANCH   1   9
HETATM    9  S1  UNL     1       0.021   2.627  -1.033  1.00  0.00     0.268 S 
HETATM   10  O2  UNL     1       0.299   3.107  -2.436  1.00  0.00    -0.200 OA
HETATM   11  O3  UNL     1      -0.049   3.794  -0.061  1.00  0.00    -0.200 OA
BRANCH   9  12
HETATM   12  N2  UNL     1      -1.406   1.703  -1.039  1.00  0.00    -0.232 N 
HETATM   13  C5  UNL     1      -1.872   0.852  -0.011  1.00  0.00     0.332 C 
HETATM   14  N1  UNL     1      -3.070   0.114  -0.093  1.00  0.00    -0.334 N 
HETATM   15  O1  UNL     1      -1.144   0.768   1.034  1.00  0.00    -0.246 OA
HETATM   16  C4  UNL     1      -3.884   0.232  -1.281  1.00  0.00     0.154 C 
ATOM     17  H2  UNL     1      -1.988   1.770  -1.874  1.00  0.00     0.183 HD
BRANCH  14  18
HETATM   18  C2  UNL     1      -3.485  -0.751   0.978  1.00  0.00     0.080 C 
HETATM   19  C1  UNL     1      -4.796  -0.215   1.536  1.00  0.00     0.032 C 
HETATM   20  C3  UNL     1      -3.648  -2.187   0.511  1.00  0.00     0.032 C 
ENDBRANCH  14  18
ENDBRANCH   9  12
ENDBRANCH   1   9
BRANCH   5  21
HETATM   21  C9  UNL     1       4.544  -0.841   0.861  1.00  0.00     0.288 C 
HETATM   22  O4  UNL     1       5.109  -1.659   0.094  1.00  0.00    -0.264 OA
HETATM   23  N4  UNL     1       4.988  -0.752   2.206  1.00  0.00    -0.271 N 
ATOM     24  H4  UNL     1       4.535  -0.087   2.833  1.00  0.00     0.189 HD
BRANCH  23  25
HETATM   25  N5  UNL     1       6.030  -1.550   2.699  1.00  0.00    -0.342 N 
ATOM     26  H52 UNL     1       6.472  -2.209   2.058  1.00  0.00     0.176 HD
ATOM     27  H51 UNL     1       6.349  -1.486   3.666  1.00  0.00     0.176 HD
ENDBRANCH  23  25
ENDBRANCH   5  21
TORSDOF 5
