REMARK  4 active torsions:
REMARK  status: ('A' for Active; 'I' for Inactive)
REMARK    1  A    between atoms: C3_3  and  O1_4 
REMARK    2  A    between atoms: C8_10  and  C10_12 
REMARK    3  A    between atoms: C10_12  and  O2_13 
REMARK    4  A    between atoms: C10_12  and  C11_15 
ROOT
HETATM    1  C1  UNL     1      -0.783   2.957  -1.375  1.00  0.00     0.015 C 
HETATM    2  C2  UNL     1      -0.904   1.950  -0.711  1.00  0.00    -0.078 C 
HETATM    3  C3  UNL     1      -1.045   0.750   0.110  1.00  0.00     0.130 C 
HETATM    4  C4  UNL     1      -2.493   0.286  -0.029  1.00  0.00     0.052 C 
HETATM    5  C5  UNL     1      -2.712  -1.032   0.671  1.00  0.00     0.004 C 
HETATM    6  C6  UNL     1      -1.478  -1.631   1.264  1.00  0.00     0.001 C 
HETATM    7  C7  UNL     1      -0.270  -1.610   0.396  1.00  0.00     0.016 C 
HETATM    8  C8  UNL     1      -0.101  -0.336  -0.390  1.00  0.00     0.025 C 
HETATM    9  C9  UNL     1      -0.631  -0.664  -1.804  1.00  0.00     0.022 C 
ENDROOT
BRANCH   3  10
HETATM   10  O1  UNL     1      -0.870   1.088   1.424  1.00  0.00    -0.377 OA
ATOM     11  H1  UNL     1      -0.962   0.308   1.958  1.00  0.00     0.211 HD
ENDBRANCH   3  10
BRANCH   8  12
HETATM   12  C10 UNL     1       1.294   0.113  -0.593  1.00  0.00     0.134 C 
BRANCH  12  13
HETATM   13  O2  UNL     1       2.049  -0.981  -1.054  1.00  0.00    -0.394 OA
ATOM     14  H2  UNL     1       2.945  -0.693  -1.184  1.00  0.00     0.210 HD
ENDBRANCH  12  13
BRANCH  12  15
HETATM   15  C11 UNL     1       1.986   0.795   0.520  1.00  0.00     0.015 A 
HETATM   16  C12 UNL     1       3.425   1.200   0.165  1.00  0.00     0.007 A 
HETATM   17  C13 UNL     1       3.214   0.072   1.158  1.00  0.00     0.007 A 
ENDBRANCH  12  15
ENDBRANCH   8  12
TORSDOF 4
