REMARK  4 active torsions:
REMARK  status: ('A' for Active; 'I' for Inactive)
REMARK    1  A    between atoms: C2_2  and  O1_3 
REMARK    2  A    between atoms: C2_2  and  C3_5 
REMARK    3  A    between atoms: C10_12  and  C11_13 
REMARK    4  A    between atoms: C11_13  and  O2_14 
ROOT
HETATM    1  C3  UNL     1      -1.065  -0.206   0.039  1.00  0.00    -0.014 C 
HETATM    2  C4  UNL     1      -1.496  -1.242   1.035  1.00  0.00     0.018 C 
HETATM    3  C5  UNL     1      -1.056  -0.688  -1.382  1.00  0.00     0.012 C 
HETATM    4  C6  UNL     1       0.213  -1.010  -2.023  1.00  0.00     0.002 C 
HETATM    5  C7  UNL     1       1.477  -0.368  -1.497  1.00  0.00     0.010 C 
HETATM    6  C8  UNL     1       1.408  -0.372  -0.036  1.00  0.00    -0.034 C 
HETATM    7  C9  UNL     1       1.382  -1.781   0.497  1.00  0.00     0.016 C 
HETATM    8  C10 UNL     1       2.162   0.494   0.861  1.00  0.00     0.018 C 
HETATM    9  C12 UNL     1       0.814   0.780   1.552  1.00  0.00     0.013 C 
HETATM   10  C13 UNL     1       0.192   0.483   0.281  1.00  0.00     0.005 C 
ENDROOT
BRANCH   1  11
HETATM   11  C2  UNL     1      -2.166   0.878   0.125  1.00  0.00     0.122 C 
HETATM   12  C1  UNL     1      -3.508   0.319  -0.220  1.00  0.00     0.040 C 
BRANCH  11  13
HETATM   13  O1  UNL     1      -2.142   1.447   1.387  1.00  0.00    -0.395 OA
ATOM     14  H1  UNL     1      -1.289   1.802   1.606  1.00  0.00     0.210 HD
ENDBRANCH  11  13
ENDBRANCH   1  11
BRANCH   8  15
HETATM   15  C11 UNL     1       2.922   1.651   0.396  1.00  0.00     0.169 C 
BRANCH  15  16
HETATM   16  O2  UNL     1       2.302   2.662  -0.249  1.00  0.00    -0.400 OA
ATOM     17  H2  UNL     1       2.796   3.415  -0.552  1.00  0.00     0.209 HD
ENDBRANCH  15  16
ENDBRANCH   8  15
TORSDOF 4
