REMARK  4 active torsions:
REMARK  status: ('A' for Active; 'I' for Inactive)
REMARK    1  A    between atoms: C2_2  and  O1_3 
REMARK    2  A    between atoms: C2_2  and  C3_5 
REMARK    3  A    between atoms: C3_5  and  C4_6 
REMARK    4  A    between atoms: C4_6  and  O2_7 
ROOT
HETATM    1  C4  UNL     1      -0.482  -0.383   0.399  1.00  0.00     0.067 C 
HETATM    2  C5  UNL     1      -0.032   0.972   0.016  1.00  0.00     0.021 C 
HETATM    3  C6  UNL     1       1.025   1.393   1.056  1.00  0.00     0.012 C 
HETATM    4  C7  UNL     1       2.165   0.426   1.038  1.00  0.00    -0.013 C 
HETATM    5  C8  UNL     1       2.828   0.489  -0.315  1.00  0.00     0.009 C 
HETATM    6  C9  UNL     1       1.828   0.143  -1.391  1.00  0.00    -0.013 C 
HETATM    7  C10 UNL     1       0.646   1.057  -1.330  1.00  0.00     0.012 C 
HETATM    8  C11 UNL     1       1.318  -1.260  -1.134  1.00  0.00     0.012 C 
HETATM    9  C12 UNL     1       0.717  -1.341   0.223  1.00  0.00     0.021 C 
HETATM   10  C13 UNL     1       1.705  -0.994   1.293  1.00  0.00     0.012 C 
ENDROOT
BRANCH   1  11
HETATM   11  C3  UNL     1      -1.628  -0.981  -0.299  1.00  0.00     0.070 C 
BRANCH  11  12
HETATM   12  C2  UNL     1      -2.977  -0.429  -0.145  1.00  0.00     0.117 C 
HETATM   13  C1  UNL     1      -3.195   0.994  -0.576  1.00  0.00     0.039 C 
BRANCH  12  14
HETATM   14  O1  UNL     1      -3.506  -0.532   1.142  1.00  0.00    -0.396 OA
ATOM     15  H1  UNL     1      -3.368  -1.432   1.414  1.00  0.00     0.210 HD
ENDBRANCH  12  14
ENDBRANCH  11  12
ENDBRANCH   1  11
BRANCH   1  16
HETATM   16  O2  UNL     1      -0.636  -0.386   1.810  1.00  0.00    -0.389 OA
ATOM     17  H2  UNL     1       0.105   0.001   2.261  1.00  0.00     0.210 HD
ENDBRANCH   1  16
TORSDOF 4
