REMARK  4 active torsions:
REMARK  status: ('A' for Active; 'I' for Inactive)
REMARK    1  A    between atoms: C2_2  and  N1_3 
REMARK    2  A    between atoms: N1_3  and  C3_5 
REMARK    3  A    between atoms: C5_7  and  C6_8 
REMARK    4  A    between atoms: C6_8  and  O1_9 
ROOT
HETATM    1  C3  UNL     1       0.378  -0.016  -0.019  1.00  0.00    -0.013 C 
HETATM    2  C4  UNL     1      -0.614  -0.752   0.730  1.00  0.00     0.064 C 
HETATM    3  C5  UNL     1      -2.022  -0.253   0.359  1.00  0.00    -0.014 C 
HETATM    4  C7  UNL     1      -2.203   1.223   0.471  1.00  0.00     0.012 C 
HETATM    5  C8  UNL     1      -1.034   1.986  -0.110  1.00  0.00     0.011 C 
HETATM    6  C9  UNL     1      -0.294   1.007  -0.974  1.00  0.00     0.031 C 
HETATM    7  C10 UNL     1      -1.212   0.270  -1.905  1.00  0.00     0.011 C 
HETATM    8  C11 UNL     1      -2.171  -0.622  -1.129  1.00  0.00     0.012 C 
ENDROOT
BRANCH   1   9
HETATM    9  N1  UNL     1       1.511  -0.495  -0.644  1.00  0.00    -0.387 N 
ATOM     10  H1  UNL     1       1.427  -0.828  -1.605  1.00  0.00     0.160 HD
BRANCH   9  11
HETATM   11  C2  UNL     1       2.783  -0.550  -0.026  1.00  0.00     0.026 A 
HETATM   12  C1  UNL     1       3.252  -1.711   0.741  1.00  0.00     0.038 C 
HETATM   13  C12 UNL     1       3.237   0.796   0.564  1.00  0.00     0.033 A 
HETATM   14  C13 UNL     1       3.853   0.301  -0.718  1.00  0.00     0.033 A 
ENDBRANCH   9  11
ENDBRANCH   1   9
BRANCH   3  15
HETATM   15  C6  UNL     1      -2.993  -0.973   1.234  1.00  0.00     0.173 C 
BRANCH  15  16
HETATM   16  O1  UNL     1      -4.318  -0.562   1.032  1.00  0.00    -0.400 OA
ATOM     17  H1  UNL     1      -4.936  -1.020   1.589  1.00  0.00     0.209 HD
ENDBRANCH  15  16
ENDBRANCH   3  15
TORSDOF 4
