REMARK  4 active torsions:
REMARK  status: ('A' for Active; 'I' for Inactive)
REMARK    1  A    between atoms: C2_2  and  C3_3 
REMARK    2  A    between atoms: C2_2  and  N1_14 
REMARK    3  A    between atoms: C3_3  and  C4_4 
REMARK    4  A    between atoms: N1_14  and  N2_15 
ROOT
HETATM    1  C4  UNL     1      -0.039   0.073  -0.233  1.00  0.00    -0.038 C 
HETATM    2  C5  UNL     1      -0.947  -0.051  -1.484  1.00  0.00     0.014 C 
HETATM    3  C6  UNL     1      -2.374  -0.177  -1.088  1.00  0.00    -0.013 C 
HETATM    4  C7  UNL     1      -2.878   1.017  -0.323  1.00  0.00     0.009 C 
HETATM    5  C8  UNL     1      -1.986   1.204   0.884  1.00  0.00    -0.013 C 
HETATM    6  C9  UNL     1      -2.056   0.018   1.807  1.00  0.00     0.009 C 
HETATM    7  C10 UNL     1      -1.744  -1.207   1.004  1.00  0.00    -0.013 C 
HETATM    8  C11 UNL     1      -2.600  -1.400  -0.197  1.00  0.00     0.009 C 
HETATM    9  C12 UNL     1      -0.278  -1.140   0.567  1.00  0.00     0.014 C 
HETATM   10  C13 UNL     1      -0.543   1.347   0.451  1.00  0.00     0.014 C 
ENDROOT
BRANCH   1  11
HETATM   11  C3  UNL     1       1.297   0.345  -0.776  1.00  0.00     0.032 C 
BRANCH  11  12
HETATM   12  C2  UNL     1       2.463   0.536   0.079  1.00  0.00     0.095 C 
HETATM   13  C1  UNL     1       2.780  -0.673   0.921  1.00  0.00     0.029 C 
BRANCH  12  14
HETATM   14  N1  UNL     1       3.647   0.851  -0.748  1.00  0.00    -0.144 NA
BRANCH  14  15
HETATM   15  N2  UNL     1       3.982  -0.195  -1.578  1.00  0.00    -0.348 N 
ATOM     16  H22 UNL     1       3.466  -1.074  -1.607  1.00  0.00     0.172 HD
ATOM     17  H21 UNL     1       4.799   0.022  -2.149  1.00  0.00     0.172 HD
ENDBRANCH  14  15
ENDBRANCH  12  14
ENDBRANCH  11  12
ENDBRANCH   1  11
TORSDOF 4
