REMARK  4 active torsions:
REMARK  status: ('A' for Active; 'I' for Inactive)
REMARK    1  A    between atoms: N1_2  and  N2_4 
REMARK    2  A    between atoms: N2_4  and  C2_6 
REMARK    3  A    between atoms: C6_16  and  C7_17 
REMARK    4  A    between atoms: C8_18  and  C10_20 
ROOT
HETATM    1  C2  UNL     1      -2.394   0.211  -0.308  1.00  0.00     0.143 A 
HETATM    2  N3  UNL     1      -2.929  -0.926  -0.773  1.00  0.00    -0.292 N 
ATOM      3  H3  UNL     1      -3.923  -0.943  -1.002  1.00  0.00     0.172 HD
HETATM    4  C3  UNL     1      -2.199  -2.056  -0.951  1.00  0.00     0.329 A 
HETATM    5  O1  UNL     1      -2.709  -3.118  -1.387  1.00  0.00    -0.246 OA
HETATM    6  N4  UNL     1      -0.902  -2.043  -0.655  1.00  0.00    -0.289 N 
HETATM    7  C4  UNL     1      -0.092  -3.215  -0.829  1.00  0.00     0.163 C 
HETATM    8  C5  UNL     1      -0.327  -0.922  -0.187  1.00  0.00     0.132 A 
HETATM    9  N5  UNL     1       0.972  -0.876   0.120  1.00  0.00    -0.327 N 
ATOM     10  H5  UNL     1       1.518  -1.727  -0.015  1.00  0.00     0.169 HD
HETATM   11  C6  UNL     1       1.627   0.223   0.601  1.00  0.00     0.110 A 
HETATM   12  N6  UNL     1       0.877   1.324   0.766  1.00  0.00    -0.309 N 
ATOM     13  H6  UNL     1       1.324   2.168   1.123  1.00  0.00     0.170 HD
HETATM   14  C11 UNL     1      -0.436   1.365   0.483  1.00  0.00     0.264 A 
HETATM   15  O4  UNL     1      -1.123   2.400   0.643  1.00  0.00    -0.267 OA
HETATM   16  C12 UNL     1      -1.067   0.242  -0.000  1.00  0.00     0.122 A 
ENDROOT
BRANCH  11  17
HETATM   17  C7  UNL     1       3.029   0.130   0.948  1.00  0.00     0.062 C 
HETATM   18  C8  UNL     1       4.038   0.883   0.638  1.00  0.00     0.018 C 
HETATM   19  C9  UNL     1       5.424   0.523   1.171  1.00  0.00     0.056 C 
BRANCH  18  20
HETATM   20  C10 UNL     1       3.989   2.019  -0.209  1.00  0.00     0.204 C 
HETATM   21  O2  UNL     1       5.054   2.694  -0.427  1.00  0.00    -0.644 OA
HETATM   22  O3  UNL     1       2.868   2.470  -0.836  1.00  0.00    -0.644 OA
ENDBRANCH  18  20
ENDBRANCH  11  17
BRANCH   1  23
HETATM   23  N2  UNL     1      -3.115   1.289  -0.139  1.00  0.00    -0.289 N 
ATOM     24  H2  UNL     1      -2.662   2.130   0.218  1.00  0.00     0.188 HD
BRANCH  23  25
HETATM   25  N1  UNL     1      -4.478   1.334  -0.427  1.00  0.00    -0.339 N 
HETATM   26  C1  UNL     1      -5.416   1.062   0.638  1.00  0.00     0.167 C 
ATOM     27  H1  UNL     1      -4.806   1.554  -1.368  1.00  0.00     0.179 HD
ENDBRANCH  23  25
ENDBRANCH   1  23
TORSDOF 4
