REMARK  4 active torsions:
REMARK  status: ('A' for Active; 'I' for Inactive)
REMARK    1  A    between atoms: C2_3  and  S1_4 
REMARK    2  A    between atoms: S1_4  and  N2_5 
REMARK    3  A    between atoms: C4_11  and  N3_12 
REMARK    4  A    between atoms: N3_12  and  C5_14 
ROOT
HETATM    1  N1  UNL     1       1.812   1.900  -0.104  1.00  0.00    -0.100 NA
HETATM    2  C1  UNL     1       0.882   0.835  -0.094  1.00  0.00     0.087 A 
HETATM    3  C2  UNL     1       1.306  -0.458   0.111  1.00  0.00     0.106 A 
HETATM    4  C3  UNL     1       0.330  -1.432   0.105  1.00  0.00     0.059 A 
HETATM    5  C4  UNL     1      -1.010  -1.224  -0.087  1.00  0.00     0.064 A 
HETATM    6  C6  UNL     1      -1.386   0.108  -0.291  1.00  0.00     0.081 A 
HETATM    7  N4  UNL     1      -2.664   0.466  -0.493  1.00  0.00    -0.305 N 
ATOM      8  H4  UNL     1      -3.396  -0.244  -0.501  1.00  0.00     0.171 HD
HETATM    9  C7  UNL     1      -2.985   1.773  -0.687  1.00  0.00     0.327 A 
HETATM   10  O4  UNL     1      -4.197   2.095  -0.876  1.00  0.00    -0.247 OA
HETATM   11  N5  UNL     1      -2.085   2.765  -0.692  1.00  0.00    -0.275 N 
ATOM     12  H5  UNL     1      -2.377   3.731  -0.843  1.00  0.00     0.173 HD
HETATM   13  C8  UNL     1      -0.800   2.466  -0.496  1.00  0.00     0.263 A 
HETATM   14  O5  UNL     1       0.089   3.351  -0.490  1.00  0.00    -0.267 OA
HETATM   15  C9  UNL     1      -0.449   1.141  -0.296  1.00  0.00     0.087 A 
ENDROOT
BRANCH   3  16
HETATM   16  S1  UNL     1       2.993  -0.814   0.364  1.00  0.00     0.258 S 
HETATM   17  O1  UNL     1       3.809  -0.467  -0.872  1.00  0.00    -0.201 OA
HETATM   18  O2  UNL     1       3.189  -2.284   0.589  1.00  0.00    -0.201 OA
BRANCH  16  19
HETATM   19  N2  UNL     1       3.617  -0.001   1.758  1.00  0.00    -0.324 N 
ATOM     20  H22 UNL     1       3.053   0.609   2.350  1.00  0.00     0.169 HD
ATOM     21  H21 UNL     1       4.604  -0.209   1.906  1.00  0.00     0.169 HD
ENDBRANCH  16  19
ENDBRANCH   3  16
BRANCH   5  22
HETATM   22  N3  UNL     1      -2.006  -2.221  -0.093  1.00  0.00    -0.332 N 
ATOM     23  H3  UNL     1      -2.967  -1.917  -0.248  1.00  0.00     0.168 HD
BRANCH  22  24
HETATM   24  C5  UNL     1      -1.792  -3.589   0.095  1.00  0.00     0.353 C 
HETATM   25  O3  UNL     1      -0.703  -4.130   0.294  1.00  0.00    -0.283 OA
ENDBRANCH  22  24
ENDBRANCH   5  22
TORSDOF 4
