REMARK  4 active torsions:
REMARK  status: ('A' for Active; 'I' for Inactive)
REMARK    1  A    between atoms: S1_2  and  C2_3 
REMARK       I    between atoms: N3_9  and  C4_11 
REMARK       I    between atoms: C4_11  and  N7_22 
REMARK    2  A    between atoms: N4_12  and  N5_14 
REMARK    3  A    between atoms: N5_14  and  S2_16 
REMARK    4  A    between atoms: S2_16  and  N6_17 
ROOT
HETATM    1  C2  UNL     1       2.922   0.635   0.869  1.00  0.00     0.129 A 
HETATM    2  N1  UNL     1       2.210   0.088  -0.104  1.00  0.00    -0.286 N 
ATOM      3  H1  UNL     1       2.566   0.095  -1.060  1.00  0.00     0.188 HD
HETATM    4  N2  UNL     1       1.085  -0.445   0.150  1.00  0.00    -0.278 N 
ATOM      5  H2  UNL     1       0.530  -0.868  -0.594  1.00  0.00     0.189 HD
HETATM    6  C3  UNL     1       0.644  -0.440   1.410  1.00  0.00     0.180 A 
HETATM    7  N3  UNL     1      -0.482  -0.935   1.871  1.00  0.00    -0.167 N 
ATOM      8  H3  UNL     1      -0.715  -0.872   2.862  1.00  0.00     0.186 HD
HETATM    9  C4  UNL     1      -1.361  -1.557   0.957  1.00  0.00     0.708 C 
HETATM   10  N4  UNL     1      -2.202  -0.839   0.313  1.00  0.00    -0.121 N 
ATOM     11  H4  UNL     1      -2.845  -1.270  -0.352  1.00  0.00     0.206 HD
HETATM   12  N7  UNL     1      -1.345  -2.959   0.724  1.00  0.00    -0.124 N 
ATOM     13  H7  UNL     1      -2.222  -3.450   0.552  1.00  0.00     0.197 HD
HETATM   14  C5  UNL     1      -0.138  -3.678   0.727  1.00  0.00     0.196 C 
HETATM   15  N8  UNL     1       0.866  -4.282   0.747  1.00  0.00    -0.171 NA
HETATM   16  S3  UNL     1       1.917   0.366   2.220  1.00  0.00    -0.026 SA
ENDROOT
BRANCH  10  17
HETATM   17  N5  UNL     1      -2.231   0.536   0.529  1.00  0.00    -0.196 N 
ATOM     18  H5  UNL     1      -1.670   0.943   1.277  1.00  0.00     0.202 HD
BRANCH  17  19
HETATM   19  S2  UNL     1      -3.215   1.563  -0.466  1.00  0.00     0.330 S 
HETATM   20  O1  UNL     1      -3.345   1.004  -1.858  1.00  0.00    -0.181 OA
HETATM   21  O2  UNL     1      -2.630   2.941  -0.546  1.00  0.00    -0.181 OA
BRANCH  19  22
HETATM   22  N6  UNL     1      -4.766   1.663   0.309  1.00  0.00    -0.310 N 
ATOM     23  H62 UNL     1      -5.032   1.202   1.179  1.00  0.00     0.170 HD
ATOM     24  H61 UNL     1      -5.344   2.266  -0.276  1.00  0.00     0.170 HD
ENDBRANCH  19  22
ENDBRANCH  17  19
ENDBRANCH  10  17
BRANCH   1  25
HETATM   25  S1  UNL     1       4.537   1.444   0.749  1.00  0.00    -0.108 SA
HETATM   26  C1  UNL     1       5.119   1.431  -0.951  1.00  0.00     0.097 C 
ENDBRANCH   1  25
TORSDOF 4
