REMARK  3 active torsions:
REMARK  status: ('A' for Active; 'I' for Inactive)
REMARK       I    between atoms: C1_4  and  N3_6 
REMARK    1  A    between atoms: N4_10  and  C5_11 
REMARK    2  A    between atoms: C6_14  and  C7_15 
REMARK    3  A    between atoms: C9_27  and  N11_28 
ROOT
HETATM    1  C5  UNL     1      -0.862  -0.380   0.880  1.00  0.00     0.156 A 
HETATM    2  N5  UNL     1      -1.565   0.143  -0.181  1.00  0.00    -0.335 N 
ATOM      3  H5  UNL     1      -1.042   0.555  -0.954  1.00  0.00     0.168 HD
HETATM    4  C6  UNL     1      -2.900   0.138  -0.249  1.00  0.00     0.096 A 
HETATM    5  C8  UNL     1      -3.582  -0.432   0.827  1.00  0.00     0.123 A 
HETATM    6  N10 UNL     1      -2.947  -0.954   1.882  1.00  0.00    -0.347 N 
ATOM      7  H10 UNL     1      -3.472  -1.365   2.654  1.00  0.00     0.167 HD
HETATM    8  C9  UNL     1      -1.578  -0.926   1.906  1.00  0.00     0.144 A 
ENDROOT
BRANCH   1   9
HETATM    9  N4  UNL     1       0.558  -0.331   0.870  1.00  0.00    -0.282 N 
HETATM   10  C4  UNL     1       1.409  -0.902   1.850  1.00  0.00     0.137 C 
HETATM   11  C3  UNL     1       2.886  -0.711   1.554  1.00  0.00     0.041 C 
HETATM   12  C2  UNL     1       3.152  -1.051   0.085  1.00  0.00     0.138 C 
HETATM   13  N3  UNL     1       2.538   0.082  -0.629  1.00  0.00    -0.273 N 
HETATM   14  C1  UNL     1       3.183   0.840  -1.606  1.00  0.00     0.192 C 
HETATM   15  C10 UNL     1       1.202   0.358  -0.236  1.00  0.00     0.332 C 
HETATM   16  N1  UNL     1       2.713   0.904  -2.797  1.00  0.00    -0.373 N 
HETATM   17  N2  UNL     1       4.366   1.551  -1.298  1.00  0.00    -0.063 NA
ATOM     18  H12 UNL     1       3.185   1.458  -3.512  1.00  0.00     0.158 HD
ATOM     19  H11 UNL     1       1.860   0.391  -3.019  1.00  0.00     0.158 HD
HETATM   20  O1  UNL     1       0.544   1.233  -0.866  1.00  0.00    -0.246 OA
ENDBRANCH   1   9
BRANCH   8  21
HETATM   21  N11 UNL     1      -0.976  -1.430   2.920  1.00  0.00    -0.382 N 
ATOM     22 2H11 UNL     1       0.044  -1.409   2.938  1.00  0.00     0.157 HD
ATOM     23 1H11 UNL     1      -1.511  -1.838   3.687  1.00  0.00     0.157 HD
ENDBRANCH   8  21
BRANCH   4  24
HETATM   24  C7  UNL     1      -3.628   0.692  -1.384  1.00  0.00     0.165 A 
HETATM   25  N6  UNL     1      -3.164   1.272  -2.500  1.00  0.00    -0.267 N 
HETATM   26  N7  UNL     1      -4.191   1.621  -3.268  1.00  0.00    -0.227 N 
ATOM     27  H6  UNL     1      -2.180   1.422  -2.724  1.00  0.00     0.190 HD
HETATM   28  N8  UNL     1      -5.302   1.270  -2.654  1.00  0.00    -0.227 N 
ATOM     29  H7  UNL     1      -4.129   2.081  -4.176  1.00  0.00     0.210 HD
HETATM   30  N9  UNL     1      -4.969   0.704  -1.506  1.00  0.00    -0.267 N 
ATOM     31  H8  UNL     1      -6.251   1.410  -3.002  1.00  0.00     0.210 HD
ATOM     32  H9  UNL     1      -5.626   0.334  -0.819  1.00  0.00     0.190 HD
ENDBRANCH   4  24
TORSDOF 3
