REMARK  5 active torsions:
REMARK  status: ('A' for Active; 'I' for Inactive)
REMARK    1  A    between atoms: O1_2  and  C2_3 
REMARK    2  A    between atoms: C2_3  and  C3_5 
REMARK    3  A    between atoms: C4_6  and  N1_7 
REMARK    4  A    between atoms: C10_16  and  N4_17 
REMARK    5  A    between atoms: C11_22  and  N6_23 
REMARK       I    between atoms: N6_23  and  C12_25 
REMARK       I    between atoms: C12_25  and  N7_26 
REMARK       I    between atoms: C12_25  and  N8_30 
ROOT
HETATM    1  C3  UNL     1      -1.033  -0.038  -0.173  1.00  0.00     0.128 A 
HETATM    2  C4  UNL     1       0.208  -0.566  -0.359  1.00  0.00     0.139 A 
HETATM    3  N3  UNL     1       0.340  -1.887  -0.644  1.00  0.00    -0.176 N 
ATOM      4  H3  UNL     1       1.268  -2.285  -0.785  1.00  0.00     0.186 HD
HETATM    5  C10 UNL     1      -0.742  -2.670  -0.741  1.00  0.00     0.679 A 
HETATM    6  N5  UNL     1      -1.960  -2.129  -0.553  1.00  0.00    -0.176 N 
ATOM      7  H5  UNL     1      -2.765  -2.750  -0.634  1.00  0.00     0.186 HD
HETATM    8  C11 UNL     1      -2.204  -0.839  -0.268  1.00  0.00     0.140 A 
ENDROOT
BRANCH   8   9
HETATM    9  N6  UNL     1      -3.279  -0.256  -0.077  1.00  0.00    -0.326 N 
HETATM   10  C12 UNL     1      -4.616  -0.566  -0.057  1.00  0.00     0.481 C 
HETATM   11  N7  UNL     1      -5.198   0.005   1.206  1.00  0.00    -0.033 N 
HETATM   12  N8  UNL     1      -4.935  -1.961  -0.122  1.00  0.00    -0.033 N 
ATOM     13  H73 UNL     1      -4.707  -0.305   2.044  1.00  0.00     0.278 HD
ATOM     14  H72 UNL     1      -5.021   1.004   1.308  1.00  0.00     0.278 HD
ATOM     15  H71 UNL     1      -6.192  -0.225   1.221  1.00  0.00     0.278 HD
ATOM     16  H83 UNL     1      -4.494  -2.380  -0.941  1.00  0.00     0.278 HD
ATOM     17  H82 UNL     1      -4.451  -2.463   0.623  1.00  0.00     0.278 HD
ATOM     18  H81 UNL     1      -5.929  -2.191  -0.107  1.00  0.00     0.278 HD
ATOM     19  H6  UNL     1      -3.129   0.733   0.121  1.00  0.00     0.164 HD
ENDBRANCH   8   9
BRANCH   1  20
HETATM   20  C2  UNL     1      -1.190   1.361   0.123  1.00  0.00     0.300 C 
HETATM   21  O2  UNL     1      -1.326   2.120  -0.901  1.00  0.00    -0.259 OA
BRANCH  20  22
HETATM   22  O1  UNL     1      -1.204   1.924   1.391  1.00  0.00    -0.322 OA
HETATM   23  C1  UNL     1      -1.373   3.337   1.462  1.00  0.00     0.213 C 
ENDBRANCH  20  22
ENDBRANCH   1  20
BRANCH   2  24
HETATM   24  N1  UNL     1       1.332   0.287  -0.256  1.00  0.00    -0.363 N 
HETATM   25  C5  UNL     1       1.939   0.938  -1.400  1.00  0.00     0.154 C 
HETATM   26  C6  UNL     1       3.392   0.485  -1.418  1.00  0.00     0.291 C 
HETATM   27  N2  UNL     1       3.989   0.786  -0.157  1.00  0.00     0.087 N 
HETATM   28  C7  UNL     1       5.373   0.340  -0.201  1.00  0.00     0.310 C 
HETATM   29  C8  UNL     1       3.376   0.139   0.973  1.00  0.00     0.291 C 
HETATM   30  C9  UNL     1       1.932   0.551   1.036  1.00  0.00     0.154 C 
ENDBRANCH   2  24
BRANCH   5  31
HETATM   31  N4  UNL     1      -0.613  -3.947  -1.016  1.00  0.00    -0.234 N 
ATOM     32  H42 UNL     1       0.310  -4.357  -1.158  1.00  0.00     0.174 HD
ATOM     33  H41 UNL     1      -1.437  -4.543  -1.090  1.00  0.00     0.174 HD
ENDBRANCH   5  31
TORSDOF 5
