REMARK  5 active torsions:
REMARK  status: ('A' for Active; 'I' for Inactive)
REMARK    1  A    between atoms: C1_2  and  C2_4 
REMARK    2  A    between atoms: C2_4  and  N2_5 
REMARK    3  A    between atoms: C4_10  and  O3_11 
REMARK    4  A    between atoms: C5_13  and  C6_14 
REMARK    5  A    between atoms: N4_15  and  N5_17 
ROOT
HETATM    1  N2  UNL     1       3.113   0.008   0.583  1.00  0.00    -0.257 N 
HETATM    2  C3  UNL     1       3.597  -1.075   1.218  1.00  0.00     0.331 A 
HETATM    3  O2  UNL     1       4.834  -1.172   1.461  1.00  0.00    -0.246 OA
HETATM    4  N3  UNL     1       2.729  -2.037   1.579  1.00  0.00    -0.288 N 
ATOM      5  H3  UNL     1       3.080  -2.864   2.061  1.00  0.00     0.172 HD
HETATM    6  C4  UNL     1       1.397  -1.940   1.321  1.00  0.00     0.161 A 
HETATM    7  C5  UNL     1       0.895  -0.834   0.671  1.00  0.00     0.100 A 
HETATM    8  C11 UNL     1       1.787   0.151   0.303  1.00  0.00     0.268 A 
HETATM    9  O4  UNL     1       1.360   1.169  -0.290  1.00  0.00    -0.267 OA
ENDROOT
BRANCH   7  10
HETATM   10  C6  UNL     1      -0.522  -0.719   0.391  1.00  0.00     0.128 C 
HETATM   11  N4  UNL     1      -1.043   0.293  -0.213  1.00  0.00    -0.313 N 
ATOM     12  H4  UNL     1      -0.427   1.051  -0.508  1.00  0.00     0.185 HD
BRANCH  11  13
HETATM   13  N5  UNL     1      -2.402   0.404  -0.482  1.00  0.00    -0.325 N 
HETATM   14  C7  UNL     1      -3.349   0.144   0.576  1.00  0.00     0.170 C 
HETATM   15  C8  UNL     1      -4.651  -0.383   0.066  1.00  0.00     0.253 C 
HETATM   16  N6  UNL     1      -5.147   0.266  -1.107  1.00  0.00    -0.072 N 
HETATM   17  C9  UNL     1      -4.306   1.341  -1.550  1.00  0.00     0.253 C 
ATOM     18  H62 UNL     1      -5.303  -0.407  -1.857  1.00  0.00     0.277 HD
ATOM     19  H61 UNL     1      -6.105   0.587  -0.968  1.00  0.00     0.277 HD
HETATM   20  C10 UNL     1      -2.903   0.769  -1.783  1.00  0.00     0.170 C 
ENDBRANCH  11  13
ENDBRANCH   7  10
BRANCH   6  21
HETATM   21  O3  UNL     1       0.502  -2.930   1.692  1.00  0.00    -0.345 OA
ATOM     22  H3  UNL     1      -0.428  -2.862   1.512  1.00  0.00     0.219 HD
ENDBRANCH   6  21
BRANCH   1  23
HETATM   23  C2  UNL     1       4.002   1.078   0.170  1.00  0.00     0.236 C 
BRANCH  23  24
HETATM   24  C1  UNL     1       4.513   0.844  -1.188  1.00  0.00     0.249 C 
HETATM   25  N1  UNL     1       5.397   1.794  -1.753  1.00  0.00    -0.061 NA
HETATM   26  O1  UNL     1       4.145  -0.199  -1.803  1.00  0.00    -0.275 OA
ENDBRANCH  23  24
ENDBRANCH   1  23
TORSDOF 5
