REMARK  7 active torsions:
REMARK  status: ('A' for Active; 'I' for Inactive)
REMARK    1  A    between atoms: N1_2  and  C2_4 
REMARK    2  A    between atoms: C2_4  and  N2_6 
REMARK    3  A    between atoms: N2_6  and  N3_8 
REMARK       I    between atoms: N3_8  and  C3_10 
REMARK    4  A    between atoms: C3_10  and  C4_12 
REMARK    5  A    between atoms: C4_12  and  N4_13 
REMARK    6  A    between atoms: C6_18  and  S2_19 
REMARK    7  A    between atoms: C8_23  and  N7_24 
ROOT
HETATM    1  N4  UNL     1      -0.950   0.815  -0.630  1.00  0.00    -0.124 N 
HETATM    2  C5  UNL     1      -1.773   0.304  -1.568  1.00  0.00     0.343 A 
HETATM    3  O2  UNL     1      -1.768   0.672  -2.766  1.00  0.00    -0.246 OA
HETATM    4  N5  UNL     1      -2.646  -0.650  -1.203  1.00  0.00    -0.288 N 
ATOM      5  H5  UNL     1      -3.270  -1.039  -1.910  1.00  0.00     0.172 HD
HETATM    6  C6  UNL     1      -2.729  -1.113   0.059  1.00  0.00     0.163 A 
HETATM    7  N6  UNL     1      -1.913  -0.605   0.989  1.00  0.00    -0.170 N 
ATOM      8  H6  UNL     1      -1.956  -0.938   1.952  1.00  0.00     0.186 HD
HETATM    9  C8  UNL     1      -1.023   0.363   0.632  1.00  0.00     0.684 A 
ENDROOT
BRANCH   1  10
HETATM   10  C4  UNL     1      -0.023   1.845  -1.043  1.00  0.00     0.257 C 
BRANCH  10  11
HETATM   11  C3  UNL     1       1.267   1.334  -1.535  1.00  0.00     0.255 C 
HETATM   12  N3  UNL     1       2.390   1.275  -0.693  1.00  0.00    -0.266 N 
ATOM     13  H3  UNL     1       2.338   1.585   0.277  1.00  0.00     0.190 HD
HETATM   14  O1  UNL     1       1.360   0.949  -2.721  1.00  0.00    -0.270 OA
BRANCH  12  15
HETATM   15  N2  UNL     1       3.596   0.771  -1.236  1.00  0.00    -0.274 N 
ATOM     16  H2  UNL     1       3.962   1.180  -2.096  1.00  0.00     0.189 HD
BRANCH  15  17
HETATM   17  C2  UNL     1       4.308  -0.286  -0.618  1.00  0.00     0.189 C 
HETATM   18  S1  UNL     1       5.693  -0.888  -1.210  1.00  0.00    -0.039 SA
BRANCH  17  19
HETATM   19  N1  UNL     1       3.764  -0.833   0.582  1.00  0.00    -0.352 N 
HETATM   20  C1  UNL     1       4.465  -1.105   1.621  1.00  0.00     0.120 C 
ATOM     21  H1  UNL     1       2.762  -1.018   0.616  1.00  0.00     0.166 HD
ENDBRANCH  17  19
ENDBRANCH  15  17
ENDBRANCH  12  15
ENDBRANCH  10  11
ENDBRANCH   1  10
BRANCH   9  22
HETATM   22  N7  UNL     1      -0.253   0.841   1.542  1.00  0.00    -0.234 N 
ATOM     23  H72 UNL     1       0.413   1.566   1.275  1.00  0.00     0.174 HD
ATOM     24  H71 UNL     1      -0.308   0.498   2.501  1.00  0.00     0.174 HD
ENDBRANCH   9  22
BRANCH   6  25
HETATM   25  S2  UNL     1      -3.892  -2.378   0.534  1.00  0.00    -0.098 SA
HETATM   26  C7  UNL     1      -5.472  -1.662   1.065  1.00  0.00     0.099 C 
ENDBRANCH   6  25
TORSDOF 7
