REMARK  5 active torsions:
REMARK  status: ('A' for Active; 'I' for Inactive)
REMARK    1  A    between atoms: C2_2  and  N1_3 
REMARK       I    between atoms: N1_3  and  C3_5 
REMARK    2  A    between atoms: C3_5  and  C4_7 
REMARK    3  A    between atoms: C4_7  and  N2_9 
REMARK    4  A    between atoms: N2_9  and  C6_11 
REMARK    5  A    between atoms: N4_20  and  N5_21 
ROOT
HETATM    1  C6  UNL     1      -0.767   0.493  -0.706  1.00  0.00     0.683 A 
HETATM    2  N3  UNL     1      -1.036   1.287  -1.748  1.00  0.00    -0.155 N 
ATOM      3  H3  UNL     1      -0.303   1.631  -2.368  1.00  0.00     0.187 HD
HETATM    4  C7  UNL     1      -2.335   1.607  -1.931  1.00  0.00     0.280 A 
HETATM    5  O2  UNL     1      -2.699   2.342  -2.874  1.00  0.00    -0.266 OA
HETATM    6  C8  UNL     1      -3.310   1.111  -1.052  1.00  0.00     0.125 A 
HETATM    7  S1  UNL     1      -5.005   1.263  -0.924  1.00  0.00    -0.018 SA
HETATM    8  C9  UNL     1      -5.237   0.296   0.457  1.00  0.00     0.311 A 
HETATM    9  O3  UNL     1      -6.337   0.036   1.035  1.00  0.00    -0.258 OA
HETATM   10  N4  UNL     1      -4.008  -0.105   0.766  1.00  0.00    -0.202 N 
HETATM   11  C10 UNL     1      -3.012   0.302   0.005  1.00  0.00     0.168 A 
HETATM   12  N6  UNL     1      -1.678   0.007   0.147  1.00  0.00    -0.173 N 
ATOM     13  H6  UNL     1      -1.376  -0.592   0.915  1.00  0.00     0.186 HD
ENDROOT
BRANCH   1  14
HETATM   14  N2  UNL     1       0.468   0.175  -0.512  1.00  0.00    -0.213 N 
ATOM     15  H2  UNL     1       0.670  -0.430   0.284  1.00  0.00     0.178 HD
BRANCH  14  16
HETATM   16  C4  UNL     1       1.567   0.587  -1.300  1.00  0.00     0.187 C 
HETATM   17  C5  UNL     1       1.687  -0.141  -2.630  1.00  0.00     0.043 C 
BRANCH  16  18
HETATM   18  C3  UNL     1       2.813   0.238  -0.527  1.00  0.00     0.240 C 
HETATM   19  N1  UNL     1       2.764  -0.385   0.743  1.00  0.00    -0.360 N 
ATOM     20  H1  UNL     1       1.855  -0.606   1.150  1.00  0.00     0.162 HD
HETATM   21  O1  UNL     1       3.943   0.500  -1.008  1.00  0.00    -0.271 OA
BRANCH  19  22
HETATM   22  C2  UNL     1       3.957  -0.716   1.478  1.00  0.00     0.118 C 
HETATM   23  C1  UNL     1       3.536  -1.363   2.780  1.00  0.00     0.026 C 
ENDBRANCH  19  22
ENDBRANCH  16  18
ENDBRANCH  14  16
ENDBRANCH   1  14
BRANCH  10  24
HETATM   24  N5  UNL     1      -3.859  -0.960   1.917  1.00  0.00    -0.334 N 
ATOM     25  H52 UNL     1      -4.630  -1.275   2.506  1.00  0.00     0.177 HD
ATOM     26  H51 UNL     1      -2.916  -1.268   2.154  1.00  0.00     0.177 HD
ENDBRANCH  10  24
TORSDOF 5
