REMARK  5 active torsions:
REMARK  status: ('A' for Active; 'I' for Inactive)
REMARK    1  A    between atoms: N1_2  and  C2_5 
REMARK    2  A    between atoms: C2_5  and  C3_6 
REMARK    3  A    between atoms: C4_9  and  S1_10 
REMARK    4  A    between atoms: S1_10  and  N3_12 
REMARK    5  A    between atoms: C12_21  and  N4_22 
REMARK       I    between atoms: N4_22  and  C13_24 
ROOT
HETATM    1  C3  UNL     1       1.471  -1.236   0.305  1.00  0.00     0.064 A 
HETATM    2  N2  UNL     1       0.217  -1.116   0.746  1.00  0.00    -0.348 N 
ATOM      3  H2  UNL     1      -0.320  -1.979   0.826  1.00  0.00     0.166 HD
HETATM    4  C4  UNL     1      -0.409   0.005   1.092  1.00  0.00     0.123 A 
HETATM    5  C10 UNL     1       0.361   1.160   0.966  1.00  0.00     0.062 A 
HETATM    6  C11 UNL     1       1.686   1.086   0.505  1.00  0.00     0.040 A 
HETATM    7  S2  UNL     1       2.934   2.219   0.214  1.00  0.00    -0.052 SA
HETATM    8  C12 UNL     1       4.136   1.135  -0.324  1.00  0.00     0.152 A 
HETATM    9  N7  UNL     1       3.523  -0.053  -0.255  1.00  0.00    -0.334 N 
ATOM     10  H7  UNL     1       4.010  -0.908  -0.522  1.00  0.00     0.168 HD
HETATM   11  C14 UNL     1       2.288  -0.091   0.162  1.00  0.00     0.076 A 
ENDROOT
BRANCH   4  12
HETATM   12  S1  UNL     1      -2.056   0.116   1.666  1.00  0.00     0.165 S 
HETATM   13  O1  UNL     1      -2.354  -1.136   2.489  1.00  0.00    -0.229 OA
BRANCH  12  14
HETATM   14  N3  UNL     1      -3.242   0.331   0.492  1.00  0.00    -0.327 N 
HETATM   15  C5  UNL     1      -3.930   1.579   0.466  1.00  0.00     0.133 C 
HETATM   16  C6  UNL     1      -5.403   1.282   0.204  1.00  0.00     0.021 C 
HETATM   17  C7  UNL     1      -5.486   0.153  -0.796  1.00  0.00     0.003 C 
HETATM   18  C8  UNL     1      -4.226   0.166  -1.666  1.00  0.00     0.021 C 
HETATM   19  C9  UNL     1      -3.096  -0.323  -0.751  1.00  0.00     0.133 C 
ENDBRANCH  12  14
ENDBRANCH   4  12
BRANCH   1  20
HETATM   20  C2  UNL     1       1.990  -2.595  -0.032  1.00  0.00     0.291 C 
BRANCH  20  21
HETATM   21  N1  UNL     1       0.940  -3.548   0.213  1.00  0.00    -0.074 N 
HETATM   22  C1  UNL     1       1.295  -4.902  -0.069  1.00  0.00     0.267 C 
ATOM     23  H12 UNL     1       0.097  -3.287  -0.298  1.00  0.00     0.277 HD
ATOM     24  H11 UNL     1       0.598  -3.462   1.170  1.00  0.00     0.277 HD
ENDBRANCH  20  21
ENDBRANCH   1  20
BRANCH   8  25
HETATM   25  N4  UNL     1       5.370   1.374  -0.716  1.00  0.00    -0.311 N 
HETATM   26  C13 UNL     1       5.766   2.753  -0.688  1.00  0.00     0.187 C 
HETATM   27  N5  UNL     1       6.298   3.278  -1.730  1.00  0.00    -0.373 N 
HETATM   28  N6  UNL     1       5.585   3.560   0.468  1.00  0.00    -0.064 NA
ATOM     29  H52 UNL     1       6.428   2.699  -2.560  1.00  0.00     0.158 HD
ATOM     30  H51 UNL     1       6.579   4.258  -1.710  1.00  0.00     0.158 HD
ATOM     31  H4  UNL     1       6.000   0.631  -1.018  1.00  0.00     0.170 HD
ENDBRANCH   8  25
TORSDOF 5
