REMARK  8 active torsions:
REMARK  status: ('A' for Active; 'I' for Inactive)
REMARK    1  A    between atoms: C2_2  and  O1_3 
REMARK    2  A    between atoms: C2_2  and  N1_5 
REMARK    3  A    between atoms: N1_5  and  C3_6 
REMARK    4  A    between atoms: C4_9  and  N3_10 
REMARK       I    between atoms: N3_10  and  C5_12 
REMARK       I    between atoms: C5_12  and  N4_14 
REMARK    5  A    between atoms: N4_14  and  C6_16 
REMARK    6  A    between atoms: C11_23  and  C12_24 
REMARK    7  A    between atoms: C15_28  and  N6_29 
REMARK    8  A    between atoms: N6_29  and  O4_31 
ROOT
HETATM    1  C3  UNL     1      -2.557  -1.486   0.578  1.00  0.00     0.212 A 
HETATM    2  N2  UNL     1      -1.364  -0.878   0.277  1.00  0.00    -0.314 N 
ATOM      3  H2  UNL     1      -0.717  -0.695   1.044  1.00  0.00     0.170 HD
HETATM    4  C4  UNL     1      -0.985  -0.502  -0.978  1.00  0.00     0.125 A 
HETATM    5  C11 UNL     1      -1.850  -0.749  -2.020  1.00  0.00     0.056 A 
HETATM    6  C14 UNL     1      -3.070  -1.359  -1.767  1.00  0.00     0.055 A 
HETATM    7  C15 UNL     1      -3.410  -1.723  -0.461  1.00  0.00     0.115 A 
ENDROOT
BRANCH   4   8
HETATM    8  N3  UNL     1       0.212   0.202  -1.206  1.00  0.00    -0.294 N 
HETATM    9  C5  UNL     1       1.216   0.523  -0.264  1.00  0.00     0.322 C 
HETATM   10  O2  UNL     1       1.176   0.230   0.924  1.00  0.00    -0.247 OA
HETATM   11  N4  UNL     1       2.375   1.259  -0.746  1.00  0.00    -0.338 N 
ATOM     12  H4  UNL     1       2.432   1.500  -1.735  1.00  0.00     0.164 HD
ATOM     13  H3  UNL     1       0.374   0.517  -2.162  1.00  0.00     0.172 HD
BRANCH  11  14
HETATM   14  C6  UNL     1       3.445   1.657   0.133  1.00  0.00     0.089 C 
HETATM   15  C7  UNL     1       3.122   3.019   0.814  1.00  0.00     0.044 C 
HETATM   16  C8  UNL     1       4.229   3.154   1.865  1.00  0.00     0.115 C 
HETATM   17  N5  UNL     1       5.468   3.348   1.198  1.00  0.00    -0.421 N 
HETATM   18  C9  UNL     1       5.528   3.000  -0.182  1.00  0.00     0.115 C 
ATOM     19  H5  UNL     1       6.281   3.721   1.687  1.00  0.00     0.153 HD
HETATM   20  C10 UNL     1       4.771   1.736  -0.535  1.00  0.00     0.044 C 
ENDBRANCH  11  14
ENDBRANCH   4   8
BRANCH   5  21
HETATM   21  C12 UNL     1      -1.546  -0.483  -3.440  1.00  0.00     0.159 C 
HETATM   22  C13 UNL     1      -2.606  -0.783  -4.472  1.00  0.00     0.097 C 
HETATM   23  O3  UNL     1      -0.474  -0.026  -3.883  1.00  0.00    -0.293 OA
ENDBRANCH   5  21
BRANCH   1  24
HETATM   24  N1  UNL     1      -2.784  -1.768   1.699  1.00  0.00    -0.365 NA
BRANCH  24  25
HETATM   25  C2  UNL     1      -3.181  -2.142   2.903  1.00  0.00     0.188 C 
HETATM   26  C1  UNL     1      -2.306  -2.013   4.100  1.00  0.00     0.114 C 
BRANCH  25  27
HETATM   27  O1  UNL     1      -4.340  -2.657   3.211  1.00  0.00    -0.339 OA
ATOM     28  H1  UNL     1      -4.899  -2.739   2.447  1.00  0.00     0.220 HD
ENDBRANCH  25  27
ENDBRANCH  24  25
ENDBRANCH   1  24
BRANCH   7  29
HETATM   29  N6  UNL     1      -4.661  -2.361  -0.303  1.00  0.00    -0.261 N 
HETATM   30  C16 UNL     1      -4.748  -3.767  -0.055  1.00  0.00     0.185 C 
BRANCH  29  31
HETATM   31  O4  UNL     1      -5.696  -1.674  -0.378  1.00  0.00    -0.287 OA
ATOM     32  H4  UNL     1      -6.537  -2.103  -0.272  1.00  0.00     0.244 HD
ENDBRANCH  29  31
ENDBRANCH   7  29
TORSDOF 8
