REMARK  9 active torsions:
REMARK  status: ('A' for Active; 'I' for Inactive)
REMARK       I    between atoms: N1_2  and  C2_4 
REMARK    1  A    between atoms: C2_4  and  O2_6 
REMARK    2  A    between atoms: O2_6  and  C3_7 
REMARK    3  A    between atoms: C5_14  and  C6_15 
REMARK    4  A    between atoms: C6_15  and  C7_16 
REMARK    5  A    between atoms: C7_16  and  C8_17 
REMARK    6  A    between atoms: C7_16  and  N5_23 
REMARK    7  A    between atoms: C8_17  and  C9_18 
REMARK    8  A    between atoms: N4_19  and  O4_21 
REMARK    9  A    between atoms: N5_23  and  O5_24 
ROOT
HETATM    1  C3  UNL     1      -1.109   1.170  -0.797  1.00  0.00     0.179 A 
HETATM    2  N2  UNL     1      -1.047   2.074  -1.785  1.00  0.00    -0.287 N 
ATOM      3  H2  UNL     1      -1.438   3.016  -1.759  1.00  0.00     0.172 HD
HETATM    4  C4  UNL     1      -0.383   1.527  -2.813  1.00  0.00     0.326 A 
HETATM    5  O3  UNL     1      -0.130   2.084  -3.920  1.00  0.00    -0.247 OA
HETATM    6  N3  UNL     1      -0.005   0.279  -2.523  1.00  0.00    -0.308 N 
ATOM      7  H3  UNL     1       0.512  -0.364  -3.123  1.00  0.00     0.170 HD
HETATM    8  C5  UNL     1      -0.456   0.044  -1.256  1.00  0.00     0.067 A 
ENDROOT
BRANCH   8   9
HETATM    9  C6  UNL     1      -0.228  -1.173  -0.487  1.00  0.00     0.085 C 
BRANCH   9  10
HETATM   10  C7  UNL     1       1.001  -1.347   0.285  1.00  0.00     0.117 C 
BRANCH  10  11
HETATM   11  C8  UNL     1       1.409  -0.396   1.332  1.00  0.00     0.070 C 
BRANCH  11  12
HETATM   12  C9  UNL     1       1.685   0.988   0.889  1.00  0.00     0.088 C 
HETATM   13  N4  UNL     1       2.576   1.150  -0.008  1.00  0.00    -0.282 N 
ATOM     14  H4  UNL     1       3.020   0.294  -0.340  1.00  0.00     0.193 HD
BRANCH  13  15
HETATM   15  O4  UNL     1       3.014   2.280  -0.578  1.00  0.00    -0.286 OA
HETATM   16  C10 UNL     1       4.043   3.128  -0.122  1.00  0.00     0.237 C 
ENDBRANCH  13  15
ENDBRANCH  11  12
ENDBRANCH  10  11
BRANCH  10  17
HETATM   17  N5  UNL     1       0.933  -2.675   0.952  1.00  0.00    -0.096 NA
BRANCH  17  18
HETATM   18  O5  UNL     1       0.809  -3.654   0.051  1.00  0.00    -0.291 OA
HETATM   19  C11 UNL     1       1.562  -4.753   0.501  1.00  0.00     0.231 C 
ENDBRANCH  17  18
ENDBRANCH  10  17
ENDBRANCH   9  10
ENDBRANCH   8   9
BRANCH   1  20
HETATM   20  O2  UNL     1      -1.741   1.383   0.450  1.00  0.00    -0.242 OA
BRANCH  20  21
HETATM   21  C2  UNL     1      -3.065   1.042   0.645  1.00  0.00     0.366 C 
HETATM   22  N1  UNL     1      -3.779   1.217   1.860  1.00  0.00    -0.341 N 
HETATM   23  C1  UNL     1      -5.181   0.824   1.969  1.00  0.00     0.151 C 
ATOM     24  H1  UNL     1      -3.306   1.623   2.668  1.00  0.00     0.164 HD
HETATM   25  O1  UNL     1      -3.677   0.532  -0.352  1.00  0.00    -0.238 OA
ENDBRANCH  20  21
ENDBRANCH   1  20
TORSDOF 9
