REMARK  10 active torsions:
REMARK  status: ('A' for Active; 'I' for Inactive)
REMARK    1  A    between atoms: N1_1  and  C1_5 
REMARK    2  A    between atoms: C1_5  and  N2_6 
REMARK    3  A    between atoms: C1_5  and  C2_10 
REMARK    4  A    between atoms: C2_10  and  C3_11 
REMARK    5  A    between atoms: C3_11  and  N3_12 
REMARK       I    between atoms: N3_12  and  C4_14 
REMARK    6  A    between atoms: C4_14  and  C5_16 
REMARK    7  A    between atoms: C5_16  and  N4_17 
REMARK    8  A    between atoms: C5_16  and  C6_21 
REMARK    9  A    between atoms: N6_25  and  C8_26 
REMARK   10  A    between atoms: C8_26  and  C9_27 
ROOT
HETATM    1  C5  UNL     1       0.674   0.070   1.770  1.00  0.00     0.342 C 
ENDROOT
BRANCH   1   2
HETATM    2  C4  UNL     1       1.817  -0.106   0.848  1.00  0.00     0.256 C 
HETATM    3  N3  UNL     1       2.398   1.009   0.207  1.00  0.00    -0.359 N 
ATOM      4  H3  UNL     1       2.010   1.933   0.394  1.00  0.00     0.162 HD
HETATM    5  O1  UNL     1       2.259  -1.252   0.644  1.00  0.00    -0.271 OA
BRANCH   3   6
HETATM    6  C3  UNL     1       3.514   0.904  -0.699  1.00  0.00     0.126 C 
BRANCH   6   7
HETATM    7  C2  UNL     1       4.731   0.326  -0.014  1.00  0.00     0.081 C 
BRANCH   7   8
HETATM    8  C1  UNL     1       5.855   0.257  -1.042  1.00  0.00     0.379 C 
BRANCH   8   9
HETATM    9  N1  UNL     1       6.136   1.594  -1.530  1.00  0.00    -0.050 N 
ATOM     10  H13 UNL     1       6.875   1.575  -2.233  1.00  0.00     0.276 HD
ATOM     11  H12 UNL     1       5.366   1.939  -2.103  1.00  0.00     0.276 HD
ATOM     12  H11 UNL     1       6.360   2.257  -0.788  1.00  0.00     0.276 HD
ENDBRANCH   8   9
BRANCH   8  13
HETATM   13  N2  UNL     1       5.540  -0.674  -2.084  1.00  0.00    -0.050 N 
ATOM     14  H23 UNL     1       4.770  -0.329  -2.657  1.00  0.00     0.276 HD
ATOM     15  H22 UNL     1       6.279  -0.693  -2.787  1.00  0.00     0.276 HD
ATOM     16  H21 UNL     1       5.342  -1.614  -1.741  1.00  0.00     0.276 HD
ENDBRANCH   8  13
ENDBRANCH   7   8
ENDBRANCH   6   7
ENDBRANCH   3   6
ENDBRANCH   1   2
BRANCH   1  17
HETATM   17  N4  UNL     1       0.331   1.473   1.855  1.00  0.00    -0.059 N 
ATOM     18  H43 UNL     1       1.130   2.049   2.119  1.00  0.00     0.275 HD
ATOM     19  H42 UNL     1       0.152   1.882   0.938  1.00  0.00     0.275 HD
ATOM     20  H41 UNL     1      -0.457   1.594   2.491  1.00  0.00     0.275 HD
ENDBRANCH   1  17
BRANCH   1  21
HETATM   21  C6  UNL     1      -0.500  -0.726   1.265  1.00  0.00     0.137 A 
HETATM   22  N5  UNL     1      -0.484  -1.690   0.326  1.00  0.00    -0.338 N 
HETATM   23  C7  UNL     1      -1.737  -2.153   0.162  1.00  0.00     0.202 A 
ATOM     24  H5  UNL     1       0.341  -2.016  -0.178  1.00  0.00     0.168 HD
HETATM   25  N6  UNL     1      -2.545  -1.480   0.998  1.00  0.00    -0.282 N 
HETATM   26  N7  UNL     1      -1.781  -0.625   1.654  1.00  0.00    -0.283 N 
ATOM     27  H7  UNL     1      -2.120   0.026   2.363  1.00  0.00     0.188 HD
BRANCH  25  28
HETATM   28  C8  UNL     1      -3.996  -1.658   1.155  1.00  0.00     0.188 C 
BRANCH  28  29
HETATM   29  C9  UNL     1      -4.732  -0.767   0.226  1.00  0.00    -0.038 A 
HETATM   30  C10 UNL     1      -5.101   0.507   0.603  1.00  0.00     0.009 A 
HETATM   31  C11 UNL     1      -5.794   1.325  -0.294  1.00  0.00     0.001 A 
HETATM   32  C12 UNL     1      -6.109   0.864  -1.549  1.00  0.00     0.000 A 
HETATM   33  C13 UNL     1      -5.749  -0.412  -1.951  1.00  0.00     0.001 A 
HETATM   34  C14 UNL     1      -5.058  -1.208  -1.037  1.00  0.00     0.009 A 
ENDBRANCH  28  29
ENDBRANCH  25  28
ENDBRANCH   1  21
TORSDOF 10
