REMARK  12 active torsions:
REMARK  status: ('A' for Active; 'I' for Inactive)
REMARK    1  A    between atoms: N1_2  and  C2_4 
REMARK    2  A    between atoms: C4_8  and  C5_9 
REMARK    3  A    between atoms: C5_9  and  N3_10 
REMARK    4  A    between atoms: N3_10  and  C6_13 
REMARK    5  A    between atoms: C6_13  and  C7_14 
REMARK    6  A    between atoms: C7_14  and  C8_15 
REMARK    7  A    between atoms: C8_15  and  N4_16 
REMARK    8  A    between atoms: N4_16  and  C9_18 
REMARK    9  A    between atoms: C9_18  and  C10_19 
REMARK   10  A    between atoms: C11_28  and  O1_29 
REMARK   11  A    between atoms: O1_29  and  C12_30 
REMARK   12  A    between atoms: C12_30  and  C13_31 
ROOT
HETATM    1  N3  UNL     1       0.706   0.293   0.830  1.00  0.00    -0.071 N 
ATOM      2  H31 UNL     1       0.975  -0.243   1.655  1.00  0.00     0.277 HD
ATOM      3  H32 UNL     1       0.626   1.221   1.246  1.00  0.00     0.277 HD
ENDROOT
BRANCH   1   4
HETATM    4  C5  UNL     1      -0.581  -0.153   0.331  1.00  0.00     0.276 C 
BRANCH   4   5
HETATM    5  C4  UNL     1      -1.495   0.991   0.157  1.00  0.00     0.035 A 
HETATM    6  C3  UNL     1      -1.065   2.274   0.269  1.00  0.00     0.119 A 
HETATM    7  N2  UNL     1      -1.917   3.297  -0.037  1.00  0.00    -0.201 N 
HETATM    8  C2  UNL     1      -3.160   3.021  -0.442  1.00  0.00     0.679 A 
ATOM      9  H2  UNL     1      -1.606   4.265   0.043  1.00  0.00     0.183 HD
HETATM   10  N9  UNL     1      -3.629   1.743  -0.564  1.00  0.00    -0.170 N 
HETATM   11  C11 UNL     1      -2.784   0.757  -0.261  1.00  0.00     0.166 A 
ATOM     12  H9  UNL     1      -4.582   1.552  -0.873  1.00  0.00     0.186 HD
BRANCH   8  13
HETATM   13  N1  UNL     1      -4.008   3.940  -0.765  1.00  0.00    -0.230 N 
HETATM   14  C1  UNL     1      -3.508   5.323  -0.652  1.00  0.00     0.165 C 
ATOM     15  H1  UNL     1      -4.955   3.725  -1.076  1.00  0.00     0.177 HD
ENDBRANCH   8  13
BRANCH  11  16
HETATM   16  O1  UNL     1      -3.188  -0.569  -0.352  1.00  0.00    -0.335 OA
BRANCH  16  17
HETATM   17  C12 UNL     1      -3.946  -1.186   0.687  1.00  0.00     0.181 C 
BRANCH  17  18
HETATM   18  C13 UNL     1      -4.170  -2.646   0.338  1.00  0.00     0.002 C 
HETATM   19  C14 UNL     1      -4.997  -3.317   1.409  1.00  0.00     0.011 C 
HETATM   20  C15 UNL     1      -4.672  -2.849  -1.045  1.00  0.00     0.011 C 
ENDBRANCH  17  18
ENDBRANCH  16  17
ENDBRANCH  11  16
ENDBRANCH   4   5
ENDBRANCH   1   4
BRANCH   1  21
HETATM   21  C6  UNL     1       1.757   0.269  -0.153  1.00  0.00     0.234 C 
BRANCH  21  22
HETATM   22  C7  UNL     1       3.037   0.630   0.556  1.00  0.00     0.046 C 
BRANCH  22  23
HETATM   23  C8  UNL     1       4.215   0.840  -0.318  1.00  0.00     0.115 C 
BRANCH  23  24
HETATM   24  N4  UNL     1       4.648  -0.223  -1.145  1.00  0.00    -0.414 N 
ATOM     25  H4  UNL     1       4.624  -0.170  -2.163  1.00  0.00     0.153 HD
BRANCH  24  26
HETATM   26  C9  UNL     1       5.128  -1.394  -0.436  1.00  0.00     0.193 C 
BRANCH  26  27
HETATM   27  C10 UNL     1       6.591  -1.247  -0.180  1.00  0.00     0.130 A 
HETATM   28  N5  UNL     1       7.165  -1.639   0.999  1.00  0.00    -0.271 N 
HETATM   29  N6  UNL     1       8.428  -1.317   0.918  1.00  0.00    -0.227 N 
ATOM     30  H5  UNL     1       6.699  -2.093   1.785  1.00  0.00     0.190 HD
HETATM   31  N7  UNL     1       8.721  -0.746  -0.229  1.00  0.00    -0.227 N 
ATOM     32  H6  UNL     1       9.108  -1.489   1.659  1.00  0.00     0.210 HD
HETATM   33  N8  UNL     1       7.555  -0.709  -0.908  1.00  0.00    -0.271 N 
ATOM     34  H7  UNL     1       9.631  -0.405  -0.539  1.00  0.00     0.210 HD
ATOM     35  H8  UNL     1       7.435  -0.323  -1.845  1.00  0.00     0.190 HD
ENDBRANCH  26  27
ENDBRANCH  24  26
ENDBRANCH  23  24
ENDBRANCH  22  23
ENDBRANCH  21  22
ENDBRANCH   1  21
TORSDOF 12
