REMARK  13 active torsions:
REMARK  status: ('A' for Active; 'I' for Inactive)
REMARK    1  A    between atoms: N1_1  and  C1_5 
REMARK    2  A    between atoms: C1_5  and  C2_6 
REMARK    3  A    between atoms: C1_5  and  C9_13 
REMARK    4  A    between atoms: C2_6  and  C3_7 
REMARK    5  A    between atoms: C9_13  and  O1_14 
REMARK    6  A    between atoms: C9_13  and  N2_16 
REMARK    7  A    between atoms: N2_16  and  C10_19 
REMARK    8  A    between atoms: C10_19  and  C11_20 
REMARK    9  A    between atoms: C11_20  and  C12_21 
REMARK   10  A    between atoms: C11_20  and  N7_30 
REMARK   11  A    between atoms: C12_21  and  N3_22 
REMARK   12  A    between atoms: N7_30  and  C14_33 
REMARK   13  A    between atoms: C14_33  and  C15_34 
ROOT
HETATM    1  N2  UNL     1       0.073  -0.324  -0.156  1.00  0.00    -0.045 N 
ATOM      2  H21 UNL     1       0.857  -0.455  -0.795  1.00  0.00     0.280 HD
ATOM      3  H22 UNL     1       0.155  -1.221   0.323  1.00  0.00     0.280 HD
ENDROOT
BRANCH   1   4
HETATM    4  C9  UNL     1      -1.217  -0.135  -0.837  1.00  0.00     0.349 C 
BRANCH   4   5
HETATM    5  C1  UNL     1      -1.595  -1.352  -1.604  1.00  0.00     0.243 C 
BRANCH   5   6
HETATM    6  N1  UNL     1      -1.759  -2.445  -0.655  1.00  0.00    -0.071 N 
ATOM      7  H13 UNL     1      -2.544  -2.312  -0.018  1.00  0.00     0.274 HD
ATOM      8  H12 UNL     1      -2.090  -3.308  -1.086  1.00  0.00     0.274 HD
ATOM      9  H11 UNL     1      -0.864  -2.550  -0.177  1.00  0.00     0.274 HD
ENDBRANCH   5   6
BRANCH   5  10
HETATM   10  C2  UNL     1      -2.913  -1.197  -2.308  1.00  0.00     0.075 C 
BRANCH  10  11
HETATM   11  C3  UNL     1      -4.049  -0.888  -1.449  1.00  0.00    -0.056 A 
HETATM   12  C4  UNL     1      -4.406   0.417  -1.207  1.00  0.00     0.007 A 
HETATM   13  C5  UNL     1      -5.486   0.731  -0.383  1.00  0.00     0.001 A 
HETATM   14  C6  UNL     1      -6.224  -0.274   0.210  1.00  0.00     0.000 A 
HETATM   15  C7  UNL     1      -5.886  -1.585  -0.018  1.00  0.00     0.001 A 
HETATM   16  C8  UNL     1      -4.809  -1.866  -0.841  1.00  0.00     0.007 A 
ENDBRANCH  10  11
ENDBRANCH   5  10
ENDBRANCH   4   5
BRANCH   4  17
HETATM   17  O1  UNL     1      -1.018   0.979  -1.664  1.00  0.00    -0.368 OA
ATOM     18  H1  UNL     1      -0.777   1.756  -1.174  1.00  0.00     0.212 HD
ENDBRANCH   4  17
ENDBRANCH   1   4
BRANCH   1  19
HETATM   19  C10 UNL     1       0.222   0.804   0.710  1.00  0.00     0.270 C 
BRANCH  19  20
HETATM   20  C11 UNL     1       1.463   0.882   1.514  1.00  0.00     0.231 C 
BRANCH  20  21
HETATM   21  C12 UNL     1       1.656  -0.315   2.428  1.00  0.00     0.186 C 
BRANCH  21  22
HETATM   22  N3  UNL     1       2.878  -0.208   3.217  1.00  0.00    -0.269 N 
HETATM   23  C13 UNL     1       2.912   0.387   4.431  1.00  0.00     0.219 A 
HETATM   24  N4  UNL     1       4.163   0.327   4.907  1.00  0.00    -0.279 N 
HETATM   25  N5  UNL     1       4.881  -0.300   3.984  1.00  0.00    -0.227 N 
ATOM     26  H4  UNL     1       4.497   0.690   5.800  1.00  0.00     0.189 HD
HETATM   27  N6  UNL     1       4.094  -0.614   2.978  1.00  0.00    -0.225 N 
ATOM     28  H5  UNL     1       5.878  -0.505   4.045  1.00  0.00     0.210 HD
ATOM     29  H6  UNL     1       4.391  -1.104   2.134  1.00  0.00     0.210 HD
ENDBRANCH  21  22
ENDBRANCH  20  21
BRANCH  20  30
HETATM   30  N7  UNL     1       2.650   1.342   0.884  1.00  0.00    -0.067 N 
ATOM     31  H72 UNL     1       2.553   2.312   0.583  1.00  0.00     0.277 HD
ATOM     32  H71 UNL     1       3.404   1.455   1.562  1.00  0.00     0.277 HD
BRANCH  30  33
HETATM   33  C14 UNL     1       3.052   0.515  -0.189  1.00  0.00     0.237 C 
BRANCH  33  34
HETATM   34  C15 UNL     1       4.379   0.931  -0.801  1.00  0.00     0.011 A 
HETATM   35  C16 UNL     1       4.819   0.037  -1.968  1.00  0.00     0.007 A 
HETATM   36  C17 UNL     1       4.432   1.452  -2.183  1.00  0.00     0.007 A 
ENDBRANCH  33  34
ENDBRANCH  30  33
ENDBRANCH  20  30
ENDBRANCH  19  20
ENDBRANCH   1  19
TORSDOF 13
