REMARK  13 active torsions:
REMARK  status: ('A' for Active; 'I' for Inactive)
REMARK    1  A    between atoms: C1_2  and  N1_3 
REMARK    2  A    between atoms: N1_3  and  C2_5 
REMARK    3  A    between atoms: C2_5  and  C3_6 
REMARK    4  A    between atoms: C2_5  and  C8_17 
REMARK    5  A    between atoms: C3_6  and  C4_7 
REMARK    6  A    between atoms: C4_7  and  C5_9 
REMARK    7  A    between atoms: C5_9  and  N2_10 
REMARK    8  A    between atoms: C8_17  and  O3_18 
REMARK    9  A    between atoms: C8_17  and  N5_20 
REMARK   10  A    between atoms: N5_20  and  C9_23 
REMARK   11  A    between atoms: C9_23  and  C10_24 
REMARK   12  A    between atoms: C10_24  and  O4_25 
REMARK   13  A    between atoms: C10_24  and  C11_27 
ROOT
HETATM    1  C2  UNL     1      -0.558  -0.672   0.867  1.00  0.00     0.147 C 
ENDROOT
BRANCH   1   2
HETATM    2  N1  UNL     1      -1.186  -1.664   0.033  1.00  0.00    -0.359 N 
ATOM      3  H1  UNL     1      -2.104  -1.459  -0.362  1.00  0.00     0.162 HD
BRANCH   2   4
HETATM    4  C1  UNL     1      -0.580  -2.920  -0.264  1.00  0.00     0.348 C 
HETATM    5  O1  UNL     1       0.549  -3.245   0.185  1.00  0.00    -0.284 OA
ENDBRANCH   2   4
ENDBRANCH   1   2
BRANCH   1   6
HETATM    6  C3  UNL     1      -1.312  -0.424   2.147  1.00  0.00     0.109 C 
BRANCH   6   7
HETATM    7  C4  UNL     1      -2.699   0.059   1.940  1.00  0.00     0.148 C 
HETATM    8  O2  UNL     1      -2.968   1.205   1.614  1.00  0.00    -0.296 OA
BRANCH   7   9
HETATM    9  C5  UNL     1      -3.856  -0.871   2.130  1.00  0.00     0.228 C 
BRANCH   9  10
HETATM   10  N2  UNL     1      -5.122  -0.207   1.897  1.00  0.00    -0.281 N 
HETATM   11  C6  UNL     1      -5.745  -0.131   0.718  1.00  0.00     0.130 A 
HETATM   12  C7  UNL     1      -6.925   0.588   0.917  1.00  0.00     0.127 A 
HETATM   13  N3  UNL     1      -6.950   0.915   2.230  1.00  0.00    -0.296 N 
HETATM   14  N4  UNL     1      -5.856   0.423   2.787  1.00  0.00    -0.241 N 
ATOM     15  H3  UNL     1      -7.681   1.445   2.704  1.00  0.00     0.187 HD
ATOM     16  H4  UNL     1      -5.615   0.519   3.773  1.00  0.00     0.208 HD
ENDBRANCH   9  10
ENDBRANCH   7   9
ENDBRANCH   6   7
ENDBRANCH   1   6
BRANCH   1  17
HETATM   17  C8  UNL     1      -0.217   0.584   0.118  1.00  0.00     0.342 C 
BRANCH  17  18
HETATM   18  O3  UNL     1       0.379   1.479   1.036  1.00  0.00    -0.368 OA
ATOM     19  H3  UNL     1       0.595   2.274   0.562  1.00  0.00     0.212 HD
ENDBRANCH  17  18
BRANCH  17  20
HETATM   20  N5  UNL     1       0.899   0.230  -0.780  1.00  0.00    -0.044 N 
ATOM     21  H52 UNL     1       1.729  -0.054  -0.259  1.00  0.00     0.280 HD
ATOM     22  H51 UNL     1       0.723  -0.644  -1.276  1.00  0.00     0.280 HD
BRANCH  20  23
HETATM   23  C9  UNL     1       1.180   1.302  -1.679  1.00  0.00     0.271 C 
BRANCH  23  24
HETATM   24  C10 UNL     1       2.318   0.962  -2.595  1.00  0.00     0.177 C 
BRANCH  24  25
HETATM   25  O4  UNL     1       2.589   2.005  -3.491  1.00  0.00    -0.389 OA
ATOM     26  H4  UNL     1       3.310   1.790  -4.071  1.00  0.00     0.210 HD
ENDBRANCH  24  25
BRANCH  24  27
HETATM   27  C11 UNL     1       3.533   0.712  -1.751  1.00  0.00    -0.028 A 
HETATM   28  C12 UNL     1       4.224   1.777  -1.187  1.00  0.00     0.010 A 
HETATM   29  C13 UNL     1       5.340   1.565  -0.416  1.00  0.00     0.001 A 
HETATM   30  C14 UNL     1       5.774   0.270  -0.204  1.00  0.00     0.000 A 
HETATM   31  C15 UNL     1       5.097  -0.783  -0.758  1.00  0.00     0.001 A 
HETATM   32  C16 UNL     1       3.966  -0.568  -1.539  1.00  0.00     0.010 A 
ENDBRANCH  24  27
ENDBRANCH  23  24
ENDBRANCH  20  23
ENDBRANCH  17  20
ENDBRANCH   1  17
TORSDOF 13
