REMARK  11 active torsions:
REMARK  status: ('A' for Active; 'I' for Inactive)
REMARK    1  A    between atoms: O1_1  and  C1_3 
REMARK    2  A    between atoms: C1_3  and  N1_4 
REMARK    3  A    between atoms: N1_4  and  C2_5 
REMARK    4  A    between atoms: C2_5  and  C3_6 
REMARK    5  A    between atoms: C2_5  and  C13_27 
REMARK    6  A    between atoms: C3_6  and  C4_7 
REMARK    7  A    between atoms: C4_7  and  N2_8 
REMARK    8  A    between atoms: C5_10  and  C6_11 
REMARK    9  A    between atoms: C6_11  and  S1_12 
REMARK   10  A    between atoms: S1_12  and  C7_13 
REMARK   11  A    between atoms: C7_13  and  C8_14 
ROOT
HETATM    1  S1  UNL     1      -1.531   0.087   1.122  1.00  0.00    -0.158 SA
ENDROOT
BRANCH   1   2
HETATM    2  C6  UNL     1      -0.201   0.302  -0.145  1.00  0.00     0.118 C 
BRANCH   2   3
HETATM    3  C5  UNL     1       0.321  -1.112  -0.345  1.00  0.00     0.070 C 
HETATM    4  N2  UNL     1       1.463  -1.425  -1.006  1.00  0.00    -0.381 N 
ATOM      5  H2  UNL     1       1.399  -1.745  -1.972  1.00  0.00     0.164 HD
BRANCH   4   6
HETATM    6  C4  UNL     1       2.752  -1.324  -0.400  1.00  0.00     0.067 C 
BRANCH   6   7
HETATM    7  C3  UNL     1       3.242  -0.003  -0.077  1.00  0.00     0.124 C 
BRANCH   7   8
HETATM    8  C2  UNL     1       4.643   0.038   0.602  1.00  0.00     0.167 C 
BRANCH   8   9
HETATM    9  N1  UNL     1       4.984   1.343   0.857  1.00  0.00    -0.392 NA
BRANCH   9  10
HETATM   10  C1  UNL     1       5.304   2.679   1.106  1.00  0.00     0.317 C 
BRANCH  10  11
HETATM   11  O1  UNL     1       4.337   3.533   0.821  1.00  0.00    -0.346 OA
ATOM     12  H1  UNL     1       4.555   4.442   0.990  1.00  0.00     0.219 HD
ENDBRANCH  10  11
ENDBRANCH   9  10
ENDBRANCH   8   9
BRANCH   8  13
HETATM   13  C13 UNL     1       5.652  -0.917   0.222  1.00  0.00     0.237 C 
HETATM   14  O3  UNL     1       6.122  -1.796   0.907  1.00  0.00    -0.642 OA
HETATM   15  O4  UNL     1       6.131  -0.783  -1.115  1.00  0.00    -0.642 OA
ENDBRANCH   8  13
ENDBRANCH   7   8
ENDBRANCH   6   7
ENDBRANCH   4   6
ENDBRANCH   2   3
ENDBRANCH   1   2
BRANCH   1  16
HETATM   16  C7  UNL     1      -2.621  -1.233   0.867  1.00  0.00     0.135 C 
BRANCH  16  17
HETATM   17  C8  UNL     1      -3.930  -1.019   0.277  1.00  0.00     0.061 A 
HETATM   18  C9  UNL     1      -4.799  -2.062  -0.123  1.00  0.00     0.118 A 
HETATM   19  N3  UNL     1      -5.905  -1.425  -0.501  1.00  0.00    -0.344 N 
HETATM   20  C10 UNL     1      -5.782  -0.104  -0.362  1.00  0.00     0.196 A 
ATOM     21  H3  UNL     1      -6.742  -1.889  -0.853  1.00  0.00     0.167 HD
HETATM   22  C11 UNL     1      -6.659   0.987  -0.526  1.00  0.00     0.292 A 
HETATM   23  N6  UNL     1      -4.525   0.146   0.125  1.00  0.00    -0.236 N 
HETATM   24  O2  UNL     1      -7.774   0.736  -0.921  1.00  0.00    -0.264 OA
HETATM   25  N4  UNL     1      -6.202   2.196  -0.211  1.00  0.00    -0.315 N 
HETATM   26  C12 UNL     1      -4.971   2.423   0.251  1.00  0.00     0.201 A 
ATOM     27  H4  UNL     1      -6.827   2.993  -0.329  1.00  0.00     0.170 HD
HETATM   28  N5  UNL     1      -4.135   1.402   0.421  1.00  0.00    -0.288 N 
ATOM     29  H5  UNL     1      -3.194   1.570   0.777  1.00  0.00     0.188 HD
ENDBRANCH  16  17
ENDBRANCH   1  16
TORSDOF 11
