REMARK  11 active torsions:
REMARK  status: ('A' for Active; 'I' for Inactive)
REMARK    1  A    between atoms: C4_9  and  S1_10 
REMARK    2  A    between atoms: S1_10  and  C5_13 
REMARK    3  A    between atoms: C5_13  and  C6_14 
REMARK    4  A    between atoms: C6_14  and  N3_15 
REMARK    5  A    between atoms: N3_15  and  C7_17 
REMARK    6  A    between atoms: C7_17  and  C8_18 
REMARK    7  A    between atoms: C8_18  and  S2_19 
REMARK    8  A    between atoms: S2_19  and  C9_20 
REMARK    9  A    between atoms: C9_20  and  C10_21 
REMARK   10  A    between atoms: C10_21  and  N4_22 
REMARK   11  A    between atoms: N4_22  and  C11_24 
ROOT
HETATM    1  S1  UNL     1      -1.789  -0.742   0.310  1.00  0.00     0.182 S 
HETATM    2  O1  UNL     1      -2.483  -2.036   0.676  1.00  0.00    -0.222 OA
HETATM    3  O2  UNL     1      -1.172  -0.154   1.547  1.00  0.00    -0.222 OA
ENDROOT
BRANCH   1   4
HETATM    4  C4  UNL     1      -2.929   0.331  -0.456  1.00  0.00     0.118 A 
HETATM    5  C3  UNL     1      -4.046   0.786   0.204  1.00  0.00     0.123 A 
HETATM    6  N1  UNL     1      -4.907   1.622  -0.419  1.00  0.00    -0.332 N 
HETATM    7  N2  UNL     1      -4.261   0.410   1.440  1.00  0.00    -0.384 N 
HETATM    8  C2  UNL     1      -4.735   2.049  -1.683  1.00  0.00     0.078 A 
ATOM      9  H1  UNL     1      -5.727   1.945   0.095  1.00  0.00     0.168 HD
HETATM   10  C1  UNL     1      -5.698   2.969  -2.345  1.00  0.00     0.089 C 
HETATM   11  N5  UNL     1      -3.642   1.604  -2.329  1.00  0.00    -0.354 N 
HETATM   12  C12 UNL     1      -2.752   0.772  -1.758  1.00  0.00     0.116 A 
ATOM     13  H5  UNL     1      -3.482   1.909  -3.289  1.00  0.00     0.166 HD
ATOM     14  H22 UNL     1      -5.090   0.748   1.930  1.00  0.00     0.157 HD
ATOM     15  H21 UNL     1      -3.612  -0.221   1.910  1.00  0.00     0.157 HD
ENDBRANCH   1   4
BRANCH   1  16
HETATM   16  C5  UNL     1      -0.454  -1.133  -0.784  1.00  0.00     0.165 C 
BRANCH  16  17
HETATM   17  C6  UNL     1       0.468  -2.067   0.019  1.00  0.00     0.134 C 
BRANCH  17  18
HETATM   18  N3  UNL     1       1.589  -2.443  -0.764  1.00  0.00    -0.401 N 
ATOM     19  H3  UNL     1       1.669  -2.133  -1.733  1.00  0.00     0.158 HD
BRANCH  18  20
HETATM   20  C7  UNL     1       2.578  -3.239  -0.196  1.00  0.00     0.065 C 
BRANCH  20  21
HETATM   21  C8  UNL     1       3.399  -2.574   0.864  1.00  0.00     0.118 C 
BRANCH  21  22
HETATM   22  S2  UNL     1       4.343  -1.159   0.363  1.00  0.00    -0.162 SA
BRANCH  22  23
HETATM   23  C9  UNL     1       3.442   0.313  -0.058  1.00  0.00     0.093 C 
BRANCH  23  24
HETATM   24  C10 UNL     1       2.744   0.969   1.117  1.00  0.00     0.132 C 
BRANCH  24  25
HETATM   25  N4  UNL     1       3.652   1.375   2.162  1.00  0.00    -0.367 N 
ATOM     26  H4  UNL     1       3.530   0.950   3.081  1.00  0.00     0.161 HD
BRANCH  25  27
HETATM   27  C11 UNL     1       4.690   2.308   2.015  1.00  0.00     0.348 C 
HETATM   28  O3  UNL     1       4.937   2.902   0.931  1.00  0.00    -0.284 OA
ENDBRANCH  25  27
ENDBRANCH  24  25
ENDBRANCH  23  24
ENDBRANCH  22  23
ENDBRANCH  21  22
ENDBRANCH  20  21
ENDBRANCH  18  20
ENDBRANCH  17  18
ENDBRANCH  16  17
ENDBRANCH   1  16
TORSDOF 11
