REMARK  10 active torsions:
REMARK  status: ('A' for Active; 'I' for Inactive)
REMARK    1  A    between atoms: C2_2  and  C3_3 
REMARK    2  A    between atoms: C3_3  and  O2_5 
REMARK    3  A    between atoms: O2_5  and  C4_6 
REMARK    4  A    between atoms: C4_6  and  C6_8 
REMARK    5  A    between atoms: C6_8  and  C7_9 
REMARK    6  A    between atoms: C6_8  and  N4_18 
REMARK    7  A    between atoms: C7_9  and  N1_10 
REMARK    8  A    between atoms: C7_9  and  N2_14 
REMARK    9  A    between atoms: N5_21  and  C11_22 
REMARK   10  A    between atoms: C14_28  and  N8_29 
ROOT
HETATM    1  N2  UNL     1      -2.825  -2.151  -2.177  1.00  0.00    -0.298 N 
ATOM      2  H2  UNL     1      -3.567  -1.771  -2.765  1.00  0.00     0.173 HD
HETATM    3  C8  UNL     1      -2.904  -3.494  -1.792  1.00  0.00     0.179 C 
HETATM    4  N3  UNL     1      -2.960  -4.628  -1.485  1.00  0.00    -0.172 NA
ENDROOT
BRANCH   1   5
HETATM    5  C7  UNL     1      -1.748  -1.277  -1.784  1.00  0.00     0.316 C 
BRANCH   5   6
HETATM    6  C6  UNL     1      -1.648  -1.131  -0.278  1.00  0.00     0.167 C 
BRANCH   6   7
HETATM    7  C4  UNL     1      -2.902  -0.532   0.316  1.00  0.00     0.154 C 
HETATM    8  C5  UNL     1      -2.892  -0.685   1.846  1.00  0.00     0.042 C 
BRANCH   7   9
HETATM    9  O2  UNL     1      -3.048   0.830   0.082  1.00  0.00    -0.314 OA
BRANCH   9  10
HETATM   10  C3  UNL     1      -4.188   1.354  -0.459  1.00  0.00     0.258 C 
HETATM   11  O1  UNL     1      -5.131   0.551  -0.750  1.00  0.00    -0.265 OA
BRANCH  10  12
HETATM   12  C2  UNL     1      -4.377   2.805  -0.720  1.00  0.00     0.106 C 
HETATM   13  C1  UNL     1      -5.201   3.420   0.387  1.00  0.00     0.015 C 
ENDBRANCH  10  12
ENDBRANCH   9  10
ENDBRANCH   7   9
ENDBRANCH   6   7
BRANCH   6  14
HETATM   14  N4  UNL     1      -0.448  -0.589   0.187  1.00  0.00    -0.360 N 
HETATM   15  C9  UNL     1      -0.131   0.750  -0.017  1.00  0.00     0.083 C 
HETATM   16  C10 UNL     1       1.313   1.111   0.116  1.00  0.00     0.169 C 
HETATM   17  N5  UNL     1       2.200   0.004   0.388  1.00  0.00    -0.357 N 
HETATM   18  C15 UNL     1       1.775  -1.339   0.633  1.00  0.00     0.169 C 
HETATM   19  C16 UNL     1       0.327  -1.350   1.077  1.00  0.00     0.083 C 
BRANCH  17  20
HETATM   20  C11 UNL     1       3.593   0.303   0.412  1.00  0.00     0.122 A 
HETATM   21  C12 UNL     1       4.523  -0.693   0.550  1.00  0.00     0.094 A 
HETATM   22  C13 UNL     1       5.882  -0.379   0.579  1.00  0.00     0.135 A 
HETATM   23  N6  UNL     1       6.850  -1.418   0.723  1.00  0.00    -0.082 NA
HETATM   24  N7  UNL     1       6.268   0.887   0.472  1.00  0.00    -0.179 N 
HETATM   25  C14 UNL     1       5.365   1.876   0.335  1.00  0.00     0.678 A 
ATOM     26  H7  UNL     1       7.262   1.113   0.494  1.00  0.00     0.185 HD
HETATM   27  N9  UNL     1       4.057   1.568   0.308  1.00  0.00    -0.177 N 
ATOM     28  H9  UNL     1       3.382   2.326   0.204  1.00  0.00     0.185 HD
BRANCH  25  29
HETATM   29  N8  UNL     1       5.824   3.079   0.238  1.00  0.00    -0.234 N 
ATOM     30  H82 UNL     1       6.817   3.313   0.258  1.00  0.00     0.174 HD
ATOM     31  H81 UNL     1       5.140   3.828   0.134  1.00  0.00     0.174 HD
ENDBRANCH  25  29
ENDBRANCH  17  20
ENDBRANCH   6  14
ENDBRANCH   5   6
BRANCH   5  32
HETATM   32  N1  UNL     1      -0.523  -1.859  -2.327  1.00  0.00    -0.056 N 
ATOM     33  H13 UNL     1       0.303  -1.327  -2.052  1.00  0.00     0.276 HD
ATOM     34  H12 UNL     1      -0.292  -2.744  -1.875  1.00  0.00     0.276 HD
ATOM     35  H11 UNL     1      -0.590  -1.957  -3.340  1.00  0.00     0.276 HD
ENDBRANCH   5  32
ENDBRANCH   1   5
TORSDOF 10
