REMARK  2 active torsions:
REMARK  status: ('A' for Active; 'I' for Inactive)
REMARK    1  A    between atoms: C3_3  and  N1_4 
REMARK    2  A    between atoms: N1_4  and  C4_6 
ROOT
HETATM    1  C1  UNL     1       3.884  -1.615   0.407  1.00  0.00     0.014 C 
HETATM    2  C2  UNL     1       3.260  -0.579   0.377  1.00  0.00    -0.098 C 
HETATM    3  C3  UNL     1       2.493   0.684   0.365  1.00  0.00     0.214 C 
ENDROOT
BRANCH   3   4
HETATM    4  N1  UNL     1       1.285   0.572   1.113  1.00  0.00    -0.366 N 
ATOM      5  H1  UNL     1       1.361   0.655   2.127  1.00  0.00     0.162 HD
BRANCH   4   6
HETATM    6  C4  UNL     1       0.113   0.377   0.635  1.00  0.00     0.101 A 
HETATM    7  C5  UNL     1      -0.183   0.242  -0.691  1.00  0.00     0.050 A 
HETATM    8  C6  UNL     1      -1.489   0.034  -1.096  1.00  0.00     0.028 A 
HETATM    9  C7  UNL     1      -2.532  -0.044  -0.183  1.00  0.00     0.060 A 
HETATM   10  C8  UNL     1      -3.893  -0.260  -0.589  1.00  0.00     0.101 C 
HETATM   11  C9  UNL     1      -2.185   0.099   1.146  1.00  0.00     0.112 A 
HETATM   12  N2  UNL     1      -5.009  -0.416  -0.920  1.00  0.00    -0.191 NA
HETATM   13  N3  UNL     1      -0.908   0.300   1.522  1.00  0.00    -0.351 N 
ATOM     14  H3  UNL     1      -0.701   0.398   2.516  1.00  0.00     0.166 HD
ENDBRANCH   4   6
ENDBRANCH   3   4
TORSDOF 2
