REMARK  11 active torsions:
REMARK  status: ('A' for Active; 'I' for Inactive)
REMARK    1  A    between atoms: C2_2  and  C4_4 
REMARK    2  A    between atoms: C4_4  and  C5_5 
REMARK    3  A    between atoms: C7_10  and  C8_11 
REMARK    4  A    between atoms: C8_11  and  N2_12 
REMARK    5  A    between atoms: C11_19  and  C12_20 
REMARK    6  A    between atoms: C12_20  and  C13_21 
REMARK    7  A    between atoms: C15_27  and  N7_28 
REMARK    8  A    between atoms: N8_33  and  C17_34 
REMARK    9  A    between atoms: C17_34  and  C18_35 
REMARK   10  A    between atoms: C21_38  and  C22_39 
REMARK   11  A    between atoms: C22_39  and  C23_40 
ROOT
HETATM    1  C5  UNL     1       0.622   2.385   0.123  1.00  0.00     0.179 C 
HETATM    2  C6  UNL     1       1.466   1.870   1.226  1.00  0.00     0.241 C 
HETATM    3  O1  UNL     1       1.697   2.659   2.206  1.00  0.00    -0.271 OA
HETATM    4  N1  UNL     1       1.999   0.556   1.202  1.00  0.00    -0.346 N 
ATOM      5  H1  UNL     1       2.047   0.076   2.101  1.00  0.00     0.163 HD
HETATM    6  C7  UNL     1       2.470  -0.168   0.089  1.00  0.00     0.172 C 
HETATM    7  C10 UNL     1       1.550  -0.789  -0.835  1.00  0.00     0.164 C 
HETATM    8  O2  UNL     1       1.928  -0.742  -2.040  1.00  0.00    -0.295 OA
HETATM    9  C11 UNL     1       0.268  -1.464  -0.677  1.00  0.00     0.154 C 
HETATM   10  C16 UNL     1      -0.435  -1.299   0.591  1.00  0.00     0.236 C 
HETATM   11  O3  UNL     1       0.119  -1.917   1.574  1.00  0.00    -0.272 OA
HETATM   12  N8  UNL     1      -1.645  -0.544   0.848  1.00  0.00    -0.316 N 
HETATM   13  C21 UNL     1      -2.037   0.467  -0.037  1.00  0.00     0.083 C 
HETATM   14  C26 UNL     1      -1.872   1.887   0.356  1.00  0.00     0.266 C 
HETATM   15  O4  UNL     1      -2.968   2.503   0.513  1.00  0.00    -0.266 OA
HETATM   16  N9  UNL     1      -0.732   2.671   0.584  1.00  0.00    -0.338 N 
HETATM   17  C27 UNL     1      -0.800   3.923   1.363  1.00  0.00     0.154 C 
ENDROOT
BRANCH   9  18
HETATM   18  C12 UNL     1       0.519  -2.990  -0.782  1.00  0.00     0.065 C 
BRANCH  18  19
HETATM   19  C13 UNL     1       1.113  -3.403  -2.037  1.00  0.00     0.005 A 
HETATM   20  C14 UNL     1       2.421  -3.780  -2.228  1.00  0.00     0.118 A 
HETATM   21  N5  UNL     1       2.559  -4.092  -3.522  1.00  0.00    -0.310 N 
HETATM   22  N6  UNL     1       1.419  -3.938  -4.171  1.00  0.00    -0.286 N 
ATOM     23  H5  UNL     1       3.429  -4.407  -3.950  1.00  0.00     0.186 HD
HETATM   24  C15 UNL     1       0.498  -3.506  -3.256  1.00  0.00     0.121 A 
ATOM     25  H6  UNL     1       1.256  -4.108  -5.163  1.00  0.00     0.188 HD
BRANCH  24  26
HETATM   26  N7  UNL     1      -0.715  -3.270  -3.618  1.00  0.00    -0.384 N 
ATOM     27  H72 UNL     1      -1.402  -2.948  -2.936  1.00  0.00     0.157 HD
ATOM     28  H71 UNL     1      -1.173  -3.347  -4.526  1.00  0.00     0.157 HD
ENDBRANCH  24  26
ENDBRANCH  18  19
ENDBRANCH   9  18
BRANCH   6  29
HETATM   29  C8  UNL     1       3.482  -1.240   0.533  1.00  0.00     0.154 C 
BRANCH  29  30
HETATM   30  N2  UNL     1       4.612  -0.617   1.191  1.00  0.00    -0.365 N 
HETATM   31  C9  UNL     1       5.208  -1.286   2.118  1.00  0.00     0.197 C 
HETATM   32  N3  UNL     1       6.323  -0.617   2.737  1.00  0.00    -0.067 NA
HETATM   33  N4  UNL     1       4.798  -2.574   2.497  1.00  0.00    -0.067 NA
ATOM     34  H2  UNL     1       4.925   0.318   0.930  1.00  0.00     0.161 HD
ENDBRANCH  29  30
ENDBRANCH   6  29
BRANCH  12  35
HETATM   35  C17 UNL     1      -2.347  -0.987   2.036  1.00  0.00     0.136 C 
BRANCH  35  36
HETATM   36  C18 UNL     1      -1.973  -0.440   3.345  1.00  0.00    -0.004 C 
HETATM   37  C19 UNL     1      -2.068   0.985   3.648  1.00  0.00     0.011 C 
HETATM   38  C20 UNL     1      -2.844  -1.177   4.389  1.00  0.00     0.011 C 
ENDBRANCH  35  36
ENDBRANCH  12  35
BRANCH  13  39
HETATM   39  C22 UNL     1      -3.372   0.377  -0.712  1.00  0.00     0.067 C 
BRANCH  39  40
HETATM   40  C23 UNL     1      -3.655  -0.787  -1.591  1.00  0.00    -0.017 C 
HETATM   41  C24 UNL     1      -5.087  -0.585  -2.175  1.00  0.00     0.010 C 
HETATM   42  C25 UNL     1      -3.701  -2.144  -0.971  1.00  0.00     0.010 C 
ENDBRANCH  39  40
ENDBRANCH  13  39
BRANCH   1  43
HETATM   43  C4  UNL     1       1.334   3.592  -0.452  1.00  0.00     0.039 C 
BRANCH  43  44
HETATM   44  C2  UNL     1       0.569   4.197  -1.591  1.00  0.00    -0.020 C 
HETATM   45  C1  UNL     1       1.332   5.402  -2.120  1.00  0.00     0.009 C 
HETATM   46  C3  UNL     1       0.526   3.214  -2.771  1.00  0.00     0.009 C 
ENDBRANCH  43  44
ENDBRANCH   1  43
TORSDOF 11
