REMARK  16 active torsions:
REMARK  status: ('A' for Active; 'I' for Inactive)
REMARK    1  A    between atoms: C2_2  and  C3_3 
REMARK    2  A    between atoms: C4_4  and  C5_5 
REMARK    3  A    between atoms: C5_5  and  N1_6 
REMARK    4  A    between atoms: C6_7  and  O1_8 
REMARK    5  A    between atoms: C7_10  and  C8_11 
REMARK    6  A    between atoms: C8_11  and  C9_12 
REMARK    7  A    between atoms: C9_12  and  C10_13 
REMARK    8  A    between atoms: C10_13  and  N2_14 
REMARK    9  A    between atoms: C16_28  and  O3_29 
REMARK   10  A    between atoms: C17_31  and  C18_32 
REMARK   11  A    between atoms: C18_32  and  C19_33 
REMARK   12  A    between atoms: C19_33  and  C20_34 
REMARK   13  A    between atoms: C20_34  and  C21_35 
REMARK   14  A    between atoms: C24_38  and  C25_39 
REMARK   15  A    between atoms: N7_40  and  N8_42 
REMARK   16  A    between atoms: C26_45  and  O4_46 
ROOT
HETATM    1  N1  UNL     1      -0.556   1.375   0.501  1.00  0.00    -0.341 N 
HETATM    2  C6  UNL     1      -1.598   0.630  -0.069  1.00  0.00     0.138 C 
HETATM    3  C7  UNL     1      -2.866   0.133   0.481  1.00  0.00     0.159 C 
HETATM    4  N5  UNL     1      -2.898  -0.097   1.903  1.00  0.00    -0.347 N 
ATOM      5  H5  UNL     1      -2.503  -0.985   2.211  1.00  0.00     0.163 HD
HETATM    6  C12 UNL     1      -3.396   0.729   2.926  1.00  0.00     0.245 C 
HETATM    7  O2  UNL     1      -4.234   0.156   3.724  1.00  0.00    -0.271 OA
HETATM    8  C13 UNL     1      -3.065   2.143   3.172  1.00  0.00     0.105 C 
HETATM    9  C14 UNL     1      -3.704   2.521   4.549  1.00  0.00     0.048 C 
HETATM   10  C15 UNL     1      -3.829   3.085   2.252  1.00  0.00     0.048 C 
HETATM   11  N6  UNL     1      -1.654   2.456   3.241  1.00  0.00    -0.355 N 
ATOM     12  H6  UNL     1      -1.459   3.410   3.544  1.00  0.00     0.162 HD
HETATM   13  C16 UNL     1      -0.516   1.712   2.976  1.00  0.00     0.136 C 
HETATM   14  C17 UNL     1       0.119   1.239   1.746  1.00  0.00     0.161 C 
ENDROOT
BRANCH  14  15
HETATM   15  C18 UNL     1       0.667  -0.174   1.887  1.00  0.00     0.034 C 
BRANCH  15  16
HETATM   16  C19 UNL     1       1.643  -0.590   0.853  1.00  0.00     0.007 C 
BRANCH  16  17
HETATM   17  C20 UNL     1       2.911   0.173   0.767  1.00  0.00     0.039 C 
BRANCH  17  18
HETATM   18  C21 UNL     1       3.773  -0.386  -0.320  1.00  0.00    -0.049 A 
HETATM   19  C22 UNL     1       3.835   0.284  -1.498  1.00  0.00     0.009 A 
HETATM   20  C23 UNL     1       4.611  -0.210  -2.495  1.00  0.00     0.016 A 
HETATM   21  C24 UNL     1       5.375  -1.410  -2.372  1.00  0.00     0.015 A 
HETATM   22  C26 UNL     1       5.255  -2.022  -1.167  1.00  0.00     0.086 A 
HETATM   23  C28 UNL     1       4.464  -1.546  -0.099  1.00  0.00    -0.021 A 
HETATM   24  C29 UNL     1       4.428  -2.309   1.181  1.00  0.00     0.052 C 
BRANCH  21  25
HETATM   25  C25 UNL     1       6.251  -1.674  -3.465  1.00  0.00     0.120 C 
HETATM   26  N7  UNL     1       7.249  -2.412  -3.637  1.00  0.00    -0.318 N 
ATOM     27  H7  UNL     1       7.633  -2.347  -4.580  1.00  0.00     0.185 HD
BRANCH  26  28
HETATM   28  N8  UNL     1       7.935  -3.283  -2.842  1.00  0.00    -0.345 N 
ATOM     29  H82 UNL     1       7.534  -3.332  -1.905  1.00  0.00     0.176 HD
ATOM     30  H81 UNL     1       8.747  -3.884  -2.982  1.00  0.00     0.176 HD
ENDBRANCH  26  28
ENDBRANCH  21  25
BRANCH  22  31
HETATM   31  O4  UNL     1       5.914  -3.217  -0.898  1.00  0.00    -0.354 OA
HETATM   32  C27 UNL     1       5.155  -4.450  -1.078  1.00  0.00     0.210 C 
ENDBRANCH  22  31
ENDBRANCH  17  18
ENDBRANCH  16  17
ENDBRANCH  15  16
ENDBRANCH  14  15
BRANCH   1  33
HETATM   33  C5  UNL     1      -0.055   2.480  -0.359  1.00  0.00     0.220 C 
BRANCH  33  34
HETATM   34  C4  UNL     1      -0.729   3.727  -0.175  1.00  0.00    -0.087 C 
HETATM   35  C3  UNL     1      -1.280   4.788  -0.040  1.00  0.00    -0.105 C 
BRANCH  35  36
HETATM   36  C2  UNL     1      -1.969   6.060   0.117  1.00  0.00     0.089 C 
HETATM   37  C1  UNL     1      -2.207   6.719  -1.237  1.00  0.00     0.018 C 
ENDBRANCH  35  36
ENDBRANCH  33  34
ENDBRANCH   1  33
BRANCH  13  38
HETATM   38  O3  UNL     1       0.160   1.340   4.027  1.00  0.00    -0.348 OA
ATOM     39  H3  UNL     1       0.940   0.830   3.845  1.00  0.00     0.219 HD
ENDBRANCH  13  38
BRANCH   2  40
HETATM   40  O1  UNL     1      -1.439   0.306  -1.321  1.00  0.00    -0.348 OA
ATOM     41  H1  UNL     1      -2.145  -0.199  -1.707  1.00  0.00     0.219 HD
ENDBRANCH   2  40
BRANCH   3  42
HETATM   42  C8  UNL     1      -3.312  -1.135  -0.257  1.00  0.00     0.035 C 
BRANCH  42  43
HETATM   43  C9  UNL     1      -2.377  -2.269  -0.171  1.00  0.00     0.022 C 
BRANCH  43  44
HETATM   44  C10 UNL     1      -2.936  -3.472  -0.943  1.00  0.00     0.122 C 
BRANCH  44  45
HETATM   45  N2  UNL     1      -3.132  -3.168  -2.324  1.00  0.00    -0.367 N 
HETATM   46  C11 UNL     1      -4.189  -3.428  -2.991  1.00  0.00     0.196 C 
HETATM   47  N3  UNL     1      -4.237  -3.068  -4.349  1.00  0.00    -0.067 NA
HETATM   48  N4  UNL     1      -5.260  -4.071  -2.312  1.00  0.00    -0.067 NA
ATOM     49  H2  UNL     1      -2.367  -2.707  -2.817  1.00  0.00     0.161 HD
ENDBRANCH  44  45
ENDBRANCH  43  44
ENDBRANCH  42  43
ENDBRANCH   3  42
TORSDOF 16
