REMARK  14 active torsions:
REMARK  status: ('A' for Active; 'I' for Inactive)
REMARK    1  A    between atoms: C2_2  and  N1_3 
REMARK    2  A    between atoms: N3_10  and  C7_12 
REMARK    3  A    between atoms: C7_12  and  C8_13 
REMARK    4  A    between atoms: C8_13  and  N4_14 
REMARK       I    between atoms: N4_14  and  C9_16 
REMARK       I    between atoms: C9_16  and  N5_18 
REMARK    5  A    between atoms: C10_21  and  O2_22 
REMARK    6  A    between atoms: C11_24  and  C12_25 
REMARK    7  A    between atoms: C16_32  and  C17_33 
REMARK    8  A    between atoms: C17_33  and  C18_34 
REMARK    9  A    between atoms: C22_39  and  O4_40 
REMARK   10  A    between atoms: C23_42  and  C24_43 
REMARK   11  A    between atoms: C24_43  and  C25_44 
REMARK   12  A    between atoms: C25_44  and  C26_45 
REMARK   13  A    between atoms: C26_45  and  C27_46 
REMARK   14  A    between atoms: C27_46  and  N9_47 
ROOT
HETATM    1  N4  UNL     1       2.655  -0.896   0.243  1.00  0.00    -0.340 N 
ATOM      2  H4  UNL     1       2.392  -1.728  -0.285  1.00  0.00     0.164 HD
HETATM    3  C9  UNL     1       1.673   0.035   0.657  1.00  0.00     0.338 C 
HETATM    4  O1  UNL     1       1.990   1.051   1.302  1.00  0.00    -0.245 OA
HETATM    5  N5  UNL     1       0.239  -0.148   0.346  1.00  0.00    -0.225 N 
HETATM    6  N6  UNL     1      -0.211  -1.264  -0.297  1.00  0.00    -0.275 N 
ATOM      7  H6  UNL     1       0.165  -1.275  -1.245  1.00  0.00     0.189 HD
HETATM    8  C10 UNL     1      -1.006  -2.395  -0.109  1.00  0.00     0.154 C 
HETATM    9  C11 UNL     1      -2.450  -2.565   0.186  1.00  0.00     0.164 C 
HETATM   10  N7  UNL     1      -3.271  -2.132  -0.925  1.00  0.00    -0.343 N 
ATOM     11  H7  UNL     1      -3.734  -2.863  -1.465  1.00  0.00     0.163 HD
HETATM   12  C15 UNL     1      -3.492  -0.822  -1.330  1.00  0.00     0.268 C 
HETATM   13  O3  UNL     1      -3.675  -0.696  -2.605  1.00  0.00    -0.266 OA
HETATM   14  C16 UNL     1      -3.561   0.441  -0.633  1.00  0.00     0.100 C 
HETATM   15  N8  UNL     1      -3.108   0.553   0.725  1.00  0.00    -0.329 N 
HETATM   16  C21 UNL     1      -4.227   0.604   1.694  1.00  0.00     0.158 C 
HETATM   17  C22 UNL     1      -1.814   0.632   1.228  1.00  0.00     0.147 C 
HETATM   18  C23 UNL     1      -0.513   1.058   0.781  1.00  0.00     0.210 C 
ENDROOT
BRANCH  18  19
HETATM   19  C24 UNL     1      -0.334   2.154  -0.182  1.00  0.00     0.005 C 
BRANCH  19  20
HETATM   20  C25 UNL     1      -0.860   3.495   0.051  1.00  0.00    -0.026 C 
BRANCH  20  21
HETATM   21  C26 UNL     1      -2.262   3.809   0.286  1.00  0.00     0.054 C 
BRANCH  21  22
HETATM   22  C27 UNL     1      -2.336   5.350   0.449  1.00  0.00     0.233 C 
BRANCH  22  23
HETATM   23  N9  UNL     1      -3.682   5.765   0.691  1.00  0.00    -0.079 N 
ATOM     24  H93 UNL     1      -4.318   5.430  -0.033  1.00  0.00     0.274 HD
ATOM     25  H92 UNL     1      -4.090   5.279   1.490  1.00  0.00     0.274 HD
ATOM     26  H91 UNL     1      -3.731   6.778   0.798  1.00  0.00     0.274 HD
ENDBRANCH  22  23
ENDBRANCH  21  22
ENDBRANCH  20  21
ENDBRANCH  19  20
ENDBRANCH  18  19
BRANCH   1  27
HETATM   27  C8  UNL     1       4.034  -0.647   0.582  1.00  0.00     0.153 C 
BRANCH  27  28
HETATM   28  C7  UNL     1       4.858  -1.785   0.027  1.00  0.00     0.266 C 
BRANCH  28  29
HETATM   29  N3  UNL     1       6.255  -1.647   0.292  1.00  0.00    -0.008 N 
HETATM   30  C3  UNL     1       6.633  -0.272   0.084  1.00  0.00     0.279 C 
HETATM   31  N1  UNL     1       6.928   0.484   1.041  1.00  0.00    -0.336 N 
HETATM   32  N2  UNL     1       6.594  -0.127  -1.324  1.00  0.00    -0.354 N 
ATOM     33  H1  UNL     1       6.851   0.066   1.968  1.00  0.00     0.167 HD
HETATM   34  C4  UNL     1       7.159  -1.371  -1.873  1.00  0.00     0.151 C 
ATOM     35  H2  UNL     1       6.246   0.675  -1.850  1.00  0.00     0.162 HD
HETATM   36  C5  UNL     1       6.966  -2.350  -0.742  1.00  0.00     0.266 C 
HETATM   37  C6  UNL     1       6.624  -2.090   1.615  1.00  0.00     0.283 C 
BRANCH  31  38
HETATM   38  C2  UNL     1       7.346   1.814   1.018  1.00  0.00     0.059 C 
HETATM   39  C1  UNL     1       6.733   2.601  -0.105  1.00  0.00     0.055 C 
ENDBRANCH  31  38
ENDBRANCH  28  29
ENDBRANCH  27  28
ENDBRANCH   1  27
BRANCH   8  40
HETATM   40  O2  UNL     1      -0.465  -3.603  -0.195  1.00  0.00    -0.347 OA
ATOM     41  H2  UNL     1      -1.006  -4.373  -0.067  1.00  0.00     0.219 HD
ENDBRANCH   8  40
BRANCH  17  42
HETATM   42  O4  UNL     1      -1.757   0.191   2.461  1.00  0.00    -0.347 OA
ATOM     43  H4  UNL     1      -0.873   0.245   2.805  1.00  0.00     0.219 HD
ENDBRANCH  17  42
BRANCH   9  44
HETATM   44  C12 UNL     1      -2.825  -4.064   0.373  1.00  0.00     0.008 C 
HETATM   45  C13 UNL     1      -2.064  -4.686   1.503  1.00  0.00     0.012 C 
HETATM   46  C14 UNL     1      -2.749  -4.817  -0.911  1.00  0.00     0.012 C 
ENDBRANCH   9  44
BRANCH  14  47
HETATM   47  C17 UNL     1      -4.810   1.138  -0.981  1.00  0.00     0.012 C 
BRANCH  47  48
HETATM   48  C18 UNL     1      -6.140   0.610  -0.744  1.00  0.00     0.002 C 
HETATM   49  C19 UNL     1      -6.571  -0.667  -1.369  1.00  0.00     0.013 C 
HETATM   50  C20 UNL     1      -7.131   1.654  -1.346  1.00  0.00     0.013 C 
ENDBRANCH  47  48
ENDBRANCH  14  47
TORSDOF 14
