REMARK  12 active torsions:
REMARK  status: ('A' for Active; 'I' for Inactive)
REMARK    1  A    between atoms: C2_2  and  C4_4 
REMARK    2  A    between atoms: C4_4  and  C5_5 
REMARK    3  A    between atoms: C7_7  and  O1_8 
REMARK    4  A    between atoms: C9_12  and  C10_13 
REMARK    5  A    between atoms: C10_13  and  C11_14 
REMARK    6  A    between atoms: C14_17  and  O2_18 
REMARK    7  A    between atoms: C15_22  and  C16_23 
REMARK    8  A    between atoms: C16_23  and  C17_24 
REMARK    9  A    between atoms: C21_31  and  C22_32 
REMARK   10  A    between atoms: C22_32  and  C23_33 
REMARK   11  A    between atoms: C23_33  and  C24_34 
REMARK   12  A    between atoms: C24_34  and  N4_35 
ROOT
HETATM    1  C5  UNL     1      -0.979   2.713   0.563  1.00  0.00     0.092 C 
HETATM    2  C6  UNL     1      -1.906   1.535   0.763  1.00  0.00     0.108 C 
HETATM    3  C7  UNL     1      -2.703   1.269  -0.450  1.00  0.00     0.115 C 
HETATM    4  N1  UNL     1      -3.198   0.082  -0.955  1.00  0.00    -0.357 N 
HETATM    5  C8  UNL     1      -3.209  -0.018  -2.436  1.00  0.00     0.152 C 
HETATM    6  C9  UNL     1      -3.752  -1.077  -0.271  1.00  0.00     0.160 C 
HETATM    7  C14 UNL     1      -2.899  -2.263  -0.522  1.00  0.00     0.135 C 
HETATM    8  N2  UNL     1      -1.711  -2.702   0.017  1.00  0.00    -0.359 N 
ATOM      9  H2  UNL     1      -1.799  -3.615   0.463  1.00  0.00     0.162 HD
HETATM   10  C15 UNL     1      -0.385  -2.180   0.098  1.00  0.00     0.175 C 
HETATM   11  C20 UNL     1       0.071  -1.454  -1.124  1.00  0.00     0.241 C 
HETATM   12  O3  UNL     1      -0.218  -2.055  -2.217  1.00  0.00    -0.271 OA
HETATM   13  N3  UNL     1       0.747  -0.251  -1.220  1.00  0.00    -0.347 N 
ATOM     14  H3  UNL     1       0.416   0.418  -1.915  1.00  0.00     0.163 HD
HETATM   15  C21 UNL     1       1.918   0.146  -0.391  1.00  0.00     0.164 C 
HETATM   16  C26 UNL     1       1.990   1.631  -0.434  1.00  0.00     0.238 C 
HETATM   17  O4  UNL     1       2.449   2.170  -1.481  1.00  0.00    -0.285 OA
HETATM   18  C27 UNL     1       1.569   2.529   0.640  1.00  0.00     0.289 C 
HETATM   19  O5  UNL     1       2.403   3.406   1.093  1.00  0.00    -0.264 OA
HETATM   20  N7  UNL     1       0.288   2.532   1.252  1.00  0.00    -0.349 N 
ATOM     21  H7  UNL     1       0.254   2.395   2.262  1.00  0.00     0.163 HD
ENDROOT
BRANCH  15  22
HETATM   22  C22 UNL     1       3.093  -0.426  -1.118  1.00  0.00     0.035 C 
BRANCH  22  23
HETATM   23  C23 UNL     1       4.440  -0.308  -0.564  1.00  0.00     0.022 C 
BRANCH  23  24
HETATM   24  C24 UNL     1       5.051   1.029  -0.334  1.00  0.00     0.122 C 
BRANCH  24  25
HETATM   25  N4  UNL     1       6.411   0.807   0.214  1.00  0.00    -0.367 N 
HETATM   26  C25 UNL     1       7.468   1.157  -0.427  1.00  0.00     0.196 C 
HETATM   27  N5  UNL     1       8.721   0.900   0.186  1.00  0.00    -0.067 NA
HETATM   28  N6  UNL     1       7.459   1.780  -1.698  1.00  0.00    -0.067 NA
ATOM     29  H4  UNL     1       6.510   0.363   1.127  1.00  0.00     0.161 HD
ENDBRANCH  24  25
ENDBRANCH  23  24
ENDBRANCH  22  23
ENDBRANCH  15  22
BRANCH  10  30
HETATM   30  C16 UNL     1       0.680  -3.200   0.347  1.00  0.00     0.038 C 
BRANCH  30  31
HETATM   31  C17 UNL     1       0.941  -4.259  -0.626  1.00  0.00    -0.020 C 
HETATM   32  C18 UNL     1      -0.215  -5.173  -0.892  1.00  0.00     0.009 C 
HETATM   33  C19 UNL     1       2.074  -5.191  -0.119  1.00  0.00     0.009 C 
ENDBRANCH  30  31
ENDBRANCH  10  30
BRANCH   1  34
HETATM   34  C4  UNL     1      -1.647   4.006   1.034  1.00  0.00     0.029 C 
BRANCH  34  35
HETATM   35  C2  UNL     1      -0.760   5.203   0.854  1.00  0.00    -0.021 C 
HETATM   36  C1  UNL     1      -1.550   6.410   1.352  1.00  0.00     0.009 C 
HETATM   37  C3  UNL     1      -0.371   5.444  -0.571  1.00  0.00     0.009 C 
ENDBRANCH  34  35
ENDBRANCH   1  34
BRANCH   7  38
HETATM   38  O2  UNL     1      -3.398  -3.038  -1.450  1.00  0.00    -0.348 OA
ATOM     39  H2  UNL     1      -2.851  -3.798  -1.611  1.00  0.00     0.219 HD
ENDBRANCH   7  38
BRANCH   6  40
HETATM   40  C10 UNL     1      -4.192  -0.802   1.105  1.00  0.00     0.037 C 
BRANCH  40  41
HETATM   41  C11 UNL     1      -4.844  -1.857   1.903  1.00  0.00    -0.020 C 
HETATM   42  C12 UNL     1      -4.148  -3.109   2.216  1.00  0.00     0.009 C 
HETATM   43  C13 UNL     1      -6.200  -2.276   1.277  1.00  0.00     0.009 C 
ENDBRANCH  40  41
ENDBRANCH   6  40
BRANCH   3  44
HETATM   44  O1  UNL     1      -2.969   2.342  -1.135  1.00  0.00    -0.349 OA
ATOM     45  H1  UNL     1      -3.482   2.171  -1.916  1.00  0.00     0.219 HD
ENDBRANCH   3  44
TORSDOF 12
