REMARK  12 active torsions:
REMARK  status: ('A' for Active; 'I' for Inactive)
REMARK    1  A    between atoms: C2_2  and  C4_4 
REMARK    2  A    between atoms: C4_4  and  C5_5 
REMARK    3  A    between atoms: C7_10  and  C8_11 
REMARK    4  A    between atoms: C8_11  and  N2_12 
REMARK    5  A    between atoms: C14_21  and  C15_22 
REMARK    6  A    between atoms: C15_22  and  C16_23 
REMARK    7  A    between atoms: C16_23  and  C17_24 
REMARK    8  A    between atoms: C17_24  and  N4_25 
REMARK    9  A    between atoms: N7_32  and  C20_33 
REMARK   10  A    between atoms: C20_33  and  C21_34 
REMARK   11  A    between atoms: C24_37  and  C25_38 
REMARK   12  A    between atoms: C28_43  and  O4_44 
ROOT
HETATM    1  C5  UNL     1      -2.176  -1.361   0.175  1.00  0.00     0.159 C 
HETATM    2  N1  UNL     1      -1.791  -0.264   0.988  1.00  0.00    -0.349 N 
ATOM      3  H1  UNL     1      -1.650  -0.488   1.973  1.00  0.00     0.163 HD
HETATM    4  C6  UNL     1      -1.576   1.068   0.655  1.00  0.00     0.224 C 
HETATM    5  O1  UNL     1      -0.920   1.826   1.424  1.00  0.00    -0.273 OA
HETATM    6  C7  UNL     1      -2.070   1.753  -0.603  1.00  0.00     0.112 C 
HETATM    7  C12 UNL     1      -0.757   2.133  -1.315  1.00  0.00     0.118 C 
HETATM    8  C13 UNL     1      -0.315   1.028  -2.205  1.00  0.00     0.219 C 
HETATM    9  O2  UNL     1      -1.002   0.963  -3.298  1.00  0.00    -0.274 OA
HETATM   10  N3  UNL     1       0.693   0.098  -2.018  1.00  0.00    -0.348 N 
ATOM     11  H3  UNL     1       0.377  -0.872  -2.024  1.00  0.00     0.163 HD
HETATM   12  C14 UNL     1       2.105   0.259  -1.817  1.00  0.00     0.176 C 
HETATM   13  C19 UNL     1       2.738  -0.991  -1.338  1.00  0.00     0.244 C 
HETATM   14  O3  UNL     1       3.992  -1.123  -1.606  1.00  0.00    -0.271 OA
HETATM   15  N7  UNL     1       2.104  -2.041  -0.625  1.00  0.00    -0.328 N 
HETATM   16  C24 UNL     1       1.150  -1.816   0.459  1.00  0.00     0.191 C 
HETATM   17  N8  UNL     1       0.034  -2.697   0.463  1.00  0.00    -0.351 N 
ATOM     18  H8  UNL     1       0.247  -3.637   0.798  1.00  0.00     0.163 HD
HETATM   19  C28 UNL     1      -1.295  -2.513   0.094  1.00  0.00     0.136 C 
ENDROOT
BRANCH  12  20
HETATM   20  C15 UNL     1       2.437   1.465  -0.962  1.00  0.00     0.036 C 
BRANCH  20  21
HETATM   21  C16 UNL     1       3.929   1.618  -0.772  1.00  0.00     0.022 C 
BRANCH  21  22
HETATM   22  C17 UNL     1       4.146   2.872   0.088  1.00  0.00     0.122 C 
BRANCH  22  23
HETATM   23  N4  UNL     1       3.522   2.787   1.370  1.00  0.00    -0.367 N 
HETATM   24  C18 UNL     1       3.992   3.396   2.397  1.00  0.00     0.196 C 
HETATM   25  N5  UNL     1       5.157   4.177   2.275  1.00  0.00    -0.067 NA
HETATM   26  N6  UNL     1       3.342   3.283   3.648  1.00  0.00    -0.067 NA
ATOM     27  H4  UNL     1       2.677   2.225   1.472  1.00  0.00     0.161 HD
ENDBRANCH  22  23
ENDBRANCH  21  22
ENDBRANCH  20  21
ENDBRANCH  12  20
BRANCH  15  28
HETATM   28  C20 UNL     1       2.447  -3.398  -0.958  1.00  0.00     0.132 C 
BRANCH  28  29
HETATM   29  C21 UNL     1       1.653  -4.049  -2.027  1.00  0.00    -0.005 C 
HETATM   30  C22 UNL     1       2.150  -5.492  -2.250  1.00  0.00     0.011 C 
HETATM   31  C23 UNL     1       1.744  -3.401  -3.387  1.00  0.00     0.011 C 
ENDBRANCH  28  29
ENDBRANCH  15  28
BRANCH  16  32
HETATM   32  C25 UNL     1       1.906  -2.087   1.784  1.00  0.00     0.020 C 
HETATM   33  C26 UNL     1       0.996  -1.879   2.954  1.00  0.00     0.013 C 
HETATM   34  C27 UNL     1       3.122  -1.240   1.928  1.00  0.00     0.013 C 
ENDBRANCH  16  32
BRANCH   6  35
HETATM   35  C8  UNL     1      -2.729   3.004  -0.093  1.00  0.00     0.250 C 
BRANCH  35  36
HETATM   36  N2  UNL     1      -3.316   3.876  -1.045  1.00  0.00    -0.078 N 
HETATM   37  C9  UNL     1      -2.464   5.042  -1.234  1.00  0.00     0.271 C 
HETATM   38  C10 UNL     1      -4.585   4.439  -0.512  1.00  0.00     0.271 C 
HETATM   39  C11 UNL     1      -3.623   3.344  -2.326  1.00  0.00     0.271 C 
ENDBRANCH  35  36
ENDBRANCH   6  35
BRANCH  19  40
HETATM   40  O4  UNL     1      -1.869  -3.558  -0.425  1.00  0.00    -0.348 OA
ATOM     41  H4  UNL     1      -1.293  -4.311  -0.478  1.00  0.00     0.219 HD
ENDBRANCH  19  40
BRANCH   1  42
HETATM   42  C4  UNL     1      -3.581  -1.793   0.512  1.00  0.00     0.037 C 
BRANCH  42  43
HETATM   43  C2  UNL     1      -3.848  -2.212   1.898  1.00  0.00    -0.020 C 
HETATM   44  C1  UNL     1      -5.353  -2.575   1.949  1.00  0.00     0.009 C 
HETATM   45  C3  UNL     1      -3.151  -3.446   2.388  1.00  0.00     0.009 C 
ENDBRANCH  42  43
ENDBRANCH   1  42
TORSDOF 12
