REMARK  16 active torsions:
REMARK  status: ('A' for Active; 'I' for Inactive)
REMARK    1  A    between atoms: N1_1  and  C1_4 
REMARK    2  A    between atoms: C2_7  and  O1_8 
REMARK    3  A    between atoms: C3_10  and  C4_11 
REMARK    4  A    between atoms: N5_15  and  C5_16 
REMARK    5  A    between atoms: C5_16  and  C6_17 
REMARK    6  A    between atoms: C5_16  and  N6_23 
REMARK    7  A    between atoms: C6_17  and  O2_18 
REMARK    8  A    between atoms: C6_17  and  C7_20 
REMARK    9  A    between atoms: C7_20  and  O3_21 
REMARK   10  A    between atoms: C8_27  and  C9_28 
REMARK   11  A    between atoms: C9_28  and  O4_29 
REMARK   12  A    between atoms: O4_29  and  C10_30 
REMARK   13  A    between atoms: C12_34  and  N10_35 
REMARK   14  A    between atoms: C13_40  and  N12_41 
REMARK   15  A    between atoms: C14_46  and  O5_47 
REMARK   16  A    between atoms: O5_47  and  N14_48 
ROOT
HETATM    1  C5  UNL     1      -0.445  -0.629  -1.087  1.00  0.00     0.277 C 
ENDROOT
BRANCH   1   2
HETATM    2  N5  UNL     1      -1.449  -0.246  -0.115  1.00  0.00    -0.221 N 
HETATM    3  N4  UNL     1      -1.277   0.043   1.168  1.00  0.00    -0.015 NA
HETATM    4  N3  UNL     1      -2.462   0.352   1.724  1.00  0.00    -0.279 N 
HETATM    5  C4  UNL     1      -3.419   0.264   0.796  1.00  0.00     0.118 A 
ATOM      6  H3  UNL     1      -2.607   0.612   2.700  1.00  0.00     0.184 HD
HETATM    7  C14 UNL     1      -2.789  -0.111  -0.362  1.00  0.00     0.216 A 
BRANCH   5   8
HETATM    8  C3  UNL     1      -4.837   0.509   0.953  1.00  0.00     0.089 A 
HETATM    9  C2  UNL     1      -5.727  -0.498   1.312  1.00  0.00     0.171 A 
HETATM   10  N2  UNL     1      -7.040  -0.254   1.453  1.00  0.00    -0.170 N 
HETATM   11  C1  UNL     1      -7.523   1.003   1.244  1.00  0.00     0.679 A 
ATOM     12  H2  UNL     1      -7.675  -1.008   1.716  1.00  0.00     0.186 HD
HETATM   13  N16 UNL     1      -6.662   1.971   0.899  1.00  0.00    -0.178 N 
HETATM   14  C15 UNL     1      -5.349   1.776   0.746  1.00  0.00     0.148 A 
ATOM     15  H16 UNL     1      -7.030   2.910   0.745  1.00  0.00     0.185 HD
HETATM   16  N15 UNL     1      -4.452   2.822   0.378  1.00  0.00    -0.081 NA
BRANCH   9  17
HETATM   17  O1  UNL     1      -5.216  -1.789   1.524  1.00  0.00    -0.345 OA
ATOM     18  H1  UNL     1      -4.287  -1.962   1.424  1.00  0.00     0.219 HD
ENDBRANCH   9  17
BRANCH  11  19
HETATM   19  N1  UNL     1      -8.796   1.243   1.381  1.00  0.00    -0.234 N 
ATOM     20  H12 UNL     1      -9.451   0.507   1.643  1.00  0.00     0.174 HD
ATOM     21  H11 UNL     1      -9.158   2.184   1.225  1.00  0.00     0.174 HD
ENDBRANCH  11  19
ENDBRANCH   5   8
BRANCH   7  22
HETATM   22  O5  UNL     1      -3.409  -0.320  -1.584  1.00  0.00    -0.223 OA
BRANCH  22  23
HETATM   23  N14 UNL     1      -3.471   0.681  -2.553  1.00  0.00    -0.303 N 
ATOM     24 2H14 UNL     1      -3.045   1.583  -2.341  1.00  0.00     0.184 HD
ATOM     25 1H14 UNL     1      -3.927   0.527  -3.452  1.00  0.00     0.184 HD
ENDBRANCH  22  23
ENDBRANCH   7  22
ENDBRANCH   1   2
BRANCH   1  26
HETATM   26  C6  UNL     1      -0.251  -2.129  -1.133  1.00  0.00     0.188 C 
BRANCH  26  27
HETATM   27  O2  UNL     1      -1.416  -2.793  -1.475  1.00  0.00    -0.389 OA
ATOM     28  H2  UNL     1      -1.294  -3.735  -1.504  1.00  0.00     0.210 HD
ENDBRANCH  26  27
BRANCH  26  29
HETATM   29  C7  UNL     1       0.231  -2.683   0.178  1.00  0.00     0.199 C 
BRANCH  29  30
HETATM   30  O3  UNL     1       0.458  -4.060  -0.030  1.00  0.00    -0.398 OA
ATOM     31  H3  UNL     1       0.763  -4.410   0.799  1.00  0.00     0.209 HD
ENDBRANCH  29  30
ENDBRANCH  26  29
ENDBRANCH   1  26
BRANCH   1  32
HETATM   32  N6  UNL     1       0.818   0.047  -0.879  1.00  0.00    -0.188 N 
HETATM   33  N7  UNL     1       1.346   0.313   0.311  1.00  0.00    -0.001 NA
HETATM   34  N8  UNL     1       2.502   0.938   0.161  1.00  0.00    -0.268 N 
HETATM   35  C8  UNL     1       2.734   1.084  -1.164  1.00  0.00     0.135 A 
ATOM     36  H8  UNL     1       3.113   1.255   0.914  1.00  0.00     0.185 HD
HETATM   37  N13 UNL     1       1.672   0.521  -1.764  1.00  0.00    -0.269 N 
ATOM     38  H13 UNL     1       1.543   0.467  -2.774  1.00  0.00     0.190 HD
BRANCH  35  39
HETATM   39  C9  UNL     1       3.920   1.731  -1.783  1.00  0.00     0.255 C 
BRANCH  39  40
HETATM   40  O4  UNL     1       5.000   1.876  -0.911  1.00  0.00    -0.339 OA
BRANCH  40  41
HETATM   41  C10 UNL     1       5.680   0.855  -0.308  1.00  0.00     0.129 A 
HETATM   42  C11 UNL     1       5.378  -0.471  -0.510  1.00  0.00     0.146 A 
HETATM   43  N9  UNL     1       6.126  -1.407   0.144  1.00  0.00    -0.199 N 
HETATM   44  C12 UNL     1       7.130  -1.061   0.962  1.00  0.00     0.677 A 
ATOM     45  H9  UNL     1       5.915  -2.396   0.007  1.00  0.00     0.183 HD
HETATM   46  N11 UNL     1       7.410   0.253   1.145  1.00  0.00    -0.175 N 
HETATM   47  C13 UNL     1       6.726   1.232   0.543  1.00  0.00     0.149 A 
ATOM     48  H11 UNL     1       8.176   0.506   1.769  1.00  0.00     0.186 HD
BRANCH  44  49
HETATM   49  N10 UNL     1       7.783  -2.005   1.538  1.00  0.00    -0.234 N 
ATOM     50 2H10 UNL     1       7.572  -2.993   1.400  1.00  0.00     0.174 HD
ATOM     51 1H10 UNL     1       8.547  -1.742   2.160  1.00  0.00     0.174 HD
ENDBRANCH  44  49
BRANCH  47  52
HETATM   52  N12 UNL     1       7.033   2.462   0.752  1.00  0.00    -0.383 N 
ATOM     53 2H12 UNL     1       6.511   3.209   0.293  1.00  0.00     0.157 HD
ATOM     54 1H12 UNL     1       7.795   2.737   1.372  1.00  0.00     0.157 HD
ENDBRANCH  47  52
ENDBRANCH  40  41
ENDBRANCH  39  40
ENDBRANCH  35  39
ENDBRANCH   1  32
TORSDOF 16
