REMARK  2 active torsions:
REMARK  status: ('A' for Active; 'I' for Inactive)
REMARK    1  A    between atoms: O1_2  and  C2_3 
REMARK    2  A    between atoms: C2_3  and  C3_5 
ROOT
HETATM    1  C3  UNL     1       0.209   0.330   0.202  1.00  0.00     0.124 A 
HETATM    2  C4  UNL     1      -0.681  -0.635  -0.271  1.00  0.00     0.142 A 
HETATM    3  N1  UNL     1      -0.239  -1.491  -1.297  1.00  0.00    -0.081 NA
HETATM    4  N2  UNL     1      -1.934  -0.771   0.217  1.00  0.00    -0.291 N 
HETATM    5  C5  UNL     1      -2.807  -1.804  -0.328  1.00  0.00     0.162 C 
HETATM    6  C6  UNL     1      -2.338   0.054   1.194  1.00  0.00     0.329 A 
HETATM    7  O3  UNL     1      -3.509  -0.096   1.630  1.00  0.00    -0.246 OA
HETATM    8  N3  UNL     1      -1.499   0.977   1.653  1.00  0.00    -0.294 N 
ATOM      9  H3  UNL     1      -1.829   1.593   2.396  1.00  0.00     0.172 HD
HETATM   10  C7  UNL     1      -0.212   1.158   1.191  1.00  0.00     0.122 A 
HETATM   11  N4  UNL     1       0.480   2.074   1.715  1.00  0.00    -0.384 N 
ATOM     12  H41 UNL     1       0.164   2.696   2.458  1.00  0.00     0.157 HD
ATOM     13  H42 UNL     1       1.432   2.208   1.373  1.00  0.00     0.157 HD
ENDROOT
BRANCH   1  14
HETATM   14  C2  UNL     1       1.521   0.401  -0.376  1.00  0.00     0.300 C 
HETATM   15  O2  UNL     1       1.830  -0.431  -1.314  1.00  0.00    -0.259 OA
BRANCH  14  16
HETATM   16  O1  UNL     1       2.552   1.260  -0.073  1.00  0.00    -0.322 OA
HETATM   17  C1  UNL     1       3.812   1.248  -0.704  1.00  0.00     0.213 C 
ENDBRANCH  14  16
ENDBRANCH   1  14
TORSDOF 2
