REMARK  4 active torsions:
REMARK  status: ('A' for Active; 'I' for Inactive)
REMARK    1  A    between atoms: O1_2  and  C2_3 
REMARK    2  A    between atoms: C2_3  and  C4_5 
REMARK    3  A    between atoms: C6_10  and  N3_11 
REMARK    4  A    between atoms: N3_11  and  N4_13 
ROOT
HETATM    1  C4  UNL     1      -0.218   0.043  -0.114  1.00  0.00     0.080 A 
HETATM    2  C5  UNL     1       0.181   0.932   0.858  1.00  0.00     0.146 A 
HETATM    3  N1  UNL     1      -0.761   1.664   1.634  1.00  0.00    -0.081 NA
HETATM    4  N2  UNL     1       1.479   1.182   1.131  1.00  0.00    -0.177 N 
ATOM      5  H2  UNL     1       1.722   1.851   1.862  1.00  0.00     0.185 HD
HETATM    6  C6  UNL     1       2.472   0.547   0.437  1.00  0.00     0.700 A 
HETATM    7  N5  UNL     1       2.110  -0.318  -0.508  1.00  0.00    -0.154 N 
ATOM      8  H5  UNL     1       2.837  -0.801  -1.036  1.00  0.00     0.187 HD
HETATM    9  C7  UNL     1       0.801  -0.583  -0.798  1.00  0.00     0.271 A 
HETATM   10  O2  UNL     1       0.651  -1.422  -1.715  1.00  0.00    -0.267 OA
ENDROOT
BRANCH   6  11
HETATM   11  N3  UNL     1       3.675   0.847   0.770  1.00  0.00    -0.138 N 
ATOM     12  H3  UNL     1       3.839   1.526   1.514  1.00  0.00     0.205 HD
BRANCH  11  13
HETATM   13  N4  UNL     1       4.753   0.258   0.129  1.00  0.00    -0.331 N 
ATOM     14  H42 UNL     1       4.572  -0.419  -0.613  1.00  0.00     0.177 HD
ATOM     15  H41 UNL     1       5.709   0.496   0.394  1.00  0.00     0.177 HD
ENDBRANCH  11  13
ENDBRANCH   6  11
BRANCH   1  16
HETATM   16  C2  UNL     1      -1.605  -0.271  -0.419  1.00  0.00     0.158 C 
HETATM   17  C3  UNL     1      -1.814  -0.988  -1.744  1.00  0.00     0.045 C 
BRANCH  16  18
HETATM   18  O1  UNL     1      -2.113  -1.154   0.544  1.00  0.00    -0.386 OA
HETATM   19  C1  UNL     1      -3.264  -0.759   1.157  1.00  0.00     0.202 C 
ENDBRANCH  16  18
ENDBRANCH   1  16
TORSDOF 4
