REMARK  1 active torsions:
REMARK  status: ('A' for Active; 'I' for Inactive)
REMARK       I    between atoms: C2_2  and  N1_4 
REMARK    1  A    between atoms: N1_4  and  C3_6 
ROOT
HETATM    1  C3  UNL     1       0.071   0.083  -0.101  1.00  0.00     0.278 C 
HETATM    2  N2  UNL     1      -0.692   0.383   1.043  1.00  0.00    -0.365 N 
ATOM      3  H2  UNL     1      -0.532  -0.110   1.921  1.00  0.00     0.162 HD
HETATM    4  C4  UNL     1      -1.685   1.383   0.946  1.00  0.00     0.139 C 
HETATM    5  S1  UNL     1      -3.098   0.988  -0.107  1.00  0.00    -0.049 SA
HETATM    6  C5  UNL     1      -3.004  -0.759  -0.487  1.00  0.00     0.145 C 
HETATM    7  N3  UNL     1      -4.061  -1.486  -0.287  1.00  0.00    -0.380 N 
ATOM      8  H31 UNL     1      -4.007  -2.481  -0.503  1.00  0.00     0.158 HD
ATOM      9  H32 UNL     1      -4.892  -1.021   0.079  1.00  0.00     0.158 HD
HETATM   10  N4  UNL     1      -1.840  -1.410  -0.999  1.00  0.00    -0.304 N 
ATOM     11  H4  UNL     1      -2.016  -2.292  -1.480  1.00  0.00     0.171 HD
HETATM   12  C6  UNL     1      -0.470  -1.017  -0.942  1.00  0.00     0.266 C 
HETATM   13  O2  UNL     1       0.316  -1.672  -1.671  1.00  0.00    -0.269 OA
ENDROOT
BRANCH   1  14
HETATM   14  N1  UNL     1       1.461  -0.180   0.197  1.00  0.00    -0.332 N 
HETATM   15  C2  UNL     1       2.540   0.572  -0.266  1.00  0.00     0.215 C 
HETATM   16  C1  UNL     1       3.930   0.220   0.098  1.00  0.00     0.117 C 
HETATM   17  O1  UNL     1       2.349   1.572  -1.007  1.00  0.00    -0.274 OA
ATOM     18  H1  UNL     1       1.669  -0.980   0.794  1.00  0.00     0.165 HD
ENDBRANCH   1  14
TORSDOF 1
