REMARK  3 active torsions:
REMARK  status: ('A' for Active; 'I' for Inactive)
REMARK    1  A    between atoms: C2_2  and  N1_3 
REMARK    2  A    between atoms: N1_3  and  C3_5 
REMARK    3  A    between atoms: N2_7  and  O1_8 
ROOT
HETATM    1  C3  UNL     1      -0.314   0.213  -0.894  1.00  0.00     0.119 A 
HETATM    2  C4  UNL     1       0.487  -0.032  -1.989  1.00  0.00     0.170 A 
HETATM    3  N2  UNL     1       1.812  -0.247  -1.934  1.00  0.00    -0.242 N 
HETATM    4  C5  UNL     1       2.384  -0.217  -0.707  1.00  0.00     0.147 A 
HETATM    5  C6  UNL     1       1.633   0.023   0.422  1.00  0.00     0.025 A 
HETATM    6  C7  UNL     1       2.314   0.044   1.740  1.00  0.00     0.070 C 
HETATM    7  N3  UNL     1       0.328   0.229   0.313  1.00  0.00    -0.344 N 
ATOM      8  H3  UNL     1      -0.215   0.405   1.158  1.00  0.00     0.167 HD
ENDROOT
BRANCH   1   9
HETATM    9  N1  UNL     1      -1.551   0.402  -1.059  1.00  0.00    -0.376 N 
ATOM     10  H1  UNL     1      -1.882   0.358  -2.023  1.00  0.00     0.161 HD
BRANCH   9  11
HETATM   11  C2  UNL     1      -2.541   0.667  -0.079  1.00  0.00     0.116 C 
HETATM   12  C1  UNL     1      -2.932  -0.578   0.698  1.00  0.00     0.026 C 
ENDBRANCH   9  11
ENDBRANCH   1   9
BRANCH   3  13
HETATM   13  O1  UNL     1       2.566  -0.489  -3.074  1.00  0.00    -0.284 OA
ATOM     14  H1  UNL     1       3.503  -0.641  -3.035  1.00  0.00     0.245 HD
ENDBRANCH   3  13
TORSDOF 3
