REMARK  1 active torsions:
REMARK  status: ('A' for Active; 'I' for Inactive)
REMARK    1  A    between atoms: C3_4  and  C4_5 
ROOT
HETATM    1  C4  UNL     1       0.787  -0.108  -0.174  1.00  0.00     0.132 A 
HETATM    2  N1  UNL     1       1.565  -0.941  -0.832  1.00  0.00    -0.291 N 
ATOM      3  H1  UNL     1       1.134  -1.673  -1.397  1.00  0.00     0.187 HD
HETATM    4  N2  UNL     1       2.887  -0.865  -0.789  1.00  0.00    -0.251 N 
ATOM      5  H2  UNL     1       3.440  -1.540  -1.317  1.00  0.00     0.191 HD
HETATM    6  C5  UNL     1       3.518   0.075  -0.070  1.00  0.00     0.341 A 
HETATM    7  O2  UNL     1       4.781   0.191   0.002  1.00  0.00    -0.245 OA
HETATM    8  N3  UNL     1       2.746   0.941   0.612  1.00  0.00    -0.272 N 
ATOM      9  H3  UNL     1       3.199   1.667   1.167  1.00  0.00     0.173 HD
HETATM   10  C6  UNL     1       1.420   0.889   0.592  1.00  0.00     0.278 A 
HETATM   11  O3  UNL     1       0.745   1.725   1.254  1.00  0.00    -0.265 OA
ENDROOT
BRANCH   1  12
HETATM   12  C3  UNL     1      -0.669  -0.123  -0.125  1.00  0.00     0.072 A 
HETATM   13  C2  UNL     1      -1.437   0.932  -0.565  1.00  0.00     0.095 A 
HETATM   14  C1  UNL     1      -2.818   0.856  -0.485  1.00  0.00     0.260 A 
HETATM   15  O1  UNL     1      -3.544   1.795  -0.873  1.00  0.00    -0.267 OA
HETATM   16  N5  UNL     1      -3.445  -0.240   0.019  1.00  0.00    -0.264 N 
HETATM   17  N4  UNL     1      -2.697  -1.232   0.432  1.00  0.00    -0.263 N 
ATOM     18  H5  UNL     1      -4.462  -0.288   0.073  1.00  0.00     0.190 HD
HETATM   19  C7  UNL     1      -1.334  -1.214   0.377  1.00  0.00     0.272 A 
ATOM     20  H4  UNL     1      -3.156  -2.059   0.814  1.00  0.00     0.190 HD
HETATM   21  O4  UNL     1      -0.648  -2.190   0.782  1.00  0.00    -0.266 OA
ENDBRANCH   1  12
TORSDOF 1
