REMARK  5 active torsions:
REMARK  status: ('A' for Active; 'I' for Inactive)
REMARK    1  A    between atoms: C1_2  and  C2_4 
REMARK       I    between atoms: C2_4  and  N2_6 
REMARK    2  A    between atoms: N2_6  and  N3_8 
REMARK    3  A    between atoms: N3_8  and  C3_9 
REMARK    4  A    between atoms: C3_9  and  O3_10 
REMARK    5  A    between atoms: C3_9  and  C4_12 
ROOT
HETATM    1  C3  UNL     1      -0.588   0.912  -0.043  1.00  0.00     0.283 C 
ENDROOT
BRANCH   1   2
HETATM    2  N3  UNL     1       0.523   0.243   0.391  1.00  0.00    -0.293 NA
BRANCH   2   3
HETATM    3  N2  UNL     1       1.568  -0.376   0.798  1.00  0.00    -0.192 N 
HETATM    4  C2  UNL     1       2.863  -0.224   0.246  1.00  0.00     0.335 C 
HETATM    5  O2  UNL     1       3.114   0.547  -0.755  1.00  0.00    -0.260 OA
ATOM      6  H2  UNL     1       1.459  -1.026   1.577  1.00  0.00     0.205 HD
BRANCH   4   7
HETATM    7  C1  UNL     1       4.050  -0.930   0.810  1.00  0.00     0.325 C 
HETATM    8  N1  UNL     1       5.306  -0.195   0.695  1.00  0.00    -0.053 NA
HETATM    9  O1  UNL     1       3.919  -1.968   1.329  1.00  0.00    -0.266 OA
ENDBRANCH   4   7
ENDBRANCH   2   3
ENDBRANCH   1   2
BRANCH   1  10
HETATM   10  O3  UNL     1      -0.650   2.207  -0.209  1.00  0.00    -0.331 OA
ATOM     11  H3  UNL     1      -1.422   2.672  -0.510  1.00  0.00     0.220 HD
ENDBRANCH   1  10
BRANCH   1  12
HETATM   12  C4  UNL     1      -1.858   0.264  -0.363  1.00  0.00     0.176 A 
HETATM   13  N4  UNL     1      -1.836  -1.113  -0.423  1.00  0.00    -0.348 N 
HETATM   14  C5  UNL     1      -2.985  -1.753  -0.676  1.00  0.00     0.095 A 
ATOM     15  H4  UNL     1      -0.969  -1.630  -0.279  1.00  0.00     0.167 HD
HETATM   16  C6  UNL     1      -4.130  -1.074  -0.861  1.00  0.00     0.091 A 
HETATM   17  C7  UNL     1      -4.131   0.323  -0.791  1.00  0.00     0.248 A 
HETATM   18  O4  UNL     1      -5.189   0.915  -0.983  1.00  0.00    -0.268 OA
HETATM   19  N5  UNL     1      -2.950   0.967  -0.532  1.00  0.00    -0.305 N 
ATOM     20  H5  UNL     1      -2.921   1.985  -0.471  1.00  0.00     0.170 HD
ENDBRANCH   1  12
TORSDOF 5
