REMARK  2 active torsions:
REMARK  status: ('A' for Active; 'I' for Inactive)
REMARK    1  A    between atoms: C5_9  and  N3_10 
REMARK    2  A    between atoms: N3_10  and  N4_12 
ROOT
HETATM    1  N1  UNL     1      -2.539   3.568  -0.001  1.00  0.00    -0.190 NA
HETATM    2  C1  UNL     1      -2.380   2.404   0.004  1.00  0.00     0.118 C 
HETATM    3  C2  UNL     1      -2.200   0.978  -0.009  1.00  0.00     0.135 A 
HETATM    4  C3  UNL     1      -3.317   0.169  -0.015  1.00  0.00     0.116 A 
HETATM    5  C4  UNL     1      -3.122  -1.199  -0.028  1.00  0.00     0.262 A 
HETATM    6  O1  UNL     1      -4.138  -1.934  -0.033  1.00  0.00    -0.268 OA
HETATM    7  N2  UNL     1      -1.863  -1.700  -0.034  1.00  0.00    -0.155 N 
ATOM      8  H2  UNL     1      -1.736  -2.712  -0.043  1.00  0.00     0.187 HD
HETATM    9  C5  UNL     1      -0.776  -0.909  -0.028  1.00  0.00     0.702 A 
HETATM   10  N7  UNL     1      -0.965   0.416  -0.016  1.00  0.00    -0.180 N 
ATOM     11  H7  UNL     1      -0.149   1.027  -0.012  1.00  0.00     0.185 HD
ENDROOT
BRANCH   9  12
HETATM   12  N3  UNL     1       0.375  -1.455  -0.035  1.00  0.00    -0.113 N 
ATOM     13  H3  UNL     1       0.397  -2.475  -0.045  1.00  0.00     0.207 HD
BRANCH  12  14
HETATM   14  N4  UNL     1       1.595  -0.810  -0.031  1.00  0.00    -0.198 N 
HETATM   15  C6  UNL     1       2.192   0.052  -1.034  1.00  0.00     0.296 C 
HETATM   16  N5  UNL     1       2.890   1.026  -0.220  1.00  0.00    -0.322 N 
HETATM   17  C7  UNL     1       3.397   0.304   0.895  1.00  0.00     0.337 C 
ATOM     18  H5  UNL     1       2.996   2.023  -0.408  1.00  0.00     0.166 HD
HETATM   19  O2  UNL     1       4.373   0.622   1.632  1.00  0.00    -0.245 OA
HETATM   20  N6  UNL     1       2.559  -0.853   0.993  1.00  0.00    -0.233 N 
ATOM     21  H6  UNL     1       2.647  -1.590   1.693  1.00  0.00     0.193 HD
ENDBRANCH  12  14
ENDBRANCH   9  12
TORSDOF 2
