REMARK  5 active torsions:
REMARK  status: ('A' for Active; 'I' for Inactive)
REMARK    1  A    between atoms: S1_2  and  C2_3 
REMARK    2  A    between atoms: N2_6  and  C3_7 
REMARK    3  A    between atoms: C8_19  and  N6_20 
REMARK    4  A    between atoms: N8_26  and  C10_28 
REMARK    5  A    between atoms: C10_28  and  C11_29 
ROOT
HETATM    1  C3  UNL     1      -1.531   0.380   0.169  1.00  0.00     0.722 A 
HETATM    2  N3  UNL     1      -1.539  -0.823   0.772  1.00  0.00    -0.173 N 
ATOM      3  H3  UNL     1      -0.782  -1.055   1.415  1.00  0.00     0.186 HD
HETATM    4  C4  UNL     1      -2.510  -1.733   0.558  1.00  0.00     0.141 A 
HETATM    5  N4  UNL     1      -2.549  -2.935   1.139  1.00  0.00    -0.337 N 
ATOM      6  H4  UNL     1      -1.813  -3.211   1.789  1.00  0.00     0.168 HD
HETATM    7  C5  UNL     1      -3.552  -3.778   0.870  1.00  0.00     0.184 A 
HETATM    8  N5  UNL     1      -4.556  -3.466   0.016  1.00  0.00    -0.319 N 
ATOM      9  H5  UNL     1      -5.303  -4.136  -0.164  1.00  0.00     0.169 HD
HETATM   10  C6  UNL     1      -4.562  -2.269  -0.593  1.00  0.00     0.264 A 
HETATM   11  O1  UNL     1      -5.474  -1.947  -1.388  1.00  0.00    -0.267 OA
HETATM   12  C7  UNL     1      -3.529  -1.398  -0.317  1.00  0.00     0.120 A 
HETATM   13  C8  UNL     1      -3.539  -0.180  -0.940  1.00  0.00     0.134 A 
HETATM   14  N7  UNL     1      -2.532   0.674  -0.673  1.00  0.00    -0.173 N 
ATOM     15  H7  UNL     1      -2.531   1.585  -1.132  1.00  0.00     0.186 HD
ENDROOT
BRANCH   1  16
HETATM   16  N2  UNL     1      -0.476   1.327   0.422  1.00  0.00     0.092 N 
HETATM   17  N1  UNL     1      -0.624   2.543   0.921  1.00  0.00    -0.243 N 
HETATM   18  C2  UNL     1       0.583   3.133   1.014  1.00  0.00     0.175 A 
ATOM     19  H1  UNL     1      -1.511   2.967   1.192  1.00  0.00     0.191 HD
HETATM   20  N9  UNL     1       1.465   2.225   0.552  1.00  0.00    -0.167 N 
HETATM   21  C9  UNL     1       0.813   1.106   0.184  1.00  0.00     0.716 A 
ATOM     22  H9  UNL     1       2.474   2.364   0.490  1.00  0.00     0.186 HD
HETATM   23  N8  UNL     1       1.289   0.004  -0.308  1.00  0.00    -0.223 N 
ATOM     24  H8  UNL     1       0.677  -0.776  -0.546  1.00  0.00     0.177 HD
BRANCH  18  25
HETATM   25  S1  UNL     1       0.966   4.772   1.619  1.00  0.00    -0.097 SA
HETATM   26  C1  UNL     1       0.915   5.967   0.247  1.00  0.00     0.099 C 
ENDBRANCH  18  25
BRANCH  23  27
HETATM   27  C10 UNL     1       2.709  -0.077  -0.505  1.00  0.00     0.142 C 
BRANCH  27  28
HETATM   28  C11 UNL     1       3.196  -1.504  -0.638  1.00  0.00    -0.004 C 
HETATM   29  C12 UNL     1       2.882  -2.320   0.596  1.00  0.00     0.011 C 
HETATM   30  C13 UNL     1       4.702  -1.451  -0.793  1.00  0.00     0.011 C 
ENDBRANCH  27  28
ENDBRANCH  23  27
ENDBRANCH   1  16
BRANCH  13  31
HETATM   31  N6  UNL     1      -4.500   0.121  -1.758  1.00  0.00    -0.384 N 
ATOM     32  H62 UNL     1      -5.262  -0.526  -1.960  1.00  0.00     0.157 HD
ATOM     33  H61 UNL     1      -4.507   1.029  -2.222  1.00  0.00     0.157 HD
ENDBRANCH  13  31
TORSDOF 5
