REMARK  6 active torsions:
REMARK  status: ('A' for Active; 'I' for Inactive)
REMARK    1  A    between atoms: O1_2  and  C2_3 
REMARK    2  A    between atoms: C7_12  and  C8_13 
REMARK    3  A    between atoms: C8_13  and  N3_14 
REMARK    4  A    between atoms: N3_14  and  C9_16 
REMARK    5  A    between atoms: C10_19  and  C11_20 
REMARK    6  A    between atoms: C14_25  and  N6_26 
ROOT
HETATM    1  N3  UNL     1      -0.750   1.459  -0.290  1.00  0.00    -0.221 N 
ATOM      2  H3  UNL     1      -1.023   1.855  -1.189  1.00  0.00     0.178 HD
ENDROOT
BRANCH   1   3
HETATM    3  C8  UNL     1       0.572   1.761   0.182  1.00  0.00     0.180 C 
BRANCH   3   4
HETATM    4  C7  UNL     1       1.507   0.709  -0.348  1.00  0.00     0.005 A 
HETATM    5  C6  UNL     1       1.106  -0.325  -1.142  1.00  0.00     0.104 A 
HETATM    6  N2  UNL     1       2.009  -1.235  -1.583  1.00  0.00    -0.326 N 
HETATM    7  C4  UNL     1       3.312  -1.159  -1.265  1.00  0.00     0.276 A 
HETATM    8  C5  UNL     1       1.535  -2.327  -2.431  1.00  0.00     0.159 C 
HETATM    9  C3  UNL     1       3.762  -0.131  -0.465  1.00  0.00     0.132 A 
HETATM   10  O2  UNL     1       4.094  -2.045  -1.714  1.00  0.00    -0.265 OA
HETATM   11  N1  UNL     1       5.008   0.173  -0.001  1.00  0.00    -0.316 N 
HETATM   12  C15 UNL     1       2.854   0.797  -0.012  1.00  0.00     0.077 A 
HETATM   13  C2  UNL     1       4.869   1.290   0.739  1.00  0.00     0.224 A 
ATOM     14  H1  UNL     1       5.871  -0.341  -0.178  1.00  0.00     0.169 HD
HETATM   15  N8  UNL     1       3.567   1.669   0.734  1.00  0.00    -0.319 N 
ATOM     16  H8  UNL     1       3.186   2.483   1.217  1.00  0.00     0.169 HD
BRANCH  13  17
HETATM   17  O1  UNL     1       5.859   2.002   1.431  1.00  0.00    -0.327 OA
HETATM   18  C1  UNL     1       7.193   1.502   1.360  1.00  0.00     0.213 C 
ENDBRANCH  13  17
ENDBRANCH   3   4
ENDBRANCH   1   3
BRANCH   1  19
HETATM   19  C9  UNL     1      -1.614   0.740   0.313  1.00  0.00     0.694 A 
HETATM   20  N4  UNL     1      -2.836   0.537  -0.256  1.00  0.00    -0.179 N 
HETATM   21  C10 UNL     1      -3.739  -0.219   0.375  1.00  0.00     0.117 A 
ATOM     22  H4  UNL     1      -3.059   0.959  -1.157  1.00  0.00     0.185 HD
HETATM   23  N5  UNL     1      -3.419  -0.762   1.560  1.00  0.00    -0.179 N 
HETATM   24  C14 UNL     1      -2.216  -0.564   2.122  1.00  0.00     0.691 A 
ATOM     25  H5  UNL     1      -4.106  -1.339   2.045  1.00  0.00     0.185 HD
HETATM   26  N7  UNL     1      -1.292   0.198   1.496  1.00  0.00    -0.023 N 
ATOM     27  H7  UNL     1      -0.374   0.356   1.912  1.00  0.00     0.203 HD
BRANCH  21  28
HETATM   28  C11 UNL     1      -5.090  -0.486  -0.178  1.00  0.00     0.046 C 
HETATM   29  C12 UNL     1      -5.829   0.802  -0.482  1.00  0.00     0.017 C 
HETATM   30  C13 UNL     1      -4.872  -1.271  -1.473  1.00  0.00     0.017 C 
ENDBRANCH  21  28
BRANCH  24  31
HETATM   31  N6  UNL     1      -1.903  -1.082   3.258  1.00  0.00    -0.234 N 
ATOM     32  H62 UNL     1      -2.600  -1.657   3.730  1.00  0.00     0.174 HD
ATOM     33  H61 UNL     1      -0.989  -0.932   3.685  1.00  0.00     0.174 HD
ENDBRANCH  24  31
ENDBRANCH   1  19
TORSDOF 6
