REMARK  7 active torsions:
REMARK  status: ('A' for Active; 'I' for Inactive)
REMARK    1  A    between atoms: C2_3  and  C3_4 
REMARK    2  A    between atoms: C5_8  and  N3_9 
REMARK    3  A    between atoms: C7_17  and  N6_18 
REMARK    4  A    between atoms: N6_18  and  C8_20 
REMARK    5  A    between atoms: C8_20  and  C9_21 
REMARK    6  A    between atoms: C9_21  and  N7_22 
REMARK    7  A    between atoms: C11_29  and  N9_30 
ROOT
HETATM    1  C1  UNL     1       0.242  -2.955   0.492  1.00  0.00     0.159 C 
HETATM    2  N1  UNL     1      -0.262  -1.671   0.073  1.00  0.00    -0.321 N 
HETATM    3  C2  UNL     1      -1.529  -1.408  -0.173  1.00  0.00     0.123 A 
HETATM    4  N5  UNL     1      -1.890  -0.102  -0.496  1.00  0.00    -0.326 N 
ATOM      5  H5  UNL     1      -2.871   0.101  -0.686  1.00  0.00     0.169 HD
HETATM    6  C7  UNL     1      -1.015   0.885  -0.567  1.00  0.00     0.134 A 
HETATM    7  C10 UNL     1       0.311   0.583  -0.307  1.00  0.00     0.137 A 
HETATM    8  N8  UNL     1       1.416   1.357  -0.301  1.00  0.00    -0.184 N 
ATOM      9  H8  UNL     1       1.451   2.356  -0.502  1.00  0.00     0.184 HD
HETATM   10  C11 UNL     1       2.456   0.582   0.015  1.00  0.00     0.682 A 
HETATM   11  N10 UNL     1       2.042  -0.694   0.215  1.00  0.00    -0.174 N 
ATOM     12  H10 UNL     1       2.621  -1.495   0.466  1.00  0.00     0.186 HD
HETATM   13  C16 UNL     1       0.718  -0.687   0.016  1.00  0.00     0.155 A 
ENDROOT
BRANCH   3  14
HETATM   14  C3  UNL     1      -2.610  -2.378  -0.092  1.00  0.00     0.040 A 
HETATM   15  C4  UNL     1      -2.568  -3.723  -0.197  1.00  0.00     0.122 A 
HETATM   16  N2  UNL     1      -3.614  -4.549  -0.037  1.00  0.00    -0.201 N 
HETATM   17  C5  UNL     1      -4.808  -4.026   0.249  1.00  0.00     0.675 A 
ATOM     18  H2  UNL     1      -3.498  -5.558  -0.132  1.00  0.00     0.183 HD
HETATM   19  N4  UNL     1      -4.927  -2.675   0.368  1.00  0.00    -0.201 N 
HETATM   20  C6  UNL     1      -3.898  -1.856   0.213  1.00  0.00     0.122 A 
ATOM     21  H4  UNL     1      -5.842  -2.279   0.584  1.00  0.00     0.183 HD
BRANCH  17  22
HETATM   22  N3  UNL     1      -5.822  -4.818   0.404  1.00  0.00    -0.234 N 
ATOM     23  H32 UNL     1      -5.733  -5.830   0.315  1.00  0.00     0.174 HD
ATOM     24  H31 UNL     1      -6.735  -4.418   0.623  1.00  0.00     0.174 HD
ENDBRANCH  17  22
ENDBRANCH   3  14
BRANCH   6  25
HETATM   25  N6  UNL     1      -1.283   2.098  -0.862  1.00  0.00    -0.373 N 
ATOM     26  H6  UNL     1      -0.487   2.736  -0.874  1.00  0.00     0.161 HD
BRANCH  25  27
HETATM   27  C8  UNL     1      -2.544   2.679  -1.176  1.00  0.00     0.148 C 
BRANCH  27  28
HETATM   28  C9  UNL     1      -2.531   4.086  -0.556  1.00  0.00     0.249 C 
BRANCH  28  29
HETATM   29  N7  UNL     1      -3.786   4.772  -0.815  1.00  0.00    -0.078 N 
ATOM     30  H73 UNL     1      -4.004   4.800  -1.811  1.00  0.00     0.274 HD
ATOM     31  H72 UNL     1      -4.588   4.227  -0.498  1.00  0.00     0.274 HD
ATOM     32  H71 UNL     1      -3.777   5.705  -0.404  1.00  0.00     0.274 HD
ENDBRANCH  28  29
ENDBRANCH  27  28
ENDBRANCH  25  27
ENDBRANCH   6  25
BRANCH  10  33
HETATM   33  N9  UNL     1       3.791   0.997   0.134  1.00  0.00    -0.218 N 
HETATM   34  C12 UNL     1       4.482   1.386   1.337  1.00  0.00     0.141 C 
HETATM   35  C13 UNL     1       5.834   0.699   1.102  1.00  0.00     0.022 C 
HETATM   36  C14 UNL     1       6.099   0.984  -0.348  1.00  0.00     0.022 C 
HETATM   37  C15 UNL     1       4.732   1.101  -0.972  1.00  0.00     0.141 C 
ENDBRANCH  10  33
TORSDOF 7
