REMARK  3 active torsions:
REMARK  status: ('A' for Active; 'I' for Inactive)
REMARK    1  A    between atoms: C1_2  and  C2_4 
REMARK    2  A    between atoms: C4_12  and  N5_13 
REMARK    3  A    between atoms: N5_13  and  C5_15 
ROOT
HETATM    1  C2  UNL     1      -1.948  -0.281   0.184  1.00  0.00     0.157 A 
HETATM    2  N2  UNL     1      -2.963   0.487   0.040  1.00  0.00    -0.296 N 
ATOM      3  H2  UNL     1      -3.724   0.419   0.716  1.00  0.00     0.187 HD
HETATM    4  N3  UNL     1      -3.076   1.401  -0.986  1.00  0.00    -0.318 N 
ATOM      5  H3  UNL     1      -3.911   1.984  -1.044  1.00  0.00     0.182 HD
HETATM    6  C3  UNL     1      -2.046   1.552  -1.975  1.00  0.00     0.262 A 
HETATM    7  N4  UNL     1      -0.927   0.674  -1.778  1.00  0.00    -0.357 N 
ATOM      8  H4  UNL     1      -0.146   0.711  -2.433  1.00  0.00     0.162 HD
HETATM    9  C4  UNL     1      -0.882  -0.157  -0.800  1.00  0.00     0.138 A 
ENDROOT
BRANCH   9  10
HETATM   10  N5  UNL     1       0.260  -1.020  -0.640  1.00  0.00    -0.327 N 
ATOM     11  H5  UNL     1       0.155  -2.019  -0.819  1.00  0.00     0.169 HD
BRANCH  10  12
HETATM   12  C5  UNL     1       1.404  -0.569  -0.279  1.00  0.00     0.111 A 
HETATM   13  C6  UNL     1       1.683   0.743  -0.006  1.00  0.00     0.066 A 
HETATM   14  C7  UNL     1       2.952   1.170   0.385  1.00  0.00     0.096 A 
HETATM   15  N6  UNL     1       3.894   0.210   0.479  1.00  0.00    -0.319 N 
HETATM   16  C8  UNL     1       3.641  -1.084   0.215  1.00  0.00     0.325 A 
ATOM     17  H6  UNL     1       4.837   0.476   0.762  1.00  0.00     0.170 HD
HETATM   18  O2  UNL     1       4.561  -1.944   0.319  1.00  0.00    -0.247 OA
HETATM   19  N7  UNL     1       2.405  -1.461  -0.159  1.00  0.00    -0.294 N 
ATOM     20  H7  UNL     1       2.222  -2.445  -0.356  1.00  0.00     0.172 HD
ENDBRANCH  10  12
ENDBRANCH   9  10
BRANCH   1  21
HETATM   21  C1  UNL     1      -1.855  -1.248   1.289  1.00  0.00     0.286 C 
HETATM   22  N1  UNL     1      -2.878  -1.385   2.255  1.00  0.00    -0.056 NA
HETATM   23  O1  UNL     1      -0.827  -1.967   1.363  1.00  0.00    -0.269 OA
ENDBRANCH   1  21
TORSDOF 3
