REMARK  3 active torsions:
REMARK  status: ('A' for Active; 'I' for Inactive)
REMARK       I    between atoms: C1_4  and  N3_6 
REMARK    1  A    between atoms: N3_6  and  C2_8 
REMARK    2  A    between atoms: N5_11  and  C3_12 
REMARK    3  A    between atoms: N6_20  and  N7_21 
ROOT
HETATM    1  C2  UNL     1       1.539   0.133   0.374  1.00  0.00     0.725 A 
HETATM    2  N4  UNL     1       0.293   0.263   0.868  1.00  0.00    -0.119 N 
ATOM      3  H4  UNL     1       0.066   0.489   1.836  1.00  0.00     0.206 HD
HETATM    4  N5  UNL     1      -0.588   0.054  -0.087  1.00  0.00    -0.189 N 
HETATM    5  C9  UNL     1       0.117  -0.212  -1.199  1.00  0.00     0.382 A 
HETATM    6  O1  UNL     1      -0.351  -0.472  -2.356  1.00  0.00    -0.242 OA
HETATM    7  N6  UNL     1       1.446  -0.169  -0.943  1.00  0.00    -0.035 N 
ENDROOT
BRANCH   1   8
HETATM    8  N3  UNL     1       2.625   0.278   1.060  1.00  0.00    -0.161 N 
HETATM    9  C1  UNL     1       3.924   0.144   0.550  1.00  0.00     0.200 C 
HETATM   10  N1  UNL     1       4.592   1.201   0.169  1.00  0.00    -0.373 N 
HETATM   11  N2  UNL     1       4.569  -1.115   0.425  1.00  0.00    -0.063 NA
ATOM     12  H12 UNL     1       5.537   1.104  -0.202  1.00  0.00     0.158 HD
ATOM     13  H11 UNL     1       4.129   2.105   0.259  1.00  0.00     0.158 HD
ATOM     14  H3  UNL     1       2.529   0.508   2.049  1.00  0.00     0.187 HD
ENDBRANCH   1   8
BRANCH   7  15
HETATM   15  N7  UNL     1       2.493  -0.388  -1.834  1.00  0.00    -0.320 N 
ATOM     16  H72 UNL     1       3.494  -0.356  -1.641  1.00  0.00     0.178 HD
ATOM     17  H71 UNL     1       2.423  -0.615  -2.826  1.00  0.00     0.178 HD
ENDBRANCH   7  15
BRANCH   4  18
HETATM   18  C3  UNL     1      -2.019   0.091  -0.002  1.00  0.00     0.062 A 
HETATM   19  C4  UNL     1      -2.705  -0.390   1.093  1.00  0.00     0.032 A 
HETATM   20  C5  UNL     1      -4.102  -0.323   1.110  1.00  0.00     0.002 A 
HETATM   21  C6  UNL     1      -4.814   0.209   0.068  1.00  0.00     0.000 A 
HETATM   22  C7  UNL     1      -4.141   0.692  -1.029  1.00  0.00     0.002 A 
HETATM   23  C8  UNL     1      -2.770   0.618  -1.030  1.00  0.00     0.032 A 
ENDBRANCH   4  18
TORSDOF 3
