REMARK  3 active torsions:
REMARK  status: ('A' for Active; 'I' for Inactive)
REMARK    1  A    between atoms: N1_1  and  C1_4 
REMARK    2  A    between atoms: N4_12  and  C5_14 
REMARK    3  A    between atoms: N6_21  and  O3_22 
ROOT
HETATM    1  C1  UNL     1      -2.887  -0.213  -0.085  1.00  0.00     0.704 A 
HETATM    2  N2  UNL     1      -2.443   0.586   0.904  1.00  0.00    -0.198 N 
ATOM      3  H2  UNL     1      -3.131   1.030   1.512  1.00  0.00     0.183 HD
HETATM    4  C2  UNL     1      -1.154   0.827   1.129  1.00  0.00     0.139 A 
HETATM    5  C3  UNL     1      -0.202   0.241   0.323  1.00  0.00     0.097 A 
HETATM    6  N3  UNL     1       1.123   0.464   0.524  1.00  0.00    -0.334 N 
ATOM      7  H3  UNL     1       1.419   1.076   1.285  1.00  0.00     0.168 HD
HETATM    8  C4  UNL     1       2.050  -0.109  -0.264  1.00  0.00     0.177 A 
HETATM    9  N4  UNL     1       3.309   0.067  -0.120  1.00  0.00    -0.316 N 
ATOM     10  H4  UNL     1       3.923  -0.417  -0.775  1.00  0.00     0.170 HD
HETATM   11  C6  UNL     1       1.593  -0.927  -1.277  1.00  0.00     0.291 A 
HETATM   12  O2  UNL     1       2.447  -1.470  -2.022  1.00  0.00    -0.264 OA
HETATM   13  N5  UNL     1       0.280  -1.156  -1.485  1.00  0.00    -0.302 N 
ATOM     14  H5  UNL     1      -0.014  -1.769  -2.246  1.00  0.00     0.171 HD
HETATM   15  C7  UNL     1      -0.644  -0.580  -0.694  1.00  0.00     0.182 A 
HETATM   16  N6  UNL     1      -1.969  -0.793  -0.880  1.00  0.00    -0.033 N 
ENDROOT
BRANCH   9  17
HETATM   17  C5  UNL     1       3.920   0.862   0.853  1.00  0.00     0.354 C 
HETATM   18  O1  UNL     1       5.137   1.151   0.713  1.00  0.00    -0.283 OA
ENDBRANCH   9  17
BRANCH  16  19
HETATM   19  O3  UNL     1      -2.408  -1.618  -1.903  1.00  0.00    -0.268 OA
ATOM     20  H3  UNL     1      -1.760  -2.027  -2.464  1.00  0.00     0.246 HD
ENDBRANCH  16  19
BRANCH   1  21
HETATM   21  N1  UNL     1      -4.162  -0.430  -0.281  1.00  0.00    -0.232 N 
ATOM     22  H12 UNL     1      -4.858   0.010   0.322  1.00  0.00     0.174 HD
ATOM     23  H11 UNL     1      -4.498  -1.035  -1.030  1.00  0.00     0.174 HD
ENDBRANCH   1  21
TORSDOF 3
