REMARK  7 active torsions:
REMARK  status: ('A' for Active; 'I' for Inactive)
REMARK    1  A    between atoms: N1_1  and  C1_4 
REMARK    2  A    between atoms: C2_7  and  N3_8 
REMARK    3  A    between atoms: N3_8  and  C3_10 
REMARK    4  A    between atoms: C6_19  and  C7_20 
REMARK    5  A    between atoms: C7_20  and  N7_21 
REMARK    6  A    between atoms: C8_23  and  C9_24 
REMARK    7  A    between atoms: C10_25  and  C11_26 
ROOT
HETATM    1  C1  UNL     1      -3.999   1.992  -1.721  1.00  0.00     0.679 A 
HETATM    2  N2  UNL     1      -4.309   1.104  -0.760  1.00  0.00    -0.175 N 
ATOM      3  H2  UNL     1      -5.243   1.115  -0.350  1.00  0.00     0.186 HD
HETATM    4  C2  UNL     1      -3.408   0.201  -0.330  1.00  0.00     0.149 A 
HETATM    5  C5  UNL     1      -2.122   0.146  -0.859  1.00  0.00     0.122 A 
HETATM    6  N6  UNL     1      -1.219  -0.758  -0.431  1.00  0.00    -0.351 N 
ATOM      7  H6  UNL     1      -1.475  -1.423   0.299  1.00  0.00     0.166 HD
HETATM    8  C6  UNL     1       0.021  -0.790  -0.960  1.00  0.00     0.043 A 
HETATM    9  C14 UNL     1       0.308   0.134  -1.944  1.00  0.00     0.116 A 
HETATM   10  N8  UNL     1      -0.590   1.036  -2.374  1.00  0.00    -0.348 N 
ATOM     11  H8  UNL     1      -0.333   1.700  -3.104  1.00  0.00     0.167 HD
HETATM   12  C15 UNL     1      -1.831   1.068  -1.844  1.00  0.00     0.151 A 
HETATM   13  N9  UNL     1      -2.761   1.956  -2.246  1.00  0.00    -0.174 N 
ATOM     14  H9  UNL     1      -2.517   2.626  -2.976  1.00  0.00     0.186 HD
ENDROOT
BRANCH   8  15
HETATM   15  C7  UNL     1       1.047  -1.778  -0.509  1.00  0.00     0.177 C 
BRANCH  15  16
HETATM   16  N7  UNL     1       2.247  -1.560  -1.252  1.00  0.00    -0.393 N 
HETATM   17  C8  UNL     1       3.265  -0.935  -0.747  1.00  0.00     0.083 C 
ATOM     18  H7  UNL     1       2.305  -1.907  -2.210  1.00  0.00     0.159 HD
BRANCH  17  19
HETATM   19  C9  UNL     1       4.487  -0.701  -1.473  1.00  0.00     0.015 C 
HETATM   20  C10 UNL     1       5.481  -0.062  -0.906  1.00  0.00     0.006 C 
BRANCH  20  21
HETATM   21  C11 UNL     1       5.370   0.427   0.475  1.00  0.00     0.146 C 
HETATM   22  C12 UNL     1       5.584  -0.583   1.565  1.00  0.00     0.062 C 
HETATM   23  C13 UNL     1       6.179   0.654   2.229  1.00  0.00     0.171 C 
HETATM   24  O2  UNL     1       6.489   1.113   0.950  1.00  0.00    -0.382 OA
ENDBRANCH  20  21
ENDBRANCH  17  19
ENDBRANCH  15  16
ENDBRANCH   8  15
BRANCH   4  25
HETATM   25  N3  UNL     1      -3.673  -0.661   0.586  1.00  0.00    -0.346 N 
ATOM     26  H3  UNL     1      -2.968  -1.333   0.889  1.00  0.00     0.163 HD
BRANCH  25  27
HETATM   27  C3  UNL     1      -5.012  -0.657   1.186  1.00  0.00     0.292 C 
HETATM   28  N4  UNL     1      -5.214   0.328   2.208  1.00  0.00    -0.103 NA
HETATM   29  N5  UNL     1      -5.964  -0.635   2.924  1.00  0.00    -0.269 N 
HETATM   30  C4  UNL     1      -5.154  -1.625   2.304  1.00  0.00     0.273 C 
ATOM     31  H5  UNL     1      -6.739  -0.624   3.588  1.00  0.00     0.185 HD
HETATM   32  O1  UNL     1      -4.796  -2.765   2.650  1.00  0.00    -0.268 OA
ENDBRANCH  25  27
ENDBRANCH   4  25
BRANCH   1  33
HETATM   33  N1  UNL     1      -4.900   2.844  -2.103  1.00  0.00    -0.234 N 
ATOM     34  H12 UNL     1      -5.839   2.871  -1.705  1.00  0.00     0.174 HD
ATOM     35  H11 UNL     1      -4.665   3.518  -2.832  1.00  0.00     0.174 HD
ENDBRANCH   1  33
TORSDOF 7
