REMARK  5 active torsions:
REMARK  status: ('A' for Active; 'I' for Inactive)
REMARK    1  A    between atoms: N1_1  and  C1_4 
REMARK    2  A    between atoms: N3_8  and  C3_10 
REMARK    3  A    between atoms: C5_17  and  C6_18 
REMARK    4  A    between atoms: C7_19  and  C8_20 
REMARK    5  A    between atoms: C8_20  and  C9_21 
ROOT
HETATM    1  C1  UNL     1      -4.850  -2.738  -0.164  1.00  0.00     0.678 A 
HETATM    2  N2  UNL     1      -5.131  -1.418  -0.146  1.00  0.00    -0.175 N 
ATOM      3  H2  UNL     1      -6.101  -1.120  -0.045  1.00  0.00     0.186 HD
HETATM    4  C2  UNL     1      -4.167  -0.480  -0.258  1.00  0.00     0.149 A 
HETATM    5  N3  UNL     1      -4.486   0.733  -0.236  1.00  0.00    -0.332 N 
ATOM      6  H3  UNL     1      -5.487   0.898  -0.131  1.00  0.00     0.165 HD
HETATM    7  C4  UNL     1      -2.873  -0.931  -0.393  1.00  0.00     0.107 A 
HETATM    8  N6  UNL     1      -1.874  -0.075  -0.508  1.00  0.00    -0.338 N 
ATOM      9  H6  UNL     1      -2.078   0.924  -0.495  1.00  0.00     0.167 HD
HETATM   10  C5  UNL     1      -0.599  -0.474  -0.641  1.00  0.00     0.105 A 
HETATM   11  N7  UNL     1      -0.325  -1.788  -0.658  1.00  0.00    -0.350 N 
ATOM     12  H7  UNL     1       0.645  -2.088  -0.759  1.00  0.00     0.166 HD
HETATM   13  C13 UNL     1      -1.282  -2.720  -0.547  1.00  0.00     0.122 A 
HETATM   14  C14 UNL     1      -2.584  -2.301  -0.411  1.00  0.00     0.095 A 
HETATM   15  N8  UNL     1      -3.586  -3.172  -0.295  1.00  0.00    -0.188 N 
ATOM     16  H8  UNL     1      -3.392  -4.173  -0.306  1.00  0.00     0.184 HD
ENDROOT
BRANCH  10  17
HETATM   17  C6  UNL     1       0.484   0.525  -0.767  1.00  0.00     0.044 C 
HETATM   18  C7  UNL     1       1.703   0.097  -0.893  1.00  0.00    -0.022 C 
BRANCH  18  19
HETATM   19  C8  UNL     1       2.826   1.082  -1.023  1.00  0.00     0.034 C 
BRANCH  19  20
HETATM   20  C9  UNL     1       3.807   0.875   0.136  1.00  0.00     0.022 C 
HETATM   21  C10 UNL     1       4.938   1.836   0.042  1.00  0.00     0.174 C 
HETATM   22  O2  UNL     1       6.156   1.258  -0.265  1.00  0.00    -0.381 OA
HETATM   23  C11 UNL     1       6.763   0.667   0.848  1.00  0.00     0.241 C 
HETATM   24  S1  UNL     1       5.616  -0.654   1.379  1.00  0.00    -0.143 SA
HETATM   25  C12 UNL     1       4.233  -0.573   0.201  1.00  0.00     0.083 C 
ENDBRANCH  19  20
ENDBRANCH  18  19
ENDBRANCH  10  17
BRANCH   5  26
HETATM   26  C3  UNL     1      -3.714   1.915  -0.330  1.00  0.00     0.364 C 
HETATM   27  N4  UNL     1      -3.194   2.490   0.872  1.00  0.00    -0.065 NA
HETATM   28  N5  UNL     1      -4.497   2.969   1.054  1.00  0.00     0.019 NA
HETATM   29  O1  UNL     1      -4.593   3.029  -0.294  1.00  0.00    -0.225 OA
ENDBRANCH   5  26
BRANCH   1  30
HETATM   30  N1  UNL     1      -5.778  -3.634  -0.056  1.00  0.00    -0.234 N 
ATOM     31  H12 UNL     1      -6.738  -3.304   0.044  1.00  0.00     0.174 HD
ATOM     32  H11 UNL     1      -5.566  -4.632  -0.070  1.00  0.00     0.174 HD
ENDBRANCH   1  30
TORSDOF 5
