REMARK  5 active torsions:
REMARK  status: ('A' for Active; 'I' for Inactive)
REMARK    1  A    between atoms: N1_1  and  C1_4 
REMARK    2  A    between atoms: C3_10  and  N4_11 
REMARK    3  A    between atoms: N5_14  and  C6_15 
REMARK    4  A    between atoms: C6_15  and  C7_16 
REMARK    5  A    between atoms: C6_15  and  C10_23 
ROOT
HETATM    1  N4  UNL     1       2.096  -0.543  -0.476  1.00  0.00    -0.362 N 
HETATM    2  C4  UNL     1       1.310   0.431  -1.182  1.00  0.00     0.154 C 
HETATM    3  C5  UNL     1       0.359   1.046  -0.201  1.00  0.00     0.293 C 
HETATM    4  N5  UNL     1      -0.521   0.087   0.419  1.00  0.00     0.107 N 
HETATM    5  C15 UNL     1       0.123  -1.070   0.913  1.00  0.00     0.293 C 
HETATM    6  C16 UNL     1       1.246  -1.628   0.060  1.00  0.00     0.154 C 
ENDROOT
BRANCH   4   7
HETATM    7  C6  UNL     1      -1.697  -0.174  -0.376  1.00  0.00     0.322 C 
BRANCH   7   8
HETATM    8  C7  UNL     1      -2.456   1.086  -0.548  1.00  0.00     0.111 C 
HETATM    9  N6  UNL     1      -2.787   1.578  -1.697  1.00  0.00    -0.376 N 
HETATM   10  C8  UNL     1      -3.516   2.808  -1.524  1.00  0.00     0.140 C 
ATOM     11  H6  UNL     1      -2.564   1.155  -2.598  1.00  0.00     0.160 HD
HETATM   12  C9  UNL     1      -3.955   2.750  -0.083  1.00  0.00     0.140 C 
HETATM   13  N7  UNL     1      -2.914   1.913   0.499  1.00  0.00    -0.376 N 
ATOM     14  H7  UNL     1      -2.584   1.923   1.464  1.00  0.00     0.160 HD
ENDBRANCH   7   8
BRANCH   7  15
HETATM   15  C10 UNL     1      -2.587  -1.131   0.327  1.00  0.00    -0.015 A 
HETATM   16  C11 UNL     1      -3.115  -2.206  -0.396  1.00  0.00     0.026 A 
HETATM   17  C12 UNL     1      -3.940  -3.110   0.177  1.00  0.00     0.088 A 
HETATM   18  N8  UNL     1      -4.283  -3.012   1.453  1.00  0.00    -0.375 N 
HETATM   19  C13 UNL     1      -3.784  -1.978   2.177  1.00  0.00     0.088 A 
ATOM     20  H8  UNL     1      -4.907  -3.697   1.881  1.00  0.00     0.164 HD
HETATM   21  C14 UNL     1      -2.950  -1.044   1.641  1.00  0.00     0.026 A 
ENDBRANCH   7  15
ENDBRANCH   4   7
BRANCH   1  22
HETATM   22  C3  UNL     1       3.463  -0.577  -0.220  1.00  0.00     0.132 A 
HETATM   23  N3  UNL     1       4.127  -1.742   0.077  1.00  0.00    -0.337 N 
HETATM   24  C2  UNL     1       5.439  -1.771   0.363  1.00  0.00     0.183 A 
ATOM     25  H3  UNL     1       3.604  -2.618   0.081  1.00  0.00     0.168 HD
HETATM   26  N2  UNL     1       6.199  -0.677   0.379  1.00  0.00    -0.337 N 
HETATM   27  C1  UNL     1       5.623   0.492   0.100  1.00  0.00     0.128 A 
ATOM     28  H2  UNL     1       7.194  -0.732   0.599  1.00  0.00     0.168 HD
HETATM   29  C17 UNL     1       4.249   0.535  -0.200  1.00  0.00     0.133 A 
HETATM   30  N9  UNL     1       3.742   1.823  -0.458  1.00  0.00    -0.094 NA
BRANCH  27  31
HETATM   31  N1  UNL     1       6.345   1.574   0.112  1.00  0.00    -0.384 N 
ATOM     32  H12 UNL     1       7.341   1.543   0.329  1.00  0.00     0.157 HD
ATOM     33  H11 UNL     1       5.904   2.469  -0.102  1.00  0.00     0.157 HD
ENDBRANCH  27  31
ENDBRANCH   1  22
TORSDOF 5
