REMARK  15 active torsions:
REMARK  status: ('A' for Active; 'I' for Inactive)
REMARK    1  A    between atoms: C3_5  and  N2_6 
REMARK    2  A    between atoms: C5_8  and  N3_9 
REMARK    3  A    between atoms: N3_9  and  C6_11 
REMARK    4  A    between atoms: C6_11  and  C7_12 
REMARK    5  A    between atoms: C7_12  and  C8_13 
REMARK    6  A    between atoms: C8_13  and  C9_18 
REMARK    7  A    between atoms: N4_14  and  O2_16 
REMARK    8  A    between atoms: N8_30  and  C13_31 
REMARK    9  A    between atoms: C15_34  and  C16_35 
REMARK   10  A    between atoms: C16_35  and  O7_36 
REMARK   11  A    between atoms: C16_35  and  C17_38 
REMARK   12  A    between atoms: C17_38  and  O8_39 
REMARK   13  A    between atoms: C17_38  and  C18_41 
REMARK   14  A    between atoms: C18_41  and  O9_42 
REMARK   15  A    between atoms: C19_49  and  O10_50 
ROOT
HETATM    1  N1  UNL     1      -2.707   1.859   3.880  1.00  0.00    -0.194 NA
HETATM    2  C1  UNL     1      -1.885   1.218   3.365  1.00  0.00     0.096 C 
HETATM    3  C2  UNL     1      -0.842   0.437   2.709  1.00  0.00     0.286 C 
HETATM    4  O1  UNL     1      -0.771   0.920   1.376  1.00  0.00    -0.296 OA
HETATM    5  C3  UNL     1      -0.210  -0.218   0.754  1.00  0.00     0.245 C 
HETATM    6  N10 UNL     1      -0.876  -1.347   1.235  1.00  0.00    -0.325 N 
ATOM      7  H10 UNL     1      -1.023  -2.229   0.744  1.00  0.00     0.165 HD
HETATM    8  C19 UNL     1      -1.304  -1.019   2.538  1.00  0.00     0.264 C 
ENDROOT
BRANCH   8   9
HETATM    9  O10 UNL     1      -0.596  -1.780   3.462  1.00  0.00    -0.373 OA
ATOM     10  H10 UNL     1      -0.882  -2.680   3.356  1.00  0.00     0.212 HD
ENDBRANCH   8   9
BRANCH   5  11
HETATM   11  N2  UNL     1       0.134  -0.082  -0.602  1.00  0.00    -0.206 N 
HETATM   12  C4  UNL     1      -0.726   0.133  -1.631  1.00  0.00     0.137 A 
HETATM   13  C5  UNL     1      -2.107   0.282  -1.738  1.00  0.00     0.135 A 
HETATM   14  C11 UNL     1      -0.035   0.219  -2.822  1.00  0.00     0.138 A 
HETATM   15  N5  UNL     1      -2.707   0.495  -2.938  1.00  0.00    -0.315 N 
HETATM   16  C10 UNL     1      -1.990   0.571  -4.067  1.00  0.00     0.194 A 
ATOM     17  H5  UNL     1      -3.721   0.599  -2.980  1.00  0.00     0.170 HD
HETATM   18  N6  UNL     1      -2.682   0.797  -5.288  1.00  0.00    -0.063 NA
HETATM   19  N7  UNL     1      -0.655   0.434  -4.020  1.00  0.00    -0.324 N 
ATOM     20  H7  UNL     1      -0.105   0.490  -4.877  1.00  0.00     0.169 HD
HETATM   21  C12 UNL     1       1.278   0.046  -2.468  1.00  0.00     0.294 A 
HETATM   22  O5  UNL     1       2.214   0.065  -3.319  1.00  0.00    -0.264 OA
HETATM   23  N8  UNL     1       1.365  -0.132  -1.142  1.00  0.00    -0.211 N 
BRANCH  13  24
HETATM   24  N3  UNL     1      -2.800   0.213  -0.686  1.00  0.00    -0.374 N 
ATOM     25  H3  UNL     1      -2.317   0.051   0.198  1.00  0.00     0.161 HD
BRANCH  24  26
HETATM   26  C6  UNL     1      -4.235   0.350  -0.661  1.00  0.00     0.127 C 
BRANCH  26  27
HETATM   27  C7  UNL     1      -4.777  -0.085   0.683  1.00  0.00     0.086 C 
BRANCH  27  28
HETATM   28  C8  UNL     1      -6.244   0.065   0.675  1.00  0.00     0.109 C 
HETATM   29  N4  UNL     1      -6.724   0.939   1.516  1.00  0.00    -0.267 N 
ATOM     30  H4  UNL     1      -6.089   1.462   2.119  1.00  0.00     0.194 HD
BRANCH  29  31
HETATM   31  O2  UNL     1      -8.055   1.158   1.595  1.00  0.00    -0.290 OA
ATOM     32  H2  UNL     1      -8.405   1.795   2.207  1.00  0.00     0.244 HD
ENDBRANCH  29  31
BRANCH  28  33
HETATM   33  C9  UNL     1      -7.156  -0.663  -0.185  1.00  0.00     0.224 C 
HETATM   34  O3  UNL     1      -8.399  -0.443  -0.118  1.00  0.00    -0.643 OA
HETATM   35  O4  UNL     1      -6.662  -1.600  -1.075  1.00  0.00    -0.643 OA
ENDBRANCH  28  33
ENDBRANCH  27  28
ENDBRANCH  26  27
ENDBRANCH  24  26
ENDBRANCH  13  24
BRANCH  23  36
HETATM   36  C13 UNL     1       2.621  -0.337  -0.477  1.00  0.00     0.337 C 
HETATM   37  C14 UNL     1       2.834  -1.648   0.171  1.00  0.00     0.227 C 
HETATM   38  O6  UNL     1       3.874  -1.380   1.056  1.00  0.00    -0.353 OA
HETATM   39  C15 UNL     1       3.854  -0.063   1.397  1.00  0.00     0.355 C 
HETATM   40  N9  UNL     1       3.002   0.655   0.486  1.00  0.00    -0.021 N 
ATOM     41  H92 UNL     1       3.425   1.491   0.084  1.00  0.00     0.283 HD
ATOM     42  H91 UNL     1       2.218   1.133   0.931  1.00  0.00     0.283 HD
BRANCH  39  43
HETATM   43  C16 UNL     1       5.227   0.525   1.466  1.00  0.00     0.205 C 
BRANCH  43  44
HETATM   44  O7  UNL     1       5.207   1.860   1.880  1.00  0.00    -0.389 OA
ATOM     45  H7  UNL     1       6.079   2.234   1.924  1.00  0.00     0.210 HD
ENDBRANCH  43  44
BRANCH  43  46
HETATM   46  C17 UNL     1       6.025   0.401   0.197  1.00  0.00     0.174 C 
BRANCH  46  47
HETATM   47  O8  UNL     1       6.045  -0.954  -0.193  1.00  0.00    -0.391 OA
ATOM     48  H8  UNL     1       6.549  -1.032  -0.994  1.00  0.00     0.210 HD
ENDBRANCH  46  47
BRANCH  46  49
HETATM   49  C18 UNL     1       7.471   0.792   0.505  1.00  0.00     0.198 C 
BRANCH  49  50
HETATM   50  O9  UNL     1       8.175   0.584  -0.685  1.00  0.00    -0.398 OA
ATOM     51  H9  UNL     1       9.073   0.827  -0.494  1.00  0.00     0.209 HD
ENDBRANCH  49  50
ENDBRANCH  46  49
ENDBRANCH  43  46
ENDBRANCH  39  43
ENDBRANCH  23  36
ENDBRANCH   5  11
TORSDOF 15
