REMARK  14 active torsions:
REMARK  status: ('A' for Active; 'I' for Inactive)
REMARK    1  A    between atoms: N1_1  and  C1_4 
REMARK    2  A    between atoms: C2_7  and  N3_8 
REMARK    3  A    between atoms: N4_10  and  N5_12 
REMARK       I    between atoms: N5_12  and  C3_14 
REMARK    4  A    between atoms: C3_14  and  C4_16 
REMARK    5  A    between atoms: C4_16  and  C5_17 
REMARK    6  A    between atoms: C4_16  and  C6_22 
REMARK    7  A    between atoms: C5_17  and  N6_18 
REMARK    8  A    between atoms: C6_22  and  N7_23 
REMARK    9  A    between atoms: C8_25  and  C9_26 
REMARK   10  A    between atoms: C10_28  and  C11_29 
REMARK   11  A    between atoms: C13_36  and  N10_37 
REMARK   12  A    between atoms: C14_43  and  C15_44 
REMARK   13  A    between atoms: C15_44  and  O5_45 
REMARK   14  A    between atoms: C16_47  and  O6_48 
ROOT
HETATM    1  N7  UNL     1       0.877   0.830   0.159  1.00  0.00    -0.286 N 
HETATM    2  C7  UNL     1      -0.427   0.637   0.508  1.00  0.00     0.140 A 
HETATM    3  C8  UNL     1      -1.238   1.115  -0.500  1.00  0.00     0.076 A 
HETATM    4  N12 UNL     1      -0.394   1.588  -1.438  1.00  0.00    -0.286 N 
ATOM      5  H12 UNL     1      -0.665   2.016  -2.323  1.00  0.00     0.188 HD
HETATM    6  N13 UNL     1       0.859   1.401  -1.011  1.00  0.00    -0.241 N 
ATOM      7  H13 UNL     1       1.692   1.671  -1.534  1.00  0.00     0.208 HD
ENDROOT
BRANCH   1   8
HETATM    8  C6  UNL     1       1.979   0.432   1.013  1.00  0.00     0.165 C 
BRANCH   8   9
HETATM    9  C4  UNL     1       2.351  -0.989   0.651  1.00  0.00     0.125 C 
BRANCH   9  10
HETATM   10  C3  UNL     1       2.745  -0.991  -0.771  1.00  0.00     0.244 C 
HETATM   11  N5  UNL     1       3.827  -0.192  -1.228  1.00  0.00    -0.255 N 
ATOM     12  H5  UNL     1       4.348   0.399  -0.580  1.00  0.00     0.191 HD
HETATM   13  O1  UNL     1       2.103  -1.721  -1.591  1.00  0.00    -0.271 OA
BRANCH  11  14
HETATM   14  N4  UNL     1       4.169  -0.233  -2.606  1.00  0.00    -0.226 N 
HETATM   15  N3  UNL     1       5.367  -0.073  -2.988  1.00  0.00    -0.117 N 
ATOM     16  H3  UNL     1       5.592  -0.105  -3.982  1.00  0.00     0.207 HD
ATOM     17  H4  UNL     1       3.439  -0.394  -3.300  1.00  0.00     0.209 HD
BRANCH  15  18
HETATM   18  C2  UNL     1       6.399   0.151  -2.035  1.00  0.00     0.716 A 
HETATM   19  N2  UNL     1       7.061  -0.894  -1.507  1.00  0.00    -0.021 N 
HETATM   20  C1  UNL     1       8.042  -0.711  -0.602  1.00  0.00     0.694 A 
ATOM     21  H2  UNL     1       6.816  -1.841  -1.797  1.00  0.00     0.203 HD
HETATM   22  N15 UNL     1       8.334   0.547  -0.248  1.00  0.00    -0.141 N 
HETATM   23  C17 UNL     1       7.710   1.619  -0.739  1.00  0.00     0.352 A 
ATOM     24  H15 UNL     1       9.076   0.694   0.436  1.00  0.00     0.189 HD
HETATM   25  N14 UNL     1       6.722   1.395  -1.653  1.00  0.00    -0.139 N 
HETATM   26  O7  UNL     1       8.025   2.770  -0.373  1.00  0.00    -0.246 OA
ATOM     27  H14 UNL     1       6.220   2.188  -2.053  1.00  0.00     0.189 HD
BRANCH  20  28
HETATM   28  N1  UNL     1       8.682  -1.724  -0.092  1.00  0.00    -0.234 N 
ATOM     29  H12 UNL     1       8.460  -2.682  -0.362  1.00  0.00     0.174 HD
ATOM     30  H11 UNL     1       9.425  -1.585   0.593  1.00  0.00     0.174 HD
ENDBRANCH  20  28
ENDBRANCH  15  18
ENDBRANCH  11  14
ENDBRANCH   9  10
BRANCH   9  31
HETATM   31  C5  UNL     1       3.378  -1.573   1.554  1.00  0.00     0.245 C 
BRANCH  31  32
HETATM   32  N6  UNL     1       4.651  -0.950   1.580  1.00  0.00    -0.078 N 
ATOM     33  H63 UNL     1       5.023  -0.901   0.632  1.00  0.00     0.274 HD
ATOM     34  H62 UNL     1       4.538   0.041   1.792  1.00  0.00     0.274 HD
ATOM     35  H61 UNL     1       5.355  -1.351   2.199  1.00  0.00     0.274 HD
ENDBRANCH  31  32
ENDBRANCH   9  31
ENDBRANCH   8   9
ENDBRANCH   1   8
BRANCH   3  36
HETATM   36  C9  UNL     1      -2.743   1.113  -0.549  1.00  0.00     0.209 C 
HETATM   37  O2  UNL     1      -3.302  -0.045  -0.169  1.00  0.00    -0.340 OA
HETATM   38  C10 UNL     1      -4.423  -0.076   0.553  1.00  0.00     0.330 C 
HETATM   39  O4  UNL     1      -5.109   1.060   0.812  1.00  0.00    -0.344 OA
HETATM   40  C14 UNL     1      -4.753   2.196   0.174  1.00  0.00     0.180 C 
HETATM   41  C16 UNL     1      -3.224   2.309   0.244  1.00  0.00     0.184 C 
BRANCH  38  42
HETATM   42  C11 UNL     1      -5.378  -1.044  -0.091  1.00  0.00     0.157 A 
HETATM   43  N8  UNL     1      -6.681  -0.754  -0.270  1.00  0.00    -0.293 N 
HETATM   44  C12 UNL     1      -7.524  -1.628  -0.847  1.00  0.00     0.340 A 
ATOM     45  H8  UNL     1      -7.037   0.150   0.040  1.00  0.00     0.172 HD
HETATM   46  O3  UNL     1      -8.737  -1.337  -1.005  1.00  0.00    -0.246 OA
HETATM   47  N9  UNL     1      -7.108  -2.828  -1.270  1.00  0.00    -0.141 N 
HETATM   48  C13 UNL     1      -5.809  -3.143  -1.103  1.00  0.00     0.681 A 
ATOM     49  H9  UNL     1      -7.756  -3.485  -1.706  1.00  0.00     0.189 HD
HETATM   50  N11 UNL     1      -4.970  -2.252  -0.520  1.00  0.00    -0.175 N 
ATOM     51  H11 UNL     1      -3.990  -2.508  -0.402  1.00  0.00     0.185 HD
BRANCH  48  52
HETATM   52  N10 UNL     1      -5.384  -4.291  -1.502  1.00  0.00    -0.234 N 
ATOM     53 2H10 UNL     1      -6.015  -4.961  -1.941  1.00  0.00     0.174 HD
ATOM     54 1H10 UNL     1      -4.400  -4.530  -1.376  1.00  0.00     0.174 HD
ENDBRANCH  48  52
ENDBRANCH  38  42
BRANCH  40  55
HETATM   55  C15 UNL     1      -5.373   3.409   0.795  1.00  0.00     0.198 C 
BRANCH  55  56
HETATM   56  O5  UNL     1      -6.764   3.259   0.724  1.00  0.00    -0.398 OA
ATOM     57  H5  UNL     1      -7.157   4.029   1.118  1.00  0.00     0.209 HD
ENDBRANCH  55  56
ENDBRANCH  40  55
BRANCH  41  58
HETATM   58  O6  UNL     1      -2.796   2.126   1.557  1.00  0.00    -0.390 OA
ATOM     59  H6  UNL     1      -3.098   2.877   2.055  1.00  0.00     0.210 HD
ENDBRANCH  41  58
ENDBRANCH   3  36
TORSDOF 14
