REMARK  6 active torsions:
REMARK  status: ('A' for Active; 'I' for Inactive)
REMARK    1  A    between atoms: N1_1  and  C1_4 
REMARK    2  A    between atoms: C1_4  and  N2_5 
REMARK    3  A    between atoms: C2_6  and  N3_7 
REMARK    4  A    between atoms: C3_14  and  C4_15 
REMARK    5  A    between atoms: C4_15  and  N6_16 
REMARK    6  A    between atoms: C4_15  and  N7_20 
ROOT
HETATM    1  N2  UNL     1      -1.379   0.065   0.233  1.00  0.00    -0.105 N 
HETATM    2  C2  UNL     1      -1.689  -0.943  -0.595  1.00  0.00     0.700 A 
HETATM    3  N4  UNL     1      -0.706  -1.592  -1.239  1.00  0.00    -0.131 N 
ATOM      4  H4  UNL     1      -0.936  -2.360  -1.870  1.00  0.00     0.205 HD
HETATM    5  N5  UNL     1       0.545  -1.248  -1.065  1.00  0.00    -0.282 N 
ATOM      6  H5  UNL     1       1.263  -1.765  -1.573  1.00  0.00     0.187 HD
HETATM    7  C3  UNL     1       0.938  -0.239  -0.244  1.00  0.00     0.153 A 
HETATM    8  C5  UNL     1      -0.079   0.425   0.416  1.00  0.00     0.295 A 
HETATM    9  O1  UNL     1       0.210   1.374   1.196  1.00  0.00    -0.265 OA
ENDROOT
BRANCH   7  10
HETATM   10  C4  UNL     1       2.362   0.119  -0.074  1.00  0.00     0.434 C 
BRANCH  10  11
HETATM   11  N6  UNL     1       2.628   1.515  -0.116  1.00  0.00    -0.045 N 
ATOM     12  H63 UNL     1       2.260   1.921  -0.976  1.00  0.00     0.277 HD
ATOM     13  H62 UNL     1       2.054   2.007   0.569  1.00  0.00     0.277 HD
ATOM     14  H61 UNL     1       3.611   1.762   0.001  1.00  0.00     0.277 HD
ENDBRANCH  10  11
BRANCH  10  15
HETATM   15  N7  UNL     1       2.838  -0.509   1.138  1.00  0.00    -0.045 N 
ATOM     16  H73 UNL     1       2.272  -0.274   1.953  1.00  0.00     0.277 HD
ATOM     17  H72 UNL     1       2.680  -1.517   1.149  1.00  0.00     0.277 HD
ATOM     18  H71 UNL     1       3.821  -0.262   1.255  1.00  0.00     0.277 HD
ENDBRANCH  10  15
ENDBRANCH   7  10
BRANCH   1  19
HETATM   19  C1  UNL     1      -2.413   0.763   0.924  1.00  0.00     0.203 C 
BRANCH  19  20
HETATM   20  N1  UNL     1      -3.114   1.642   0.292  1.00  0.00    -0.394 N 
ATOM     21  H12 UNL     1      -2.918   1.824  -0.692  1.00  0.00     0.156 HD
ATOM     22  H11 UNL     1      -3.854   2.141   0.786  1.00  0.00     0.156 HD
ENDBRANCH  19  20
ENDBRANCH   1  19
BRANCH   2  23
HETATM   23  N3  UNL     1      -2.937  -1.293  -0.775  1.00  0.00    -0.233 N 
ATOM     24  H32 UNL     1      -3.684  -0.800  -0.286  1.00  0.00     0.174 HD
ATOM     25  H31 UNL     1      -3.173  -2.060  -1.405  1.00  0.00     0.174 HD
ENDBRANCH   2  23
TORSDOF 6
