REMARK  2 active torsions:
REMARK  status: ('A' for Active; 'I' for Inactive)
REMARK    1  A    between atoms: N1_1  and  N2_4 
REMARK       I    between atoms: N2_4  and  C1_6 
REMARK       I    between atoms: C1_6  and  N3_8 
REMARK       I    between atoms: N3_8  and  C2_10 
REMARK    2  A    between atoms: C2_10  and  C3_12 
ROOT
HETATM    1  N2  UNL     1      -2.471   0.582   0.178  1.00  0.00    -0.258 N 
ATOM      2  H2  UNL     1      -1.999   1.367   0.626  1.00  0.00     0.191 HD
HETATM    3  C1  UNL     1      -1.731  -0.437  -0.414  1.00  0.00     0.341 C 
HETATM    4  O1  UNL     1      -2.375  -1.405  -0.965  1.00  0.00    -0.245 OA
HETATM    5  N3  UNL     1      -0.348  -0.520  -0.473  1.00  0.00    -0.271 N 
ATOM      6  H3  UNL     1       0.058  -1.330  -0.942  1.00  0.00     0.174 HD
HETATM    7  C2  UNL     1       0.536   0.435   0.069  1.00  0.00     0.296 C 
HETATM    8  O2  UNL     1       0.157   1.458   0.660  1.00  0.00    -0.264 OA
ENDROOT
BRANCH   7   9
HETATM    9  C3  UNL     1       2.012   0.251  -0.049  1.00  0.00     0.203 A 
HETATM   10  N4  UNL     1       2.958   1.074   0.416  1.00  0.00    -0.262 N 
HETATM   11  N5  UNL     1       4.152   0.549   0.104  1.00  0.00    -0.005 NA
ATOM     12  H4  UNL     1       2.799   1.947   0.919  1.00  0.00     0.186 HD
HETATM   13  N6  UNL     1       3.966  -0.598  -0.554  1.00  0.00    -0.225 N 
HETATM   14  N7  UNL     1       2.665  -0.764  -0.638  1.00  0.00    -0.267 N 
ATOM     15  H6  UNL     1       4.688  -1.220  -0.918  1.00  0.00     0.205 HD
ATOM     16  H7  UNL     1       2.212  -1.558  -1.090  1.00  0.00     0.190 HD
ENDBRANCH   7   9
BRANCH   1  17
HETATM   17  N1  UNL     1      -3.911   0.518   0.153  1.00  0.00    -0.341 N 
ATOM     18  H12 UNL     1      -4.368  -0.274  -0.299  1.00  0.00     0.177 HD
ATOM     19  H11 UNL     1      -4.453   1.265   0.587  1.00  0.00     0.177 HD
ENDBRANCH   1  17
TORSDOF 2
