REMARK  4 active torsions:
REMARK  status: ('A' for Active; 'I' for Inactive)
REMARK    1  A    between atoms: N1_1  and  N2_4 
REMARK    2  A    between atoms: N2_4  and  O1_5 
REMARK    3  A    between atoms: O1_5  and  N3_6 
REMARK    4  A    between atoms: N3_6  and  C1_8 
ROOT
HETATM    1  C1  UNL     1       0.535  -0.664   0.277  1.00  0.00     0.144 A 
HETATM    2  C2  UNL     1      -0.165  -1.728   0.807  1.00  0.00     0.140 A 
HETATM    3  N4  UNL     1      -1.510  -1.757   0.827  1.00  0.00    -0.345 N 
ATOM      4  H4  UNL     1      -2.009  -2.554   1.223  1.00  0.00     0.167 HD
HETATM    5  C3  UNL     1      -2.182  -0.711   0.312  1.00  0.00     0.154 A 
HETATM    6  N5  UNL     1      -3.505  -0.464   0.195  1.00  0.00    -0.291 N 
ATOM      7  H5  UNL     1      -4.266  -1.072   0.499  1.00  0.00     0.172 HD
HETATM    8  C4  UNL     1      -3.628   0.741  -0.402  1.00  0.00     0.327 A 
HETATM    9  O2  UNL     1      -4.737   1.266  -0.657  1.00  0.00    -0.247 OA
HETATM   10  N6  UNL     1      -2.442   1.268  -0.668  1.00  0.00    -0.291 N 
ATOM     11  H6  UNL     1      -2.264   2.168  -1.114  1.00  0.00     0.172 HD
HETATM   12  C5  UNL     1      -1.519   0.393  -0.239  1.00  0.00     0.156 A 
HETATM   13  N7  UNL     1      -0.178   0.356  -0.226  1.00  0.00    -0.323 N 
ATOM     14  H7  UNL     1       0.329   1.148  -0.621  1.00  0.00     0.169 HD
ENDROOT
BRANCH   1  15
HETATM   15  N3  UNL     1       1.843  -0.667   0.272  1.00  0.00    -0.226 N 
ATOM     16  H3  UNL     1       2.372  -1.450   0.657  1.00  0.00     0.198 HD
BRANCH  15  17
HETATM   17  O1  UNL     1       2.472   0.415  -0.267  1.00  0.00    -0.141 OA
BRANCH  17  18
HETATM   18  N2  UNL     1       3.585   1.012   0.220  1.00  0.00     0.040 NA
BRANCH  18  19
HETATM   19  N1  UNL     1       4.646   0.124   0.378  1.00  0.00    -0.321 N 
ATOM     20  H12 UNL     1       4.576  -0.867   0.147  1.00  0.00     0.174 HD
ATOM     21  H11 UNL     1       5.485   0.574   0.745  1.00  0.00     0.174 HD
ENDBRANCH  18  19
ENDBRANCH  17  18
ENDBRANCH  15  17
ENDBRANCH   1  15
TORSDOF 4
