REMARK  1 active torsions:
REMARK  status: ('A' for Active; 'I' for Inactive)
REMARK    1  A    between atoms: C1_2  and  C2_4 
REMARK       I    between atoms: N4_11  and  C5_13 
REMARK       I    between atoms: C5_13  and  N5_14 
REMARK       I    between atoms: C5_13  and  N6_18 
ROOT
HETATM    1  C2  UNL     1       1.729  -0.583  -0.231  1.00  0.00     0.187 A 
HETATM    2  N2  UNL     1       1.945  -1.607  -1.075  1.00  0.00    -0.333 N 
ATOM      3  H2  UNL     1       2.902  -1.928  -1.223  1.00  0.00     0.168 HD
HETATM    4  C3  UNL     1       0.940  -2.227  -1.735  1.00  0.00     0.199 A 
HETATM    5  N3  UNL     1      -0.323  -1.799  -1.535  1.00  0.00    -0.188 N 
ATOM      6  H3  UNL     1      -1.093  -2.255  -2.024  1.00  0.00     0.185 HD
HETATM    7  C4  UNL     1      -0.578  -0.780  -0.699  1.00  0.00     0.683 A 
HETATM    8  N4  UNL     1      -1.805  -0.424  -0.557  1.00  0.00    -0.173 N 
ATOM      9  H4  UNL     1      -2.509  -0.937  -1.088  1.00  0.00     0.181 HD
HETATM   10  C5  UNL     1      -2.257   0.636   0.288  1.00  0.00     0.494 C 
HETATM   11  N5  UNL     1      -1.986   0.485   1.666  1.00  0.00    -0.032 N 
ATOM     12  H51 UNL     1      -2.309   1.242   2.269  1.00  0.00     0.278 HD
ATOM     13  H52 UNL     1      -0.988   0.330   1.808  1.00  0.00     0.278 HD
ATOM     14  H53 UNL     1      -2.358  -0.405   1.997  1.00  0.00     0.278 HD
HETATM   15  N6  UNL     1      -1.735   1.916  -0.159  1.00  0.00    -0.032 N 
ATOM     16  H61 UNL     1      -2.058   2.673   0.444  1.00  0.00     0.278 HD
ATOM     17  H62 UNL     1      -1.960   2.093  -1.138  1.00  0.00     0.278 HD
ATOM     18  H63 UNL     1      -0.718   1.902  -0.234  1.00  0.00     0.278 HD
HETATM   19  N7  UNL     1       0.452  -0.196  -0.068  1.00  0.00    -0.171 N 
ATOM     20  H7  UNL     1       0.257   0.579   0.566  1.00  0.00     0.186 HD
ENDROOT
BRANCH   1  21
HETATM   21  C1  UNL     1       2.839   0.068   0.468  1.00  0.00     0.299 C 
HETATM   22  N1  UNL     1       2.675   1.135   1.356  1.00  0.00    -0.054 NA
HETATM   23  O1  UNL     1       4.005  -0.356   0.259  1.00  0.00    -0.268 OA
ENDBRANCH   1  21
TORSDOF 1
