REMARK  1 active torsions:
REMARK  status: ('A' for Active; 'I' for Inactive)
REMARK    1  A    between atoms: C6_6  and  O1_8 
ROOT
HETATM    1  C1  UNL     1      -0.031   1.858  -0.289  1.00  0.00     0.013 C 
HETATM    2  C2  UNL     1      -0.190   0.704   0.659  1.00  0.00     0.015 C 
HETATM    3  C3  UNL     1      -1.585   0.140   0.456  1.00  0.00     0.007 C 
HETATM    4  C4  UNL     1      -1.385  -0.720  -0.776  1.00  0.00     0.004 C 
HETATM    5  C5  UNL     1      -0.026  -1.362  -0.601  1.00  0.00     0.038 C 
HETATM    6  C6  UNL     1       0.680  -0.463   0.355  1.00  0.00     0.057 C 
HETATM    7  C7  UNL     1       2.066  -0.069  -0.105  1.00  0.00     0.046 C 
ENDROOT
BRANCH   6   8
HETATM    8  O1  UNL     1       0.860  -1.177   1.561  1.00  0.00    -0.390 OA
ATOM      9  H1  UNL     1       1.416  -1.923   1.367  1.00  0.00     0.210 HD
ENDBRANCH   6   8
TORSDOF 1
