REMARK  1 active torsions:
REMARK  status: ('A' for Active; 'I' for Inactive)
REMARK    1  A    between atoms: N1_1  and  C1_5 
ROOT
HETATM    1  C1  UNL     1      -1.216   0.058   0.307  1.00  0.00     0.188 C 
HETATM    2  C2  UNL     1      -1.257  -1.081  -0.720  1.00  0.00     0.038 C 
HETATM    3  C3  UNL     1       0.235  -0.797  -0.909  1.00  0.00    -0.007 C 
HETATM    4  C4  UNL     1       1.113  -1.218   0.214  1.00  0.00     0.005 C 
HETATM    5  C5  UNL     1       1.901   0.023   0.527  1.00  0.00     0.001 C 
HETATM    6  C6  UNL     1       0.986   1.184   0.274  1.00  0.00     0.007 C 
HETATM    7  C7  UNL     1      -0.104   0.644  -0.576  1.00  0.00     0.020 C 
ENDROOT
BRANCH   1   8
HETATM    8  N1  UNL     1      -2.380   0.902   0.284  1.00  0.00    -0.075 N 
ATOM      9  H13 UNL     1      -2.539   1.270  -0.654  1.00  0.00     0.274 HD
ATOM     10  H12 UNL     1      -3.228   0.347   0.396  1.00  0.00     0.274 HD
ATOM     11  H11 UNL     1      -2.353   1.659   0.967  1.00  0.00     0.274 HD
ENDBRANCH   1   8
TORSDOF 1
