REMARK  1 active torsions:
REMARK  status: ('A' for Active; 'I' for Inactive)
REMARK    1  A    between atoms: N1_1  and  C1_5 
ROOT
HETATM    1  C1  UNL     1       2.041  -0.417  -0.419  1.00  0.00     0.183 C 
HETATM    2  C2  UNL     1       1.291   0.772  -0.908  1.00  0.00     0.033 C 
HETATM    3  C3  UNL     1       0.050   1.085  -0.124  1.00  0.00     0.011 C 
HETATM    4  C4  UNL     1      -0.863  -0.083   0.044  1.00  0.00    -0.040 C 
HETATM    5  C5  UNL     1      -2.095   0.048  -0.848  1.00  0.00     0.009 C 
HETATM    6  C6  UNL     1      -2.697   0.889   0.286  1.00  0.00     0.002 C 
HETATM    7  C7  UNL     1      -1.814   0.052   1.224  1.00  0.00     0.009 C 
HETATM    8  C8  UNL     1      -0.187  -1.414  -0.014  1.00  0.00     0.011 C 
HETATM    9  C9  UNL     1       1.239  -1.353   0.430  1.00  0.00     0.033 C 
ENDROOT
BRANCH   1  10
HETATM   10  N1  UNL     1       3.258  -0.038   0.298  1.00  0.00    -0.075 N 
ATOM     11  H13 UNL     1       3.851   0.566  -0.272  1.00  0.00     0.274 HD
ATOM     12  H12 UNL     1       3.053   0.610   1.059  1.00  0.00     0.274 HD
ATOM     13  H11 UNL     1       3.772  -0.853   0.633  1.00  0.00     0.274 HD
ENDBRANCH   1  10
TORSDOF 1
