REMARK  1 active torsions:
REMARK  status: ('A' for Active; 'I' for Inactive)
REMARK    1  A    between atoms: C2_2  and  C3_3 
ROOT
HETATM    1  C3  UNL     1       2.184  -0.513  -0.099  1.00  0.00     0.133 C 
HETATM    2  C4  UNL     1       2.973   0.710   0.024  1.00  0.00     0.059 C 
HETATM    3  N1  UNL     1       3.588   1.686   0.130  1.00  0.00    -0.197 NA
ENDROOT
BRANCH   1   4
HETATM    4  C2  UNL     1       0.746  -0.153   0.204  1.00  0.00    -0.025 C 
HETATM    5  C1  UNL     1       0.611   0.399   1.582  1.00  0.00     0.017 C 
HETATM    6  C5  UNL     1       0.099   0.682  -0.882  1.00  0.00    -0.005 C 
HETATM    7  C6  UNL     1      -1.180   1.284  -0.382  1.00  0.00     0.005 C 
HETATM    8  C10 UNL     1      -0.206  -0.643  -1.596  1.00  0.00     0.011 C 
HETATM    9  C7  UNL     1      -2.128   0.288   0.176  1.00  0.00     0.001 C 
HETATM   10  C8  UNL     1      -1.575  -1.083   0.366  1.00  0.00     0.005 C 
HETATM   11  C9  UNL     1      -0.183  -1.254  -0.187  1.00  0.00    -0.005 C 
ENDBRANCH   1   4
TORSDOF 1
