REMARK  0 active torsions:
REMARK  status: ('A' for Active; 'I' for Inactive)
ROOT
HETATM    1  C1  UNL     1      -2.009  -2.291  -0.240  1.00  0.00     0.010 C 
HETATM    2  C2  UNL     1      -1.034  -1.195  -0.622  1.00  0.00    -0.017 C 
HETATM    3  C3  UNL     1       0.355  -1.713  -0.294  1.00  0.00     0.006 C 
HETATM    4  C4  UNL     1       1.330  -0.679  -0.838  1.00  0.00     0.024 C 
HETATM    5  C5  UNL     1       1.528   0.339   0.277  1.00  0.00     0.072 C 
HETATM    6  C6  UNL     1       2.980   0.711   0.361  1.00  0.00     0.031 C 
HETATM    7  N1  UNL     1       0.714   1.454   0.027  1.00  0.00    -0.414 N 
ATOM      8  H1  UNL     1       1.107   2.395   0.044  1.00  0.00     0.153 HD
HETATM    9  C7  UNL     1      -0.640   1.258  -0.245  1.00  0.00     0.073 C 
HETATM   10  C8  UNL     1      -1.431   2.441   0.327  1.00  0.00     0.032 C 
HETATM   11  C9  UNL     1      -1.271   0.015   0.277  1.00  0.00     0.028 C 
ENDROOT
TORSDOF 0
