REMARK  0 active torsions:
REMARK  status: ('A' for Active; 'I' for Inactive)
ROOT
HETATM    1  C1  UNL     1      -2.360   1.180   0.327  1.00  0.00     0.016 C 
HETATM    2  C2  UNL     1      -1.405   0.078  -0.154  1.00  0.00    -0.032 C 
HETATM    3  C3  UNL     1      -2.325  -0.990  -0.772  1.00  0.00     0.016 C 
HETATM    4  C4  UNL     1      -0.526   0.577  -1.233  1.00  0.00     0.012 C 
HETATM    5  C5  UNL     1       0.891   0.819  -0.901  1.00  0.00     0.030 C 
HETATM    6  C6  UNL     1       1.451   0.009   0.211  1.00  0.00     0.018 C 
HETATM    7  C7  UNL     1       1.911  -1.371  -0.259  1.00  0.00     0.037 C 
HETATM    8  C8  UNL     1       2.714   0.725   0.709  1.00  0.00     0.037 C 
HETATM    9  N1  UNL     1       0.559  -0.066   1.323  1.00  0.00    -0.413 N 
ATOM     10  H1  UNL     1       0.836   0.202   2.267  1.00  0.00     0.154 HD
HETATM   11  C9  UNL     1      -0.743  -0.542   1.017  1.00  0.00     0.123 C 
ENDROOT
TORSDOF 0
