REMARK  1 active torsions:
REMARK  status: ('A' for Active; 'I' for Inactive)
REMARK    1  A    between atoms: C9_9  and  N1_10 
ROOT
HETATM    1  C1  UNL     1       2.613  -0.940  -0.083  1.00  0.00     0.012 C 
HETATM    2  C2  UNL     1       1.411  -0.091  -0.525  1.00  0.00     0.013 C 
HETATM    3  C3  UNL     1       1.474   1.167   0.283  1.00  0.00     0.006 C 
HETATM    4  C4  UNL     1       0.244   1.977   0.300  1.00  0.00     0.001 C 
HETATM    5  C5  UNL     1      -0.971   1.374  -0.280  1.00  0.00     0.011 C 
HETATM    6  C6  UNL     1      -1.082  -0.099  -0.245  1.00  0.00    -0.019 C 
HETATM    7  C7  UNL     1      -1.783  -0.533  -1.544  1.00  0.00     0.017 C 
HETATM    8  C8  UNL     1      -2.035  -0.574   0.862  1.00  0.00     0.017 C 
HETATM    9  C9  UNL     1       0.184  -0.855  -0.129  1.00  0.00     0.195 C 
ENDROOT
BRANCH   9  10
HETATM   10  N1  UNL     1       0.423  -1.376   1.225  1.00  0.00    -0.074 N 
ATOM     11  H13 UNL     1       1.279  -1.926   1.298  1.00  0.00     0.274 HD
ATOM     12  H12 UNL     1       0.678  -0.650   1.895  1.00  0.00     0.274 HD
ATOM     13  H11 UNL     1      -0.412  -1.896   1.495  1.00  0.00     0.274 HD
ENDBRANCH   9  10
TORSDOF 1
