REMARK  0 active torsions:
REMARK  status: ('A' for Active; 'I' for Inactive)
ROOT
HETATM    1  C1  UNL     1      -1.976   0.074   0.249  1.00  0.00     0.000 C 
HETATM    2  C2  UNL     1      -1.718  -1.134  -0.604  1.00  0.00     0.002 C 
HETATM    3  C3  UNL     1      -0.450  -1.907  -0.176  1.00  0.00     0.033 C 
HETATM    4  C4  UNL     1       0.479  -0.873   0.153  1.00  0.00     0.186 C 
HETATM    5  C5  UNL     1       1.934  -1.020   0.353  1.00  0.00     0.035 C 
HETATM    6  C6  UNL     1       2.173   0.508   0.544  1.00  0.00     0.035 C 
HETATM    7  C7  UNL     1       1.109   1.183  -0.293  1.00  0.00     0.186 C 
HETATM    8  C8  UNL     1      -0.065   1.739   0.455  1.00  0.00     0.033 C 
HETATM    9  C9  UNL     1      -1.406   1.364  -0.200  1.00  0.00     0.002 C 
HETATM   10  N1  UNL     1       0.527   0.036  -1.015  1.00  0.00    -0.067 N 
ATOM     11  H11 UNL     1      -0.342   0.193  -1.525  1.00  0.00     0.278 HD
ATOM     12  H12 UNL     1       1.016  -0.293  -1.848  1.00  0.00     0.278 HD
ENDROOT
TORSDOF 0
