REMARK  0 active torsions:
REMARK  status: ('A' for Active; 'I' for Inactive)
ROOT
HETATM    1  C1  UNL     1      -1.934   0.610   1.209  1.00  0.00     0.046 C 
HETATM    2  C2  UNL     1      -1.118   0.010   0.051  1.00  0.00     0.064 C 
HETATM    3  C3  UNL     1      -2.038  -0.974  -0.691  1.00  0.00     0.046 C 
HETATM    4  C4  UNL     1      -0.741   1.146  -0.834  1.00  0.00     0.121 C 
HETATM    5  C5  UNL     1       0.533   1.758  -0.395  1.00  0.00     0.117 C 
HETATM    6  N1  UNL     1       0.758   3.014  -0.526  1.00  0.00    -0.383 N 
ATOM      7  H11 UNL     1       1.636   3.436  -0.223  1.00  0.00     0.157 HD
ATOM      8  H12 UNL     1       0.066   3.640  -0.939  1.00  0.00     0.157 HD
HETATM    9  O1  UNL     1       1.471   0.909   0.165  1.00  0.00    -0.303 OA
HETATM   10  C6  UNL     1       1.158  -0.492   0.265  1.00  0.00     0.165 C 
HETATM   11  C7  UNL     1       1.625  -1.167  -1.005  1.00  0.00     0.079 C 
HETATM   12  C8  UNL     1       2.032  -1.075   1.366  1.00  0.00     0.079 C 
HETATM   13  O2  UNL     1      -0.128  -0.727   0.592  1.00  0.00    -0.345 OA
ENDROOT
TORSDOF 0
