REMARK  1 active torsions:
REMARK  status: ('A' for Active; 'I' for Inactive)
REMARK    1  A    between atoms: C8_8  and  N1_9 
ROOT
HETATM    1  C1  UNL     1      -0.923  -1.089   1.433  1.00  0.00     0.018 C 
HETATM    2  C2  UNL     1      -0.503  -0.566   0.051  1.00  0.00    -0.001 C 
HETATM    3  C3  UNL     1      -1.642  -1.014  -0.881  1.00  0.00     0.018 C 
HETATM    4  C4  UNL     1       0.703  -1.323  -0.359  1.00  0.00     0.012 C 
HETATM    5  C5  UNL     1       2.004  -0.735   0.060  1.00  0.00     0.001 C 
HETATM    6  C6  UNL     1       2.043   0.679  -0.479  1.00  0.00     0.004 C 
HETATM    7  C7  UNL     1       0.927   1.517   0.030  1.00  0.00     0.055 C 
HETATM    8  C8  UNL     1      -0.410   0.900   0.053  1.00  0.00     0.217 C 
HETATM    9  C9  UNL     1      -1.129   1.406   1.248  1.00  0.00     0.099 C 
HETATM   10  N2  UNL     1      -1.681   1.787   2.191  1.00  0.00    -0.195 NA
ENDROOT
BRANCH   8  11
HETATM   11  N1  UNL     1      -1.176   1.439  -1.084  1.00  0.00    -0.057 N 
ATOM     12  H13 UNL     1      -0.883   1.035  -1.973  1.00  0.00     0.276 HD
ATOM     13  H12 UNL     1      -2.143   1.113  -1.088  1.00  0.00     0.276 HD
ATOM     14  H11 UNL     1      -1.111   2.457  -1.083  1.00  0.00     0.276 HD
ENDBRANCH   8  11
TORSDOF 1
