REMARK  3 active torsions:
REMARK  status: ('A' for Active; 'I' for Inactive)
REMARK    1  A    between atoms: C3_3  and  C4_4 
REMARK    2  A    between atoms: C10_11  and  C11_12 
REMARK    3  A    between atoms: C11_12  and  O2_13 
ROOT
HETATM    1  C1  UNL     1      -3.326  -0.561   1.390  1.00  0.00     0.096 C 
HETATM    2  C2  UNL     1      -2.936   0.106   0.342  1.00  0.00    -0.187 C 
HETATM    3  C3  UNL     1      -2.454   0.719  -0.699  1.00  0.00     0.084 C 
ENDROOT
BRANCH   3   4
HETATM    4  C4  UNL     1      -1.097   0.415  -1.097  1.00  0.00     0.004 C 
HETATM    5  C5  UNL     1      -0.716  -1.042  -1.022  1.00  0.00     0.038 C 
HETATM    6  C6  UNL     1       0.795  -1.070  -0.881  1.00  0.00     0.128 C 
HETATM    7  O1  UNL     1       1.427  -0.134  -1.669  1.00  0.00    -0.385 OA
HETATM    8  C10 UNL     1       1.073  -0.763   0.591  1.00  0.00     0.039 C 
HETATM    9  C7  UNL     1       1.187   1.166  -1.340  1.00  0.00     0.173 C 
HETATM   10  C8  UNL     1      -0.027   1.202  -0.411  1.00  0.00     0.015 C 
HETATM   11  C9  UNL     1       0.442   0.559   0.884  1.00  0.00     0.016 C 
BRANCH   8  12
HETATM   12  C11 UNL     1       2.559  -0.791   0.802  1.00  0.00     0.171 C 
BRANCH  12  13
HETATM   13  O2  UNL     1       2.910  -0.524   2.106  1.00  0.00    -0.400 OA
ATOM     14  H2  UNL     1       3.850  -0.542   2.240  1.00  0.00     0.209 HD
ENDBRANCH  12  13
ENDBRANCH   8  12
ENDBRANCH   3   4
TORSDOF 3
