REMARK  2 active torsions:
REMARK  status: ('A' for Active; 'I' for Inactive)
REMARK    1  A    between atoms: C7_8  and  C8_9 
REMARK    2  A    between atoms: C8_9  and  O2_10 
ROOT
HETATM    1  C1  UNL     1       1.571   2.561  -0.247  1.00  0.00     0.010 C 
HETATM    2  C2  UNL     1       0.844   1.430   0.448  1.00  0.00    -0.015 C 
HETATM    3  C3  UNL     1      -0.634   1.561   0.182  1.00  0.00     0.009 C 
HETATM    4  C4  UNL     1      -1.422   0.467   0.840  1.00  0.00    -0.009 C 
HETATM    5  C5  UNL     1      -2.419  -0.062  -0.194  1.00  0.00     0.031 C 
HETATM    6  C6  UNL     1      -1.746  -0.987  -1.142  1.00  0.00     0.169 C 
HETATM    7  O1  UNL     1      -0.387  -0.834  -1.248  1.00  0.00    -0.378 OA
HETATM    8  C7  UNL     1       0.315  -0.956  -0.087  1.00  0.00     0.082 C 
HETATM    9  C9  UNL     1       1.393   0.120  -0.073  1.00  0.00     0.044 C 
HETATM   10  C10 UNL     1      -0.526  -0.740   1.148  1.00  0.00     0.045 C 
ENDROOT
BRANCH   8  11
HETATM   11  C8  UNL     1       1.029  -2.305   0.027  1.00  0.00     0.202 C 
BRANCH  11  12
HETATM   12  O2  UNL     1       1.929  -2.482  -1.012  1.00  0.00    -0.398 OA
ATOM     13  H2  UNL     1       2.372  -3.319  -0.941  1.00  0.00     0.209 HD
ENDBRANCH  11  12
ENDBRANCH   8  11
TORSDOF 2
