REMARK  2 active torsions:
REMARK  status: ('A' for Active; 'I' for Inactive)
REMARK    1  A    between atoms: O1_1  and  C1_3 
REMARK    2  A    between atoms: C6_8  and  N1_9 
ROOT
HETATM    1  C1  UNL     1       1.040  -1.111  -0.425  1.00  0.00     0.151 C 
HETATM    2  C2  UNL     1       2.519  -1.087  -0.204  1.00  0.00     0.034 C 
HETATM    3  C3  UNL     1       3.078   0.313  -0.344  1.00  0.00     0.003 C 
HETATM    4  C4  UNL     1       2.426   1.152   0.733  1.00  0.00     0.002 C 
HETATM    5  C5  UNL     1       0.955   1.222   0.518  1.00  0.00     0.038 C 
HETATM    6  C6  UNL     1       0.279  -0.118   0.390  1.00  0.00     0.251 C 
ENDROOT
BRANCH   6   7
HETATM    7  N1  UNL     1      -1.017   0.137  -0.207  1.00  0.00     0.095 N 
HETATM    8  C7  UNL     1      -1.861  -1.040  -0.255  1.00  0.00     0.273 C 
HETATM    9  C8  UNL     1      -3.203  -0.364  -0.579  1.00  0.00     0.032 C 
HETATM   10  C9  UNL     1      -3.215   0.702   0.520  1.00  0.00     0.032 C 
HETATM   11  C10 UNL     1      -1.740   1.015   0.710  1.00  0.00     0.273 C 
ENDBRANCH   6   7
BRANCH   1  12
HETATM   12  O1  UNL     1       0.749  -1.047  -1.788  1.00  0.00    -0.393 OA
ATOM     13  H1  UNL     1      -0.190  -1.062  -1.928  1.00  0.00     0.210 HD
ENDBRANCH   1  12
TORSDOF 2
