REMARK  1 active torsions:
REMARK  status: ('A' for Active; 'I' for Inactive)
REMARK    1  A    between atoms: N1_2  and  C2_4 
ROOT
HETATM    1  C2  UNL     1       0.925  -0.142   0.642  1.00  0.00     0.090 C 
HETATM    2  C3  UNL     1       0.254  -1.250  -0.095  1.00  0.00     0.031 C 
HETATM    3  C4  UNL     1      -1.131  -0.933  -0.600  1.00  0.00    -0.003 C 
HETATM    4  C5  UNL     1      -2.079  -0.495   0.453  1.00  0.00     0.005 C 
HETATM    5  C6  UNL     1      -1.697   0.655   1.283  1.00  0.00     0.002 C 
HETATM    6  C7  UNL     1      -0.827   1.678   0.665  1.00  0.00     0.017 C 
HETATM    7  C8  UNL     1       0.486   1.221   0.161  1.00  0.00     0.069 C 
HETATM    8  S1  UNL     1       0.307   1.065  -1.664  1.00  0.00    -0.162 SA
HETATM    9  C9  UNL     1      -1.127  -0.067  -1.841  1.00  0.00     0.079 C 
ENDROOT
BRANCH   1  10
HETATM   10  N1  UNL     1       2.322  -0.314   0.595  1.00  0.00    -0.420 N 
HETATM   11  C1  UNL     1       2.995  -0.273  -0.634  1.00  0.00     0.140 C 
ATOM     12  H1  UNL     1       2.845  -0.469   1.457  1.00  0.00     0.153 HD
ENDBRANCH   1  10
TORSDOF 1
