REMARK  1 active torsions:
REMARK  status: ('A' for Active; 'I' for Inactive)
REMARK    1  A    between atoms: N1_1  and  C1_5 
ROOT
HETATM    1  C1  UNL     1      -1.804   0.493  -0.140  1.00  0.00     0.124 C 
HETATM    2  C2  UNL     1      -1.996  -0.677   0.814  1.00  0.00     0.043 C 
HETATM    3  C3  UNL     1      -1.331  -1.541  -0.236  1.00  0.00    -0.009 C 
HETATM    4  C4  UNL     1       0.104  -1.811   0.052  1.00  0.00     0.010 C 
HETATM    5  C5  UNL     1       0.915  -0.669   0.492  1.00  0.00    -0.010 C 
HETATM    6  C6  UNL     1       2.397  -0.884   0.180  1.00  0.00     0.005 C 
HETATM    7  C7  UNL     1       2.979   0.499   0.246  1.00  0.00     0.001 C 
HETATM    8  C8  UNL     1       1.843   1.470   0.373  1.00  0.00     0.005 C 
HETATM    9  C9  UNL     1       0.676   0.634  -0.177  1.00  0.00    -0.008 C 
HETATM   10  C10 UNL     1      -0.605   1.249   0.287  1.00  0.00     0.043 C 
HETATM   11  C11 UNL     1      -1.598  -0.489  -1.240  1.00  0.00     0.043 C 
ENDROOT
BRANCH   1  12
HETATM   12  N1  UNL     1      -2.968   1.316  -0.322  1.00  0.00    -0.070 N 
ATOM     13  H13 UNL     1      -3.762   0.747  -0.615  1.00  0.00     0.275 HD
ATOM     14  H12 UNL     1      -3.312   1.647   0.579  1.00  0.00     0.275 HD
ATOM     15  H11 UNL     1      -2.839   2.100  -0.961  1.00  0.00     0.275 HD
ENDBRANCH   1  12
TORSDOF 1
