REMARK  1 active torsions:
REMARK  status: ('A' for Active; 'I' for Inactive)
REMARK    1  A    between atoms: C6_6  and  N1_7 
ROOT
HETATM    1  C1  UNL     1       2.247  -0.390   0.770  1.00  0.00     0.010 C 
HETATM    2  C2  UNL     1       1.479   0.189  -0.423  1.00  0.00    -0.019 C 
HETATM    3  C3  UNL     1       0.661  -0.877  -1.105  1.00  0.00     0.004 C 
HETATM    4  C4  UNL     1      -0.331  -1.547  -0.222  1.00  0.00     0.002 C 
HETATM    5  C5  UNL     1      -1.690  -0.883  -0.470  1.00  0.00     0.033 C 
HETATM    6  C6  UNL     1      -1.610   0.473   0.206  1.00  0.00     0.183 C 
HETATM    7  C7  UNL     1      -0.712   1.422  -0.494  1.00  0.00     0.033 C 
HETATM    8  C8  UNL     1       0.712   1.408  -0.055  1.00  0.00     0.006 C 
ENDROOT
BRANCH   6   9
HETATM    9  N1  UNL     1      -1.311   0.294   1.592  1.00  0.00    -0.075 N 
ATOM     10  H13 UNL     1      -1.974  -0.329   2.053  1.00  0.00     0.274 HD
ATOM     11  H12 UNL     1      -0.467  -0.260   1.737  1.00  0.00     0.274 HD
ATOM     12  H11 UNL     1      -1.257   1.206   2.046  1.00  0.00     0.274 HD
ENDBRANCH   6   9
TORSDOF 1
