REMARK  0 active torsions:
REMARK  status: ('A' for Active; 'I' for Inactive)
ROOT
HETATM    1  C1  UNL     1      -0.319  -0.826   1.255  1.00  0.00     0.009 C 
HETATM    2  C2  UNL     1      -1.323  -0.571   0.155  1.00  0.00    -0.013 C 
HETATM    3  C3  UNL     1      -1.407   0.956   0.019  1.00  0.00     0.009 C 
HETATM    4  C4  UNL     1       0.018   1.238  -0.479  1.00  0.00    -0.010 C 
HETATM    5  C5  UNL     1       0.935   1.205   0.738  1.00  0.00     0.009 C 
HETATM    6  C6  UNL     1       1.042  -0.312   0.931  1.00  0.00    -0.013 C 
HETATM    7  C7  UNL     1       1.498  -0.686  -0.475  1.00  0.00     0.009 C 
HETATM    8  C8  UNL     1       0.409   0.025  -1.289  1.00  0.00    -0.010 C 
HETATM    9  C9  UNL     1      -0.779  -0.935  -1.213  1.00  0.00     0.009 C 
ENDROOT
TORSDOF 0
