REMARK  7 active torsions:
REMARK  status: ('A' for Active; 'I' for Inactive)
REMARK    1  A    between atoms: C2_2  and  C5_5 
REMARK       I    between atoms: C5_5  and  N1_7 
REMARK    2  A    between atoms: N1_7  and  C6_9 
REMARK    3  A    between atoms: C6_9  and  C7_10 
REMARK    4  A    between atoms: C7_10  and  C8_11 
REMARK    5  A    between atoms: C8_11  and  C9_12 
REMARK    6  A    between atoms: C9_12  and  N2_13 
REMARK    7  A    between atoms: N2_13  and  S1_15 
ROOT
HETATM    1  C6  UNL     1      -0.301   1.210  -0.843  1.00  0.00     0.122 C 
ENDROOT
BRANCH   1   2
HETATM    2  N1  UNL     1      -1.493   0.487  -0.836  1.00  0.00    -0.360 N 
HETATM    3  C5  UNL     1      -2.457   0.433   0.171  1.00  0.00     0.225 C 
HETATM    4  O1  UNL     1      -2.095   0.803   1.299  1.00  0.00    -0.273 OA
ATOM      5  H1  UNL     1      -1.684  -0.070  -1.669  1.00  0.00     0.162 HD
BRANCH   3   6
HETATM    6  C2  UNL     1      -3.823  -0.094  -0.080  1.00  0.00     0.030 C 
HETATM    7  C1  UNL     1      -4.575  -0.047   1.228  1.00  0.00     0.024 C 
HETATM    8  C3  UNL     1      -4.543   0.813  -1.091  1.00  0.00     0.024 C 
HETATM    9  C4  UNL     1      -3.711  -1.465  -0.662  1.00  0.00     0.024 C 
ENDBRANCH   3   6
ENDBRANCH   1   2
BRANCH   1  10
HETATM   10  C7  UNL     1       0.963   0.351  -1.030  1.00  0.00     0.021 C 
BRANCH  10  11
HETATM   11  C8  UNL     1       1.366  -0.204   0.179  1.00  0.00     0.022 C 
BRANCH  11  12
HETATM   12  C9  UNL     1       2.686  -0.976   0.418  1.00  0.00     0.132 C 
BRANCH  12  13
HETATM   13  N2  UNL     1       3.553  -0.040  -0.232  1.00  0.00    -0.320 N 
ATOM     14  H2  UNL     1       3.270   0.545  -1.018  1.00  0.00     0.172 HD
BRANCH  13  15
HETATM   15  S1  UNL     1       5.062  -0.014   0.435  1.00  0.00     0.222 S 
HETATM   16  C10 UNL     1       6.608  -0.284  -0.117  1.00  0.00     0.185 C 
HETATM   17  O2  UNL     1       4.962   1.631   0.773  1.00  0.00    -0.206 OA
HETATM   18  O3  UNL     1       4.886  -0.546   1.847  1.00  0.00    -0.206 OA
ENDBRANCH  13  15
ENDBRANCH  12  13
ENDBRANCH  11  12
ENDBRANCH  10  11
ENDBRANCH   1  10
TORSDOF 7
