REMARK  2 active torsions:
REMARK  status: ('A' for Active; 'I' for Inactive)
REMARK    1  A    between atoms: C2_2  and  C3_3 
REMARK    2  A    between atoms: C5_6  and  N1_7 
ROOT
HETATM    1  C3  UNL     1       0.172   0.128   0.505  1.00  0.00     0.176 C 
HETATM    2  O1  UNL     1       0.234   1.474   0.226  1.00  0.00    -0.378 OA
HETATM    3  C4  UNL     1      -1.060   1.410  -0.279  1.00  0.00     0.204 C 
HETATM    4  C5  UNL     1      -0.986  -0.078  -0.453  1.00  0.00     0.239 C 
ENDROOT
BRANCH   4   5
HETATM    5  N1  UNL     1      -2.034  -0.849   0.136  1.00  0.00    -0.070 N 
ATOM      6  H13 UNL     1      -1.685  -1.739   0.492  1.00  0.00     0.274 HD
ATOM      7  H12 UNL     1      -2.348  -0.437   1.015  1.00  0.00     0.274 HD
ATOM      8  H11 UNL     1      -2.813  -0.988  -0.508  1.00  0.00     0.274 HD
ENDBRANCH   4   5
BRANCH   1   9
HETATM    9  C2  UNL     1       1.404  -0.624   0.143  1.00  0.00    -0.003 C 
HETATM   10  C1  UNL     1       2.547  -0.219   0.686  1.00  0.00     0.009 C 
ENDBRANCH   1   9
TORSDOF 2
