REMARK  2 active torsions:
REMARK  status: ('A' for Active; 'I' for Inactive)
REMARK    1  A    between atoms: O1_3  and  N1_4 
REMARK    2  A    between atoms: N1_4  and  C3_5 
ROOT
HETATM    1  C1  UNL     1       4.351   0.372  -0.585  1.00  0.00     0.046 C 
HETATM    2  C2  UNL     1       3.142   0.462  -0.553  1.00  0.00     0.068 C 
HETATM    3  O1  UNL     1       1.784   0.576  -0.530  1.00  0.00    -0.193 OA
ENDROOT
BRANCH   3   4
HETATM    4  N1  UNL     1       0.961  -0.399  -0.077  1.00  0.00    -0.079 NA
BRANCH   4   5
HETATM    5  C3  UNL     1      -0.371  -0.130  -0.529  1.00  0.00     0.108 C 
HETATM    6  C4  UNL     1      -1.420  -1.149  -0.095  1.00  0.00     0.024 C 
HETATM    7  C5  UNL     1      -2.392   0.039  -0.030  1.00  0.00     0.003 C 
HETATM    8  C6  UNL     1      -1.151   0.872   0.321  1.00  0.00     0.024 C 
ENDBRANCH   4   5
ENDBRANCH   3   4
TORSDOF 2
