REMARK  1 active torsions:
REMARK  status: ('A' for Active; 'I' for Inactive)
REMARK    1  A    between atoms: C2_2  and  N1_3 
ROOT
HETATM    1  N1  UNL     1       0.267   0.163   0.181  1.00  0.00    -0.366 N 
HETATM    2  C3  UNL     1      -0.935   0.862   0.560  1.00  0.00     0.151 C 
HETATM    3  C4  UNL     1      -1.941  -0.287   0.386  1.00  0.00     0.254 C 
HETATM    4  N2  UNL     1      -1.552  -0.703  -0.953  1.00  0.00    -0.058 N 
ATOM      5  H21 UNL     1      -1.841  -0.083  -1.709  1.00  0.00     0.279 HD
ATOM      6  H22 UNL     1      -2.040  -1.520  -1.321  1.00  0.00     0.279 HD
HETATM    7  C5  UNL     1      -0.093  -0.857  -0.775  1.00  0.00     0.356 C 
ENDROOT
BRANCH   1   8
HETATM    8  C2  UNL     1       1.564   0.423   0.656  1.00  0.00     0.077 C 
HETATM    9  C1  UNL     1       2.632   0.111  -0.095  1.00  0.00     0.029 C 
ENDBRANCH   1   8
TORSDOF 1
