REMARK  2 active torsions:
REMARK  status: ('A' for Active; 'I' for Inactive)
REMARK    1  A    between atoms: N1_1  and  C1_5 
REMARK    2  A    between atoms: C1_5  and  C2_6 
ROOT
HETATM    1  C2  UNL     1      -0.141  -0.143  -0.062  1.00  0.00     0.001 A 
HETATM    2  C3  UNL     1      -0.515   1.144   0.236  1.00  0.00     0.117 A 
HETATM    3  N2  UNL     1      -1.849   1.165   0.175  1.00  0.00    -0.312 N 
ATOM      4  H2  UNL     1      -2.416   1.994   0.351  1.00  0.00     0.186 HD
HETATM    5  N3  UNL     1      -2.342  -0.011  -0.139  1.00  0.00    -0.312 N 
ATOM      6  H3  UNL     1      -3.328  -0.248  -0.246  1.00  0.00     0.186 HD
HETATM    7  C4  UNL     1      -1.307  -0.835  -0.291  1.00  0.00     0.117 A 
ENDROOT
BRANCH   1   8
HETATM    8  C1  UNL     1       1.261  -0.675  -0.124  1.00  0.00     0.271 C 
BRANCH   8   9
HETATM    9  N1  UNL     1       2.181   0.375   0.180  1.00  0.00    -0.075 N 
ATOM     10  H13 UNL     1       2.050   1.189  -0.421  1.00  0.00     0.274 HD
ATOM     11  H12 UNL     1       1.976   0.820   1.075  1.00  0.00     0.274 HD
ATOM     12  H11 UNL     1       3.134   0.013   0.138  1.00  0.00     0.274 HD
ENDBRANCH   8   9
ENDBRANCH   1   8
TORSDOF 2
