REMARK  0 active torsions:
REMARK  status: ('A' for Active; 'I' for Inactive)
ROOT
HETATM    1  C1  UNL     1      -0.366   1.087   0.021  1.00  0.00     0.261 C 
HETATM    2  C2  UNL     1      -1.136  -0.213  -0.025  1.00  0.00     0.261 C 
HETATM    3  N1  UNL     1      -0.122  -1.162   0.421  1.00  0.00    -0.050 N 
ATOM      4  H11 UNL     1      -0.380  -2.148   0.374  1.00  0.00     0.279 HD
ATOM      5  H12 UNL     1       0.066  -1.178   1.423  1.00  0.00     0.279 HD
HETATM    6  C3  UNL     1       0.983  -0.751  -0.429  1.00  0.00     0.462 C 
HETATM    7  N2  UNL     1       1.005   0.692  -0.204  1.00  0.00    -0.050 N 
ATOM      8  H21 UNL     1       1.637   0.976   0.545  1.00  0.00     0.279 HD
ATOM      9  H22 UNL     1       1.459   1.212  -0.955  1.00  0.00     0.279 HD
ENDROOT
TORSDOF 0
