REMARK  7 active torsions:
REMARK  status: ('A' for Active; 'I' for Inactive)
REMARK    1  A    between atoms: C3_3  and  N1_4 
REMARK    2  A    between atoms: C6_9  and  N3_10 
REMARK    3  A    between atoms: N3_10  and  C7_12 
REMARK    4  A    between atoms: C7_12  and  C8_13 
REMARK    5  A    between atoms: C8_13  and  N4_14 
REMARK    6  A    between atoms: C11_17  and  N5_18 
REMARK    7  A    between atoms: C14_26  and  N7_27 
ROOT
HETATM    1  C1  UNL     1       7.839   1.696   0.905  1.00  0.00     0.014 C 
HETATM    2  C2  UNL     1       7.283   0.633   1.019  1.00  0.00    -0.096 C 
HETATM    3  C3  UNL     1       6.588  -0.649   1.156  1.00  0.00     0.243 C 
ENDROOT
BRANCH   3   4
HETATM    4  N1  UNL     1       5.151  -0.485   1.224  1.00  0.00    -0.264 N 
HETATM    5  N2  UNL     1       4.446  -0.317   2.319  1.00  0.00    -0.306 N 
HETATM    6  C4  UNL     1       3.139  -0.196   2.029  1.00  0.00     0.126 A 
ATOM      7  H2  UNL     1       4.837  -0.283   3.261  1.00  0.00     0.186 HD
HETATM    8  C5  UNL     1       3.002  -0.294   0.662  1.00  0.00     0.071 A 
HETATM    9  C6  UNL     1       1.908  -0.243  -0.189  1.00  0.00     0.132 A 
HETATM   10  C15 UNL     1       4.296  -0.476   0.188  1.00  0.00     0.154 A 
HETATM   11  N6  UNL     1       2.117  -0.376  -1.511  1.00  0.00    -0.176 N 
HETATM   12  C14 UNL     1       3.382  -0.554  -1.979  1.00  0.00     0.679 A 
ATOM     13  H6  UNL     1       1.331  -0.344  -2.160  1.00  0.00     0.186 HD
HETATM   14  N8  UNL     1       4.437  -0.602  -1.147  1.00  0.00    -0.174 N 
ATOM     15  H8  UNL     1       5.370  -0.737  -1.536  1.00  0.00     0.186 HD
BRANCH   9  16
HETATM   16  N3  UNL     1       0.762  -0.072   0.351  1.00  0.00    -0.373 N 
ATOM     17  H3  UNL     1       0.724   0.016   1.366  1.00  0.00     0.161 HD
BRANCH  16  18
HETATM   18  C7  UNL     1      -0.484   0.005  -0.379  1.00  0.00     0.151 C 
BRANCH  18  19
HETATM   19  C8  UNL     1      -1.598  -0.283   0.582  1.00  0.00     0.292 C 
BRANCH  19  20
HETATM   20  N4  UNL     1      -2.909  -0.236  -0.029  1.00  0.00     0.090 N 
HETATM   21  C9  UNL     1      -3.872  -0.534   1.022  1.00  0.00     0.274 C 
HETATM   22  C10 UNL     1      -5.235  -0.680   0.382  1.00  0.00     0.063 C 
HETATM   23  C11 UNL     1      -5.584   0.695  -0.195  1.00  0.00     0.186 C 
HETATM   24  C12 UNL     1      -4.558   0.968  -1.273  1.00  0.00     0.063 C 
HETATM   25  C13 UNL     1      -3.191   1.023  -0.640  1.00  0.00     0.274 C 
BRANCH  23  26
HETATM   26  N5  UNL     1      -6.920   0.617  -0.750  1.00  0.00    -0.075 N 
ATOM     27  H53 UNL     1      -7.022  -0.135  -1.431  1.00  0.00     0.274 HD
ATOM     28  H52 UNL     1      -7.610   0.284  -0.076  1.00  0.00     0.274 HD
ATOM     29  H51 UNL     1      -7.152   1.533  -1.134  1.00  0.00     0.274 HD
ENDBRANCH  23  26
ENDBRANCH  19  20
ENDBRANCH  18  19
ENDBRANCH  16  18
ENDBRANCH   9  16
BRANCH  12  30
HETATM   30  N7  UNL     1       3.572  -0.680  -3.248  1.00  0.00    -0.234 N 
ATOM     31  H72 UNL     1       2.772  -0.644  -3.879  1.00  0.00     0.174 HD
ATOM     32  H71 UNL     1       4.520  -0.813  -3.599  1.00  0.00     0.174 HD
ENDBRANCH  12  30
ENDBRANCH   3   4
TORSDOF 7
