REMARK  6 active torsions:
REMARK  status: ('A' for Active; 'I' for Inactive)
REMARK    1  A    between atoms: N1_1  and  C1_4 
REMARK    2  A    between atoms: C2_7  and  N3_8 
REMARK    3  A    between atoms: C7_18  and  N6_19 
REMARK    4  A    between atoms: N6_19  and  C8_21 
REMARK    5  A    between atoms: C8_21  and  C9_22 
REMARK    6  A    between atoms: C9_22  and  C10_25 
ROOT
HETATM    1  C1  UNL     1       0.255   2.613  -1.358  1.00  0.00     0.705 A 
HETATM    2  N2  UNL     1      -0.840   1.982  -0.911  1.00  0.00    -0.022 N 
ATOM      3  H2  UNL     1      -1.750   2.388  -1.128  1.00  0.00     0.203 HD
HETATM    4  C2  UNL     1      -0.809   0.839  -0.190  1.00  0.00     0.709 A 
HETATM    5  N5  UNL     1       0.383   0.295   0.103  1.00  0.00    -0.021 N 
ATOM      6  H5  UNL     1       0.440  -0.567   0.646  1.00  0.00     0.203 HD
HETATM    7  C7  UNL     1       1.517   0.913  -0.337  1.00  0.00     0.707 A 
HETATM    8  N7  UNL     1       1.441   2.045  -1.049  1.00  0.00    -0.022 N 
ATOM      9  H7  UNL     1       2.302   2.490  -1.366  1.00  0.00     0.203 HD
ENDROOT
BRANCH   7  10
HETATM   10  N6  UNL     1       2.681   0.433  -0.083  1.00  0.00    -0.221 N 
ATOM     11  H6  UNL     1       3.500   0.931  -0.432  1.00  0.00     0.177 HD
BRANCH  10  12
HETATM   12  C8  UNL     1       2.882  -0.778   0.674  1.00  0.00     0.203 C 
BRANCH  12  13
HETATM   13  C9  UNL     1       4.298  -0.912   1.177  1.00  0.00     0.273 C 
HETATM   14  F1  UNL     1       4.359  -2.111   1.885  1.00  0.00    -0.219 F 
HETATM   15 BR1  UNL     1       4.687   0.597   2.297  1.00  0.00    -0.037 Br
BRANCH  13  16
HETATM   16  C10 UNL     1       5.300  -1.013   0.060  1.00  0.00     0.435 C 
HETATM   17  F2  UNL     1       5.311   0.067  -0.772  1.00  0.00    -0.167 F 
HETATM   18  F3  UNL     1       5.094  -2.147  -0.693  1.00  0.00    -0.167 F 
HETATM   19  F4  UNL     1       6.557  -1.100   0.658  1.00  0.00    -0.167 F 
ENDBRANCH  13  16
ENDBRANCH  12  13
ENDBRANCH  10  12
ENDBRANCH   7  10
BRANCH   4  20
HETATM   20  N3  UNL     1      -2.033   0.245   0.240  1.00  0.00    -0.213 N 
HETATM   21  C3  UNL     1      -3.290   0.914  -0.116  1.00  0.00     0.168 C 
HETATM   22  C4  UNL     1      -4.156  -0.142  -0.771  1.00  0.00     0.252 C 
HETATM   23  N4  UNL     1      -4.511  -1.071   0.311  1.00  0.00    -0.072 N 
HETATM   24  C5  UNL     1      -3.350  -1.792   0.727  1.00  0.00     0.252 C 
ATOM     25  H42 UNL     1      -4.968  -0.597   1.090  1.00  0.00     0.277 HD
ATOM     26  H41 UNL     1      -5.276  -1.693   0.048  1.00  0.00     0.277 HD
HETATM   27  C6  UNL     1      -2.135  -0.959   0.995  1.00  0.00     0.168 C 
ENDBRANCH   4  20
BRANCH   1  28
HETATM   28  N1  UNL     1       0.254   3.698  -2.043  1.00  0.00    -0.234 N 
ATOM     29  H12 UNL     1      -0.642   4.127  -2.276  1.00  0.00     0.174 HD
ATOM     30  H11 UNL     1       1.087   4.178  -2.383  1.00  0.00     0.174 HD
ENDBRANCH   1  28
TORSDOF 6
