REMARK  5 active torsions:
REMARK  status: ('A' for Active; 'I' for Inactive)
REMARK    1  A    between atoms: C3_5  and  N2_6 
REMARK       I    between atoms: N2_6  and  C4_8 
REMARK    2  A    between atoms: C5_14  and  C6_15 
REMARK    3  A    between atoms: C6_15  and  C7_16 
REMARK    4  A    between atoms: C7_16  and  C8_17 
REMARK    5  A    between atoms: N7_23  and  C10_25 
ROOT
HETATM    1  C1  UNL     1      -1.175  -1.248   1.501  1.00  0.00     0.069 C 
HETATM    2  C2  UNL     1      -1.759  -0.599   0.258  1.00  0.00     0.020 A 
HETATM    3  N1  UNL     1      -3.018  -0.295   0.136  1.00  0.00    -0.339 N 
ATOM      4  H1  UNL     1      -3.674  -0.484   0.894  1.00  0.00     0.168 HD
HETATM    5  C3  UNL     1      -3.434   0.267  -0.997  1.00  0.00     0.151 A 
HETATM    6  S1  UNL     1      -2.007   0.374  -1.926  1.00  0.00    -0.057 SA
HETATM    7  C5  UNL     1      -0.930  -0.319  -0.798  1.00  0.00     0.009 A 
ENDROOT
BRANCH   7   8
HETATM    8  C6  UNL     1       0.557  -0.565  -0.900  1.00  0.00     0.055 C 
BRANCH   8   9
HETATM    9  C7  UNL     1       1.192   0.533  -0.099  1.00  0.00     0.072 C 
BRANCH   9  10
HETATM   10  C8  UNL     1       2.683   0.379  -0.123  1.00  0.00     0.070 A 
HETATM   11  N5  UNL     1       3.612   1.142   0.428  1.00  0.00    -0.296 N 
HETATM   12  N6  UNL     1       4.836   0.849   0.308  1.00  0.00    -0.279 N 
ATOM     13  H5  UNL     1       3.339   1.973   0.953  1.00  0.00     0.187 HD
HETATM   14  C9  UNL     1       5.180  -0.239  -0.381  1.00  0.00     0.167 A 
ATOM     15  H6  UNL     1       5.552   1.438   0.733  1.00  0.00     0.189 HD
HETATM   16  N7  UNL     1       6.382  -0.707  -0.613  1.00  0.00    -0.313 N 
HETATM   17  S2  UNL     1       3.652  -0.838  -0.859  1.00  0.00    -0.038 SA
ATOM     18  H7  UNL     1       6.513  -1.558  -1.160  1.00  0.00     0.170 HD
BRANCH  16  19
HETATM   19  C10 UNL     1       7.484  -0.012  -0.093  1.00  0.00     0.354 C 
HETATM   20  O1  UNL     1       8.593  -0.170  -0.680  1.00  0.00    -0.283 OA
ENDBRANCH  16  19
ENDBRANCH   9  10
ENDBRANCH   8   9
ENDBRANCH   7   8
BRANCH   5  21
HETATM   21  N2  UNL     1      -4.655   0.649  -1.314  1.00  0.00    -0.311 N 
HETATM   22  C4  UNL     1      -5.704   0.467  -0.377  1.00  0.00     0.187 C 
HETATM   23  N3  UNL     1      -6.456  -0.592  -0.481  1.00  0.00    -0.373 N 
HETATM   24  N4  UNL     1      -5.969   1.393   0.668  1.00  0.00    -0.064 NA
ATOM     25  H32 UNL     1      -6.266  -1.257  -1.231  1.00  0.00     0.158 HD
ATOM     26  H31 UNL     1      -7.210  -0.723   0.193  1.00  0.00     0.158 HD
ATOM     27  H2  UNL     1      -4.843   1.071  -2.223  1.00  0.00     0.170 HD
ENDBRANCH   5  21
TORSDOF 5
