REMARK  6 active torsions:
REMARK  status: ('A' for Active; 'I' for Inactive)
REMARK    1  A    between atoms: C2_2  and  C3_3 
REMARK    2  A    between atoms: C3_3  and  C4_4 
REMARK    3  A    between atoms: C7_13  and  N4_14 
REMARK    4  A    between atoms: N4_14  and  C8_16 
REMARK    5  A    between atoms: C11_25  and  N8_26 
REMARK    6  A    between atoms: N8_26  and  C12_28 
ROOT
HETATM    1  C12 UNL     1       0.905   1.763  -2.936  1.00  0.00     0.245 C 
HETATM    2  C13 UNL     1       0.297   0.961  -3.998  1.00  0.00     0.078 C 
HETATM    3  N9  UNL     1      -0.197   0.341  -4.845  1.00  0.00    -0.196 NA
ENDROOT
BRANCH   1   4
HETATM    4  N8  UNL     1       1.174   0.918  -1.815  1.00  0.00    -0.363 N 
ATOM      5  H8  UNL     1       2.140   0.609  -1.708  1.00  0.00     0.162 HD
BRANCH   4   6
HETATM    6  C11 UNL     1       0.361   0.509  -0.943  1.00  0.00     0.132 A 
HETATM    7  N7  UNL     1      -0.930   0.904  -1.062  1.00  0.00    -0.175 N 
HETATM    8  C7  UNL     1      -1.842   0.459  -0.187  1.00  0.00     0.700 A 
ATOM      9  H7  UNL     1      -1.206   1.536  -1.813  1.00  0.00     0.186 HD
HETATM   10  N3  UNL     1      -1.519  -0.372   0.809  1.00  0.00    -0.174 N 
HETATM   11  C6  UNL     1      -0.251  -0.799   0.976  1.00  0.00     0.150 A 
ATOM     12  H3  UNL     1      -2.244  -0.688   1.453  1.00  0.00     0.186 HD
HETATM   13  N2  UNL     1       0.048  -1.654   1.969  1.00  0.00    -0.285 N 
HETATM   14  C14 UNL     1       0.735  -0.340   0.066  1.00  0.00     0.062 A 
HETATM   15  N1  UNL     1       1.289  -2.058   2.077  1.00  0.00    -0.310 N 
ATOM     16  H2  UNL     1      -0.669  -1.978   2.618  1.00  0.00     0.188 HD
HETATM   17  C5  UNL     1       2.268  -1.680   1.274  1.00  0.00     0.115 A 
ATOM     18  H1  UNL     1       1.515  -2.707   2.831  1.00  0.00     0.186 HD
HETATM   19  C4  UNL     1       2.020  -0.778   0.207  1.00  0.00    -0.024 A 
BRANCH   8  20
HETATM   20  N4  UNL     1      -3.056   0.859  -0.336  1.00  0.00    -0.022 N 
ATOM     21  H4  UNL     1      -3.253   1.492  -1.111  1.00  0.00     0.203 HD
BRANCH  20  22
HETATM   22  C8  UNL     1      -4.138   0.485   0.496  1.00  0.00     0.696 A 
HETATM   23  N5  UNL     1      -4.843   1.207   1.385  1.00  0.00    -0.200 N 
HETATM   24  C9  UNL     1      -5.794   0.448   1.959  1.00  0.00     0.123 A 
ATOM     25  H5  UNL     1      -4.680   2.192   1.595  1.00  0.00     0.183 HD
HETATM   26  C10 UNL     1      -5.678  -0.808   1.403  1.00  0.00     0.123 A 
HETATM   27  N6  UNL     1      -4.665  -0.753   0.519  1.00  0.00    -0.200 N 
ATOM     28  H6  UNL     1      -4.343  -1.536  -0.051  1.00  0.00     0.183 HD
ENDBRANCH  20  22
ENDBRANCH   8  20
BRANCH  19  29
HETATM   29  C3  UNL     1       3.142  -0.317  -0.595  1.00  0.00     0.041 C 
BRANCH  29  30
HETATM   30  C2  UNL     1       3.695   0.944   0.026  1.00  0.00     0.000 C 
HETATM   31  C1  UNL     1       4.202   0.657   1.461  1.00  0.00     0.005 C 
ENDBRANCH  29  30
ENDBRANCH  19  29
ENDBRANCH   4   6
ENDBRANCH   1   4
TORSDOF 6
