REMARK  6 active torsions:
REMARK  status: ('A' for Active; 'I' for Inactive)
REMARK    1  A    between atoms: C2_2  and  C3_3 
REMARK    2  A    between atoms: C3_3  and  N1_4 
REMARK    3  A    between atoms: N1_4  and  C4_6 
REMARK    4  A    between atoms: C5_9  and  N3_10 
REMARK    5  A    between atoms: C11_20  and  N6_21 
REMARK    6  A    between atoms: N6_21  and  C12_23 
ROOT
HETATM    1  C4  UNL     1      -0.647   1.589  -0.732  1.00  0.00     0.707 A 
HETATM    2  N2  UNL     1       0.513   0.991  -0.416  1.00  0.00    -0.021 N 
ATOM      3  H2  UNL     1       1.358   1.560  -0.376  1.00  0.00     0.203 HD
HETATM    4  C5  UNL     1       0.612  -0.322  -0.150  1.00  0.00     0.709 A 
HETATM    5  N5  UNL     1      -0.513  -1.051  -0.210  1.00  0.00    -0.021 N 
ATOM      6  H5  UNL     1      -0.472  -2.051  -0.014  1.00  0.00     0.203 HD
HETATM    7  C11 UNL     1      -1.700  -0.486  -0.525  1.00  0.00     0.709 A 
HETATM    8  N8  UNL     1      -1.767   0.830  -0.785  1.00  0.00    -0.021 N 
ATOM      9  H8  UNL     1      -2.662   1.258  -1.022  1.00  0.00     0.203 HD
ENDROOT
BRANCH   7  10
HETATM   10  N6  UNL     1      -2.771  -1.176  -0.583  1.00  0.00    -0.196 N 
ATOM     11  H6  UNL     1      -3.635  -0.691  -0.827  1.00  0.00     0.180 HD
BRANCH  10  12
HETATM   12  C12 UNL     1      -2.846  -2.594  -0.328  1.00  0.00     0.299 C 
HETATM   13  C13 UNL     1      -3.172  -2.853   1.123  1.00  0.00     0.057 C 
HETATM   14  C14 UNL     1      -4.676  -2.986   1.159  1.00  0.00     0.031 C 
HETATM   15  C15 UNL     1      -5.099  -3.166  -0.261  1.00  0.00     0.235 C 
HETATM   16  N7  UNL     1      -3.945  -3.129  -1.099  1.00  0.00    -0.054 N 
ATOM     17  H72 UNL     1      -4.104  -2.616  -1.966  1.00  0.00     0.279 HD
ATOM     18  H71 UNL     1      -3.730  -4.036  -1.514  1.00  0.00     0.279 HD
ENDBRANCH  10  12
ENDBRANCH   7  10
BRANCH   4  19
HETATM   19  N3  UNL     1       1.891  -0.851   0.174  1.00  0.00    -0.215 N 
HETATM   20  C6  UNL     1       2.195  -0.831   1.571  1.00  0.00     0.146 C 
HETATM   21  C7  UNL     1       3.541  -1.317   1.943  1.00  0.00     0.064 C 
HETATM   22  C8  UNL     1       4.657  -0.974   1.031  1.00  0.00     0.057 C 
HETATM   23  N4  UNL     1       4.426   0.038   0.080  1.00  0.00    -0.401 N 
HETATM   24  C9  UNL     1       3.816  -0.347  -1.139  1.00  0.00     0.139 C 
ATOM     25  H4  UNL     1       4.687   1.007   0.261  1.00  0.00     0.158 HD
HETATM   26  C10 UNL     1       2.697  -1.330  -0.929  1.00  0.00     0.160 C 
ENDBRANCH   4  19
BRANCH   1  27
HETATM   27  N1  UNL     1      -0.706   2.853  -0.981  1.00  0.00    -0.225 N 
ATOM     28  H1  UNL     1      -1.593   3.295  -1.220  1.00  0.00     0.177 HD
BRANCH  27  29
HETATM   29  C3  UNL     1       0.515   3.633  -0.914  1.00  0.00     0.137 C 
BRANCH  29  30
HETATM   30  C2  UNL     1       0.095   5.091  -1.141  1.00  0.00     0.016 C 
HETATM   31  C1  UNL     1      -0.878   5.416  -0.017  1.00  0.00     0.006 C 
ENDBRANCH  29  30
ENDBRANCH  27  29
ENDBRANCH   1  27
TORSDOF 6
