REMARK  9 active torsions:
REMARK  status: ('A' for Active; 'I' for Inactive)
REMARK    1  A    between atoms: C1_2  and  C2_3 
REMARK       I    between atoms: C1_2  and  N1_12 
REMARK    2  A    between atoms: C2_3  and  C3_4 
REMARK    3  A    between atoms: C3_4  and  C4_5 
REMARK    4  A    between atoms: C4_5  and  C5_6 
REMARK    5  A    between atoms: C5_6  and  C6_7 
REMARK    6  A    between atoms: C6_7  and  C7_8 
REMARK    7  A    between atoms: N1_12  and  C8_14 
REMARK    8  A    between atoms: C8_14  and  C9_15 
REMARK    9  A    between atoms: C9_15  and  N2_16 
REMARK       I    between atoms: N2_16  and  C10_18 
REMARK       I    between atoms: C10_18  and  N3_20 
ROOT
HETATM    1  O1  UNL     1       0.770   0.495   1.001  1.00  0.00    -0.274 OA
HETATM    2  C1  UNL     1       1.284   0.221  -0.105  1.00  0.00     0.217 C 
HETATM    3  N1  UNL     1       0.492  -0.258  -1.154  1.00  0.00    -0.360 N 
ATOM      4  H1  UNL     1       0.944  -0.478  -2.042  1.00  0.00     0.162 HD
ENDROOT
BRANCH   3   5
HETATM    5  C8  UNL     1      -0.918  -0.454  -1.043  1.00  0.00     0.142 C 
BRANCH   5   6
HETATM    6  C9  UNL     1      -1.621   0.840  -0.775  1.00  0.00     0.144 C 
BRANCH   6   7
HETATM    7  N2  UNL     1      -3.035   0.615  -0.691  1.00  0.00    -0.341 N 
HETATM    8  C10 UNL     1      -3.700  -0.191   0.251  1.00  0.00     0.318 C 
HETATM    9  O2  UNL     1      -2.977  -0.782   1.127  1.00  0.00    -0.247 OA
HETATM   10  N3  UNL     1      -5.108  -0.370   0.265  1.00  0.00    -0.334 N 
HETATM   11  C11 UNL     1      -6.041   0.227  -0.652  1.00  0.00     0.127 C 
HETATM   12  C14 UNL     1      -5.865  -1.173   1.187  1.00  0.00     0.127 C 
HETATM   13  C12 UNL     1      -7.171   0.611   0.315  1.00  0.00     0.022 C 
HETATM   14  C13 UNL     1      -7.304  -0.652   1.109  1.00  0.00     0.022 C 
ATOM     15  H2  UNL     1      -3.617   1.087  -1.384  1.00  0.00     0.164 HD
ENDBRANCH   6   7
ENDBRANCH   5   6
ENDBRANCH   3   5
BRANCH   2  16
HETATM   16  C2  UNL     1       2.754   0.393  -0.351  1.00  0.00     0.103 C 
BRANCH  16  17
HETATM   17  C3  UNL     1       3.360   0.914   0.921  1.00  0.00     0.009 C 
BRANCH  17  18
HETATM   18  C4  UNL     1       4.845   1.103   0.714  1.00  0.00     0.001 C 
BRANCH  18  19
HETATM   19  C5  UNL     1       5.554  -0.172   0.349  1.00  0.00     0.004 C 
BRANCH  19  20
HETATM   20  C6  UNL     1       7.028   0.120   0.165  1.00  0.00     0.059 C 
BRANCH  20  21
HETATM   21  C7  UNL     1       7.722  -1.180  -0.202  1.00  0.00     0.188 C 
HETATM   22 CL1  UNL     1       9.465  -0.902  -0.432  1.00  0.00    -0.084 Cl
HETATM   23 CL2  UNL     1       7.437  -2.374   1.100  1.00  0.00    -0.084 Cl
HETATM   24 CL3  UNL     1       6.994  -1.823  -1.688  1.00  0.00    -0.084 Cl
ENDBRANCH  20  21
ENDBRANCH  19  20
ENDBRANCH  18  19
ENDBRANCH  17  18
ENDBRANCH  16  17
ENDBRANCH   2  16
TORSDOF 9
