REMARK  8 active torsions:
REMARK  status: ('A' for Active; 'I' for Inactive)
REMARK    1  A    between atoms: C2_2  and  C3_3 
REMARK    2  A    between atoms: C3_3  and  C4_4 
REMARK    3  A    between atoms: C4_4  and  C5_5 
REMARK       I    between atoms: C5_5  and  N1_7 
REMARK    4  A    between atoms: N1_7  and  C6_9 
REMARK    5  A    between atoms: N3_23  and  C16_24 
REMARK    6  A    between atoms: C16_24  and  C17_25 
REMARK    7  A    between atoms: C17_25  and  C18_26 
REMARK    8  A    between atoms: C18_26  and  C19_27 
ROOT
HETATM    1  C3  UNL     1      -1.185  -1.149   0.111  1.00  0.00     0.213 C 
HETATM    2  N2  UNL     1      -1.172  -1.924   1.362  1.00  0.00    -0.047 N 
ATOM      3  H21 UNL     1      -1.398  -1.327   2.157  1.00  0.00     0.280 HD
ATOM      4  H22 UNL     1      -0.219  -2.188   1.612  1.00  0.00     0.280 HD
HETATM    5  C12 UNL     1      -2.013  -3.060   1.336  1.00  0.00     0.249 C 
HETATM    6  C13 UNL     1      -3.424  -2.842   0.940  1.00  0.00     0.100 C 
HETATM    7  C14 UNL     1      -4.373  -2.743   2.120  1.00  0.00     0.021 C 
HETATM    8  C15 UNL     1      -3.585  -1.550   0.181  1.00  0.00     0.231 C 
HETATM    9  O2  UNL     1      -4.649  -1.245  -0.386  1.00  0.00    -0.273 OA
HETATM   10  N3  UNL     1      -2.521  -0.592   0.068  1.00  0.00    -0.297 N 
ENDROOT
BRANCH   1  11
HETATM   11  C2  UNL     1      -0.924  -2.110  -1.009  1.00  0.00     0.058 C 
HETATM   12  C1  UNL     1      -0.880  -1.504  -2.375  1.00  0.00     0.009 C 
ENDBRANCH   1  11
BRANCH   1  13
HETATM   13  C4  UNL     1      -0.150  -0.105   0.164  1.00  0.00     0.164 C 
BRANCH  13  14
HETATM   14  C5  UNL     1       1.225  -0.538   0.390  1.00  0.00     0.222 C 
HETATM   15  O1  UNL     1       1.489  -1.724   0.670  1.00  0.00    -0.273 OA
HETATM   16  N1  UNL     1       2.344   0.368   0.304  1.00  0.00    -0.356 N 
ATOM     17  H1  UNL     1       2.182   1.349   0.078  1.00  0.00     0.162 HD
BRANCH  16  18
HETATM   18  C6  UNL     1       3.681  -0.096   0.533  1.00  0.00     0.084 C 
HETATM   19  C7  UNL     1       4.328   0.581   1.703  1.00  0.00     0.025 C 
HETATM   20  C8  UNL     1       4.831   1.969   1.380  1.00  0.00     0.002 C 
HETATM   21  C9  UNL     1       5.721   1.996   0.163  1.00  0.00     0.000 C 
HETATM   22  C10 UNL     1       4.908   1.465  -1.000  1.00  0.00     0.002 C 
HETATM   23  C11 UNL     1       4.561   0.030  -0.690  1.00  0.00     0.025 C 
ENDBRANCH  16  18
ENDBRANCH  13  14
ENDBRANCH   1  13
BRANCH  10  24
HETATM   24  C16 UNL     1      -2.806   0.764  -0.063  1.00  0.00     0.069 C 
BRANCH  24  25
HETATM   25  C17 UNL     1      -2.971   1.350  -1.432  1.00  0.00     0.047 C 
BRANCH  25  26
HETATM   26  C18 UNL     1      -3.297   2.828  -1.314  1.00  0.00     0.036 C 
BRANCH  26  27
HETATM   27  C19 UNL     1      -2.228   3.611  -0.611  1.00  0.00     0.222 C 
HETATM   28  F1  UNL     1      -1.006   3.529  -1.276  1.00  0.00    -0.255 F 
ENDBRANCH  26  27
ENDBRANCH  25  26
ENDBRANCH  24  25
ENDBRANCH  10  24
TORSDOF 8
