REMARK  11 active torsions:
REMARK  status: ('A' for Active; 'I' for Inactive)
REMARK       I    between atoms: C1_2  and  N4_20 
REMARK       I    between atoms: N2_3  and  C2_5 
REMARK    1  A    between atoms: C2_5  and  C3_7 
REMARK    2  A    between atoms: C3_7  and  C4_8 
REMARK    3  A    between atoms: C4_8  and  C5_9 
REMARK    4  A    between atoms: C5_9  and  C6_10 
REMARK    5  A    between atoms: C6_10  and  C7_11 
REMARK    6  A    between atoms: C7_11  and  N3_12 
REMARK       I    between atoms: N3_12  and  C8_14 
REMARK    7  A    between atoms: C8_14  and  C9_16 
REMARK    8  A    between atoms: N4_20  and  C11_22 
REMARK    9  A    between atoms: C11_22  and  C12_23 
REMARK   10  A    between atoms: C12_23  and  C13_24 
REMARK   11  A    between atoms: C13_24  and  N5_25 
ROOT
HETATM    1  N1  UNL     1      -2.789   0.307   2.652  1.00  0.00    -0.063 NA
HETATM    2  C1  UNL     1      -1.687   0.407   1.764  1.00  0.00     0.190 C 
HETATM    3  N2  UNL     1      -0.511  -0.048   2.091  1.00  0.00    -0.301 N 
ATOM      4  H2  UNL     1      -0.366  -0.487   3.000  1.00  0.00     0.171 HD
HETATM    5  C2  UNL     1       0.566   0.071   1.176  1.00  0.00     0.224 C 
HETATM    6  O1  UNL     1       0.970   1.201   0.800  1.00  0.00    -0.273 OA
HETATM    7  N4  UNL     1      -1.858   1.010   0.504  1.00  0.00    -0.364 N 
ATOM      8  H4  UNL     1      -1.772   2.024   0.438  1.00  0.00     0.162 HD
ENDROOT
BRANCH   5   9
HETATM    9  C3  UNL     1       1.216  -1.138   0.660  1.00  0.00     0.103 C 
BRANCH   9  10
HETATM   10  C4  UNL     1       2.501  -0.791  -0.017  1.00  0.00     0.009 C 
BRANCH  10  11
HETATM   11  C5  UNL     1       3.514  -0.164   0.899  1.00  0.00     0.002 C 
BRANCH  11  12
HETATM   12  C6  UNL     1       4.772   0.153   0.104  1.00  0.00     0.020 C 
BRANCH  12  13
HETATM   13  C7  UNL     1       5.811   0.784   0.993  1.00  0.00     0.123 C 
BRANCH  13  14
HETATM   14  N3  UNL     1       6.983   1.094   0.246  1.00  0.00    -0.358 N 
HETATM   15  C8  UNL     1       7.766   0.097  -0.389  1.00  0.00     0.243 C 
HETATM   16  O2  UNL     1       7.492  -1.122  -0.334  1.00  0.00    -0.269 OA
ATOM     17  H3  UNL     1       7.270   2.069   0.165  1.00  0.00     0.162 HD
BRANCH  15  18
HETATM   18  C9  UNL     1       8.961   0.507  -1.150  1.00  0.00     0.110 C 
HETATM   19  C10 UNL     1       9.701  -0.381  -1.744  1.00  0.00     0.108 C 
HETATM   20 CL1  UNL     1       9.332  -2.071  -1.677  1.00  0.00    -0.071 Cl
HETATM   21 CL2  UNL     1      11.111   0.139  -2.638  1.00  0.00    -0.071 Cl
ENDBRANCH  15  18
ENDBRANCH  13  14
ENDBRANCH  12  13
ENDBRANCH  11  12
ENDBRANCH  10  11
ENDBRANCH   9  10
ENDBRANCH   5   9
BRANCH   7  22
HETATM   22  C11 UNL     1      -2.146   0.276  -0.687  1.00  0.00     0.124 C 
BRANCH  22  23
HETATM   23  C12 UNL     1      -3.533  -0.290  -0.620  1.00  0.00     0.039 C 
BRANCH  23  24
HETATM   24  C13 UNL     1      -4.580   0.774  -0.515  1.00  0.00     0.127 C 
BRANCH  24  25
HETATM   25  N5  UNL     1      -5.920   0.226  -0.445  1.00  0.00    -0.352 N 
HETATM   26  C14 UNL     1      -6.603  -0.126   0.789  1.00  0.00     0.126 C 
HETATM   27  C15 UNL     1      -7.729  -1.021   0.324  1.00  0.00     0.029 C 
HETATM   28  C16 UNL     1      -8.098  -0.367  -1.003  1.00  0.00     0.104 C 
HETATM   29  C17 UNL     1      -6.760  -0.046  -1.560  1.00  0.00     0.219 C 
HETATM   30  O3  UNL     1      -6.487  -0.034  -2.788  1.00  0.00    -0.273 OA
ENDBRANCH  24  25
ENDBRANCH  23  24
ENDBRANCH  22  23
ENDBRANCH   7  22
TORSDOF 11
