REMARK  3 active torsions:
REMARK  status: ('A' for Active; 'I' for Inactive)
REMARK    1  A    between atoms: C2_2  and  C3_3 
REMARK    2  A    between atoms: N1_7  and  C7_8 
REMARK    3  A    between atoms: C7_8  and  C8_9 
ROOT
HETATM    1  C3  UNL     1      -0.685  -0.208   0.406  1.00  0.00     0.032 C 
HETATM    2  C4  UNL     1      -0.482  -1.693   0.146  1.00  0.00     0.013 C 
HETATM    3  C5  UNL     1       0.948  -2.019   0.497  1.00  0.00     0.045 C 
HETATM    4  C6  UNL     1       1.945  -1.131  -0.167  1.00  0.00     0.060 C 
HETATM    5  N1  UNL     1       1.569   0.220  -0.306  1.00  0.00    -0.374 N 
HETATM    6  C9  UNL     1       0.212   0.503  -0.576  1.00  0.00     0.185 C 
HETATM    7 CL2  UNL     1      -0.097   2.246  -0.592  1.00  0.00    -0.102 Cl
ENDROOT
BRANCH   1   8
HETATM    8  C2  UNL     1      -2.131   0.187   0.222  1.00  0.00    -0.037 A 
HETATM    9  C1  UNL     1      -2.755  -0.037  -1.144  1.00  0.00     0.015 C 
HETATM   10  C10 UNL     1      -3.027  -0.084   1.390  1.00  0.00     0.010 A 
HETATM   11  C11 UNL     1      -2.642   1.336   1.022  1.00  0.00     0.010 A 
ENDBRANCH   1   8
BRANCH   5  12
HETATM   12  C7  UNL     1       2.515   1.107  -0.871  1.00  0.00     0.138 C 
BRANCH  12  13
HETATM   13  C8  UNL     1       3.721   1.368  -0.028  1.00  0.00     0.134 C 
HETATM   14 CL1  UNL     1       3.243   2.078   1.518  1.00  0.00    -0.129 Cl
ENDBRANCH  12  13
ENDBRANCH   5  12
TORSDOF 3
