REMARK  9 active torsions:
REMARK  status: ('A' for Active; 'I' for Inactive)
REMARK    1  A    between atoms: N1_1  and  C1_5 
REMARK    2  A    between atoms: C1_5  and  C2_6 
REMARK    3  A    between atoms: C2_6  and  C3_7 
REMARK    4  A    between atoms: C3_7  and  C4_8 
REMARK    5  A    between atoms: C4_8  and  N2_9 
REMARK    6  A    between atoms: N2_9  and  C5_11 
REMARK    7  A    between atoms: C5_11  and  C6_12 
REMARK    8  A    between atoms: C9_15  and  C10_16 
REMARK    9  A    between atoms: C10_16  and  C11_17 
ROOT
HETATM    1  C6  UNL     1       0.311   0.035  -1.190  1.00  0.00     0.047 A 
HETATM    2  C7  UNL     1      -0.140  -0.915  -2.101  1.00  0.00     0.021 A 
HETATM    3  C8  UNL     1      -1.480  -1.187  -2.117  1.00  0.00     0.030 A 
HETATM    4  C9  UNL     1      -2.410  -0.585  -1.294  1.00  0.00     0.035 A 
HETATM    5  N3  UNL     1      -1.946   0.331  -0.422  1.00  0.00    -0.323 N 
ATOM      6  H3  UNL     1      -2.591   0.806   0.209  1.00  0.00     0.169 HD
HETATM    7  C17 UNL     1      -0.635   0.620  -0.382  1.00  0.00     0.257 A 
HETATM    8  O1  UNL     1      -0.217   1.490   0.452  1.00  0.00    -0.267 OA
ENDROOT
BRANCH   1   9
HETATM    9  C5  UNL     1       1.599   0.308  -1.163  1.00  0.00     0.100 C 
BRANCH   9  10
HETATM   10  N2  UNL     1       2.074   1.273  -0.243  1.00  0.00    -0.398 N 
ATOM     11  H2  UNL     1       1.938   2.272  -0.399  1.00  0.00     0.158 HD
BRANCH  10  12
HETATM   12  C4  UNL     1       2.766   0.773   0.936  1.00  0.00     0.119 C 
BRANCH  12  13
HETATM   13  C3  UNL     1       4.089   0.158   0.540  1.00  0.00     0.021 C 
BRANCH  13  14
HETATM   14  C2  UNL     1       4.783  -0.350   1.795  1.00  0.00     0.029 C 
BRANCH  14  15
HETATM   15  C1  UNL     1       6.120  -0.975   1.456  1.00  0.00     0.229 C 
BRANCH  15  16
HETATM   16  N1  UNL     1       6.998  -0.017   0.822  1.00  0.00    -0.079 N 
ATOM     17  H13 UNL     1       6.563   0.406   0.002  1.00  0.00     0.274 HD
ATOM     18  H12 UNL     1       7.110   0.823   1.390  1.00  0.00     0.274 HD
ATOM     19  H11 UNL     1       7.899  -0.438   0.594  1.00  0.00     0.274 HD
ENDBRANCH  15  16
ENDBRANCH  14  15
ENDBRANCH  13  14
ENDBRANCH  12  13
ENDBRANCH  10  12
ENDBRANCH   9  10
ENDBRANCH   1   9
BRANCH   4  20
HETATM   20  C10 UNL     1      -3.682  -0.911  -1.381  1.00  0.00     0.041 C 
BRANCH  20  21
HETATM   21  C11 UNL     1      -4.731  -0.325  -0.551  1.00  0.00    -0.034 A 
HETATM   22  C12 UNL     1      -5.268  -1.036   0.477  1.00  0.00     0.011 A 
HETATM   23  C13 UNL     1      -6.263  -0.517   1.278  1.00  0.00     0.001 A 
HETATM   24  C14 UNL     1      -6.710   0.760   1.010  1.00  0.00     0.000 A 
HETATM   25  C15 UNL     1      -6.180   1.496  -0.025  1.00  0.00     0.001 A 
HETATM   26  C16 UNL     1      -5.181   0.939  -0.807  1.00  0.00     0.011 A 
ENDBRANCH  20  21
ENDBRANCH   4  20
TORSDOF 9
