REMARK  10 active torsions:
REMARK  status: ('A' for Active; 'I' for Inactive)
REMARK    1  A    between atoms: N1_1  and  C1_5 
REMARK    2  A    between atoms: C1_5  and  C2_6 
REMARK    3  A    between atoms: C1_5  and  C13_22 
REMARK    4  A    between atoms: C2_6  and  C3_7 
REMARK    5  A    between atoms: N3_19  and  O1_20 
REMARK    6  A    between atoms: C13_22  and  C14_23 
REMARK    7  A    between atoms: C14_23  and  O2_24 
REMARK    8  A    between atoms: O2_24  and  C15_25 
REMARK    9  A    between atoms: C15_25  and  C16_26 
REMARK   10  A    between atoms: C16_26  and  O3_27 
ROOT
HETATM    1  C3  UNL     1      -0.926  -0.305   0.053  1.00  0.00    -0.036 A 
HETATM    2  C4  UNL     1      -1.273   1.015  -0.087  1.00  0.00     0.012 A 
HETATM    3  C5  UNL     1      -2.581   1.385  -0.409  1.00  0.00     0.017 A 
HETATM    4  C6  UNL     1      -3.555   0.436  -0.593  1.00  0.00     0.022 A 
HETATM    5  C7  UNL     1      -4.899   0.506  -0.909  1.00  0.00     0.101 A 
HETATM    6  C8  UNL     1      -5.388  -0.789  -0.964  1.00  0.00     0.064 A 
HETATM    7  N2  UNL     1      -4.339  -1.588  -0.684  1.00  0.00    -0.354 N 
ATOM      8  H2  UNL     1      -4.392  -2.606  -0.651  1.00  0.00     0.166 HD
HETATM    9  C9  UNL     1      -3.217  -0.890  -0.454  1.00  0.00     0.046 A 
HETATM   10  C10 UNL     1      -1.907  -1.254  -0.132  1.00  0.00     0.041 A 
HETATM   11  C11 UNL     1      -6.680  -0.747  -1.267  1.00  0.00     0.051 A 
HETATM   12  C12 UNL     1      -7.068   0.645  -1.420  1.00  0.00     0.126 A 
HETATM   13  N3  UNL     1      -6.010   1.343  -1.206  1.00  0.00    -0.233 N 
ENDROOT
BRANCH   1  14
HETATM   14  C2  UNL     1       0.327  -0.681   0.362  1.00  0.00     0.017 C 
BRANCH  14  15
HETATM   15  C1  UNL     1       1.385   0.318   0.564  1.00  0.00     0.209 C 
BRANCH  15  16
HETATM   16  N1  UNL     1       1.748   0.854  -0.732  1.00  0.00    -0.072 N 
ATOM     17  H13 UNL     1       2.012   0.129  -1.399  1.00  0.00     0.275 HD
ATOM     18  H12 UNL     1       0.948   1.225  -1.244  1.00  0.00     0.275 HD
ATOM     19  H11 UNL     1       2.483   1.548  -0.592  1.00  0.00     0.275 HD
ENDBRANCH  15  16
BRANCH  15  20
HETATM   20  C13 UNL     1       2.536  -0.356   1.262  1.00  0.00     0.063 C 
BRANCH  20  21
HETATM   21  C14 UNL     1       3.646   0.656   1.469  1.00  0.00     0.170 C 
BRANCH  21  22
HETATM   22  O2  UNL     1       4.734   0.136   2.109  1.00  0.00    -0.389 OA
BRANCH  22  23
HETATM   23  C15 UNL     1       5.380  -0.909   1.525  1.00  0.00     0.193 C 
BRANCH  23  24
HETATM   24  C16 UNL     1       5.975  -0.678   0.180  1.00  0.00     0.190 C 
BRANCH  24  25
HETATM   25  O3  UNL     1       5.091  -0.314  -0.813  1.00  0.00    -0.399 OA
ATOM     26  H3  UNL     1       5.471  -0.167  -1.671  1.00  0.00     0.209 HD
ENDBRANCH  24  25
ENDBRANCH  23  24
ENDBRANCH  22  23
ENDBRANCH  21  22
ENDBRANCH  20  21
ENDBRANCH  15  20
ENDBRANCH  14  15
ENDBRANCH   1  14
BRANCH  13  27
HETATM   27  O1  UNL     1      -5.969   2.710  -1.258  1.00  0.00    -0.283 OA
ATOM     28  H1  UNL     1      -6.711   3.269  -1.456  1.00  0.00     0.245 HD
ENDBRANCH  13  27
TORSDOF 10
