REMARK  6 active torsions:
REMARK  status: ('A' for Active; 'I' for Inactive)
REMARK       I    between atoms: C1_4  and  N3_6 
REMARK    1  A    between atoms: N3_6  and  N4_8 
REMARK    2  A    between atoms: C2_10  and  C3_11 
REMARK    3  A    between atoms: N5_14  and  C6_15 
REMARK    4  A    between atoms: C6_15  and  C7_16 
REMARK    5  A    between atoms: C7_16  and  C8_17 
REMARK    6  A    between atoms: C8_17  and  N6_18 
ROOT
HETATM    1  C3  UNL     1       2.257  -1.146   0.559  1.00  0.00    -0.017 A 
HETATM    2  C4  UNL     1       1.135  -1.929   0.239  1.00  0.00     0.030 A 
HETATM    3  C5  UNL     1      -0.135  -1.420   0.281  1.00  0.00     0.091 A 
HETATM    4  N5  UNL     1      -0.380  -0.152   0.627  1.00  0.00    -0.366 N 
HETATM    5  C12 UNL     1       0.664   0.611   0.935  1.00  0.00     0.091 A 
HETATM    6  C13 UNL     1       1.983   0.142   0.909  1.00  0.00     0.030 A 
ENDROOT
BRANCH   1   7
HETATM    7  C2  UNL     1       3.566  -1.764   0.489  1.00  0.00     0.118 C 
HETATM    8  N4  UNL     1       4.678  -1.248   0.730  1.00  0.00    -0.309 N 
ATOM      9  H4  UNL     1       5.452  -1.900   0.604  1.00  0.00     0.186 HD
BRANCH   8  10
HETATM   10  N3  UNL     1       5.083  -0.026   1.118  1.00  0.00    -0.274 N 
HETATM   11  C1  UNL     1       5.764   0.880   0.227  1.00  0.00     0.200 C 
HETATM   12  N1  UNL     1       6.574   1.724   0.735  1.00  0.00    -0.372 N 
HETATM   13  N2  UNL     1       5.537   0.829  -1.169  1.00  0.00    -0.062 NA
ATOM     14  H12 UNL     1       7.056   2.365   0.105  1.00  0.00     0.158 HD
ATOM     15  H11 UNL     1       6.738   1.761   1.741  1.00  0.00     0.158 HD
ATOM     16  H3  UNL     1       4.902   0.271   2.077  1.00  0.00     0.189 HD
ENDBRANCH   8  10
ENDBRANCH   1   7
BRANCH   4  17
HETATM   17  C6  UNL     1      -1.733   0.368   0.665  1.00  0.00     0.129 C 
BRANCH  17  18
HETATM   18  C7  UNL     1      -2.053   0.927  -0.681  1.00  0.00     0.041 C 
BRANCH  18  19
HETATM   19  C8  UNL     1      -3.448   1.502  -0.766  1.00  0.00     0.138 C 
BRANCH  19  20
HETATM   20  N6  UNL     1      -4.463   0.477  -0.481  1.00  0.00    -0.328 N 
HETATM   21  C9  UNL     1      -4.990   0.150   0.695  1.00  0.00     0.099 A 
HETATM   22  C10 UNL     1      -5.910  -0.825   0.721  1.00  0.00     0.026 A 
HETATM   23  C11 UNL     1      -6.230  -1.406  -0.477  1.00  0.00     0.069 A 
HETATM   24  S1  UNL     1      -5.226  -0.554  -1.567  1.00  0.00    -0.025 SA
ENDBRANCH  19  20
ENDBRANCH  18  19
ENDBRANCH  17  18
ENDBRANCH   4  17
TORSDOF 6
