REMARK  7 active torsions:
REMARK  status: ('A' for Active; 'I' for Inactive)
REMARK    1  A    between atoms: C6_7  and  C7_8 
REMARK    2  A    between atoms: C7_8  and  C8_9 
REMARK    3  A    between atoms: N3_16  and  C12_18 
REMARK    4  A    between atoms: C12_18  and  C13_19 
REMARK    5  A    between atoms: C13_19  and  C14_20 
REMARK    6  A    between atoms: C14_20  and  C15_21 
REMARK    7  A    between atoms: C15_21  and  O2_22 
ROOT
HETATM    1  C8  UNL     1      -1.010  -0.366  -0.703  1.00  0.00     0.037 A 
HETATM    2  C9  UNL     1      -0.833  -1.722  -0.725  1.00  0.00     0.100 A 
HETATM    3  C10 UNL     1       0.277  -2.323  -0.115  1.00  0.00     0.261 A 
HETATM    4  O1  UNL     1       0.431  -3.575  -0.142  1.00  0.00    -0.268 OA
HETATM    5  N2  UNL     1       1.187  -1.553   0.507  1.00  0.00    -0.156 N 
ATOM      6  H2  UNL     1       1.999  -1.978   0.956  1.00  0.00     0.187 HD
HETATM    7  C11 UNL     1       1.020  -0.223   0.533  1.00  0.00     0.681 A 
HETATM    8  N3  UNL     1       1.874   0.536   1.120  1.00  0.00    -0.226 N 
ATOM      9  H3  UNL     1       1.695   1.540   1.109  1.00  0.00     0.177 HD
HETATM   10  N4  UNL     1      -0.071   0.354  -0.068  1.00  0.00    -0.195 N 
ATOM     11  H4  UNL     1      -0.172   1.368  -0.031  1.00  0.00     0.184 HD
ENDROOT
BRANCH   1  12
HETATM   12  C7  UNL     1      -2.190   0.256  -1.345  1.00  0.00     0.115 C 
BRANCH  12  13
HETATM   13  C6  UNL     1      -3.300   0.563  -0.463  1.00  0.00     0.016 A 
HETATM   14  N1  UNL     1      -4.362  -0.224  -0.364  1.00  0.00    -0.364 N 
HETATM   15  C1  UNL     1      -4.491  -1.410  -1.135  1.00  0.00     0.155 C 
HETATM   16  C2  UNL     1      -5.397   0.072   0.480  1.00  0.00     0.090 A 
HETATM   17  C3  UNL     1      -5.391   1.203   1.270  1.00  0.00     0.017 A 
HETATM   18  C4  UNL     1      -4.297   2.031   1.180  1.00  0.00     0.003 A 
HETATM   19  C5  UNL     1      -3.270   1.707   0.322  1.00  0.00     0.025 A 
ENDBRANCH  12  13
ENDBRANCH   1  12
BRANCH   8  20
HETATM   20  C12 UNL     1       3.046   0.089   1.783  1.00  0.00     0.138 C 
BRANCH  20  21
HETATM   21  C13 UNL     1       4.216  -0.182   0.844  1.00  0.00     0.022 C 
BRANCH  21  22
HETATM   22  C14 UNL     1       4.576   1.091   0.104  1.00  0.00     0.028 C 
BRANCH  22  23
HETATM   23  C15 UNL     1       5.718   0.903  -0.838  1.00  0.00     0.164 C 
BRANCH  23  24
HETATM   24  O2  UNL     1       6.884   0.489  -0.213  1.00  0.00    -0.401 OA
ATOM     25  H2  UNL     1       7.611   0.369  -0.813  1.00  0.00     0.209 HD
ENDBRANCH  23  24
ENDBRANCH  22  23
ENDBRANCH  21  22
ENDBRANCH  20  21
ENDBRANCH   8  20
TORSDOF 7
