REMARK  6 active torsions:
REMARK  status: ('A' for Active; 'I' for Inactive)
REMARK    1  A    between atoms: N1_4  and  C4_5 
REMARK    2  A    between atoms: C4_5  and  C5_6 
REMARK    3  A    between atoms: C5_6  and  C6_7 
REMARK    4  A    between atoms: C6_7  and  C7_8 
REMARK    5  A    between atoms: C7_8  and  N2_9 
REMARK    6  A    between atoms: C10_12  and  C11_13 
ROOT
HETATM    1  N2  UNL     1       2.824  -0.109  -0.577  1.00  0.00    -0.304 N 
HETATM    2  C8  UNL     1       3.309   0.925   0.135  1.00  0.00     0.111 A 
HETATM    3  C9  UNL     1       4.649   1.025   0.471  1.00  0.00     0.035 A 
HETATM    4  C10 UNL     1       5.533   0.046   0.073  1.00  0.00     0.023 A 
HETATM    5  C12 UNL     1       5.001  -1.001  -0.657  1.00  0.00     0.122 A 
HETATM    6  N5  UNL     1       3.682  -1.033  -0.948  1.00  0.00    -0.309 N 
ATOM      7  H5  UNL     1       3.330  -1.823  -1.489  1.00  0.00     0.186 HD
ENDROOT
BRANCH   1   8
HETATM    8  C7  UNL     1       1.416  -0.188  -0.914  1.00  0.00     0.148 C 
BRANCH   8   9
HETATM    9  C6  UNL     1       0.731  -0.927   0.189  1.00  0.00     0.023 C 
BRANCH   9  10
HETATM   10  C5  UNL     1      -0.758  -1.093  -0.022  1.00  0.00     0.022 C 
BRANCH  10  11
HETATM   11  C4  UNL     1      -1.432   0.240  -0.124  1.00  0.00     0.128 C 
BRANCH  11  12
HETATM   12  N1  UNL     1      -2.840   0.193  -0.323  1.00  0.00    -0.366 N 
HETATM   13  C3  UNL     1      -3.632   0.178   0.774  1.00  0.00     0.099 A 
HETATM   14  C2  UNL     1      -5.008   0.133   0.676  1.00  0.00    -0.022 A 
HETATM   15  C1  UNL     1      -5.885   0.116   1.877  1.00  0.00     0.052 C 
HETATM   16  C15 UNL     1      -5.626   0.102  -0.558  1.00  0.00     0.054 A 
HETATM   17  C14 UNL     1      -4.811   0.117  -1.664  1.00  0.00     0.044 A 
HETATM   18  N6  UNL     1      -7.044   0.055  -0.698  1.00  0.00    -0.102 NA
HETATM   19  C13 UNL     1      -3.448   0.162  -1.514  1.00  0.00     0.092 A 
ENDBRANCH  11  12
ENDBRANCH  10  11
ENDBRANCH   9  10
ENDBRANCH   8   9
ENDBRANCH   1   8
BRANCH   4  20
HETATM   20  C11 UNL     1       6.943   0.135   0.416  1.00  0.00     0.121 C 
HETATM   21  N3  UNL     1       7.810  -0.741   0.076  1.00  0.00    -0.387 N 
ATOM     22  H32 UNL     1       7.488  -1.543  -0.466  1.00  0.00     0.157 HD
ATOM     23  H31 UNL     1       8.799  -0.679   0.317  1.00  0.00     0.157 HD
HETATM   24  N4  UNL     1       7.389   1.245   1.166  1.00  0.00    -0.082 NA
ENDBRANCH   4  20
TORSDOF 6
