REMARK  7 active torsions:
REMARK  status: ('A' for Active; 'I' for Inactive)
REMARK    1  A    between atoms: C2_2  and  C3_3 
REMARK    2  A    between atoms: C3_3  and  N1_4 
REMARK    3  A    between atoms: N1_4  and  C4_6 
REMARK    4  A    between atoms: C6_13  and  N4_14 
REMARK    5  A    between atoms: C7_16  and  C8_17 
REMARK    6  A    between atoms: C8_17  and  C9_18 
REMARK    7  A    between atoms: C9_18  and  C10_19 
ROOT
HETATM    1  C4  UNL     1       3.546  -0.523  -0.965  1.00  0.00     0.697 A 
HETATM    2  N2  UNL     1       2.922  -1.188  -1.971  1.00  0.00    -0.140 N 
ATOM      3  H2  UNL     1       3.482  -1.688  -2.662  1.00  0.00     0.189 HD
HETATM    4  C5  UNL     1       1.591  -1.202  -2.076  1.00  0.00     0.352 A 
HETATM    5  O1  UNL     1       1.003  -1.828  -3.024  1.00  0.00    -0.246 OA
HETATM    6  N3  UNL     1       0.848  -0.547  -1.173  1.00  0.00    -0.140 N 
ATOM      7  H3  UNL     1      -0.168  -0.560  -1.258  1.00  0.00     0.189 HD
HETATM    8  C6  UNL     1       1.410   0.122  -0.165  1.00  0.00     0.700 A 
HETATM    9  N5  UNL     1       2.789   0.116  -0.085  1.00  0.00    -0.022 N 
ATOM     10  H5  UNL     1       3.240   0.621   0.678  1.00  0.00     0.203 HD
ENDROOT
BRANCH   8  11
HETATM   11  N4  UNL     1       0.782   0.748   0.703  1.00  0.00    -0.205 N 
HETATM   12  C7  UNL     1      -0.439   1.127   1.175  1.00  0.00     0.079 C 
ATOM     13  H4  UNL     1       1.476   1.151   1.332  1.00  0.00     0.183 HD
BRANCH  12  14
HETATM   14  C8  UNL     1      -1.695   0.613   0.521  1.00  0.00     0.049 C 
BRANCH  14  15
HETATM   15  C9  UNL     1      -2.929   1.170   1.226  1.00  0.00     0.043 C 
BRANCH  15  16
HETATM   16  C10 UNL     1      -4.171   0.691   0.615  1.00  0.00    -0.058 A 
HETATM   17  C11 UNL     1      -4.831   1.331  -0.417  1.00  0.00     0.007 A 
HETATM   18  C12 UNL     1      -5.999   0.836  -0.957  1.00  0.00     0.001 A 
HETATM   19  C13 UNL     1      -6.562  -0.330  -0.484  1.00  0.00     0.000 A 
HETATM   20  C14 UNL     1      -5.920  -0.986   0.545  1.00  0.00     0.001 A 
HETATM   21  C15 UNL     1      -4.753  -0.474   1.071  1.00  0.00     0.007 A 
ENDBRANCH  15  16
ENDBRANCH  14  15
ENDBRANCH  12  14
ENDBRANCH   8  11
BRANCH   1  22
HETATM   22  N1  UNL     1       4.824  -0.556  -0.930  1.00  0.00    -0.222 N 
ATOM     23  H1  UNL     1       5.302  -1.082  -1.662  1.00  0.00     0.178 HD
BRANCH  22  24
HETATM   24  C3  UNL     1       5.635   0.088   0.057  1.00  0.00     0.164 C 
BRANCH  24  25
HETATM   25  C2  UNL     1       5.844  -0.781   1.267  1.00  0.00    -0.017 C 
HETATM   26  C1  UNL     1       7.047  -1.151   1.646  1.00  0.00     0.008 C 
ENDBRANCH  24  25
ENDBRANCH  22  24
ENDBRANCH   1  22
TORSDOF 7
