REMARK  9 active torsions:
REMARK  status: ('A' for Active; 'I' for Inactive)
REMARK    1  A    between atoms: C2_2  and  C3_3 
REMARK    2  A    between atoms: C3_3  and  N1_4 
REMARK    3  A    between atoms: C6_7  and  C19_23 
REMARK    4  A    between atoms: C9_11  and  O2_12 
REMARK    5  A    between atoms: C15_19  and  C16_20 
REMARK    6  A    between atoms: C19_23  and  O3_24 
REMARK    7  A    between atoms: C21_27  and  O4_28 
REMARK    8  A    between atoms: O4_28  and  C22_29 
REMARK    9  A    between atoms: C22_29  and  C23_30 
ROOT
HETATM    1  C16 UNL     1       0.201  -1.219  -0.352  1.00  0.00     0.125 C 
HETATM    2  C17 UNL     1       0.509  -0.693  -1.703  1.00  0.00    -0.001 C 
HETATM    3  C18 UNL     1       0.556   0.711  -1.995  1.00  0.00     0.010 C 
HETATM    4  C19 UNL     1      -0.064   1.749  -1.120  1.00  0.00     0.094 C 
HETATM    5  C20 UNL     1       0.755   1.864   0.115  1.00  0.00     0.096 C 
HETATM    6  C21 UNL     1       1.579   0.613   0.450  1.00  0.00     0.220 C 
HETATM    7  N2  UNL     1       0.583  -0.390   0.751  1.00  0.00    -0.387 N 
ATOM      8  H2  UNL     1       0.181  -0.499   1.682  1.00  0.00     0.156 HD
ENDROOT
BRANCH   6   9
HETATM    9  O4  UNL     1       2.368   0.929   1.504  1.00  0.00    -0.366 OA
BRANCH   9  10
HETATM   10  C22 UNL     1       3.685   0.827   1.547  1.00  0.00     0.178 C 
BRANCH  10  11
HETATM   11  C23 UNL     1       4.398  -0.470   1.462  1.00  0.00    -0.030 C 
HETATM   12  C24 UNL     1       4.187  -1.246   0.198  1.00  0.00     0.016 C 
HETATM   13  C25 UNL     1       5.916  -0.191   1.507  1.00  0.00     0.016 C 
HETATM   14  C26 UNL     1       4.009  -1.291   2.688  1.00  0.00     0.016 C 
ENDBRANCH  10  11
ENDBRANCH   9  10
ENDBRANCH   6   9
BRANCH   4  15
HETATM   15  C6  UNL     1      -1.540   1.731  -0.958  1.00  0.00     0.051 C 
HETATM   16  C5  UNL     1      -2.287   0.897  -1.952  1.00  0.00     0.064 C 
HETATM   17  C4  UNL     1      -2.912  -0.378  -1.458  1.00  0.00     0.060 C 
HETATM   18  N1  UNL     1      -2.040  -1.459  -1.322  1.00  0.00    -0.383 N 
HETATM   19  C15 UNL     1      -1.256  -1.624  -0.160  1.00  0.00     0.114 C 
HETATM   20  C14 UNL     1      -1.855  -1.133   1.112  1.00  0.00     0.067 C 
HETATM   21  C12 UNL     1      -2.080   0.317   1.222  1.00  0.00    -0.046 A 
HETATM   22  C11 UNL     1      -2.522   0.452   2.520  1.00  0.00     0.011 A 
HETATM   23  C13 UNL     1      -1.968   1.474   0.460  1.00  0.00    -0.001 A 
HETATM   24  C10 UNL     1      -2.853   1.665   3.087  1.00  0.00     0.040 A 
HETATM   25  C9  UNL     1      -2.748   2.823   2.350  1.00  0.00     0.099 A 
HETATM   26  C8  UNL     1      -2.300   2.692   1.036  1.00  0.00     0.109 A 
HETATM   27  O1  UNL     1      -2.111   3.703   0.122  1.00  0.00    -0.346 OA
HETATM   28  C7  UNL     1      -2.102   3.130  -1.139  1.00  0.00     0.194 C 
BRANCH  18  29
HETATM   29  C3  UNL     1      -2.429  -2.673  -1.999  1.00  0.00     0.149 C 
BRANCH  29  30
HETATM   30  C2  UNL     1      -3.629  -3.299  -1.406  1.00  0.00    -0.018 C 
HETATM   31  C1  UNL     1      -3.594  -4.535  -0.904  1.00  0.00     0.008 C 
ENDBRANCH  29  30
ENDBRANCH  18  29
BRANCH  25  32
HETATM   32  O2  UNL     1      -3.069   4.070   2.877  1.00  0.00    -0.358 OA
ATOM     33  H2  UNL     1      -3.374   4.159   3.772  1.00  0.00     0.217 HD
ENDBRANCH  25  32
ENDBRANCH   4  15
BRANCH   4  34
HETATM   34  O3  UNL     1       0.262   2.934  -1.853  1.00  0.00    -0.384 OA
ATOM     35  H3  UNL     1       1.206   2.946  -1.957  1.00  0.00     0.211 HD
ENDBRANCH   4  34
TORSDOF 9
