REMARK  8 active torsions:
REMARK  status: ('A' for Active; 'I' for Inactive)
REMARK    1  A    between atoms: C12_17  and  C13_18 
REMARK    2  A    between atoms: C13_18  and  C14_19 
REMARK    3  A    between atoms: C14_19  and  C15_20 
REMARK    4  A    between atoms: C15_20  and  C16_21 
REMARK    5  A    between atoms: C16_21  and  C17_22 
REMARK    6  A    between atoms: C17_22  and  O1_23 
REMARK    7  A    between atoms: C18_26  and  C19_27 
REMARK    8  A    between atoms: C19_27  and  O3_28 
ROOT
HETATM    1  N1  UNL     1       6.144   6.060   1.079  1.00  0.00    -0.191 NA
HETATM    2  C1  UNL     1       5.856   4.938   1.062  1.00  0.00     0.099 C 
HETATM    3  C2  UNL     1       5.492   3.539   1.047  1.00  0.00     0.045 A 
HETATM    4  C3  UNL     1       6.373   2.639   1.623  1.00  0.00     0.025 A 
HETATM    5  C4  UNL     1       6.081   1.285   1.640  1.00  0.00     0.032 A 
HETATM    6  C5  UNL     1       4.892   0.829   1.072  1.00  0.00     0.044 A 
HETATM    7  N2  UNL     1       4.370  -0.412   0.954  1.00  0.00    -0.352 N 
ATOM      8  H2  UNL     1       4.810  -1.267   1.294  1.00  0.00     0.166 HD
HETATM    9  C6  UNL     1       3.183  -0.353   0.322  1.00  0.00     0.092 A 
HETATM   10  C7  UNL     1       2.959   0.959   0.039  1.00  0.00     0.022 A 
HETATM   11  C8  UNL     1       4.028   1.739   0.503  1.00  0.00     0.006 A 
HETATM   12  C9  UNL     1       4.317   3.088   0.485  1.00  0.00     0.037 A 
HETATM   13  C10 UNL     1       1.796   1.571  -0.648  1.00  0.00     0.098 C 
HETATM   14  N3  UNL     1       0.967   0.599  -1.141  1.00  0.00    -0.390 N 
ATOM     15  H3  UNL     1       0.920   0.464  -2.151  1.00  0.00     0.159 HD
HETATM   16  C11 UNL     1       0.158  -0.241  -0.295  1.00  0.00     0.124 C 
HETATM   17  C12 UNL     1      -1.188  -0.187  -0.959  1.00  0.00     0.145 C 
HETATM   18  O2  UNL     1      -2.272  -0.739  -0.430  1.00  0.00    -0.374 OA
HETATM   19  C18 UNL     1      -2.685  -2.027  -0.650  1.00  0.00     0.174 C 
HETATM   20  C20 UNL     1      -1.443  -2.773  -0.598  1.00  0.00     0.153 C 
HETATM   21  C21 UNL     1      -1.238  -4.203  -0.495  1.00  0.00     0.037 C 
HETATM   22  C22 UNL     1       0.297  -4.060  -0.228  1.00  0.00     0.035 C 
HETATM   23  C23 UNL     1       0.380  -2.677   0.432  1.00  0.00     0.136 C 
HETATM   24  O4  UNL     1      -0.925  -2.418   0.690  1.00  0.00    -0.377 OA
HETATM   25  C24 UNL     1       0.888  -1.580  -0.414  1.00  0.00     0.116 C 
HETATM   26  C25 UNL     1       2.328  -1.453   0.009  1.00  0.00     0.185 C 
HETATM   27  O5  UNL     1       2.878  -2.587   0.099  1.00  0.00    -0.290 OA
ENDROOT
BRANCH  17  28
HETATM   28  C13 UNL     1      -1.589   1.294  -1.011  1.00  0.00     0.034 C 
BRANCH  28  29
HETATM   29  C14 UNL     1      -1.736   1.982   0.288  1.00  0.00     0.003 C 
BRANCH  29  30
HETATM   30  C15 UNL     1      -2.841   1.473   1.181  1.00  0.00     0.002 C 
BRANCH  30  31
HETATM   31  C16 UNL     1      -4.211   1.600   0.577  1.00  0.00     0.026 C 
BRANCH  31  32
HETATM   32  C17 UNL     1      -5.247   1.050   1.547  1.00  0.00     0.164 C 
BRANCH  32  33
HETATM   33  O1  UNL     1      -6.506   1.178   0.964  1.00  0.00    -0.401 OA
ATOM     34  H1  UNL     1      -7.153   0.835   1.569  1.00  0.00     0.209 HD
ENDBRANCH  32  33
ENDBRANCH  31  32
ENDBRANCH  30  31
ENDBRANCH  29  30
ENDBRANCH  28  29
ENDBRANCH  17  28
BRANCH  19  35
HETATM   35  C19 UNL     1      -3.438  -2.177  -1.933  1.00  0.00     0.198 C 
BRANCH  35  36
HETATM   36  O3  UNL     1      -2.674  -1.840  -3.018  1.00  0.00    -0.398 OA
ATOM     37  H3  UNL     1      -3.152  -1.935  -3.833  1.00  0.00     0.209 HD
ENDBRANCH  35  36
ENDBRANCH  19  35
TORSDOF 8
