REMARK  8 active torsions:
REMARK  status: ('A' for Active; 'I' for Inactive)
REMARK    1  A    between atoms: C2_2  and  O2_4 
REMARK    2  A    between atoms: O2_4  and  C3_5 
REMARK    3  A    between atoms: C3_5  and  C4_6 
REMARK    4  A    between atoms: C4_6  and  N1_7 
REMARK    5  A    between atoms: C4_6  and  C23_32 
REMARK       I    between atoms: N1_7  and  C5_9 
REMARK    6  A    between atoms: C5_9  and  O4_11 
REMARK    7  A    between atoms: O4_11  and  C6_12 
REMARK    8  A    between atoms: C6_12  and  C7_13 
ROOT
HETATM    1  C6  UNL     1      -0.015  -0.945   0.822  1.00  0.00     0.075 C 
HETATM    2  C10 UNL     1      -0.610   0.422   0.711  1.00  0.00     0.039 C 
HETATM    3  C11 UNL     1      -0.577   1.024  -0.649  1.00  0.00     0.007 C 
HETATM    4  C12 UNL     1      -1.364   2.325  -0.740  1.00  0.00     0.027 C 
HETATM    5  C13 UNL     1      -2.284   2.312  -1.909  1.00  0.00    -0.031 C 
HETATM    6  C14 UNL     1      -3.561   2.672  -1.816  1.00  0.00    -0.031 C 
HETATM    7  C15 UNL     1      -4.202   3.119  -0.558  1.00  0.00     0.027 C 
HETATM    8  C16 UNL     1      -4.780   2.003   0.270  1.00  0.00     0.004 C 
HETATM    9  C17 UNL     1      -5.486   1.022  -0.630  1.00  0.00     0.010 C 
HETATM   10  C18 UNL     1      -5.473  -0.374  -0.077  1.00  0.00     0.103 C 
HETATM   11  C19 UNL     1      -5.108  -1.361  -1.126  1.00  0.00     0.217 C 
HETATM   12  O5  UNL     1      -5.470  -1.077  -2.317  1.00  0.00    -0.274 OA
HETATM   13  N2  UNL     1      -4.405  -2.559  -0.899  1.00  0.00    -0.361 N 
ATOM     14  H2  UNL     1      -4.627  -3.389  -1.449  1.00  0.00     0.162 HD
HETATM   15  C20 UNL     1      -3.366  -2.621   0.114  1.00  0.00     0.122 C 
HETATM   16  C21 UNL     1      -2.221  -1.707  -0.245  1.00  0.00     0.023 C 
HETATM   17  C22 UNL     1      -0.914  -2.050   0.306  1.00  0.00     0.041 C 
ENDROOT
BRANCH   1  18
HETATM   18  O4  UNL     1       1.175  -1.046   0.068  1.00  0.00    -0.292 OA
BRANCH  18  19
HETATM   19  C5  UNL     1       2.309  -0.335   0.168  1.00  0.00     0.362 C 
HETATM   20  N1  UNL     1       3.410  -0.597  -0.692  1.00  0.00    -0.320 N 
ATOM     21  H1  UNL     1       3.337  -1.335  -1.392  1.00  0.00     0.165 HD
HETATM   22  O3  UNL     1       2.413   0.556   1.007  1.00  0.00    -0.238 OA
BRANCH  20  23
HETATM   23  C4  UNL     1       4.658   0.185  -0.586  1.00  0.00     0.212 C 
BRANCH  23  24
HETATM   24  C3  UNL     1       5.718  -0.810  -0.212  1.00  0.00     0.214 C 
BRANCH  24  25
HETATM   25  O2  UNL     1       6.966  -0.203  -0.090  1.00  0.00    -0.319 OA
BRANCH  25  26
HETATM   26  C2  UNL     1       7.227   0.776   0.836  1.00  0.00     0.254 C 
HETATM   27  C1  UNL     1       8.601   1.388   0.904  1.00  0.00     0.126 C 
HETATM   28  O1  UNL     1       6.387   1.209   1.651  1.00  0.00    -0.266 OA
ENDBRANCH  25  26
ENDBRANCH  24  25
ENDBRANCH  23  24
BRANCH  23  29
HETATM   29  C23 UNL     1       4.941   0.803  -1.895  1.00  0.00     0.199 C 
HETATM   30  O6  UNL     1       4.176   0.624  -2.872  1.00  0.00    -0.646 OA
HETATM   31  O7  UNL     1       6.059   1.590  -2.052  1.00  0.00    -0.646 OA
ENDBRANCH  23  29
ENDBRANCH  20  23
ENDBRANCH  18  19
ENDBRANCH   1  18
BRANCH   1  32
HETATM   32  C7  UNL     1       0.395  -1.250   2.273  1.00  0.00     0.013 C 
HETATM   33  C8  UNL     1      -0.789  -1.188   3.205  1.00  0.00     0.012 C 
HETATM   34  C9  UNL     1       1.135  -2.566   2.349  1.00  0.00     0.012 C 
ENDBRANCH   1  32
TORSDOF 8
