REMARK  13 active torsions:
REMARK  status: ('A' for Active; 'I' for Inactive)
REMARK    1  A    between atoms: N1_5  and  C5_6 
REMARK    2  A    between atoms: C5_6  and  C6_7 
REMARK    3  A    between atoms: C6_7  and  C7_8 
REMARK    4  A    between atoms: C7_8  and  C8_9 
REMARK    5  A    between atoms: C8_9  and  C9_10 
REMARK    6  A    between atoms: C9_10  and  C10_11 
REMARK    7  A    between atoms: C10_11  and  C11_12 
REMARK    8  A    between atoms: C11_12  and  C12_13 
REMARK    9  A    between atoms: C12_13  and  C13_14 
REMARK   10  A    between atoms: C14_15  and  C15_16 
REMARK   11  A    between atoms: C15_16  and  N2_17 
REMARK       I    between atoms: N4_21  and  C17_23 
REMARK       I    between atoms: C17_23  and  N6_27 
REMARK   12  A    between atoms: N6_27  and  N7_29 
REMARK   13  A    between atoms: C18_34  and  N9_35 
ROOT
HETATM    1  N2  UNL     1      -4.173  -1.035   0.809  1.00  0.00    -0.252 N 
HETATM    2  N3  UNL     1      -5.184  -0.988  -0.042  1.00  0.00    -0.276 N 
ATOM      3  H3  UNL     1      -5.035  -1.299  -1.002  1.00  0.00     0.189 HD
HETATM    4  C16 UNL     1      -6.417  -0.538   0.320  1.00  0.00     0.186 A 
HETATM    5  N4  UNL     1      -7.404  -0.491  -0.508  1.00  0.00    -0.170 N 
ATOM      6  H4  UNL     1      -8.321  -0.150  -0.220  1.00  0.00     0.186 HD
HETATM    7  C17 UNL     1      -7.166  -0.933  -1.839  1.00  0.00     0.693 C 
HETATM    8  N5  UNL     1      -6.723  -0.149  -2.767  1.00  0.00    -0.233 N 
ATOM      9  H51 UNL     1      -6.552  -0.466  -3.721  1.00  0.00     0.174 HD
ATOM     10  H52 UNL     1      -6.539   0.826  -2.530  1.00  0.00     0.174 HD
HETATM   11  N6  UNL     1      -7.425  -2.305  -2.172  1.00  0.00    -0.118 N 
ATOM     12  H6  UNL     1      -6.805  -2.781  -2.828  1.00  0.00     0.207 HD
HETATM   13  C18 UNL     1      -6.645  -0.110   1.609  1.00  0.00     0.222 A 
HETATM   14  N10 UNL     1      -5.616  -0.159   2.473  1.00  0.00    -0.307 N 
ATOM     15  H10 UNL     1      -5.746   0.148   3.437  1.00  0.00     0.170 HD
HETATM   16  C19 UNL     1      -4.407  -0.616   2.066  1.00  0.00     0.212 A 
HETATM   17  N11 UNL     1      -3.320  -0.665   2.984  1.00  0.00    -0.062 NA
ENDROOT
BRANCH   1  18
HETATM   18  C15 UNL     1      -2.852  -1.514   0.435  1.00  0.00     0.245 C 
BRANCH  18  19
HETATM   19  C14 UNL     1      -2.099  -0.337  -0.043  1.00  0.00    -0.085 C 
HETATM   20  C13 UNL     1      -1.488   0.621  -0.447  1.00  0.00    -0.105 C 
BRANCH  20  21
HETATM   21  C12 UNL     1      -0.761   1.784  -0.954  1.00  0.00     0.094 C 
BRANCH  21  22
HETATM   22  C11 UNL     1      -0.070   2.531   0.180  1.00  0.00     0.012 C 
BRANCH  22  23
HETATM   23  C10 UNL     1       0.694   3.715  -0.252  1.00  0.00     0.001 C 
BRANCH  23  24
HETATM   24  C9  UNL     1       1.803   3.606  -1.201  1.00  0.00     0.000 C 
BRANCH  24  25
HETATM   25  C8  UNL     1       3.019   2.852  -0.879  1.00  0.00     0.000 C 
BRANCH  25  26
HETATM   26  C7  UNL     1       2.910   1.398  -0.623  1.00  0.00     0.002 C 
BRANCH  26  27
HETATM   27  C6  UNL     1       4.334   0.856  -0.353  1.00  0.00     0.020 C 
BRANCH  27  28
HETATM   28  C5  UNL     1       4.273  -0.629  -0.085  1.00  0.00     0.128 C 
BRANCH  28  29
HETATM   29  N1  UNL     1       5.643  -1.062   0.158  1.00  0.00    -0.366 N 
HETATM   30  C4  UNL     1       6.443  -1.478  -0.840  1.00  0.00     0.091 A 
HETATM   31  C3  UNL     1       7.740  -1.887  -0.609  1.00  0.00     0.024 A 
HETATM   32  C2  UNL     1       8.278  -1.887   0.666  1.00  0.00    -0.059 A 
HETATM   33  C1  UNL     1       9.673  -2.322   0.950  1.00  0.00     0.048 C 
HETATM   34  C21 UNL     1       7.449  -1.457   1.687  1.00  0.00     0.024 A 
HETATM   35  C20 UNL     1       6.158  -1.059   1.401  1.00  0.00     0.091 A 
ENDBRANCH  28  29
ENDBRANCH  27  28
ENDBRANCH  26  27
ENDBRANCH  25  26
ENDBRANCH  24  25
ENDBRANCH  23  24
ENDBRANCH  22  23
ENDBRANCH  21  22
ENDBRANCH  20  21
ENDBRANCH  18  19
ENDBRANCH   1  18
BRANCH  13  36
HETATM   36  N9  UNL     1      -7.805   0.313   1.950  1.00  0.00    -0.094 N 
HETATM   37  O1  UNL     1      -8.824   0.347   1.045  1.00  0.00    -0.530 OA
HETATM   38  O2  UNL     1      -8.078   0.749   3.225  1.00  0.00    -0.530 OA
ENDBRANCH  13  36
BRANCH  11  39
HETATM   39  N7  UNL     1      -8.498  -3.006  -1.626  1.00  0.00    -0.235 N 
HETATM   40  N8  UNL     1      -8.758  -4.152  -2.066  1.00  0.00    -0.330 N 
ATOM     41  H82 UNL     1      -8.184  -4.549  -2.810  1.00  0.00     0.178 HD
ATOM     42  H81 UNL     1      -9.544  -4.665  -1.666  1.00  0.00     0.178 HD
ATOM     43  H7  UNL     1      -9.062  -2.595  -0.882  1.00  0.00     0.208 HD
ENDBRANCH  11  39
TORSDOF 13
