REMARK  11 active torsions:
REMARK  status: ('A' for Active; 'I' for Inactive)
REMARK    1  A    between atoms: C3_5  and  C4_6 
REMARK    2  A    between atoms: C4_6  and  N2_7 
REMARK    3  A    between atoms: N2_7  and  N3_9 
REMARK    4  A    between atoms: N3_9  and  C7_12 
REMARK    5  A    between atoms: C7_12  and  C8_13 
REMARK    6  A    between atoms: C10_18  and  C11_19 
REMARK       I    between atoms: C11_19  and  N5_21 
REMARK    7  A    between atoms: N5_21  and  C12_23 
REMARK    8  A    between atoms: C12_23  and  C13_24 
REMARK    9  A    between atoms: C12_23  and  C16_27 
REMARK   10  A    between atoms: C22_36  and  C23_37 
REMARK   11  A    between atoms: N7_38  and  N8_40 
ROOT
HETATM    1  C8  UNL     1       0.464   0.854  -0.629  1.00  0.00     0.240 C 
HETATM    2  C9  UNL     1      -0.100   1.250  -2.012  1.00  0.00     0.268 C 
HETATM    3  N4  UNL     1      -1.419   0.719  -2.218  1.00  0.00    -0.058 N 
ATOM      4  H41 UNL     1      -1.385  -0.276  -2.439  1.00  0.00     0.278 HD
ATOM      5  H42 UNL     1      -1.823   1.066  -3.088  1.00  0.00     0.278 HD
HETATM    6  C10 UNL     1      -2.296   0.974  -1.097  1.00  0.00     0.307 C 
HETATM    7  C19 UNL     1      -1.682   0.448   0.162  1.00  0.00     0.222 C 
HETATM    8  C20 UNL     1      -1.526   1.577   1.130  1.00  0.00     0.043 C 
HETATM    9  N6  UNL     1      -0.389  -0.184  -0.159  1.00  0.00    -0.061 N 
ATOM     10  H61 UNL     1       0.007  -0.710   0.620  1.00  0.00     0.278 HD
ATOM     11  H62 UNL     1      -0.472  -0.964  -0.811  1.00  0.00     0.278 HD
ENDROOT
BRANCH   1  12
HETATM   12  C7  UNL     1       1.888   0.516  -0.853  1.00  0.00     0.298 C 
BRANCH  12  13
HETATM   13  N3  UNL     1       2.675   0.115   0.255  1.00  0.00     0.006 N 
HETATM   14  C5  UNL     1       2.234   0.532   1.549  1.00  0.00     0.302 C 
HETATM   15  C6  UNL     1       2.865  -1.335   0.184  1.00  0.00     0.302 C 
BRANCH  13  16
HETATM   16  N2  UNL     1       3.966   0.647   0.064  1.00  0.00    -0.227 N 
ATOM     17  H2  UNL     1       4.218   1.533   0.502  1.00  0.00     0.193 HD
BRANCH  16  18
HETATM   18  C4  UNL     1       4.907  -0.032  -0.724  1.00  0.00     0.143 C 
BRANCH  18  19
HETATM   19  C3  UNL     1       6.148  -0.249  -0.259  1.00  0.00     0.050 A 
HETATM   20  N1  UNL     1       6.588   0.133   0.929  1.00  0.00    -0.355 N 
HETATM   21  C2  UNL     1       7.905  -0.264   1.047  1.00  0.00     0.035 A 
ATOM     22  H1  UNL     1       6.048   0.634   1.635  1.00  0.00     0.166 HD
HETATM   23  C1  UNL     1       8.602  -0.020   2.121  1.00  0.00     0.044 C 
HETATM   24  C22 UNL     1       8.302  -0.912  -0.090  1.00  0.00     0.009 A 
HETATM   25  C21 UNL     1       7.165  -0.893  -0.915  1.00  0.00     0.046 A 
BRANCH  24  26
HETATM   26  C23 UNL     1       9.529  -1.522  -0.514  1.00  0.00     0.120 C 
HETATM   27  N7  UNL     1      10.644  -1.643   0.065  1.00  0.00    -0.318 N 
ATOM     28  H7  UNL     1      10.774  -1.266   1.004  1.00  0.00     0.185 HD
BRANCH  27  29
HETATM   29  N8  UNL     1      11.729  -2.310  -0.595  1.00  0.00    -0.345 N 
ATOM     30  H82 UNL     1      11.583  -2.681  -1.534  1.00  0.00     0.176 HD
ATOM     31  H81 UNL     1      12.630  -2.408  -0.127  1.00  0.00     0.176 HD
ENDBRANCH  27  29
ENDBRANCH  24  26
ENDBRANCH  18  19
ENDBRANCH  16  18
ENDBRANCH  13  16
ENDBRANCH  12  13
ENDBRANCH   1  12
BRANCH   6  32
HETATM   32  C11 UNL     1      -3.599   0.302  -1.305  1.00  0.00     0.251 C 
HETATM   33  O1  UNL     1      -3.790  -0.367  -2.343  1.00  0.00    -0.271 OA
HETATM   34  N5  UNL     1      -4.632   0.402  -0.350  1.00  0.00    -0.354 N 
ATOM     35  H5  UNL     1      -4.485   0.946   0.501  1.00  0.00     0.162 HD
BRANCH  34  36
HETATM   36  C12 UNL     1      -5.887  -0.256  -0.568  1.00  0.00     0.091 C 
BRANCH  36  37
HETATM   37  C13 UNL     1      -6.951   0.782  -0.726  1.00  0.00     0.001 C 
HETATM   38  C14 UNL     1      -8.338   0.205  -0.973  1.00  0.00     0.011 C 
HETATM   39  C15 UNL     1      -7.054   1.788   0.365  1.00  0.00     0.011 C 
ENDBRANCH  36  37
BRANCH  36  40
HETATM   40  C16 UNL     1      -6.078  -1.269   0.500  1.00  0.00     0.001 C 
HETATM   41  C17 UNL     1      -6.104  -0.688   1.908  1.00  0.00     0.011 C 
HETATM   42  C18 UNL     1      -7.148  -2.280   0.281  1.00  0.00     0.011 C 
ENDBRANCH  36  40
ENDBRANCH  34  36
ENDBRANCH   6  32
TORSDOF 11
