REMARK  14 active torsions:
REMARK  status: ('A' for Active; 'I' for Inactive)
REMARK    1  A    between atoms: N1_2  and  C4_5 
REMARK    2  A    between atoms: C4_5  and  C5_6 
REMARK    3  A    between atoms: C5_6  and  C6_7 
REMARK    4  A    between atoms: C6_7  and  C7_8 
REMARK    5  A    between atoms: C7_8  and  C8_9 
REMARK    6  A    between atoms: C8_9  and  N2_10 
REMARK    7  A    between atoms: C8_9  and  C13_22 
REMARK       I    between atoms: N2_10  and  C9_12 
REMARK    8  A    between atoms: C9_12  and  C10_14 
REMARK    9  A    between atoms: N5_25  and  C16_26 
REMARK   10  A    between atoms: C16_26  and  C17_27 
REMARK   11  A    between atoms: C18_28  and  C19_29 
REMARK   12  A    between atoms: C19_29  and  C20_30 
REMARK   13  A    between atoms: N8_37  and  N9_39 
REMARK   14  A    between atoms: N9_39  and  N10_41 
ROOT
HETATM    1  C13 UNL     1       0.213  -0.488   1.367  1.00  0.00    -0.033 A 
HETATM    2  C14 UNL     1       1.425  -0.872   1.903  1.00  0.00     0.026 A 
HETATM    3  C15 UNL     1       2.586  -0.158   1.591  1.00  0.00     0.092 A 
HETATM    4  N5  UNL     1       2.589   0.909   0.776  1.00  0.00    -0.356 N 
HETATM    5  C23 UNL     1       1.396   1.277   0.258  1.00  0.00     0.092 A 
HETATM    6  C24 UNL     1       0.215   0.614   0.528  1.00  0.00     0.026 A 
ENDROOT
BRANCH   1   7
HETATM    7  C8  UNL     1      -1.040  -1.191   1.614  1.00  0.00     0.118 C 
BRANCH   7   8
HETATM    8  C7  UNL     1      -2.226  -0.351   1.238  1.00  0.00     0.030 C 
BRANCH   8   9
HETATM    9  C6  UNL     1      -3.547  -0.989   1.630  1.00  0.00     0.004 C 
BRANCH   9  10
HETATM   10  C5  UNL     1      -4.658  -0.026   1.223  1.00  0.00     0.028 C 
BRANCH  10  11
HETATM   11  C4  UNL     1      -4.586   1.290   1.911  1.00  0.00     0.236 C 
BRANCH  11  12
HETATM   12  N1  UNL     1      -5.665   2.144   1.462  1.00  0.00    -0.079 N 
HETATM   13  C1  UNL     1      -5.826   3.185   2.488  1.00  0.00     0.271 C 
HETATM   14  C2  UNL     1      -6.891   1.446   1.286  1.00  0.00     0.271 C 
HETATM   15  C3  UNL     1      -5.317   2.828   0.226  1.00  0.00     0.271 C 
ENDBRANCH  11  12
ENDBRANCH  10  11
ENDBRANCH   9  10
ENDBRANCH   8   9
ENDBRANCH   7   8
BRANCH   7  16
HETATM   16  N2  UNL     1      -1.139  -2.471   0.952  1.00  0.00    -0.347 N 
HETATM   17  C9  UNL     1      -1.002  -3.707   1.632  1.00  0.00     0.270 C 
HETATM   18  O1  UNL     1      -0.778  -3.712   2.853  1.00  0.00    -0.266 OA
ATOM     19  H2  UNL     1      -1.316  -2.486  -0.052  1.00  0.00     0.163 HD
BRANCH  17  20
HETATM   20  C10 UNL     1      -1.124  -4.938   0.890  1.00  0.00     0.120 A 
HETATM   21  C11 UNL     1      -0.745  -6.209   1.263  1.00  0.00     0.128 A 
HETATM   22  N3  UNL     1      -1.078  -7.082   0.306  1.00  0.00    -0.316 N 
HETATM   23  C12 UNL     1      -1.667  -6.398  -0.682  1.00  0.00     0.324 A 
ATOM     24  H3  UNL     1      -0.913  -8.088   0.326  1.00  0.00     0.170 HD
HETATM   25  O2  UNL     1      -2.113  -6.924  -1.759  1.00  0.00    -0.247 OA
HETATM   26  N4  UNL     1      -1.703  -5.093  -0.345  1.00  0.00    -0.303 N 
ATOM     27  H4  UNL     1      -2.096  -4.344  -0.914  1.00  0.00     0.171 HD
ENDBRANCH  17  20
ENDBRANCH   7  16
ENDBRANCH   1   7
BRANCH   4  28
HETATM   28  C16 UNL     1       3.754   1.679   0.433  1.00  0.00     0.221 C 
BRANCH  28  29
HETATM   29  C17 UNL     1       4.339   1.028  -0.767  1.00  0.00    -0.086 C 
HETATM   30  C18 UNL     1       4.843   0.519  -1.745  1.00  0.00    -0.099 C 
BRANCH  30  31
HETATM   31  C19 UNL     1       5.481  -0.068  -2.954  1.00  0.00     0.154 C 
BRANCH  31  32
HETATM   32  C20 UNL     1       6.816   0.631  -3.148  1.00  0.00     0.063 A 
HETATM   33  N6  UNL     1       7.978   0.127  -3.260  1.00  0.00    -0.373 N 
HETATM   34  C21 UNL     1       8.984   1.132  -3.429  1.00  0.00     0.245 A 
ATOM     35  H6  UNL     1       8.171  -0.874  -3.233  1.00  0.00     0.161 HD
HETATM   36  N7  UNL     1       8.287   2.384  -3.433  1.00  0.00    -0.358 N 
HETATM   37  C22 UNL     1       6.922   2.090  -3.248  1.00  0.00     0.141 A 
ATOM     38  H7  UNL     1       8.700   3.310  -3.548  1.00  0.00     0.162 HD
HETATM   39  N8  UNL     1       5.938   2.948  -3.191  1.00  0.00    -0.270 N 
ATOM     40  H8  UNL     1       4.987   2.601  -3.066  1.00  0.00     0.190 HD
BRANCH  39  41
HETATM   41  N9  UNL     1       6.134   4.242  -3.289  1.00  0.00    -0.248 N 
ATOM     42  H9  UNL     1       6.644   4.749  -4.012  1.00  0.00     0.207 HD
BRANCH  41  43
HETATM   43  N10 UNL     1       5.435   4.797  -2.094  1.00  0.00    -0.331 N 
ATOM     44 2H10 UNL     1       4.927   4.279  -1.377  1.00  0.00     0.178 HD
ATOM     45 1H10 UNL     1       5.587   5.803  -2.170  1.00  0.00     0.178 HD
ENDBRANCH  41  43
ENDBRANCH  39  41
ENDBRANCH  31  32
ENDBRANCH  30  31
ENDBRANCH  28  29
ENDBRANCH   4  28
TORSDOF 14
