REMARK  13 active torsions:
REMARK  status: ('A' for Active; 'I' for Inactive)
REMARK    1  A    between atoms: C3_3  and  C4_4 
REMARK    2  A    between atoms: C4_4  and  C5_5 
REMARK    3  A    between atoms: C6_6  and  O1_7 
REMARK    4  A    between atoms: O1_7  and  C7_8 
REMARK    5  A    between atoms: C7_8  and  C8_9 
REMARK    6  A    between atoms: C8_9  and  C9_10 
REMARK    7  A    between atoms: C9_10  and  C10_11 
REMARK    8  A    between atoms: C10_11  and  N1_12 
REMARK    9  A    between atoms: N1_12  and  C13_15 
REMARK   10  A    between atoms: C15_17  and  C16_18 
REMARK   11  A    between atoms: C16_18  and  C17_19 
REMARK   12  A    between atoms: C17_19  and  N2_20 
REMARK   13  A    between atoms: C26_32  and  N5_34 
ROOT
HETATM    1  C1  UNL     1       0.870  -5.941   1.792  1.00  0.00     0.112 C 
HETATM    2  C2  UNL     1       0.334  -4.666   1.378  1.00  0.00    -0.106 C 
HETATM    3  C3  UNL     1      -0.106  -3.624   1.011  1.00  0.00    -0.078 C 
ENDROOT
BRANCH   3   4
HETATM    4  C4  UNL     1      -0.538  -2.363   0.596  1.00  0.00     0.081 C 
BRANCH   4   5
HETATM    5  C5  UNL     1      -1.218  -1.762  -0.291  1.00  0.00     0.036 A 
HETATM    6  C6  UNL     1      -1.264  -0.338  -0.187  1.00  0.00     0.093 A 
HETATM    7  C15 UNL     1      -1.921   0.439  -1.100  1.00  0.00     0.046 A 
HETATM    8  C24 UNL     1      -2.554  -0.166  -2.167  1.00  0.00     0.255 A 
HETATM    9  O2  UNL     1      -3.154   0.559  -3.022  1.00  0.00    -0.268 OA
HETATM   10  N3  UNL     1      -2.511  -1.484  -2.261  1.00  0.00    -0.319 N 
HETATM   11  C25 UNL     1      -1.864  -2.314  -1.347  1.00  0.00     0.090 A 
ATOM     12  H3  UNL     1      -2.981  -1.922  -3.053  1.00  0.00     0.169 HD
HETATM   13  C26 UNL     1      -2.278  -3.571  -1.465  1.00  0.00     0.146 C 
HETATM   14  N4  UNL     1      -2.888  -3.964  -2.645  1.00  0.00    -0.080 NA
BRANCH   6  15
HETATM   15  O1  UNL     1      -0.630   0.375   0.834  1.00  0.00    -0.349 OA
BRANCH  15  16
HETATM   16  C7  UNL     1       0.625   0.976   0.742  1.00  0.00     0.176 C 
BRANCH  16  17
HETATM   17  C8  UNL     1       1.781   0.110   0.398  1.00  0.00     0.028 C 
BRANCH  17  18
HETATM   18  C9  UNL     1       3.077   0.938   0.271  1.00  0.00     0.030 C 
BRANCH  18  19
HETATM   19  C10 UNL     1       4.176  -0.012  -0.077  1.00  0.00     0.236 C 
BRANCH  19  20
HETATM   20  N1  UNL     1       5.468   0.597  -0.183  1.00  0.00    -0.075 N 
HETATM   21  C11 UNL     1       5.898   0.545  -1.566  1.00  0.00     0.272 C 
HETATM   22  C12 UNL     1       5.513   1.965   0.213  1.00  0.00     0.272 C 
BRANCH  20  23
HETATM   23  C13 UNL     1       6.419  -0.242   0.548  1.00  0.00     0.232 C 
HETATM   24  C14 UNL     1       6.508   0.070   2.004  1.00  0.00     0.034 C 
ENDBRANCH  20  23
ENDBRANCH  19  20
ENDBRANCH  18  19
ENDBRANCH  17  18
ENDBRANCH  16  17
ENDBRANCH  15  16
ENDBRANCH   6  15
BRANCH   7  25
HETATM   25  C16 UNL     1      -2.104   1.901  -0.954  1.00  0.00     0.067 C 
BRANCH  25  26
HETATM   26  C17 UNL     1      -3.324   2.066  -0.059  1.00  0.00     0.132 C 
BRANCH  26  27
HETATM   27  N2  UNL     1      -3.630   3.448   0.236  1.00  0.00    -0.366 N 
HETATM   28  C18 UNL     1      -4.341   4.156  -0.627  1.00  0.00     0.091 A 
HETATM   29  C19 UNL     1      -4.691   5.486  -0.357  1.00  0.00     0.024 A 
HETATM   30  C20 UNL     1      -4.313   6.102   0.802  1.00  0.00    -0.059 A 
HETATM   31  C21 UNL     1      -4.671   7.517   1.111  1.00  0.00     0.048 C 
HETATM   32  C22 UNL     1      -3.567   5.333   1.698  1.00  0.00     0.024 A 
HETATM   33  C23 UNL     1      -3.242   4.029   1.396  1.00  0.00     0.091 A 
ENDBRANCH  26  27
ENDBRANCH  25  26
ENDBRANCH   7  25
BRANCH  13  34
HETATM   34  N5  UNL     1      -2.390  -4.472  -0.391  1.00  0.00    -0.320 N 
HETATM   35  C27 UNL     1      -3.044  -5.565  -0.348  1.00  0.00     0.202 C 
HETATM   36  N6  UNL     1      -3.010  -6.309   0.858  1.00  0.00    -0.066 NA
HETATM   37  N7  UNL     1      -3.770  -6.040  -1.443  1.00  0.00    -0.066 NA
ATOM     38  H5  UNL     1      -1.885  -4.219   0.459  1.00  0.00     0.169 HD
ENDBRANCH  13  34
ENDBRANCH   4   5
ENDBRANCH   3   4
TORSDOF 13
