REMARK  13 active torsions:
REMARK  status: ('A' for Active; 'I' for Inactive)
REMARK    1  A    between atoms: C4_5  and  C5_6 
REMARK    2  A    between atoms: C5_6  and  C6_7 
REMARK    3  A    between atoms: C6_7  and  C7_8 
REMARK    4  A    between atoms: C7_8  and  N2_9 
REMARK    5  A    between atoms: C10_12  and  C11_13 
REMARK    6  A    between atoms: C11_13  and  C12_14 
REMARK    7  A    between atoms: C12_14  and  C13_15 
REMARK    8  A    between atoms: C13_15  and  N3_16 
REMARK    9  A    between atoms: N6_23  and  C17_24 
REMARK   10  A    between atoms: C17_24  and  C18_25 
REMARK   11  A    between atoms: C18_25  and  C19_26 
REMARK   12  A    between atoms: C20_27  and  C21_28 
REMARK   13  A    between atoms: N7_32  and  N8_34 
ROOT
HETATM    1  C1  UNL     1      -5.156  -3.872  -1.055  1.00  0.00     0.158 C 
HETATM    2  N1  UNL     1      -4.101  -2.868  -1.190  1.00  0.00    -0.339 N 
HETATM    3  C2  UNL     1      -3.478  -2.751  -2.376  1.00  0.00     0.094 A 
HETATM    4  C3  UNL     1      -2.494  -1.795  -2.456  1.00  0.00     0.042 A 
HETATM    5  C4  UNL     1      -2.170  -0.991  -1.352  1.00  0.00     0.015 A 
HETATM    6  N6  UNL     1      -2.823  -1.151  -0.197  1.00  0.00    -0.322 N 
HETATM    7  C25 UNL     1      -3.798  -2.104  -0.129  1.00  0.00     0.193 A 
HETATM    8  C26 UNL     1      -4.535  -2.349   1.101  1.00  0.00     0.137 C 
HETATM    9  N9  UNL     1      -5.111  -2.529   2.093  1.00  0.00    -0.188 NA
ENDROOT
BRANCH   6  10
HETATM   10  C17 UNL     1      -2.544  -0.382   0.967  1.00  0.00     0.199 C 
BRANCH  10  11
HETATM   11  C18 UNL     1      -3.265   0.898   1.087  1.00  0.00     0.096 C 
HETATM   12  N7  UNL     1      -2.617   1.945   1.475  1.00  0.00    -0.301 N 
ATOM     13  H7  UNL     1      -3.127   2.825   1.554  1.00  0.00     0.186 HD
BRANCH  11  14
HETATM   14  C19 UNL     1      -4.665   1.052   0.822  1.00  0.00    -0.049 C 
HETATM   15  C20 UNL     1      -5.860   1.213   0.593  1.00  0.00    -0.091 C 
BRANCH  15  16
HETATM   16  C21 UNL     1      -7.291   1.403   0.344  1.00  0.00     0.013 C 
HETATM   17  C22 UNL     1      -8.126   0.823   1.481  1.00  0.00     0.028 C 
HETATM   18  C23 UNL     1      -7.626   2.874   0.218  1.00  0.00     0.028 C 
HETATM   19  C24 UNL     1      -7.648   0.653  -0.928  1.00  0.00     0.028 C 
ENDBRANCH  15  16
ENDBRANCH  11  14
BRANCH  12  20
HETATM   20  N8  UNL     1      -1.253   1.941   1.794  1.00  0.00    -0.344 N 
ATOM     21  H82 UNL     1      -0.759   1.053   1.710  1.00  0.00     0.176 HD
ATOM     22  H81 UNL     1      -0.741   2.768   2.101  1.00  0.00     0.176 HD
ENDBRANCH  12  20
ENDBRANCH  10  11
ENDBRANCH   6  10
BRANCH   5  23
HETATM   23  C5  UNL     1      -1.098   0.006  -1.538  1.00  0.00     0.059 C 
BRANCH  23  24
HETATM   24  C6  UNL     1       0.283  -0.535  -1.230  1.00  0.00     0.026 C 
BRANCH  24  25
HETATM   25  C7  UNL     1       1.286   0.587  -1.457  1.00  0.00     0.128 C 
BRANCH  25  26
HETATM   26  N2  UNL     1       2.628   0.103  -1.169  1.00  0.00    -0.366 N 
HETATM   27  C8  UNL     1       3.132   0.208   0.072  1.00  0.00     0.091 A 
HETATM   28  C9  UNL     1       4.410  -0.245   0.383  1.00  0.00     0.024 A 
HETATM   29  C10 UNL     1       5.208  -0.821  -0.582  1.00  0.00    -0.056 A 
HETATM   30  C15 UNL     1       4.671  -0.924  -1.869  1.00  0.00     0.024 A 
HETATM   31  C16 UNL     1       3.397  -0.460  -2.129  1.00  0.00     0.091 A 
BRANCH  29  32
HETATM   32  C11 UNL     1       6.566  -1.318  -0.317  1.00  0.00     0.040 C 
BRANCH  32  33
HETATM   33  C12 UNL     1       7.585  -0.253  -0.575  1.00  0.00     0.024 C 
BRANCH  33  34
HETATM   34  C13 UNL     1       7.409   0.966   0.271  1.00  0.00     0.122 C 
BRANCH  34  35
HETATM   35  N3  UNL     1       8.483   1.910  -0.087  1.00  0.00    -0.367 N 
HETATM   36  C14 UNL     1       9.634   1.750   0.436  1.00  0.00     0.196 C 
HETATM   37  N4  UNL     1      10.668   2.673   0.081  1.00  0.00    -0.067 NA
HETATM   38  N5  UNL     1       9.884   0.693   1.340  1.00  0.00    -0.067 NA
ATOM     39  H3  UNL     1       8.309   2.675  -0.739  1.00  0.00     0.161 HD
ENDBRANCH  34  35
ENDBRANCH  33  34
ENDBRANCH  32  33
ENDBRANCH  29  32
ENDBRANCH  25  26
ENDBRANCH  24  25
ENDBRANCH  23  24
ENDBRANCH   5  23
TORSDOF 13
