REMARK  10 active torsions:
REMARK  status: ('A' for Active; 'I' for Inactive)
REMARK    1  A    between atoms: C2_2  and  N1_3 
REMARK    2  A    between atoms: N3_12  and  C9_13 
REMARK    3  A    between atoms: C9_13  and  C10_14 
REMARK    4  A    between atoms: C10_14  and  C11_15 
REMARK    5  A    between atoms: C11_15  and  C12_16 
REMARK    6  A    between atoms: C12_16  and  C13_17 
REMARK    7  A    between atoms: C13_17  and  N4_18 
REMARK    8  A    between atoms: C14_21  and  C15_22 
REMARK    9  A    between atoms: C19_30  and  C20_31 
REMARK   10  A    between atoms: C21_32  and  C22_33 
ROOT
HETATM    1  N1  UNL     1      -4.492  -0.984   0.753  1.00  0.00    -0.322 N 
HETATM    2  C3  UNL     1      -4.548  -2.329   1.145  1.00  0.00     0.100 A 
HETATM    3  C4  UNL     1      -3.496  -3.114   1.422  1.00  0.00     0.048 A 
HETATM    4  C5  UNL     1      -2.245  -2.593   1.326  1.00  0.00     0.044 A 
HETATM    5  N2  UNL     1      -1.213  -3.330   1.584  1.00  0.00    -0.393 N 
ATOM      6  H2  UNL     1      -0.266  -2.957   1.517  1.00  0.00     0.159 HD
HETATM    7  C6  UNL     1      -1.457  -4.728   1.978  1.00  0.00     0.146 C 
HETATM    8  C7  UNL     1      -2.131  -1.276   0.946  1.00  0.00     0.051 A 
HETATM    9  C8  UNL     1      -0.882  -0.691   0.923  1.00  0.00     0.110 A 
HETATM   10  N3  UNL     1      -0.758   0.583   0.643  1.00  0.00    -0.342 N 
HETATM   11  C19 UNL     1      -1.846   1.365   0.366  1.00  0.00     0.110 A 
HETATM   12  N9  UNL     1      -3.089   0.848   0.360  1.00  0.00    -0.322 N 
HETATM   13  C23 UNL     1      -4.198   1.537  -0.193  1.00  0.00     0.159 C 
HETATM   14  C24 UNL     1      -3.262  -0.482   0.660  1.00  0.00     0.128 A 
ENDROOT
BRANCH  10  15
HETATM   15  C9  UNL     1       0.548   1.166   0.615  1.00  0.00     0.130 C 
BRANCH  15  16
HETATM   16  C10 UNL     1       1.233   1.036  -0.749  1.00  0.00     0.020 C 
BRANCH  16  17
HETATM   17  C11 UNL     1       2.588   1.703  -0.625  1.00  0.00     0.003 C 
BRANCH  17  18
HETATM   18  C12 UNL     1       3.319   1.614  -1.928  1.00  0.00     0.022 C 
BRANCH  18  19
HETATM   19  C13 UNL     1       3.584   0.206  -2.348  1.00  0.00     0.148 C 
BRANCH  19  20
HETATM   20  N4  UNL     1       4.429  -0.464  -1.349  1.00  0.00    -0.296 N 
HETATM   21  N5  UNL     1       3.997  -1.152  -0.308  1.00  0.00    -0.295 N 
HETATM   22  C14 UNL     1       5.009  -1.651   0.421  1.00  0.00     0.090 A 
ATOM     23  H5  UNL     1       3.011  -1.288  -0.084  1.00  0.00     0.187 HD
HETATM   24  C16 UNL     1       6.156  -1.217  -0.254  1.00  0.00     0.060 A 
HETATM   25  C17 UNL     1       5.775  -0.482  -1.348  1.00  0.00     0.027 A 
HETATM   26  C18 UNL     1       6.645   0.169  -2.344  1.00  0.00     0.070 C 
BRANCH  22  27
HETATM   27  C15 UNL     1       4.950  -2.456   1.629  1.00  0.00     0.138 C 
HETATM   28  N6  UNL     1       3.806  -2.764   2.113  1.00  0.00    -0.386 N 
ATOM     29  H62 UNL     1       2.962  -2.439   1.642  1.00  0.00     0.157 HD
ATOM     30  H61 UNL     1       3.765  -3.329   2.961  1.00  0.00     0.157 HD
HETATM   31  N7  UNL     1       6.115  -2.905   2.279  1.00  0.00    -0.081 NA
ENDBRANCH  22  27
ENDBRANCH  19  20
ENDBRANCH  18  19
ENDBRANCH  17  18
ENDBRANCH  16  17
ENDBRANCH  15  16
ENDBRANCH  10  15
BRANCH  11  32
HETATM   32  C20 UNL     1      -1.596   2.767   0.122  1.00  0.00     0.054 C 
HETATM   33  C21 UNL     1      -2.390   3.755   0.436  1.00  0.00     0.074 C 
BRANCH  33  34
HETATM   34  C22 UNL     1      -2.012   5.158   0.119  1.00  0.00     0.254 C 
HETATM   35  N8  UNL     1      -2.810   6.268   0.424  1.00  0.00    -0.058 NA
HETATM   36  O1  UNL     1      -0.915   5.328  -0.451  1.00  0.00    -0.272 OA
ENDBRANCH  33  34
ENDBRANCH  11  32
BRANCH   1  37
HETATM   37  C2  UNL     1      -5.703  -0.339   0.477  1.00  0.00     0.067 C 
HETATM   38  C1  UNL     1      -6.446  -0.673  -0.797  1.00  0.00     0.055 C 
ENDBRANCH   1  37
TORSDOF 10
