REMARK  12 active torsions:
REMARK  status: ('A' for Active; 'I' for Inactive)
REMARK    1  A    between atoms: C3_3  and  N1_4 
REMARK    2  A    between atoms: N1_4  and  C4_5 
REMARK    3  A    between atoms: N1_4  and  C5_11 
REMARK    4  A    between atoms: N2_6  and  N3_8 
REMARK    5  A    between atoms: C5_11  and  C6_12 
REMARK    6  A    between atoms: C6_12  and  C7_13 
REMARK    7  A    between atoms: C9_17  and  N5_18 
REMARK    8  A    between atoms: N5_18  and  N6_19 
REMARK    9  A    between atoms: N6_19  and  N7_21 
REMARK   10  A    between atoms: N8_24  and  C10_25 
REMARK   11  A    between atoms: C10_25  and  C11_26 
REMARK   12  A    between atoms: N9_34  and  C19_35 
ROOT
HETATM    1  C1  UNL     1       6.317   2.987  -0.479  1.00  0.00     0.014 C 
HETATM    2  C2  UNL     1       5.877   2.386   0.466  1.00  0.00    -0.098 C 
HETATM    3  C3  UNL     1       5.364   1.654   1.636  1.00  0.00     0.216 C 
ENDROOT
BRANCH   3   4
HETATM    4  N1  UNL     1       4.092   1.047   1.339  1.00  0.00    -0.365 N 
BRANCH   4   5
HETATM    5  C4  UNL     1       3.445   0.276   2.327  1.00  0.00     0.195 C 
HETATM    6  N2  UNL     1       3.505   0.618   3.553  1.00  0.00    -0.303 N 
ATOM      7  H2  UNL     1       4.029   1.457   3.800  1.00  0.00     0.187 HD
BRANCH   6   8
HETATM    8  N3  UNL     1       2.878  -0.114   4.584  1.00  0.00    -0.344 N 
ATOM      9  H32 UNL     1       2.358  -0.951   4.319  1.00  0.00     0.176 HD
ATOM     10  H31 UNL     1       2.926   0.160   5.565  1.00  0.00     0.176 HD
ENDBRANCH   6   8
ENDBRANCH   4   5
BRANCH   4  11
HETATM   11  C5  UNL     1       3.532   1.268   0.012  1.00  0.00     0.130 C 
BRANCH  11  12
HETATM   12  C6  UNL     1       2.220   0.529  -0.134  1.00  0.00     0.079 C 
BRANCH  12  13
HETATM   13  C7  UNL     1       1.629   0.729  -1.504  1.00  0.00     0.037 A 
HETATM   14  C8  UNL     1       2.211   1.598  -2.386  1.00  0.00     0.118 A 
HETATM   15  N4  UNL     1       1.523   1.513  -3.498  1.00  0.00    -0.323 N 
HETATM   16  C9  UNL     1       0.529   0.620  -3.351  1.00  0.00     0.289 A 
ATOM     17  H4  UNL     1       1.713   2.045  -4.348  1.00  0.00     0.169 HD
HETATM   18  N8  UNL     1       0.597   0.116  -2.061  1.00  0.00    -0.286 N 
BRANCH  16  19
HETATM   19  N5  UNL     1      -0.232   0.325  -4.246  1.00  0.00    -0.272 NA
BRANCH  19  20
HETATM   20  N6  UNL     1      -1.057  -0.019  -5.157  1.00  0.00    -0.179 N 
ATOM     21  H6  UNL     1      -1.858   0.584  -5.346  1.00  0.00     0.223 HD
BRANCH  20  22
HETATM   22  N7  UNL     1      -0.918  -1.103  -5.851  1.00  0.00    -0.320 N 
ATOM     23  H72 UNL     1      -0.112  -1.694  -5.649  1.00  0.00     0.179 HD
ATOM     24  H71 UNL     1      -1.577  -1.378  -6.579  1.00  0.00     0.179 HD
ENDBRANCH  20  22
ENDBRANCH  19  20
ENDBRANCH  16  19
BRANCH  18  25
HETATM   25  C10 UNL     1      -0.279  -0.879  -1.579  1.00  0.00     0.087 C 
BRANCH  25  26
HETATM   26  C11 UNL     1      -1.504  -0.745  -0.850  1.00  0.00     0.032 C 
HETATM   27  C12 UNL     1      -2.609   0.107  -1.522  1.00  0.00     0.019 C 
HETATM   28  C13 UNL     1      -3.198   0.974  -0.378  1.00  0.00     0.012 C 
HETATM   29  C14 UNL     1      -2.010   1.014   0.472  1.00  0.00     0.041 C 
HETATM   30  C15 UNL     1      -1.941   1.443   1.823  1.00  0.00    -0.019 C 
HETATM   31  C18 UNL     1      -1.764  -0.506   0.538  1.00  0.00     0.072 C 
HETATM   32  C16 UNL     1      -0.946   0.491   2.396  1.00  0.00    -0.005 C 
HETATM   33  C17 UNL     1      -0.875  -0.600   1.636  1.00  0.00     0.006 C 
HETATM   34  N9  UNL     1      -3.039  -1.189   0.885  1.00  0.00    -0.350 N 
HETATM   35  C22 UNL     1      -3.414  -1.920  -0.273  1.00  0.00     0.082 C 
HETATM   36  S1  UNL     1      -4.866  -2.424  -0.805  1.00  0.00    -0.065 SA
HETATM   37  C23 UNL     1      -2.162  -2.185  -1.027  1.00  0.00     0.059 C 
HETATM   38  C24 UNL     1      -1.359  -3.243  -0.393  1.00  0.00     0.018 C 
BRANCH  34  39
HETATM   39  C19 UNL     1      -3.783  -1.159   2.091  1.00  0.00     0.218 C 
HETATM   40  C20 UNL     1      -4.911  -2.083   2.167  1.00  0.00    -0.098 C 
HETATM   41  C21 UNL     1      -5.839  -2.857   2.259  1.00  0.00     0.014 C 
ENDBRANCH  34  39
ENDBRANCH  25  26
ENDBRANCH  18  25
ENDBRANCH  12  13
ENDBRANCH  11  12
ENDBRANCH   4  11
ENDBRANCH   3   4
TORSDOF 12
