REMARK  12 active torsions:
REMARK  status: ('A' for Active; 'I' for Inactive)
REMARK    1  A    between atoms: C2_2  and  C3_3 
REMARK    2  A    between atoms: C3_3  and  C4_4 
REMARK    3  A    between atoms: C4_4  and  C5_5 
REMARK    4  A    between atoms: C4_4  and  O2_26 
REMARK    5  A    between atoms: C5_5  and  C6_6 
REMARK    6  A    between atoms: C6_6  and  C7_7 
REMARK    7  A    between atoms: N1_8  and  C8_10 
REMARK    8  A    between atoms: C10_12  and  C11_13 
REMARK    9  A    between atoms: N2_15  and  N3_17 
REMARK   10  A    between atoms: C13_22  and  O1_24 
REMARK   11  A    between atoms: O2_26  and  C15_27 
REMARK       I    between atoms: C15_27  and  N5_29 
REMARK       I    between atoms: N6_32  and  C18_33 
REMARK   12  A    between atoms: N8_35  and  C19_37 
ROOT
HETATM    1  C5  UNL     1       0.549  -0.967   0.152  1.00  0.00     0.037 C 
ENDROOT
BRANCH   1   2
HETATM    2  C4  UNL     1       0.096   0.082   1.069  1.00  0.00     0.134 C 
BRANCH   2   3
HETATM    3  C3  UNL     1       0.813   0.529   2.253  1.00  0.00     0.032 C 
BRANCH   3   4
HETATM    4  C2  UNL     1       2.158   1.133   2.165  1.00  0.00    -0.002 C 
HETATM    5  C1  UNL     1       2.582   1.588   3.598  1.00  0.00     0.005 C 
ENDBRANCH   3   4
ENDBRANCH   2   3
BRANCH   2   6
HETATM    6  O2  UNL     1      -1.322  -0.105   1.366  1.00  0.00    -0.298 OA
BRANCH   6   7
HETATM    7  C15 UNL     1      -2.308   0.702   0.882  1.00  0.00     0.363 C 
HETATM    8  O3  UNL     1      -1.977   1.673   0.134  1.00  0.00    -0.238 OA
HETATM    9  N5  UNL     1      -3.694   0.516   1.169  1.00  0.00    -0.325 N 
HETATM   10  C16 UNL     1      -4.664   1.447   0.581  1.00  0.00     0.148 C 
HETATM   11  C22 UNL     1      -4.198  -0.546   2.008  1.00  0.00     0.148 C 
HETATM   12  C17 UNL     1      -5.704   0.631  -0.197  1.00  0.00     0.145 C 
HETATM   13  N6  UNL     1      -6.199  -0.421   0.655  1.00  0.00    -0.352 N 
HETATM   14  C18 UNL     1      -7.548  -0.594   0.999  1.00  0.00     0.190 C 
HETATM   15  C21 UNL     1      -5.206  -1.347   1.205  1.00  0.00     0.145 C 
HETATM   16  N7  UNL     1      -7.776  -0.631   2.451  1.00  0.00    -0.063 NA
HETATM   17  N8  UNL     1      -8.530  -0.712   0.236  1.00  0.00    -0.345 N 
ATOM     18  H8  UNL     1      -9.439  -0.830   0.684  1.00  0.00     0.167 HD
BRANCH  17  19
HETATM   19  C19 UNL     1      -8.524  -0.700  -1.172  1.00  0.00     0.059 C 
HETATM   20  C20 UNL     1      -7.625  -1.687  -1.838  1.00  0.00     0.055 C 
ENDBRANCH  17  19
ENDBRANCH   6   7
ENDBRANCH   2   6
ENDBRANCH   1   2
BRANCH   1  21
HETATM   21  C6  UNL     1       1.845  -0.702  -0.537  1.00  0.00     0.047 C 
BRANCH  21  22
HETATM   22  C7  UNL     1       2.163  -1.756  -1.544  1.00  0.00     0.060 C 
HETATM   23  N1  UNL     1       3.228  -2.067  -2.106  1.00  0.00    -0.379 N 
ATOM     24  H1  UNL     1       3.074  -2.847  -2.745  1.00  0.00     0.164 HD
BRANCH  23  25
HETATM   25  C8  UNL     1       4.540  -1.687  -2.132  1.00  0.00     0.094 C 
HETATM   26  C9  UNL     1       5.297  -0.878  -1.424  1.00  0.00    -0.017 A 
HETATM   27  C10 UNL     1       6.686  -0.322  -1.255  1.00  0.00     0.104 A 
HETATM   28  C13 UNL     1       5.616   0.108  -0.337  1.00  0.00     0.092 A 
HETATM   29  C14 UNL     1       5.030   1.476  -0.448  1.00  0.00     0.052 C 
BRANCH  27  30
HETATM   30  C11 UNL     1       7.244   0.593  -2.262  1.00  0.00     0.013 C 
HETATM   31  C12 UNL     1       7.132   0.338  -3.724  1.00  0.00     0.066 C 
HETATM   32  N2  UNL     1       7.914   1.615  -1.922  1.00  0.00    -0.295 N 
ATOM     33  H2  UNL     1       8.284   2.228  -2.649  1.00  0.00     0.187 HD
BRANCH  32  34
HETATM   34  N3  UNL     1       8.158   1.923  -0.598  1.00  0.00    -0.249 N 
HETATM   35  N4  UNL     1       8.472   3.100  -0.294  1.00  0.00    -0.331 N 
ATOM     36  H42 UNL     1       8.542   3.807  -1.026  1.00  0.00     0.178 HD
ATOM     37  H41 UNL     1       8.652   3.327   0.684  1.00  0.00     0.178 HD
ATOM     38  H3  UNL     1       8.084   1.205   0.122  1.00  0.00     0.207 HD
ENDBRANCH  32  34
ENDBRANCH  27  30
BRANCH  28  39
HETATM   39  O1  UNL     1       5.683  -0.404   0.968  1.00  0.00    -0.385 OA
ATOM     40  H1  UNL     1       5.885   0.220   1.656  1.00  0.00     0.211 HD
ENDBRANCH  28  39
ENDBRANCH  23  25
ENDBRANCH  21  22
ENDBRANCH   1  21
TORSDOF 12
