REMARK  13 active torsions:
REMARK  status: ('A' for Active; 'I' for Inactive)
REMARK    1  A    between atoms: C2_2  and  N1_3 
REMARK    2  A    between atoms: N1_3  and  C5_6 
REMARK    3  A    between atoms: C5_6  and  C6_7 
REMARK    4  A    between atoms: C6_7  and  C7_8 
REMARK    5  A    between atoms: C7_8  and  C8_9 
REMARK    6  A    between atoms: C8_9  and  C9_10 
REMARK    7  A    between atoms: C9_10  and  N2_11 
REMARK    8  A    between atoms: C13_15  and  C14_16 
REMARK    9  A    between atoms: C14_16  and  N3_17 
REMARK   10  A    between atoms: N3_17  and  C15_19 
REMARK   11  A    between atoms: C16_22  and  N5_23 
REMARK   12  A    between atoms: C18_28  and  N7_29 
REMARK   13  A    between atoms: N7_29  and  C19_31 
ROOT
HETATM    1  C15 UNL     1      -3.144  -2.648  -0.625  1.00  0.00     0.707 A 
HETATM    2  N4  UNL     1      -3.827  -3.803  -0.537  1.00  0.00    -0.022 N 
ATOM      3  H4  UNL     1      -3.318  -4.686  -0.567  1.00  0.00     0.203 HD
HETATM    4  C16 UNL     1      -5.180  -3.820  -0.409  1.00  0.00     0.706 A 
HETATM    5  N6  UNL     1      -5.859  -2.670  -0.368  1.00  0.00    -0.021 N 
ATOM      6  H6  UNL     1      -6.874  -2.679  -0.271  1.00  0.00     0.203 HD
HETATM    7  C18 UNL     1      -5.190  -1.480  -0.456  1.00  0.00     0.710 A 
HETATM    8  N10 UNL     1      -3.849  -1.508  -0.582  1.00  0.00    -0.021 N 
ATOM      9  H10 UNL     1      -3.347  -0.622  -0.648  1.00  0.00     0.203 HD
ENDROOT
BRANCH   1  10
HETATM   10  N3  UNL     1      -1.868  -2.672  -0.746  1.00  0.00    -0.221 N 
ATOM     11  H3  UNL     1      -1.440  -3.598  -0.768  1.00  0.00     0.178 HD
BRANCH  10  12
HETATM   12  C14 UNL     1      -0.975  -1.575  -0.853  1.00  0.00     0.178 C 
BRANCH  12  13
HETATM   13  C13 UNL     1      -0.390  -1.127   0.421  1.00  0.00    -0.024 A 
HETATM   14  C12 UNL     1      -0.701  -1.731   1.610  1.00  0.00     0.011 A 
HETATM   15  C11 UNL     1      -0.115  -1.261   2.765  1.00  0.00     0.018 A 
HETATM   16  C10 UNL     1       0.768  -0.203   2.716  1.00  0.00     0.090 A 
HETATM   17  N2  UNL     1       1.070   0.386   1.545  1.00  0.00    -0.366 N 
HETATM   18  C24 UNL     1       0.492  -0.078   0.414  1.00  0.00     0.099 A 
BRANCH  17  19
HETATM   19  C9  UNL     1       1.985   1.484   1.571  1.00  0.00     0.128 C 
BRANCH  19  20
HETATM   20  C8  UNL     1       3.433   1.117   1.435  1.00  0.00     0.020 C 
BRANCH  20  21
HETATM   21  C7  UNL     1       3.719   0.413   0.150  1.00  0.00     0.003 C 
BRANCH  21  22
HETATM   22  C6  UNL     1       5.170   0.030  -0.030  1.00  0.00     0.028 C 
BRANCH  22  23
HETATM   23  C5  UNL     1       6.008   1.264  -0.006  1.00  0.00     0.236 C 
BRANCH  23  24
HETATM   24  N1  UNL     1       7.421   0.989  -0.180  1.00  0.00    -0.075 N 
HETATM   25  C3  UNL     1       7.924   0.156   0.870  1.00  0.00     0.272 C 
HETATM   26  C4  UNL     1       8.112   2.281  -0.089  1.00  0.00     0.272 C 
BRANCH  24  27
HETATM   27  C2  UNL     1       7.751   0.422  -1.449  1.00  0.00     0.232 C 
HETATM   28  C1  UNL     1       7.876   1.441  -2.559  1.00  0.00     0.034 C 
ENDBRANCH  24  27
ENDBRANCH  23  24
ENDBRANCH  22  23
ENDBRANCH  21  22
ENDBRANCH  20  21
ENDBRANCH  19  20
ENDBRANCH  17  19
ENDBRANCH  12  13
ENDBRANCH  10  12
ENDBRANCH   1  10
BRANCH   4  29
HETATM   29  N5  UNL     1      -5.853  -4.919  -0.323  1.00  0.00    -0.229 N 
HETATM   30  C17 UNL     1      -5.110  -6.159  -0.367  1.00  0.00     0.165 C 
ATOM     31  H5  UNL     1      -6.869  -4.913  -0.228  1.00  0.00     0.177 HD
ENDBRANCH   4  29
BRANCH   7  32
HETATM   32  N7  UNL     1      -5.873  -0.392  -0.414  1.00  0.00    -0.172 N 
ATOM     33  H7  UNL     1      -6.888  -0.426  -0.317  1.00  0.00     0.181 HD
BRANCH  32  34
HETATM   34  C19 UNL     1      -5.198   0.872  -0.504  1.00  0.00     0.502 C 
HETATM   35  N8  UNL     1      -4.620   1.150   0.795  1.00  0.00    -0.026 N 
HETATM   36  C20 UNL     1      -5.610   1.889   1.560  1.00  0.00     0.265 C 
ATOM     37  H82 UNL     1      -4.292   0.311   1.273  1.00  0.00     0.281 HD
ATOM     38  H81 UNL     1      -3.722   1.629   0.737  1.00  0.00     0.281 HD
HETATM   39  C21 UNL     1      -6.806   2.006   0.609  1.00  0.00     0.268 C 
HETATM   40  N9  UNL     1      -6.132   1.977  -0.664  1.00  0.00    -0.026 N 
HETATM   41  C22 UNL     1      -5.370   3.175  -0.864  1.00  0.00     0.276 C 
HETATM   42  C23 UNL     1      -7.060   1.748  -1.740  1.00  0.00     0.276 C 
ENDBRANCH  32  34
ENDBRANCH   7  32
TORSDOF 13
