REMARK  15 active torsions:
REMARK  status: ('A' for Active; 'I' for Inactive)
REMARK    1  A    between atoms: C6_6  and  C7_7 
REMARK    2  A    between atoms: C7_7  and  C8_8 
REMARK    3  A    between atoms: C8_8  and  N1_9 
REMARK    4  A    between atoms: C11_12  and  C12_13 
REMARK    5  A    between atoms: C12_13  and  O1_14 
REMARK    6  A    between atoms: C12_13  and  N2_16 
REMARK    7  A    between atoms: N2_16  and  C13_17 
REMARK    8  A    between atoms: N2_16  and  C15_21 
REMARK    9  A    between atoms: C13_17  and  C14_18 
REMARK   10  A    between atoms: C14_18  and  O2_19 
REMARK   11  A    between atoms: C15_21  and  C16_22 
REMARK   12  A    between atoms: C16_22  and  O3_23 
REMARK   13  A    between atoms: N3_28  and  C20_29 
REMARK   14  A    between atoms: C20_29  and  C21_30 
REMARK   15  A    between atoms: C23_34  and  N5_35 
ROOT
HETATM    1  C1  UNL     1      -3.867  -4.291   1.346  1.00  0.00     0.019 C 
HETATM    2  C2  UNL     1      -3.541  -3.155   1.561  1.00  0.00    -0.059 C 
HETATM    3  C3  UNL     1      -3.134  -1.809   1.842  1.00  0.00     0.088 A 
HETATM    4  C4  UNL     1      -3.467  -1.229   3.057  1.00  0.00     0.039 A 
HETATM    5  C5  UNL     1      -3.092   0.036   3.421  1.00  0.00     0.011 A 
HETATM    6  C6  UNL     1      -2.332   0.753   2.490  1.00  0.00    -0.041 A 
HETATM    7  C19 UNL     1      -2.023   0.154   1.305  1.00  0.00     0.099 A 
HETATM    8  N3  UNL     1      -2.404  -1.094   0.969  1.00  0.00    -0.345 N 
ENDROOT
BRANCH   8   9
HETATM    9  C20 UNL     1      -2.016  -1.588  -0.341  1.00  0.00     0.170 C 
BRANCH   9  10
HETATM   10  C21 UNL     1      -2.935  -1.239  -1.428  1.00  0.00    -0.008 A 
HETATM   11  C22 UNL     1      -3.895  -2.122  -1.894  1.00  0.00     0.116 A 
HETATM   12  N4  UNL     1      -4.698  -1.688  -2.904  1.00  0.00    -0.201 N 
HETATM   13  C23 UNL     1      -4.582  -0.465  -3.440  1.00  0.00     0.677 A 
ATOM     14  H4  UNL     1      -5.415  -2.317  -3.266  1.00  0.00     0.183 HD
HETATM   15  N6  UNL     1      -3.641   0.386  -2.979  1.00  0.00    -0.197 N 
HETATM   16  C24 UNL     1      -3.536   1.706  -3.577  1.00  0.00     0.174 C 
HETATM   17  C25 UNL     1      -2.814   0.033  -1.988  1.00  0.00     0.118 A 
BRANCH  13  18
HETATM   18  N5  UNL     1      -5.347  -0.056  -4.402  1.00  0.00    -0.234 N 
ATOM     19  H52 UNL     1      -6.058  -0.699  -4.750  1.00  0.00     0.174 HD
ATOM     20  H51 UNL     1      -5.259   0.875  -4.810  1.00  0.00     0.174 HD
ENDBRANCH  13  18
ENDBRANCH   9  10
ENDBRANCH   8   9
BRANCH   6  21
HETATM   21  C7  UNL     1      -1.923   2.131   2.831  1.00  0.00     0.060 C 
BRANCH  21  22
HETATM   22  C8  UNL     1      -0.650   2.126   3.593  1.00  0.00     0.132 C 
BRANCH  22  23
HETATM   23  N1  UNL     1       0.447   1.530   2.858  1.00  0.00    -0.366 N 
HETATM   24  C9  UNL     1       1.221   2.262   2.050  1.00  0.00     0.091 A 
HETATM   25  C10 UNL     1       2.301   1.757   1.333  1.00  0.00     0.033 A 
HETATM   26  C11 UNL     1       2.642   0.438   1.420  1.00  0.00     0.018 A 
HETATM   27  C17 UNL     1       1.805  -0.315   2.283  1.00  0.00     0.033 A 
HETATM   28  C18 UNL     1       0.762   0.233   2.960  1.00  0.00     0.091 A 
BRANCH  26  29
HETATM   29  C12 UNL     1       3.712  -0.238   0.750  1.00  0.00     0.152 C 
BRANCH  29  30
HETATM   30  O1  UNL     1       3.827  -1.514   1.043  1.00  0.00    -0.345 OA
ATOM     31  H1  UNL     1       4.537  -1.962   0.599  1.00  0.00     0.219 HD
ENDBRANCH  29  30
BRANCH  29  32
HETATM   32  N2  UNL     1       4.676   0.185  -0.167  1.00  0.00    -0.337 N 
BRANCH  32  33
HETATM   33  C13 UNL     1       5.601  -0.926  -0.582  1.00  0.00     0.156 C 
BRANCH  33  34
HETATM   34  C14 UNL     1       5.018  -1.718  -1.665  1.00  0.00     0.184 C 
BRANCH  34  35
HETATM   35  O2  UNL     1       5.884  -2.764  -2.055  1.00  0.00    -0.399 OA
ATOM     36  H2  UNL     1       5.505  -3.278  -2.758  1.00  0.00     0.209 HD
ENDBRANCH  34  35
ENDBRANCH  33  34
ENDBRANCH  32  33
BRANCH  32  37
HETATM   37  C15 UNL     1       4.958   1.490  -0.657  1.00  0.00     0.092 C 
BRANCH  37  38
HETATM   38  C16 UNL     1       4.284   2.041  -1.838  1.00  0.00     0.208 C 
BRANCH  38  39
HETATM   39  O3  UNL     1       4.410   1.433  -3.044  1.00  0.00    -0.396 OA
ATOM     40  H3  UNL     1       3.974   1.790  -3.809  1.00  0.00     0.209 HD
ENDBRANCH  38  39
ENDBRANCH  37  38
ENDBRANCH  32  37
ENDBRANCH  29  32
ENDBRANCH  26  29
ENDBRANCH  22  23
ENDBRANCH  21  22
ENDBRANCH   6  21
TORSDOF 15
