REMARK  16 active torsions:
REMARK  status: ('A' for Active; 'I' for Inactive)
REMARK    1  A    between atoms: C4_5  and  C5_6 
REMARK    2  A    between atoms: C5_6  and  N2_7 
REMARK    3  A    between atoms: N2_7  and  C6_8 
REMARK    4  A    between atoms: C6_8  and  C7_9 
REMARK    5  A    between atoms: C7_9  and  C8_10 
REMARK    6  A    between atoms: C8_10  and  C9_11 
REMARK    7  A    between atoms: C9_11  and  N3_12 
REMARK       I    between atoms: N3_12  and  C10_14 
REMARK    8  A    between atoms: C10_14  and  C11_16 
REMARK    9  A    between atoms: C11_16  and  C12_17 
REMARK   10  A    between atoms: C11_16  and  C17_24 
REMARK   11  A    between atoms: C13_18  and  C14_19 
REMARK   12  A    between atoms: C15_20  and  C16_21 
REMARK   13  A    between atoms: C16_21  and  O2_22 
REMARK   14  A    between atoms: C17_24  and  N4_25 
REMARK   15  A    between atoms: C22_32  and  O3_33 
REMARK   16  A    between atoms: C23_35  and  O4_36 
ROOT
HETATM    1  C9  UNL     1       1.371   0.935   2.218  1.00  0.00     0.122 C 
ENDROOT
BRANCH   1   2
HETATM    2  C8  UNL     1       0.570  -0.343   2.190  1.00  0.00     0.021 C 
BRANCH   2   3
HETATM    3  C7  UNL     1      -0.564  -0.297   1.207  1.00  0.00     0.030 C 
BRANCH   3   4
HETATM    4  C6  UNL     1      -1.504   0.799   1.557  1.00  0.00     0.241 C 
BRANCH   4   5
HETATM    5  N2  UNL     1      -2.642   0.859   0.614  1.00  0.00    -0.035 N 
HETATM    6  C21 UNL     1      -2.233   0.963  -0.748  1.00  0.00     0.276 C 
HETATM    7  C22 UNL     1      -3.116   2.174  -0.955  1.00  0.00     0.201 C 
HETATM    8  C23 UNL     1      -3.096   2.226   0.548  1.00  0.00     0.354 C 
BRANCH   5   9
HETATM    9  C5  UNL     1      -3.590  -0.136   0.964  1.00  0.00     0.248 C 
BRANCH   9  10
HETATM   10  C4  UNL     1      -4.816  -0.207   0.140  1.00  0.00     0.064 C 
HETATM   11  C3  UNL     1      -5.723  -1.334   0.659  1.00  0.00     0.244 C 
HETATM   12  N1  UNL     1      -6.045  -1.625  -0.724  1.00  0.00    -0.074 N 
HETATM   13  C1  UNL     1      -7.131  -0.801  -1.177  1.00  0.00     0.272 C 
HETATM   14  C2  UNL     1      -6.199  -3.038  -1.014  1.00  0.00     0.272 C 
HETATM   15  C24 UNL     1      -4.748  -1.096  -1.088  1.00  0.00     0.244 C 
ENDBRANCH   9  10
ENDBRANCH   5   9
BRANCH   7  16
HETATM   16  O3  UNL     1      -2.457   3.249  -1.587  1.00  0.00    -0.389 OA
ATOM     17  H3  UNL     1      -3.011   4.009  -1.717  1.00  0.00     0.210 HD
ENDBRANCH   7  16
BRANCH   8  18
HETATM   18  O4  UNL     1      -4.275   2.525   1.182  1.00  0.00    -0.367 OA
ATOM     19  H4  UNL     1      -4.574   3.426   1.139  1.00  0.00     0.212 HD
ENDBRANCH   8  18
ENDBRANCH   4   5
ENDBRANCH   3   4
ENDBRANCH   2   3
ENDBRANCH   1   2
BRANCH   1  20
HETATM   20  N3  UNL     1       1.952   1.276   0.951  1.00  0.00    -0.360 N 
HETATM   21  C10 UNL     1       2.877   0.429   0.306  1.00  0.00     0.235 C 
HETATM   22  O1  UNL     1       3.207  -0.647   0.846  1.00  0.00    -0.272 OA
ATOM     23  H3  UNL     1       1.689   2.155   0.505  1.00  0.00     0.162 HD
BRANCH  21  24
HETATM   24  C11 UNL     1       3.469   0.791  -1.006  1.00  0.00     0.176 C 
BRANCH  24  25
HETATM   25  C12 UNL     1       4.327  -0.307  -1.493  1.00  0.00    -0.076 C 
HETATM   26  C13 UNL     1       5.014  -1.227  -1.898  1.00  0.00    -0.014 C 
BRANCH  26  27
HETATM   27  C14 UNL     1       5.794  -2.304  -2.382  1.00  0.00    -0.013 C 
HETATM   28  C15 UNL     1       6.449  -3.245  -2.794  1.00  0.00    -0.067 C 
BRANCH  28  29
HETATM   29  C16 UNL     1       7.240  -4.391  -3.267  1.00  0.00     0.258 C 
BRANCH  29  30
HETATM   30  O2  UNL     1       8.578  -4.285  -2.889  1.00  0.00    -0.389 OA
ATOM     31  H2  UNL     1       9.089  -5.025  -3.195  1.00  0.00     0.210 HD
ENDBRANCH  29  30
ENDBRANCH  28  29
ENDBRANCH  26  27
ENDBRANCH  24  25
BRANCH  24  32
HETATM   32  C17 UNL     1       4.299   2.028  -0.840  1.00  0.00     0.156 C 
BRANCH  32  33
HETATM   33  N4  UNL     1       5.369   1.805   0.109  1.00  0.00    -0.350 N 
HETATM   34  C18 UNL     1       6.622   1.350  -0.185  1.00  0.00     0.108 A 
HETATM   35  C19 UNL     1       7.364   1.269   0.971  1.00  0.00     0.106 A 
HETATM   36  N5  UNL     1       6.572   1.673   1.977  1.00  0.00    -0.361 N 
HETATM   37  C20 UNL     1       5.375   1.992   1.441  1.00  0.00     0.182 A 
ATOM     38  H5  UNL     1       6.827   1.729   2.963  1.00  0.00     0.166 HD
ENDBRANCH  32  33
ENDBRANCH  24  32
ENDBRANCH  21  24
ENDBRANCH   1  20
TORSDOF 16
