REMARK  14 active torsions:
REMARK  status: ('A' for Active; 'I' for Inactive)
REMARK    1  A    between atoms: C2_2  and  C3_3 
REMARK    2  A    between atoms: C3_3  and  N1_4 
REMARK       I    between atoms: N1_4  and  C4_6 
REMARK    3  A    between atoms: C4_6  and  C5_8 
REMARK    4  A    between atoms: C5_8  and  N2_9 
REMARK    5  A    between atoms: N3_12  and  C8_13 
REMARK    6  A    between atoms: C8_13  and  C9_14 
REMARK    7  A    between atoms: C9_14  and  C10_15 
REMARK    8  A    between atoms: C10_15  and  C11_16 
REMARK    9  A    between atoms: N4_19  and  C14_20 
REMARK   10  A    between atoms: C16_22  and  C17_23 
REMARK   11  A    between atoms: C18_24  and  C19_25 
REMARK   12  A    between atoms: C20_29  and  N6_30 
REMARK   13  A    between atoms: N6_30  and  O2_32 
REMARK   14  A    between atoms: C24_36  and  O3_37 
ROOT
HETATM    1  C9  UNL     1      -0.541   0.073  -0.777  1.00  0.00     0.033 C 
ENDROOT
BRANCH   1   2
HETATM    2  C8  UNL     1       0.621   0.797  -1.438  1.00  0.00     0.243 C 
BRANCH   2   3
HETATM    3  N3  UNL     1       1.702   0.797  -0.511  1.00  0.00    -0.011 N 
HETATM    4  C7  UNL     1       2.093  -0.526  -0.075  1.00  0.00     0.271 C 
HETATM    5  C6  UNL     1       3.556  -0.354   0.373  1.00  0.00     0.276 C 
HETATM    6  N2  UNL     1       3.776   1.032   0.164  1.00  0.00     0.014 N 
HETATM    7  C23 UNL     1       2.984   1.782   1.120  1.00  0.00     0.276 C 
HETATM    8  C24 UNL     1       2.962   1.267  -1.052  1.00  0.00     0.536 C 
HETATM    9  C22 UNL     1       1.548   1.628   0.640  1.00  0.00     0.271 C 
BRANCH   6  10
HETATM   10  C5  UNL     1       5.079   1.507  -0.032  1.00  0.00     0.281 C 
BRANCH  10  11
HETATM   11  C4  UNL     1       6.183   0.738   0.493  1.00  0.00     0.265 C 
HETATM   12  N1  UNL     1       7.520   1.188   0.314  1.00  0.00    -0.353 N 
ATOM     13  H1  UNL     1       7.683   2.060  -0.189  1.00  0.00     0.163 HD
HETATM   14  O1  UNL     1       6.011  -0.329   1.111  1.00  0.00    -0.267 OA
BRANCH  12  15
HETATM   15  C3  UNL     1       8.659   0.448   0.822  1.00  0.00     0.149 C 
BRANCH  15  16
HETATM   16  C2  UNL     1       8.734  -0.915   0.241  1.00  0.00    -0.018 C 
HETATM   17  C1  UNL     1       8.688  -1.997   0.987  1.00  0.00     0.008 C 
ENDBRANCH  15  16
ENDBRANCH  12  15
ENDBRANCH  10  11
ENDBRANCH   6  10
BRANCH   8  18
HETATM   18  O3  UNL     1       3.431   0.542  -2.119  1.00  0.00    -0.348 OA
ATOM     19  H3  UNL     1       2.909   0.693  -2.898  1.00  0.00     0.214 HD
ENDBRANCH   8  18
ENDBRANCH   2   3
ENDBRANCH   1   2
BRANCH   1  20
HETATM   20  C10 UNL     1      -1.678   0.054  -1.728  1.00  0.00     0.042 C 
BRANCH  20  21
HETATM   21  C11 UNL     1      -2.876  -0.580  -1.188  1.00  0.00    -0.030 A 
HETATM   22  C12 UNL     1      -2.881  -1.962  -1.213  1.00  0.00     0.026 A 
HETATM   23  C13 UNL     1      -3.868  -2.713  -0.673  1.00  0.00     0.092 A 
HETATM   24  N4  UNL     1      -4.898  -2.095  -0.083  1.00  0.00    -0.349 N 
HETATM   25  C16 UNL     1      -4.925  -0.720  -0.042  1.00  0.00     0.113 A 
HETATM   26  C20 UNL     1      -3.955   0.075  -0.574  1.00  0.00     0.078 A 
BRANCH  24  27
HETATM   27  C14 UNL     1      -5.959  -2.912   0.503  1.00  0.00     0.124 C 
HETATM   28  C15 UNL     1      -7.045  -3.186  -0.510  1.00  0.00     0.027 C 
ENDBRANCH  24  27
BRANCH  25  29
HETATM   29  C17 UNL     1      -6.105  -0.225   0.653  1.00  0.00    -0.041 C 
HETATM   30  C18 UNL     1      -7.102   0.146   1.245  1.00  0.00    -0.055 C 
BRANCH  30  31
HETATM   31  C19 UNL     1      -8.274   0.606   1.927  1.00  0.00     0.146 C 
HETATM   32  N5  UNL     1      -9.212   1.224   1.299  1.00  0.00    -0.401 N 
ATOM     33  H52 UNL     1      -9.103   1.381   0.297  1.00  0.00     0.156 HD
ATOM     34  H51 UNL     1     -10.047   1.552   1.785  1.00  0.00     0.156 HD
ENDBRANCH  30  31
ENDBRANCH  25  29
BRANCH  26  35
HETATM   35  N6  UNL     1      -3.937   1.457  -0.649  1.00  0.00    -0.166 NA
HETATM   36  C21 UNL     1      -5.042   2.196  -0.158  1.00  0.00     0.150 C 
BRANCH  35  37
HETATM   37  O2  UNL     1      -2.794   1.984  -0.039  1.00  0.00    -0.308 OA
ATOM     38  H2  UNL     1      -2.782   2.933  -0.090  1.00  0.00     0.237 HD
ENDBRANCH  35  37
ENDBRANCH  26  35
ENDBRANCH  20  21
ENDBRANCH   1  20
TORSDOF 14
