REMARK  8 active torsions:
REMARK  status: ('A' for Active; 'I' for Inactive)
REMARK    1  A    between atoms: N1_1  and  N2_4 
REMARK    2  A    between atoms: N2_4  and  N3_6 
REMARK    3  A    between atoms: N3_6  and  N4_8 
REMARK       I    between atoms: N4_8  and  C1_10 
REMARK       I    between atoms: C1_10  and  N5_11 
REMARK       I    between atoms: C1_10  and  N11_30 
REMARK    4  A    between atoms: N5_11  and  C2_13 
REMARK    5  A    between atoms: C5_19  and  N7_20 
REMARK    6  A    between atoms: N8_22  and  O2_24 
REMARK    7  A    between atoms: N9_26  and  N10_27 
REMARK    8  A    between atoms: N11_30  and  N12_32 
ROOT
HETATM    1  C2  UNL     1      -0.142   0.761  -0.505  1.00  0.00     0.722 A 
HETATM    2  N6  UNL     1      -0.563   2.056  -0.778  1.00  0.00    -0.154 N 
ATOM      3  H6  UNL     1       0.136   2.795  -0.852  1.00  0.00     0.187 HD
HETATM    4  C3  UNL     1      -1.842   2.366  -0.946  1.00  0.00     0.263 A 
HETATM    5  O1  UNL     1      -2.192   3.544  -1.191  1.00  0.00    -0.268 OA
HETATM    6  C4  UNL     1      -2.797   1.372  -0.846  1.00  0.00     0.127 A 
HETATM    7  C5  UNL     1      -2.374   0.090  -0.575  1.00  0.00     0.166 A 
HETATM    8  N9  UNL     1      -1.050  -0.214  -0.405  1.00  0.00    -0.074 N 
ENDROOT
BRANCH   1   9
HETATM    9  N5  UNL     1       1.081   0.555  -0.360  1.00  0.00    -0.018 N 
HETATM   10  C1  UNL     1       1.780  -0.598  -0.088  1.00  0.00     0.726 C 
HETATM   11  N4  UNL     1       2.083  -0.902   1.145  1.00  0.00    -0.115 N 
HETATM   12  N11 UNL     1       2.245  -1.524  -1.085  1.00  0.00    -0.137 N 
ATOM     13  H4  UNL     1       2.601  -1.756   1.354  1.00  0.00     0.207 HD
ATOM     14  H11 UNL     1       2.227  -1.251  -2.068  1.00  0.00     0.205 HD
ATOM     15  H5  UNL     1       1.663   1.387  -0.461  1.00  0.00     0.203 HD
BRANCH  11  16
HETATM   16  N3  UNL     1       1.690  -0.045   2.171  1.00  0.00    -0.214 N 
ATOM     17  H3  UNL     1       0.848  -0.266   2.702  1.00  0.00     0.210 HD
BRANCH  16  18
HETATM   18  N2  UNL     1       2.344   0.999   2.466  1.00  0.00    -0.234 N 
ATOM     19  H2  UNL     1       2.040   1.614   3.221  1.00  0.00     0.209 HD
BRANCH  18  20
HETATM   20  N1  UNL     1       3.492   1.282   1.727  1.00  0.00    -0.330 N 
ATOM     21  H12 UNL     1       3.783   0.657   0.975  1.00  0.00     0.178 HD
ATOM     22  H11 UNL     1       4.019   2.123   1.965  1.00  0.00     0.178 HD
ENDBRANCH  18  20
ENDBRANCH  16  18
ENDBRANCH  11  16
BRANCH  12  23
HETATM   23  N12 UNL     1       2.718  -2.782  -0.738  1.00  0.00    -0.331 N 
ATOM     24 2H12 UNL     1       2.729  -3.039   0.249  1.00  0.00     0.177 HD
ATOM     25 1H12 UNL     1       3.048  -3.439  -1.445  1.00  0.00     0.177 HD
ENDBRANCH  12  23
ENDBRANCH   1   9
BRANCH   8  26
HETATM   26  N10 UNL     1      -0.774  -1.539  -0.138  1.00  0.00    -0.322 N 
ATOM     27 2H10 UNL     1       0.212  -1.765  -0.011  1.00  0.00     0.178 HD
ATOM     28 1H10 UNL     1      -1.467  -2.283  -0.062  1.00  0.00     0.178 HD
ENDBRANCH   8  26
BRANCH   7  29
HETATM   29  N7  UNL     1      -3.315  -0.955  -0.465  1.00  0.00    -0.264 N 
HETATM   30  N8  UNL     1      -4.388  -0.870   0.204  1.00  0.00    -0.208 N 
ATOM     31  H8  UNL     1      -5.015  -1.674   0.231  1.00  0.00     0.215 HD
ATOM     32  H7  UNL     1      -3.121  -1.830  -0.952  1.00  0.00     0.190 HD
BRANCH  30  33
HETATM   33  O2  UNL     1      -4.739   0.267   0.895  1.00  0.00    -0.274 OA
ATOM     34  H2  UNL     1      -5.543   0.331   1.396  1.00  0.00     0.246 HD
ENDBRANCH  30  33
ENDBRANCH   7  29
TORSDOF 8
