REMARK  5 active torsions:
REMARK  status: ('A' for Active; 'I' for Inactive)
REMARK    1  A    between atoms: N1_2  and  N2_3 
REMARK       I    between atoms: N1_2  and  C6_26 
REMARK    2  A    between atoms: N2_3  and  N3_5 
REMARK    3  A    between atoms: N3_5  and  C2_7 
REMARK    4  A    between atoms: C5_16  and  N7_17 
REMARK       I    between atoms: C6_26  and  N11_28 
REMARK    5  A    between atoms: N11_28  and  N12_30 
ROOT
HETATM    1  C2  UNL     1      -1.320   0.348  -0.643  1.00  0.00     0.155 A 
HETATM    2  C3  UNL     1      -2.432   0.081   0.037  1.00  0.00     0.102 A 
HETATM    3  C4  UNL     1      -3.527   0.898  -0.115  1.00  0.00     0.155 A 
HETATM    4  N4  UNL     1      -4.641   0.575   0.609  1.00  0.00    -0.269 N 
ATOM      5  H4  UNL     1      -5.482   1.147   0.534  1.00  0.00     0.190 HD
HETATM    6  N5  UNL     1      -4.626  -0.465   1.395  1.00  0.00    -0.239 N 
ATOM      7  H5  UNL     1      -5.477  -0.671   1.918  1.00  0.00     0.208 HD
HETATM    8  N6  UNL     1      -3.608  -1.262   1.565  1.00  0.00    -0.270 N 
ATOM      9  H6  UNL     1      -3.684  -2.055   2.201  1.00  0.00     0.190 HD
HETATM   10  C5  UNL     1      -2.435  -1.036   0.890  1.00  0.00     0.132 A 
HETATM   11  N8  UNL     1      -3.559   1.938  -0.892  1.00  0.00    -0.269 N 
ATOM     12  H8  UNL     1      -4.411   2.496  -0.950  1.00  0.00     0.190 HD
HETATM   13  N9  UNL     1      -2.449   2.301  -1.645  1.00  0.00    -0.239 N 
ATOM     14  H9  UNL     1      -2.456   3.114  -2.261  1.00  0.00     0.208 HD
HETATM   15  N10 UNL     1      -1.317   1.482  -1.507  1.00  0.00    -0.269 N 
ATOM     16  H10 UNL     1      -0.474   1.703  -2.037  1.00  0.00     0.190 HD
ENDROOT
BRANCH   1  17
HETATM   17  N3  UNL     1      -0.185  -0.481  -0.498  1.00  0.00    -0.269 N 
ATOM     18  H3  UNL     1      -0.294  -1.477  -0.307  1.00  0.00     0.190 HD
BRANCH  17  19
HETATM   19  N2  UNL     1       0.988   0.037  -0.610  1.00  0.00    -0.235 N 
ATOM     20  H2  UNL     1       1.068   1.036  -0.802  1.00  0.00     0.208 HD
BRANCH  19  21
HETATM   21  N1  UNL     1       2.144  -0.711  -0.480  1.00  0.00    -0.231 N 
HETATM   22  C1  UNL     1       2.204  -2.002  -1.089  1.00  0.00     0.184 C 
HETATM   23  C6  UNL     1       3.228  -0.172   0.250  1.00  0.00     0.355 C 
HETATM   24  O1  UNL     1       4.272  -0.861   0.362  1.00  0.00    -0.244 OA
HETATM   25  N11 UNL     1       3.156   1.115   0.849  1.00  0.00    -0.257 N 
ATOM     26  H11 UNL     1       2.308   1.675   0.758  1.00  0.00     0.191 HD
BRANCH  25  27
HETATM   27  N12 UNL     1       4.236   1.604   1.554  1.00  0.00    -0.341 N 
ATOM     28 2H12 UNL     1       5.076   1.031   1.636  1.00  0.00     0.177 HD
ATOM     29 1H12 UNL     1       4.184   2.528   1.984  1.00  0.00     0.177 HD
ENDBRANCH  25  27
ENDBRANCH  19  21
ENDBRANCH  17  19
ENDBRANCH   1  17
BRANCH  10  30
HETATM   30  N7  UNL     1      -1.488  -1.763   1.030  1.00  0.00    -0.384 N 
ATOM     31  H72 UNL     1      -0.616  -1.595   0.528  1.00  0.00     0.157 HD
ATOM     32  H71 UNL     1      -1.490  -2.574   1.649  1.00  0.00     0.157 HD
ENDBRANCH  10  30
TORSDOF 5
