REMARK  4 active torsions:
REMARK  status: ('A' for Active; 'I' for Inactive)
REMARK    1  A    between atoms: C2_7  and  C3_8 
REMARK    2  A    between atoms: C3_8  and  N3_9 
REMARK    3  A    between atoms: N3_9  and  N4_10 
REMARK    4  A    between atoms: N3_9  and  C4_13 
ROOT
HETATM    1  N1  UNL     1      -2.101  -3.321   0.458  1.00  0.00    -0.234 N 
ATOM      2  H11 UNL     1      -3.060  -3.666   0.490  1.00  0.00     0.174 HD
ATOM      3  H12 UNL     1      -1.248  -3.873   0.550  1.00  0.00     0.174 HD
HETATM    4  C1  UNL     1      -1.942  -2.090   0.285  1.00  0.00     0.677 C 
HETATM    5  N2  UNL     1      -0.613  -1.612   0.240  1.00  0.00    -0.187 N 
ATOM      6  H2  UNL     1       0.118  -2.215   0.617  1.00  0.00     0.184 HD
HETATM    7  C2  UNL     1      -0.238  -0.419  -0.264  1.00  0.00     0.119 C 
HETATM    8  C6  UNL     1      -0.920   0.756  -0.003  1.00  0.00     0.228 C 
HETATM    9  O2  UNL     1      -0.210   1.759   0.035  1.00  0.00    -0.284 OA
HETATM   10  C7  UNL     1      -2.295   0.905   0.227  1.00  0.00     0.140 C 
HETATM   11  N8  UNL     1      -2.690   2.262   0.355  1.00  0.00    -0.095 NA
HETATM   12  C8  UNL     1      -3.290  -0.031   0.318  1.00  0.00     0.160 C 
HETATM   13  N9  UNL     1      -4.592   0.418   0.580  1.00  0.00    -0.080 NA
HETATM   14  N10 UNL     1      -3.077  -1.355   0.163  1.00  0.00    -0.177 N 
ATOM     15  H10 UNL     1      -3.907  -1.893  -0.087  1.00  0.00     0.185 HD
ENDROOT
BRANCH   7  16
HETATM   16  C3  UNL     1       0.819  -0.339  -1.277  1.00  0.00     0.168 C 
BRANCH  16  17
HETATM   17  N3  UNL     1       1.973   0.432  -1.090  1.00  0.00    -0.100 N 
BRANCH  17  18
HETATM   18  N4  UNL     1       1.983   1.730  -1.694  1.00  0.00    -0.324 N 
ATOM     19  H42 UNL     1       1.185   1.967  -2.283  1.00  0.00     0.178 HD
ATOM     20  H41 UNL     1       2.824   2.292  -1.558  1.00  0.00     0.178 HD
ENDBRANCH  17  18
BRANCH  17  21
HETATM   21  C4  UNL     1       3.069   0.106  -0.281  1.00  0.00     0.721 A 
HETATM   22  N5  UNL     1       4.353   0.556  -0.456  1.00  0.00    -0.126 N 
HETATM   23  N6  UNL     1       5.147   0.127   0.520  1.00  0.00    -0.236 N 
ATOM     24  H5  UNL     1       4.658   1.142  -1.233  1.00  0.00     0.206 HD
HETATM   25  C5  UNL     1       4.370  -0.612   1.313  1.00  0.00     0.353 A 
ATOM     26  H6  UNL     1       6.141   0.322   0.638  1.00  0.00     0.192 HD
HETATM   27  O1  UNL     1       4.842  -1.215   2.362  1.00  0.00    -0.245 OA
HETATM   28  N7  UNL     1       3.124  -0.638   0.855  1.00  0.00    -0.137 N 
ATOM     29  H7  UNL     1       2.341  -1.132   1.283  1.00  0.00     0.189 HD
ENDBRANCH  17  21
ENDBRANCH  16  17
ENDBRANCH   7  16
TORSDOF 4
