REMARK  4 active torsions:
REMARK  status: ('A' for Active; 'I' for Inactive)
REMARK    1  A    between atoms: O1_2  and  N1_3 
REMARK    2  A    between atoms: N1_3  and  C2_4 
REMARK    3  A    between atoms: C2_4  and  O2_5 
REMARK    4  A    between atoms: C2_4  and  C3_8 
ROOT
HETATM    1  C2  UNL     1      -0.350   0.212   0.440  1.00  0.00     0.330 C 
HETATM    2  F1  UNL     1      -0.921   0.255   1.689  1.00  0.00    -0.186 F 
ENDROOT
BRANCH   1   3
HETATM    3  N1  UNL     1       0.750  -0.703   0.451  1.00  0.00    -0.025 NA
BRANCH   3   4
HETATM    4  O1  UNL     1       1.409  -0.717  -0.733  1.00  0.00    -0.286 OA
HETATM    5  C1  UNL     1       2.647  -0.057  -0.625  1.00  0.00     0.231 C 
ENDBRANCH   3   4
ENDBRANCH   1   3
BRANCH   1   6
HETATM    6  O2  UNL     1       0.162   1.487   0.184  1.00  0.00    -0.345 OA
ATOM      7  H2  UNL     1      -0.568   2.095   0.177  1.00  0.00     0.215 HD
ENDBRANCH   1   6
BRANCH   1   8
HETATM    8  C3  UNL     1      -1.417  -0.175  -0.563  1.00  0.00     0.232 A 
HETATM    9  C4  UNL     1      -2.756  -0.497  -0.049  1.00  0.00     0.208 A 
HETATM   10  O3  UNL     1      -2.522   0.800  -0.531  1.00  0.00    -0.374 OA
ENDBRANCH   1   8
TORSDOF 4
