REMARK  5 active torsions:
REMARK  status: ('A' for Active; 'I' for Inactive)
REMARK    1  A    between atoms: N1_2  and  N2_4 
REMARK    2  A    between atoms: N2_4  and  C2_5 
REMARK    3  A    between atoms: N2_4  and  N3_7 
REMARK    4  A    between atoms: N3_7  and  N4_9 
REMARK    5  A    between atoms: N4_9  and  O2_11 
ROOT
HETATM    1  N2  UNL     1       0.343   0.430   0.129  1.00  0.00    -0.158 N 
ENDROOT
BRANCH   1   2
HETATM    2  N1  UNL     1      -0.618   0.237  -0.823  1.00  0.00    -0.316 N 
HETATM    3  C1  UNL     1      -1.768  -0.512  -0.422  1.00  0.00     0.170 C 
ATOM      4  H1  UNL     1      -0.520   0.607  -1.768  1.00  0.00     0.181 HD
ENDBRANCH   1   2
BRANCH   1   5
HETATM    5  C2  UNL     1       0.810   1.719   0.427  1.00  0.00     0.395 C 
HETATM    6  O1  UNL     1       0.289   2.702  -0.238  1.00  0.00    -0.280 OA
ENDBRANCH   1   5
BRANCH   1   7
HETATM    7  N3  UNL     1       0.874  -0.639   0.847  1.00  0.00    -0.200 N 
ATOM      8  H3  UNL     1       0.584  -0.742   1.820  1.00  0.00     0.212 HD
BRANCH   7   9
HETATM    9  N4  UNL     1       1.775  -1.585   0.339  1.00  0.00    -0.194 N 
ATOM     10  H4  UNL     1       1.671  -2.563   0.611  1.00  0.00     0.217 HD
BRANCH   9  11
HETATM   11  O2  UNL     1       2.718  -1.262  -0.450  1.00  0.00    -0.273 OA
ATOM     12  H2  UNL     1       3.329  -1.903  -0.794  1.00  0.00     0.246 HD
ENDBRANCH   9  11
ENDBRANCH   7   9
ENDBRANCH   1   7
TORSDOF 5
