REMARK  4 active torsions:
REMARK  status: ('A' for Active; 'I' for Inactive)
REMARK    1  A    between atoms: N1_2  and  N2_5 
REMARK    2  A    between atoms: N2_5  and  N3_7 
REMARK    3  A    between atoms: N3_7  and  N4_8 
REMARK    4  A    between atoms: N4_8  and  N5_9 
ROOT
HETATM    1  N2  UNL     1       0.271  -0.530   0.408  1.00  0.00    -0.128 N 
ATOM      2  H2  UNL     1       0.728  -1.377   0.746  1.00  0.00     0.214 HD
ENDROOT
BRANCH   1   3
HETATM    3  N1  UNL     1      -1.063  -0.277   0.625  1.00  0.00     0.102 N 
HETATM    4  C1  UNL     1      -1.370   1.117   0.843  1.00  0.00     0.327 C 
HETATM    5  C2  UNL     1      -1.933  -0.755  -0.424  1.00  0.00     0.327 C 
HETATM    6 CL1  UNL     1      -1.527  -1.116   2.100  1.00  0.00     0.144 Cl
ENDBRANCH   1   3
BRANCH   1   7
HETATM    7  N3  UNL     1       0.944   0.439  -0.296  1.00  0.00     0.013 NA
BRANCH   7   8
HETATM    8  N4  UNL     1       2.148   0.768   0.308  1.00  0.00    -0.015 NA
BRANCH   8   9
HETATM    9  N5  UNL     1       3.127  -0.200   0.193  1.00  0.00    -0.330 N 
ATOM     10  H52 UNL     1       2.962  -1.078  -0.299  1.00  0.00     0.173 HD
ATOM     11  H51 UNL     1       4.013   0.042   0.637  1.00  0.00     0.173 HD
ENDBRANCH   8   9
ENDBRANCH   7   8
ENDBRANCH   1   7
TORSDOF 4
