REMARK  4 active torsions:
REMARK  status: ('A' for Active; 'I' for Inactive)
REMARK    1  A    between atoms: C2_2  and  N1_3 
REMARK    2  A    between atoms: N1_3  and  C3_6 
REMARK    3  A    between atoms: C3_6  and  C4_7 
REMARK    4  A    between atoms: N4_10  and  N5_11 
ROOT
HETATM    1  C4  UNL     1       1.478   0.015  -0.285  1.00  0.00     0.235 C 
HETATM    2  N2  UNL     1       2.537   1.007  -0.191  1.00  0.00    -0.105 NA
HETATM    3  N3  UNL     1       2.870   0.494   1.084  1.00  0.00    -0.034 NA
HETATM    4  N4  UNL     1       1.938  -0.546   0.945  1.00  0.00    -0.110 NA
ENDROOT
BRANCH   1   5
HETATM    5  C3  UNL     1       0.135   0.669  -0.179  1.00  0.00     0.273 C 
BRANCH   5   6
HETATM    6  N1  UNL     1      -0.952  -0.294  -0.265  1.00  0.00    -0.073 N 
ATOM      7  H12 UNL     1      -0.898  -1.030   0.439  1.00  0.00     0.277 HD
ATOM      8  H11 UNL     1      -0.893  -0.899  -1.084  1.00  0.00     0.277 HD
BRANCH   6   9
HETATM    9  C2  UNL     1      -2.163   0.461  -0.204  1.00  0.00     0.228 C 
HETATM   10  C1  UNL     1      -3.410  -0.388  -0.257  1.00  0.00     0.034 C 
ENDBRANCH   6   9
ENDBRANCH   5   6
ENDBRANCH   1   5
BRANCH   4  11
HETATM   11  N5  UNL     1       2.565  -1.784   0.744  1.00  0.00    -0.346 NA
ATOM     12  H52 UNL     1       1.888  -2.540   0.643  1.00  0.00     0.172 HD
ATOM     13  H51 UNL     1       2.894  -2.185   1.623  1.00  0.00     0.172 HD
ENDBRANCH   4  11
TORSDOF 4
