REMARK  7 active torsions:
REMARK  status: ('A' for Active; 'I' for Inactive)
REMARK    1  A    between atoms: C10_13  and  C11_14 
REMARK    2  A    between atoms: C11_14  and  C12_15 
REMARK    3  A    between atoms: C12_15  and  C13_16 
REMARK    4  A    between atoms: C13_16  and  C14_17 
REMARK    5  A    between atoms: C14_17  and  C15_18 
REMARK    6  A    between atoms: C18_25  and  O5_26 
REMARK    7  A    between atoms: C19_28  and  O6_29 
ROOT
HETATM    1  C11 UNL     1       0.214  -1.390  -0.007  1.00  0.00     0.010 C 
ENDROOT
BRANCH   1   2
HETATM    2  C10 UNL     1      -1.042  -1.763  -0.703  1.00  0.00     0.051 C 
HETATM    3  C5  UNL     1      -2.326  -1.159  -0.195  1.00  0.00     0.203 C 
HETATM    4  O3  UNL     1      -3.327  -1.900  -0.782  1.00  0.00    -0.197 OA
HETATM    5  C6  UNL     1      -2.366  -1.403   1.297  1.00  0.00     0.072 C 
HETATM    6  O7  UNL     1      -2.350   0.176  -0.419  1.00  0.00    -0.317 OA
HETATM    7  O2  UNL     1      -4.247  -1.330  -1.442  1.00  0.00    -0.200 OA
HETATM    8  C4  UNL     1      -4.595  -0.139  -0.907  1.00  0.00     0.355 C 
HETATM    9  O1  UNL     1      -5.494   0.638  -1.583  1.00  0.00    -0.318 OA
HETATM   10  C20 UNL     1      -3.341   0.734  -1.125  1.00  0.00     0.325 C 
HETATM   11  C2  UNL     1      -5.225   1.910  -1.055  1.00  0.00     0.163 C 
HETATM   12  C1  UNL     1      -5.446   2.998  -2.064  1.00  0.00     0.078 C 
HETATM   13  C3  UNL     1      -6.087   2.067   0.177  1.00  0.00     0.078 C 
HETATM   14  O8  UNL     1      -3.853   1.933  -0.726  1.00  0.00    -0.321 OA
HETATM   15  C7  UNL     1      -2.198  -2.832   1.610  1.00  0.00     0.006 C 
HETATM   16  C8  UNL     1      -2.066  -3.733   0.445  1.00  0.00     0.001 C 
HETATM   17  C9  UNL     1      -1.178  -3.286  -0.662  1.00  0.00     0.010 C 
ENDBRANCH   1   2
BRANCH   1  18
HETATM   18  C12 UNL     1       0.515   0.056  -0.055  1.00  0.00     0.001 C 
BRANCH  18  19
HETATM   19  C13 UNL     1       1.823   0.442   0.640  1.00  0.00     0.003 C 
BRANCH  19  20
HETATM   20  C14 UNL     1       2.966  -0.255  -0.008  1.00  0.00     0.035 C 
BRANCH  20  21
HETATM   21  C15 UNL     1       4.300   0.095   0.621  1.00  0.00     0.161 C 
HETATM   22  O4  UNL     1       5.352  -0.592  -0.030  1.00  0.00    -0.332 OA
HETATM   23  C16 UNL     1       6.606  -0.001  -0.072  1.00  0.00     0.114 C 
HETATM   24  N1  UNL     1       7.478  -0.450  -0.888  1.00  0.00    -0.383 N 
HETATM   25  C17 UNL     1       6.994   1.148   0.800  1.00  0.00     0.118 C 
ATOM     26  H12 UNL     1       7.213  -1.235  -1.483  1.00  0.00     0.157 HD
ATOM     27  H11 UNL     1       8.400  -0.015  -0.919  1.00  0.00     0.157 HD
HETATM   28  C18 UNL     1       5.816   1.796   1.462  1.00  0.00     0.157 C 
HETATM   29  C19 UNL     1       4.600   1.557   0.565  1.00  0.00     0.176 C 
BRANCH  28  30
HETATM   30  O5  UNL     1       6.010   3.174   1.512  1.00  0.00    -0.392 OA
ATOM     31  H5  UNL     1       5.263   3.585   1.932  1.00  0.00     0.210 HD
ENDBRANCH  28  30
BRANCH  29  32
HETATM   32  O6  UNL     1       5.006   1.881  -0.726  1.00  0.00    -0.390 OA
ATOM     33  H6  UNL     1       5.197   2.811  -0.762  1.00  0.00     0.210 HD
ENDBRANCH  29  32
ENDBRANCH  20  21
ENDBRANCH  19  20
ENDBRANCH  18  19
ENDBRANCH   1  18
TORSDOF 7
