REMARK  7 active torsions:
REMARK  status: ('A' for Active; 'I' for Inactive)
REMARK    1  A    between atoms: C2_2  and  N1_3 
REMARK    2  A    between atoms: C6_7  and  C7_8 
REMARK    3  A    between atoms: C7_8  and  C8_9 
REMARK    4  A    between atoms: C7_8  and  C13_16 
REMARK    5  A    between atoms: C8_9  and  C9_10 
REMARK    6  A    between atoms: C16_24  and  N4_25 
REMARK    7  A    between atoms: C17_30  and  N6_31 
ROOT
HETATM    1  N1  UNL     1      -3.273  -0.668   0.458  1.00  0.00    -0.307 N 
HETATM    2  C3  UNL     1      -2.804   0.431   1.298  1.00  0.00     0.149 C 
HETATM    3  C4  UNL     1      -1.638   1.024   0.476  1.00  0.00     0.082 C 
HETATM    4  C5  UNL     1      -1.218  -0.129  -0.362  1.00  0.00     0.064 A 
HETATM    5  C6  UNL     1      -0.057  -0.301  -1.090  1.00  0.00     0.023 A 
HETATM    6  C16 UNL     1       0.029  -1.516  -1.784  1.00  0.00     0.123 A 
HETATM    7  N5  UNL     1      -0.933  -2.450  -1.754  1.00  0.00    -0.175 N 
ATOM      8  H5  UNL     1      -0.832  -3.321  -2.274  1.00  0.00     0.186 HD
HETATM    9  C17 UNL     1      -2.033  -2.210  -1.022  1.00  0.00     0.698 A 
HETATM   10  N7  UNL     1      -2.191  -1.071  -0.330  1.00  0.00    -0.092 N 
ENDROOT
BRANCH   5  11
HETATM   11  C7  UNL     1       1.050   0.632  -1.215  1.00  0.00     0.096 C 
BRANCH  11  12
HETATM   12  C8  UNL     1       1.749   1.055   0.036  1.00  0.00     0.043 C 
BRANCH  12  13
HETATM   13  C9  UNL     1       2.370  -0.052   0.833  1.00  0.00     0.109 C 
HETATM   14  S1  UNL     1       3.125   0.740   2.317  1.00  0.00    -0.154 SA
HETATM   15  C10 UNL     1       4.028  -0.611   3.169  1.00  0.00     0.076 C 
HETATM   16  C11 UNL     1       5.165  -1.109   2.272  1.00  0.00     0.020 C 
HETATM   17  C12 UNL     1       4.608  -1.913   1.113  1.00  0.00     0.076 C 
HETATM   18  S2  UNL     1       3.809  -0.778  -0.053  1.00  0.00    -0.154 SA
ENDBRANCH  12  13
ENDBRANCH  11  12
BRANCH  11  19
HETATM   19  C13 UNL     1       0.689   1.860  -2.002  1.00  0.00     0.112 A 
HETATM   20  N2  UNL     1       0.723   1.997  -3.333  1.00  0.00    -0.246 N 
HETATM   21  O1  UNL     1       0.345   3.204  -3.604  1.00  0.00    -0.223 OA
ATOM     22  H2  UNL     1       0.996   1.283  -4.008  1.00  0.00     0.196 HD
HETATM   23  C14 UNL     1       0.058   3.889  -2.524  1.00  0.00     0.144 A 
HETATM   24  C15 UNL     1      -0.406   5.291  -2.400  1.00  0.00     0.100 C 
HETATM   25  N3  UNL     1       0.277   3.035  -1.509  1.00  0.00    -0.327 N 
ATOM     26  H3  UNL     1       0.149   3.248  -0.520  1.00  0.00     0.169 HD
ENDBRANCH  11  19
ENDBRANCH   5  11
BRANCH   6  27
HETATM   27  N4  UNL     1       1.088  -1.738  -2.503  1.00  0.00    -0.385 N 
ATOM     28  H42 UNL     1       1.820  -1.028  -2.526  1.00  0.00     0.157 HD
ATOM     29  H41 UNL     1       1.151  -2.622  -3.008  1.00  0.00     0.157 HD
ENDBRANCH   6  27
BRANCH   1  30
HETATM   30  C2  UNL     1      -4.625  -1.143   0.535  1.00  0.00     0.139 C 
HETATM   31  C1  UNL     1      -4.859  -1.827   1.875  1.00  0.00     0.028 C 
ENDBRANCH   1  30
BRANCH   9  32
HETATM   32  N6  UNL     1      -2.998  -3.094  -0.958  1.00  0.00    -0.233 N 
ATOM     33  H62 UNL     1      -2.878  -3.960  -1.484  1.00  0.00     0.174 HD
ATOM     34  H61 UNL     1      -3.833  -2.912  -0.402  1.00  0.00     0.174 HD
ENDBRANCH   9  32
TORSDOF 7
