REMARK  9 active torsions:
REMARK  status: ('A' for Active; 'I' for Inactive)
REMARK    1  A    between atoms: C2_2  and  O1_3 
REMARK    2  A    between atoms: O1_3  and  C3_4 
REMARK    3  A    between atoms: C3_4  and  S1_6 
REMARK    4  A    between atoms: S1_6  and  C4_7 
REMARK    5  A    between atoms: C5_8  and  O3_9 
REMARK    6  A    between atoms: C9_17  and  N2_18 
REMARK    7  A    between atoms: C13_25  and  C14_26 
REMARK    8  A    between atoms: C16_29  and  O8_30 
REMARK    9  A    between atoms: O8_30  and  C17_31 
ROOT
HETATM    1  C4  UNL     1       1.183  -0.726  -0.900  1.00  0.00     0.125 C 
HETATM    2  C5  UNL     1       0.500  -1.784  -0.077  1.00  0.00     0.196 C 
HETATM    3  C6  UNL     1      -0.516  -2.533  -0.853  1.00  0.00     0.108 C 
HETATM    4  S2  UNL     1       0.220  -3.333  -2.132  1.00  0.00    -0.062 SA
HETATM    5  N1  UNL     1      -1.891  -2.629  -0.643  1.00  0.00    -0.346 N 
ATOM      6  H1  UNL     1      -2.325  -3.421  -1.118  1.00  0.00     0.167 HD
HETATM    7  C7  UNL     1      -2.809  -1.836   0.106  1.00  0.00     0.069 A 
HETATM    8  C8  UNL     1      -3.806  -2.530   0.836  1.00  0.00     0.068 A 
HETATM    9  C9  UNL     1      -4.757  -1.904   1.594  1.00  0.00     0.105 A 
HETATM   10  C10 UNL     1      -4.740  -0.527   1.647  1.00  0.00     0.039 A 
HETATM   11  C11 UNL     1      -3.772   0.150   0.938  1.00  0.00     0.041 A 
HETATM   12  C12 UNL     1      -2.797  -0.457   0.162  1.00  0.00     0.096 A 
HETATM   13  O6  UNL     1      -1.934   0.373  -0.459  1.00  0.00    -0.338 OA
HETATM   14  C13 UNL     1      -0.971   0.422  -1.401  1.00  0.00     0.190 C 
HETATM   15  C16 UNL     1       0.445   0.558  -0.875  1.00  0.00     0.181 C 
ENDROOT
BRANCH   1  16
HETATM   16  S1  UNL     1       2.905  -0.649  -0.475  1.00  0.00    -0.051 SA
BRANCH  16  17
HETATM   17  C3  UNL     1       3.208  -0.124   1.188  1.00  0.00     0.322 C 
HETATM   18  O2  UNL     1       2.277   0.151   2.003  1.00  0.00    -0.252 OA
BRANCH  17  19
HETATM   19  O1  UNL     1       4.500   0.010   1.674  1.00  0.00    -0.313 OA
BRANCH  19  20
HETATM   20  C2  UNL     1       4.774   0.429   3.003  1.00  0.00     0.175 C 
HETATM   21  C1  UNL     1       6.263   0.461   3.188  1.00  0.00     0.034 C 
ENDBRANCH  19  20
ENDBRANCH  17  19
ENDBRANCH  16  17
ENDBRANCH   1  16
BRANCH   2  22
HETATM   22  O3  UNL     1      -0.054  -1.303   1.101  1.00  0.00    -0.387 OA
ATOM     23  H3  UNL     1      -0.485  -1.971   1.621  1.00  0.00     0.210 HD
ENDBRANCH   2  22
BRANCH  15  24
HETATM   24  O8  UNL     1       1.140   1.632  -1.452  1.00  0.00    -0.312 OA
BRANCH  24  25
HETATM   25  C17 UNL     1       1.544   2.776  -0.836  1.00  0.00     0.255 C 
HETATM   26  C18 UNL     1       2.274   3.788  -1.643  1.00  0.00     0.126 C 
HETATM   27  O9  UNL     1       1.294   2.938   0.363  1.00  0.00    -0.266 OA
ENDBRANCH  24  25
ENDBRANCH  15  24
BRANCH  14  28
HETATM   28  C14 UNL     1      -1.262   1.749  -2.157  1.00  0.00     0.177 A 
HETATM   29  C15 UNL     1      -1.444   1.663  -3.655  1.00  0.00     0.203 A 
HETATM   30  O7  UNL     1      -2.508   1.841  -2.774  1.00  0.00    -0.378 OA
ENDBRANCH  14  28
BRANCH   9  31
HETATM   31  N2  UNL     1      -5.749  -2.610   2.322  1.00  0.00    -0.116 N 
HETATM   32  O4  UNL     1      -5.769  -3.853   2.273  1.00  0.00    -0.532 OA
HETATM   33  O5  UNL     1      -6.683  -1.946   3.075  1.00  0.00    -0.532 OA
ENDBRANCH   9  31
TORSDOF 9
