REMARK  11 active torsions:
REMARK  status: ('A' for Active; 'I' for Inactive)
REMARK    1  A    between atoms: C2_2  and  S1_3 
REMARK    2  A    between atoms: S1_3  and  C3_4 
REMARK    3  A    between atoms: C9_14  and  O3_15 
REMARK    4  A    between atoms: O3_15  and  C10_16 
REMARK    5  A    between atoms: C10_16  and  O4_17 
REMARK    6  A    between atoms: C10_16  and  O5_19 
REMARK    7  A    between atoms: O5_19  and  C11_20 
REMARK    8  A    between atoms: C16_25  and  C17_26 
REMARK    9  A    between atoms: C17_26  and  O6_27 
REMARK   10  A    between atoms: O6_27  and  C18_28 
REMARK   11  A    between atoms: C23_35  and  O9_36 
ROOT
HETATM    1  C3  UNL     1       3.859   0.393  -1.201  1.00  0.00     0.202 C 
HETATM    2  N1  UNL     1       2.599   0.400  -1.528  1.00  0.00    -0.237 N 
ATOM      3  H1  UNL     1       2.319   0.695  -2.463  1.00  0.00     0.197 HD
HETATM    4  O1  UNL     1       1.633   0.007  -0.609  1.00  0.00    -0.253 OA
HETATM    5  C4  UNL     1       2.043  -1.138   0.173  1.00  0.00     0.205 C 
HETATM    6  C5  UNL     1       2.209  -2.212  -0.850  1.00  0.00     0.191 C 
HETATM    7  O2  UNL     1       3.294  -2.779  -0.921  1.00  0.00    -0.290 OA
HETATM    8  C6  UNL     1       1.170  -2.665  -1.802  1.00  0.00     0.054 C 
HETATM    9  C7  UNL     1      -0.133  -2.416  -1.979  1.00  0.00     0.006 C 
HETATM   10  C8  UNL     1      -1.031  -1.536  -1.217  1.00  0.00     0.033 C 
HETATM   11  C9  UNL     1      -1.041  -0.893  -0.047  1.00  0.00     0.063 C 
HETATM   12  C15 UNL     1      -0.164  -0.734   1.078  1.00  0.00     0.105 C 
HETATM   13  C16 UNL     1       0.341   0.670   1.375  1.00  0.00    -0.046 C 
HETATM   14  C20 UNL     1       1.572   0.972   1.786  1.00  0.00    -0.018 C 
HETATM   15  C21 UNL     1       2.777   0.142   2.069  1.00  0.00     0.063 C 
HETATM   16  C22 UNL     1       3.241  -0.711   0.894  1.00  0.00     0.182 C 
HETATM   17  O8  UNL     1       4.167  -0.018   0.083  1.00  0.00    -0.320 OA
HETATM   18  C23 UNL     1       1.015  -1.646   1.116  1.00  0.00     0.180 C 
ENDROOT
BRANCH  11  19
HETATM   19  O3  UNL     1      -2.236  -0.215   0.068  1.00  0.00    -0.300 OA
BRANCH  19  20
HETATM   20  C10 UNL     1      -3.440  -0.810   0.519  1.00  0.00     0.416 C 
BRANCH  20  21
HETATM   21  O4  UNL     1      -3.177  -1.273   1.816  1.00  0.00    -0.349 OA
ATOM     22  H4  UNL     1      -3.984  -1.672   2.118  1.00  0.00     0.215 HD
ENDBRANCH  20  21
BRANCH  20  23
HETATM   23  O5  UNL     1      -4.430   0.151   0.504  1.00  0.00    -0.329 OA
BRANCH  23  24
HETATM   24  C11 UNL     1      -5.483  -0.079  -0.322  1.00  0.00     0.055 C 
HETATM   25  C12 UNL     1      -6.251  -1.343  -0.033  1.00  0.00     0.045 C 
HETATM   26  C13 UNL     1      -6.466   1.086  -0.141  1.00  0.00     0.045 C 
HETATM   27  C14 UNL     1      -5.126  -0.084  -1.792  1.00  0.00     0.045 C 
ENDBRANCH  23  24
ENDBRANCH  20  23
ENDBRANCH  19  20
ENDBRANCH  11  19
BRANCH  13  28
HETATM   28  C17 UNL     1      -0.632   1.752   1.165  1.00  0.00     0.213 C 
BRANCH  28  29
HETATM   29  O6  UNL     1      -0.209   3.046   1.396  1.00  0.00    -0.317 OA
BRANCH  29  30
HETATM   30  C18 UNL     1       0.647   3.838   0.696  1.00  0.00     0.255 C 
HETATM   31  C19 UNL     1       1.020   5.228   1.084  1.00  0.00     0.126 C 
HETATM   32  O7  UNL     1       1.170   3.390  -0.353  1.00  0.00    -0.266 OA
ENDBRANCH  29  30
ENDBRANCH  28  29
ENDBRANCH  13  28
BRANCH  18  33
HETATM   33  O9  UNL     1       0.670  -2.986   0.935  1.00  0.00    -0.391 OA
ATOM     34  H9  UNL     1       0.012  -3.311   1.538  1.00  0.00     0.210 HD
ENDBRANCH  18  33
BRANCH   1  35
HETATM   35  S1  UNL     1       5.115   0.896  -2.372  1.00  0.00    -0.085 SA
BRANCH  35  36
HETATM   36  C2  UNL     1       6.733   0.752  -1.534  1.00  0.00     0.078 C 
HETATM   37  C1  UNL     1       7.019  -0.707  -1.242  1.00  0.00     0.016 C 
ENDBRANCH  35  36
ENDBRANCH   1  35
TORSDOF 11
