REMARK  3 active torsions:
REMARK  status: ('A' for Active; 'I' for Inactive)
REMARK    1  A    between atoms: C2_2  and  C3_4 
REMARK    2  A    between atoms: C4_6  and  C5_7 
REMARK    3  A    between atoms: C12_20  and  N3_21 
ROOT
HETATM    1  C5  UNL     1      -1.296  -0.411  -0.506  1.00  0.00     0.061 A 
HETATM    2  N1  UNL     1      -1.834  -1.067  -1.529  1.00  0.00    -0.335 N 
ATOM      3  H1  UNL     1      -1.170  -1.411  -2.223  1.00  0.00     0.168 HD
HETATM    4  C6  UNL     1      -3.106  -1.340  -1.779  1.00  0.00     0.143 A 
HETATM    5  N2  UNL     1      -3.506  -1.992  -2.820  1.00  0.00    -0.380 N 
ATOM      6  H21 UNL     1      -4.485  -2.202  -3.012  1.00  0.00     0.158 HD
ATOM      7  H22 UNL     1      -2.859  -2.345  -3.526  1.00  0.00     0.158 HD
HETATM    8  S2  UNL     1      -4.188  -0.750  -0.598  1.00  0.00    -0.058 SA
HETATM    9  C7  UNL     1      -3.380   0.076   0.669  1.00  0.00    -0.005 A 
HETATM   10  C8  UNL     1      -2.017   0.139   0.549  1.00  0.00    -0.017 A 
HETATM   11  C9  UNL     1      -1.485   0.853   1.723  1.00  0.00     0.042 C 
HETATM   12  C10 UNL     1      -2.629   1.043   2.656  1.00  0.00     0.010 C 
HETATM   13  C11 UNL     1      -3.858   0.764   1.889  1.00  0.00     0.047 C 
ENDROOT
BRANCH   1  14
HETATM   14  C4  UNL     1       0.188  -0.247  -0.536  1.00  0.00     0.068 A 
HETATM   15  S1  UNL     1       1.202   0.571   0.560  1.00  0.00    -0.080 SA
HETATM   16  C3  UNL     1       2.705   0.275  -0.172  1.00  0.00     0.077 A 
HETATM   17  C13 UNL     1       2.379  -0.464  -1.268  1.00  0.00     0.101 A 
HETATM   18  C12 UNL     1       1.062  -0.736  -1.459  1.00  0.00     0.147 A 
HETATM   19  N4  UNL     1       3.456  -0.909  -2.156  1.00  0.00    -0.098 NA
BRANCH  16  20
HETATM   20  C2  UNL     1       4.012   0.736   0.307  1.00  0.00     0.164 C 
HETATM   21  C1  UNL     1       4.161   1.532   1.539  1.00  0.00     0.097 C 
HETATM   22  O1  UNL     1       5.018   0.428  -0.373  1.00  0.00    -0.292 OA
ENDBRANCH  16  20
BRANCH  18  23
HETATM   23  N3  UNL     1       0.645  -1.525  -2.614  1.00  0.00    -0.112 N 
HETATM   24  O2  UNL     1       0.178  -0.990  -3.635  1.00  0.00    -0.532 OA
HETATM   25  O3  UNL     1       0.805  -2.886  -2.562  1.00  0.00    -0.532 OA
ENDBRANCH  18  23
ENDBRANCH   1  14
TORSDOF 3
