REMARK  8 active torsions:
REMARK  status: ('A' for Active; 'I' for Inactive)
REMARK    1  A    between atoms: O1_2  and  C2_3 
REMARK    2  A    between atoms: C2_3  and  C3_5 
REMARK    3  A    between atoms: C6_8  and  O3_9 
REMARK    4  A    between atoms: C8_12  and  O4_13 
REMARK    5  A    between atoms: C9_16  and  O6_17 
REMARK    6  A    between atoms: O6_17  and  C10_18 
REMARK    7  A    between atoms: C10_18  and  C11_20 
REMARK    8  A    between atoms: C16_25  and  O8_26 
ROOT
HETATM    1  C3  UNL     1       2.564  -0.532   0.496  1.00  0.00     0.082 A 
HETATM    2  C4  UNL     1       2.948  -1.828   0.709  1.00  0.00    -0.009 A 
HETATM    3  C5  UNL     1       4.368  -2.250   0.724  1.00  0.00     0.052 C 
HETATM    4  C6  UNL     1       1.919  -2.756   0.918  1.00  0.00     0.088 A 
HETATM    5  C7  UNL     1       0.591  -2.423   0.915  1.00  0.00     0.074 A 
HETATM    6  C8  UNL     1      -0.599  -3.086   1.085  1.00  0.00     0.200 A 
HETATM    7  O5  UNL     1      -1.592  -2.250   0.978  1.00  0.00    -0.262 OA
HETATM    8  C9  UNL     1      -1.147  -1.022   0.739  1.00  0.00     0.209 A 
HETATM    9  C15 UNL     1       0.226  -1.084   0.692  1.00  0.00     0.075 A 
HETATM   10  C16 UNL     1       1.214  -0.149   0.485  1.00  0.00     0.098 A 
ENDROOT
BRANCH   8  11
HETATM   11  O6  UNL     1      -1.933   0.118   0.569  1.00  0.00    -0.253 OA
BRANCH  11  12
HETATM   12  C10 UNL     1      -2.638   0.317  -0.639  1.00  0.00     0.273 C 
HETATM   13  O7  UNL     1      -2.487  -0.593  -1.493  1.00  0.00    -0.264 OA
BRANCH  12  14
HETATM   14  C11 UNL     1      -3.480   1.499  -0.870  1.00  0.00     0.037 C 
HETATM   15  C12 UNL     1      -4.607   1.583   0.168  1.00  0.00     0.025 C 
HETATM   16  C13 UNL     1      -4.149   1.363  -2.211  1.00  0.00     0.025 C 
HETATM   17  C14 UNL     1      -2.719   2.799  -0.814  1.00  0.00     0.025 C 
ENDBRANCH  12  14
ENDBRANCH  11  12
ENDBRANCH   8  11
BRANCH   6  18
HETATM   18  O4  UNL     1      -0.758  -4.436   1.333  1.00  0.00    -0.340 OA
ATOM     19  H4  UNL     1      -1.582  -4.895   1.451  1.00  0.00     0.220 HD
ENDBRANCH   6  18
BRANCH  10  20
HETATM   20  O8  UNL     1       0.885   1.162   0.268  1.00  0.00    -0.359 OA
ATOM     21  H8  UNL     1      -0.029   1.421   0.261  1.00  0.00     0.217 HD
ENDBRANCH  10  20
BRANCH   4  22
HETATM   22  O3  UNL     1       2.286  -4.072   1.136  1.00  0.00    -0.359 OA
ATOM     23  H3  UNL     1       1.588  -4.701   1.278  1.00  0.00     0.217 HD
ENDBRANCH   4  22
BRANCH   1  24
HETATM   24  C2  UNL     1       3.578   0.517   0.267  1.00  0.00     0.296 C 
HETATM   25  O2  UNL     1       4.808   0.267   0.259  1.00  0.00    -0.259 OA
BRANCH  24  26
HETATM   26  O1  UNL     1       3.196   1.833   0.049  1.00  0.00    -0.322 OA
HETATM   27  C1  UNL     1       4.185   2.834  -0.170  1.00  0.00     0.213 C 
ENDBRANCH  24  26
ENDBRANCH   1  24
TORSDOF 8
