REMARK  6 active torsions:
REMARK  status: ('A' for Active; 'I' for Inactive)
REMARK    1  A    between atoms: C7_9  and  O3_10 
REMARK    2  A    between atoms: N1_12  and  C8_13 
REMARK    3  A    between atoms: C11_17  and  O5_18 
REMARK    4  A    between atoms: C12_20  and  S1_21 
REMARK    5  A    between atoms: S1_21  and  C13_22 
REMARK    6  A    between atoms: C15_24  and  O6_25 
ROOT
HETATM    1  C1  UNL     1       3.286   0.735   2.734  1.00  0.00     0.028 C 
HETATM    2  C2  UNL     1       3.385   0.490   1.464  1.00  0.00     0.020 C 
HETATM    3  C3  UNL     1       4.715   0.535   0.810  1.00  0.00     0.183 C 
HETATM    4  O1  UNL     1       5.630   1.254   1.277  1.00  0.00    -0.290 OA
HETATM    5  C4  UNL     1       4.858  -0.325  -0.414  1.00  0.00     0.259 C 
HETATM    6  O2  UNL     1       3.758  -0.032  -1.287  1.00  0.00    -0.338 OA
HETATM    7  C5  UNL     1       2.472  -0.104  -0.736  1.00  0.00     0.136 A 
HETATM    8  C6  UNL     1       2.265   0.149   0.606  1.00  0.00     0.066 A 
HETATM    9  C7  UNL     1       0.911   0.003   0.905  1.00  0.00     0.163 A 
HETATM   10  N1  UNL     1       0.298  -0.332  -0.221  1.00  0.00    -0.265 N 
HETATM   11  C15 UNL     1       1.229  -0.399  -1.231  1.00  0.00     0.184 A 
ENDROOT
BRANCH  10  12
HETATM   12  C8  UNL     1      -1.061  -0.664  -0.521  1.00  0.00     0.095 A 
HETATM   13  C9  UNL     1      -1.536  -1.982  -0.712  1.00  0.00     0.081 A 
HETATM   14  C10 UNL     1      -0.634  -3.160  -0.567  1.00  0.00     0.079 C 
HETATM   15  O4  UNL     1      -2.816  -1.933  -1.013  1.00  0.00    -0.289 OA
HETATM   16  C11 UNL     1      -3.241  -0.713  -1.043  1.00  0.00     0.203 A 
HETATM   17  C12 UNL     1      -2.165   0.108  -0.737  1.00  0.00     0.088 A 
BRANCH  16  18
HETATM   18  O5  UNL     1      -4.541  -0.239  -1.334  1.00  0.00    -0.340 OA
ATOM     19  H5  UNL     1      -4.853   0.658  -1.356  1.00  0.00     0.220 HD
ENDBRANCH  16  18
BRANCH  17  20
HETATM   20  S1  UNL     1      -2.258   1.892  -0.578  1.00  0.00    -0.123 SA
BRANCH  20  21
HETATM   21  C13 UNL     1      -3.834   2.339   0.240  1.00  0.00     0.075 C 
HETATM   22  C14 UNL     1      -3.889   1.787   1.645  1.00  0.00     0.016 C 
ENDBRANCH  20  21
ENDBRANCH  17  20
ENDBRANCH  10  12
BRANCH   9  23
HETATM   23  O3  UNL     1       0.271   0.159   2.124  1.00  0.00    -0.345 OA
ATOM     24  H3  UNL     1      -0.652   0.060   2.328  1.00  0.00     0.219 HD
ENDBRANCH   9  23
BRANCH  11  25
HETATM   25  O6  UNL     1       1.000  -0.709  -2.563  1.00  0.00    -0.344 OA
ATOM     26  H6  UNL     1       0.138  -0.914  -2.906  1.00  0.00     0.219 HD
ENDBRANCH  11  25
TORSDOF 6
