REMARK  6 active torsions:
REMARK  status: ('A' for Active; 'I' for Inactive)
REMARK    1  A    between atoms: C2_2  and  C3_3 
REMARK    2  A    between atoms: C3_3  and  C4_4 
REMARK    3  A    between atoms: C4_4  and  O1_5 
REMARK    4  A    between atoms: O1_5  and  C5_6 
REMARK    5  A    between atoms: C11_17  and  O4_18 
REMARK    6  A    between atoms: C19_27  and  O5_28 
ROOT
HETATM    1  C5  UNL     1       2.790   1.052   0.331  1.00  0.00     0.160 A 
HETATM    2  N1  UNL     1       2.145  -0.141   0.431  1.00  0.00    -0.316 N 
ATOM      3  H1  UNL     1       2.645  -0.966   0.762  1.00  0.00     0.170 HD
HETATM    4  C6  UNL     1       0.867  -0.229   0.098  1.00  0.00     0.157 A 
HETATM    5  C7  UNL     1       0.211   0.911  -0.350  1.00  0.00     0.050 A 
HETATM    6  C8  UNL     1       0.823   2.139  -0.468  1.00  0.00     0.111 A 
HETATM    7  O2  UNL     1       0.100   3.134  -0.901  1.00  0.00    -0.272 OA
HETATM    8  C9  UNL     1       0.698   4.288  -1.006  1.00  0.00     0.315 A 
HETATM    9  O3  UNL     1      -0.002   5.269  -1.430  1.00  0.00    -0.258 OA
HETATM   10  C10 UNL     1       2.012   4.501  -0.692  1.00  0.00     0.155 A 
HETATM   11  N2  UNL     1       2.642   5.770  -0.815  1.00  0.00    -0.093 NA
HETATM   12  C11 UNL     1       2.801   3.422  -0.221  1.00  0.00     0.113 A 
HETATM   13  C12 UNL     1       2.154   2.209  -0.116  1.00  0.00     0.085 A 
HETATM   14  C13 UNL     1      -1.200   1.109  -0.776  1.00  0.00     0.015 C 
HETATM   15  C14 UNL     1      -2.293   0.446  -0.411  1.00  0.00    -0.015 C 
HETATM   16  C15 UNL     1      -2.517  -0.689   0.517  1.00  0.00    -0.008 C 
HETATM   17  C16 UNL     1      -1.938  -0.344   1.908  1.00  0.00     0.021 C 
HETATM   18  C17 UNL     1      -4.013  -0.739   0.752  1.00  0.00     0.024 C 
HETATM   19  C18 UNL     1      -4.478   0.657   1.059  1.00  0.00     0.014 C 
HETATM   20  C19 UNL     1      -4.783  -1.325  -0.359  1.00  0.00     0.132 C 
HETATM   21  C21 UNL     1      -4.394  -2.753  -0.663  1.00  0.00     0.111 C 
HETATM   22  C22 UNL     1      -2.923  -2.835  -0.701  1.00  0.00     0.137 C 
HETATM   23  O6  UNL     1      -2.481  -3.666  -1.511  1.00  0.00    -0.297 OA
HETATM   24  C23 UNL     1      -2.014  -2.008   0.146  1.00  0.00     0.097 C 
HETATM   25  C24 UNL     1      -0.654  -2.205  -0.383  1.00  0.00     0.139 C 
HETATM   26  C25 UNL     1      -0.592  -2.028  -1.884  1.00  0.00     0.041 C 
HETATM   27  O7  UNL     1       0.408  -1.532   0.273  1.00  0.00    -0.329 OA
ENDROOT
BRANCH   1  28
HETATM   28  O1  UNL     1       4.100   1.077   0.689  1.00  0.00    -0.335 OA
BRANCH  28  29
HETATM   29  C4  UNL     1       4.924   0.064   1.151  1.00  0.00     0.177 C 
BRANCH  29  30
HETATM   30  C3  UNL     1       5.114  -1.082   0.190  1.00  0.00     0.026 C 
BRANCH  30  31
HETATM   31  C2  UNL     1       6.044  -2.108   0.824  1.00  0.00    -0.002 C 
HETATM   32  C1  UNL     1       7.389  -1.526   1.141  1.00  0.00     0.005 C 
ENDBRANCH  30  31
ENDBRANCH  29  30
ENDBRANCH  28  29
ENDBRANCH   1  28
BRANCH  12  33
HETATM   33  O4  UNL     1       4.098   3.630   0.089  1.00  0.00    -0.358 OA
ATOM     34  H4  UNL     1       4.627   2.907   0.405  1.00  0.00     0.217 HD
ENDBRANCH  12  33
BRANCH  20  35
HETATM   35  O5  UNL     1      -6.130  -1.281  -0.094  1.00  0.00    -0.390 OA
HETATM   36  C20 UNL     1      -6.893  -0.614  -1.016  1.00  0.00     0.202 C 
ENDBRANCH  20  35
TORSDOF 6
