REMARK  9 active torsions:
REMARK  status: ('A' for Active; 'I' for Inactive)
REMARK    1  A    between atoms: C2_2  and  C23_32 
REMARK    2  A    between atoms: C3_3  and  C4_4 
REMARK    3  A    between atoms: C4_4  and  C5_5 
REMARK    4  A    between atoms: C5_5  and  O2_7 
REMARK    5  A    between atoms: O2_7  and  C6_8 
REMARK    6  A    between atoms: C18_23  and  O6_24 
REMARK    7  A    between atoms: O6_24  and  C19_25 
REMARK    8  A    between atoms: C19_25  and  C20_27 
REMARK    9  A    between atoms: C20_27  and  O8_30 
ROOT
HETATM    1  C23 UNL     1       6.313   1.219  -0.426  1.00  0.00     0.100 C 
HETATM    2  C24 UNL     1       5.434   2.083   0.264  1.00  0.00     0.088 C 
HETATM    3  N1  UNL     1       4.731   2.826   0.804  1.00  0.00    -0.192 NA
ENDROOT
BRANCH   1   4
HETATM    4  C2  UNL     1       6.128  -0.221  -0.469  1.00  0.00    -0.055 C 
HETATM    5  C1  UNL     1       7.138  -0.990  -1.368  1.00  0.00     0.048 C 
HETATM    6  C3  UNL     1       5.218  -0.945   0.097  1.00  0.00    -0.010 C 
BRANCH   6   7
HETATM    7  C4  UNL     1       4.110  -0.644   0.995  1.00  0.00     0.138 C 
BRANCH   7   8
HETATM    8  C5  UNL     1       2.847  -0.962   0.274  1.00  0.00     0.264 C 
HETATM    9  O1  UNL     1       2.760  -2.110  -0.234  1.00  0.00    -0.265 OA
BRANCH   8  10
HETATM   10  O2  UNL     1       1.807  -0.054   0.155  1.00  0.00    -0.284 OA
BRANCH  10  11
HETATM   11  C6  UNL     1       0.637  -0.403  -0.528  1.00  0.00     0.337 C 
HETATM   12  O3  UNL     1       0.404   0.280  -1.664  1.00  0.00    -0.344 OA
HETATM   13  C7  UNL     1      -0.751   1.045  -1.612  1.00  0.00     0.073 C 
HETATM   14  C8  UNL     1      -1.458   0.792  -2.912  1.00  0.00     0.047 C 
HETATM   15  C9  UNL     1      -0.191   2.474  -1.792  1.00  0.00     0.047 C 
HETATM   16  C10 UNL     1      -1.456   0.819  -0.345  1.00  0.00     0.087 C 
HETATM   17  C11 UNL     1      -2.915   0.578  -0.380  1.00  0.00     0.001 C 
HETATM   18  C17 UNL     1      -1.201   1.907   0.695  1.00  0.00     0.181 C 
HETATM   19  C18 UNL     1      -0.619  -0.276   0.264  1.00  0.00     0.268 C 
HETATM   20  C12 UNL     1      -3.589   0.232   0.883  1.00  0.00     0.011 C 
HETATM   21  C13 UNL     1      -3.636   1.855  -0.805  1.00  0.00     0.006 C 
HETATM   22  C14 UNL     1      -3.401   2.997   0.128  1.00  0.00     0.007 C 
HETATM   23  C15 UNL     1      -2.058   3.073   0.729  1.00  0.00     0.015 C 
HETATM   24  C16 UNL     1      -2.203   3.550   2.188  1.00  0.00     0.012 C 
HETATM   25  O4  UNL     1      -1.215   1.095   1.859  1.00  0.00    -0.231 OA
HETATM   26  O5  UNL     1      -0.182   0.317   1.509  1.00  0.00    -0.193 OA
BRANCH  19  27
HETATM   27  O6  UNL     1      -1.133  -1.459   0.609  1.00  0.00    -0.272 OA
BRANCH  27  28
HETATM   28  C19 UNL     1      -1.545  -2.527  -0.100  1.00  0.00     0.295 C 
HETATM   29  O7  UNL     1      -1.445  -2.457  -1.327  1.00  0.00    -0.262 OA
BRANCH  28  30
HETATM   30  C20 UNL     1      -2.107  -3.764   0.545  1.00  0.00     0.138 C 
HETATM   31  C21 UNL     1      -1.158  -4.886   0.270  1.00  0.00     0.056 C 
HETATM   32  C22 UNL     1      -3.499  -3.974   0.038  1.00  0.00     0.056 C 
BRANCH  30  33
HETATM   33  O8  UNL     1      -2.135  -3.588   1.929  1.00  0.00    -0.380 OA
ATOM     34  H8  UNL     1      -2.490  -4.369   2.336  1.00  0.00     0.211 HD
ENDBRANCH  30  33
ENDBRANCH  28  30
ENDBRANCH  27  28
ENDBRANCH  19  27
ENDBRANCH  10  11
ENDBRANCH   8  10
ENDBRANCH   7   8
ENDBRANCH   6   7
ENDBRANCH   1   4
TORSDOF 9
