REMARK  9 active torsions:
REMARK  status: ('A' for Active; 'I' for Inactive)
REMARK    1  A    between atoms: C2_2  and  S1_4 
REMARK    2  A    between atoms: S1_4  and  C4_5 
REMARK    3  A    between atoms: C4_5  and  C7_8 
REMARK    4  A    between atoms: C9_10  and  O1_11 
REMARK    5  A    between atoms: C15_19  and  O3_20 
REMARK    6  A    between atoms: O3_20  and  C16_21 
REMARK    7  A    between atoms: C18_25  and  C19_26 
REMARK    8  A    between atoms: C19_26  and  O6_27 
REMARK    9  A    between atoms: C20_29  and  O7_30 
ROOT
HETATM    1  C7  UNL     1       2.084   0.350  -0.242  1.00  0.00    -0.036 A 
HETATM    2  C8  UNL     1       1.851   0.294   1.098  1.00  0.00     0.046 A 
HETATM    3  C9  UNL     1       0.534   0.066   1.547  1.00  0.00     0.081 A 
HETATM    4  C10 UNL     1      -0.511  -0.099   0.664  1.00  0.00     0.060 A 
HETATM    5  C11 UNL     1      -0.256  -0.041  -0.690  1.00  0.00     0.028 A 
HETATM    6  C12 UNL     1       1.025   0.180  -1.132  1.00  0.00     0.025 A 
HETATM    7  C13 UNL     1      -1.355  -0.226  -1.587  1.00  0.00     0.171 C 
HETATM    8  O2  UNL     1      -1.237   0.132  -2.798  1.00  0.00    -0.292 OA
HETATM    9  C14 UNL     1      -2.670  -0.818  -1.226  1.00  0.00     0.141 C 
HETATM   10  C15 UNL     1      -3.713   0.302  -1.299  1.00  0.00     0.182 C 
HETATM   11  C17 UNL     1      -4.202  -0.130   0.029  1.00  0.00    -0.009 C 
HETATM   12  C18 UNL     1      -5.349   0.100   0.651  1.00  0.00     0.008 C 
HETATM   13  C20 UNL     1      -2.953  -0.884   0.230  1.00  0.00     0.162 C 
HETATM   14  C21 UNL     1      -1.904  -0.280   1.080  1.00  0.00     0.202 C 
HETATM   15  O8  UNL     1      -2.204   0.113   2.238  1.00  0.00    -0.288 OA
ENDROOT
BRANCH   1  16
HETATM   16  C4  UNL     1       3.417   0.645  -0.804  1.00  0.00     0.032 C 
HETATM   17  C5  UNL     1       3.774  -0.320  -1.879  1.00  0.00     0.032 C 
HETATM   18  C6  UNL     1       3.127   1.989  -1.602  1.00  0.00     0.032 C 
BRANCH  16  19
HETATM   19  S1  UNL     1       4.686   1.112   0.325  1.00  0.00    -0.121 SA
BRANCH  19  20
HETATM   20  C2  UNL     1       5.483  -0.099   1.281  1.00  0.00    -0.034 C 
HETATM   21  C1  UNL     1       5.313  -1.376   1.154  1.00  0.00     0.026 C 
HETATM   22  C3  UNL     1       6.489   0.367   2.311  1.00  0.00     0.055 C 
ENDBRANCH  19  20
ENDBRANCH  16  19
ENDBRANCH   1  16
BRANCH   3  23
HETATM   23  O1  UNL     1       0.366   0.017   2.900  1.00  0.00    -0.360 OA
ATOM     24  H1  UNL     1      -0.521  -0.137   3.203  1.00  0.00     0.217 HD
ENDBRANCH   3  23
BRANCH  13  25
HETATM   25  O7  UNL     1      -3.221  -2.226   0.609  1.00  0.00    -0.376 OA
ATOM     26  H7  UNL     1      -3.402  -2.268   1.541  1.00  0.00     0.211 HD
ENDBRANCH  13  25
BRANCH  10  27
HETATM   27  O3  UNL     1      -4.566   0.159  -2.392  1.00  0.00    -0.285 OA
BRANCH  27  28
HETATM   28  C16 UNL     1      -4.759   1.215  -3.297  1.00  0.00     0.333 C 
HETATM   29  O4  UNL     1      -4.133   2.273  -3.061  1.00  0.00    -0.624 OA
HETATM   30  O5  UNL     1      -5.587   1.084  -4.372  1.00  0.00    -0.624 OA
ENDBRANCH  27  28
ENDBRANCH  10  27
BRANCH  12  31
HETATM   31  C19 UNL     1      -5.671  -0.425   2.003  1.00  0.00     0.192 C 
BRANCH  31  32
HETATM   32  O6  UNL     1      -5.920   0.651   2.879  1.00  0.00    -0.397 OA
ATOM     33  H6  UNL     1      -6.126   0.315   3.744  1.00  0.00     0.209 HD
ENDBRANCH  31  32
ENDBRANCH  12  31
TORSDOF 9
