REMARK  9 active torsions:
REMARK  status: ('A' for Active; 'I' for Inactive)
REMARK    1  A    between atoms: O1_2  and  C2_3 
REMARK    2  A    between atoms: C2_3  and  O3_5 
REMARK    3  A    between atoms: O3_5  and  C3_6 
REMARK    4  A    between atoms: C8_13  and  C10_15 
REMARK    5  A    between atoms: C10_15  and  C11_16 
REMARK    6  A    between atoms: C15_21  and  O7_22 
REMARK    7  A    between atoms: C16_24  and  O8_25 
REMARK    8  A    between atoms: C17_27  and  C18_28 
REMARK    9  A    between atoms: C18_28  and  C19_29 
ROOT
HETATM    1  C3  UNL     1      -0.725   1.621  -0.594  1.00  0.00     0.100 C 
HETATM    2  C4  UNL     1      -1.486   1.666   0.527  1.00  0.00     0.089 C 
HETATM    3  C5  UNL     1      -1.481   0.449   1.327  1.00  0.00     0.186 C 
HETATM    4  O4  UNL     1      -1.903   0.523   2.520  1.00  0.00    -0.290 OA
HETATM    5  C6  UNL     1      -0.997  -0.821   0.754  1.00  0.00     0.130 C 
HETATM    6  C7  UNL     1      -1.680  -2.029   1.354  1.00  0.00     0.055 C 
HETATM    7  O5  UNL     1       0.384  -0.842   1.077  1.00  0.00    -0.357 OA
HETATM    8  C8  UNL     1       1.032  -0.058   0.121  1.00  0.00     0.102 C 
HETATM    9  C9  UNL     1       1.797   1.055   0.779  1.00  0.00     0.050 C 
HETATM   10  C16 UNL     1       0.024   0.365  -0.892  1.00  0.00     0.145 C 
HETATM   11  C17 UNL     1      -1.000  -0.780  -0.738  1.00  0.00     0.075 C 
ENDROOT
BRANCH   8  12
HETATM   12  C10 UNL     1       1.974  -1.026  -0.597  1.00  0.00     0.109 C 
BRANCH  12  13
HETATM   13  C11 UNL     1       2.970  -1.669   0.251  1.00  0.00     0.089 A 
HETATM   14  O6  UNL     1       2.873  -2.876   0.818  1.00  0.00    -0.324 OA
HETATM   15  C12 UNL     1       3.926  -3.164   1.520  1.00  0.00     0.151 A 
HETATM   16  C13 UNL     1       4.814  -2.115   1.449  1.00  0.00    -0.004 A 
HETATM   17  C14 UNL     1       6.141  -2.001   2.090  1.00  0.00     0.053 C 
HETATM   18  C15 UNL     1       4.209  -1.170   0.646  1.00  0.00     0.103 A 
BRANCH  18  19
HETATM   19  O7  UNL     1       4.784   0.027   0.329  1.00  0.00    -0.358 OA
ATOM     20  H7  UNL     1       5.629   0.367   0.598  1.00  0.00     0.217 HD
ENDBRANCH  18  19
ENDBRANCH  12  13
ENDBRANCH   8  12
BRANCH  10  21
HETATM   21  O8  UNL     1       0.525   0.378  -2.191  1.00  0.00    -0.379 OA
ATOM     22  H8  UNL     1       1.002  -0.422  -2.381  1.00  0.00     0.211 HD
ENDBRANCH  10  21
BRANCH   1  23
HETATM   23  O3  UNL     1      -0.713   2.735  -1.365  1.00  0.00    -0.257 OA
BRANCH  23  24
HETATM   24  C2  UNL     1      -0.021   3.884  -1.367  1.00  0.00     0.411 C 
HETATM   25  O2  UNL     1       0.847   4.125  -0.505  1.00  0.00    -0.229 OA
BRANCH  24  26
HETATM   26  O1  UNL     1      -0.206   4.906  -2.325  1.00  0.00    -0.303 OA
HETATM   27  C1  UNL     1       0.564   6.091  -2.262  1.00  0.00     0.215 C 
ENDBRANCH  24  26
ENDBRANCH  23  24
ENDBRANCH   1  23
BRANCH  11  28
HETATM   28  C18 UNL     1      -2.267  -0.560  -1.450  1.00  0.00     0.039 C 
BRANCH  28  29
HETATM   29  C19 UNL     1      -3.321  -1.597  -1.189  1.00  0.00    -0.024 C 
HETATM   30  C20 UNL     1      -4.523  -1.313  -0.707  1.00  0.00    -0.091 C 
HETATM   31  C21 UNL     1      -5.485  -2.439  -0.490  1.00  0.00     0.042 C 
HETATM   32  C22 UNL     1      -4.949   0.051  -0.383  1.00  0.00     0.042 C 
ENDBRANCH  28  29
ENDBRANCH  11  28
TORSDOF 9
