REMARK  7 active torsions:
REMARK  status: ('A' for Active; 'I' for Inactive)
REMARK    1  A    between atoms: C2_2  and  C4_6 
REMARK    2  A    between atoms: C3_3  and  O1_4 
REMARK    3  A    between atoms: C8_12  and  C9_13 
REMARK    4  A    between atoms: C10_15  and  C11_16 
REMARK    5  A    between atoms: C11_16  and  O5_17 
REMARK    6  A    between atoms: C12_19  and  N1_20 
REMARK       I    between atoms: N1_20  and  C13_22 
REMARK    7  A    between atoms: C13_22  and  C14_24 
ROOT
HETATM    1  C9  UNL     1      -0.785   0.322   0.270  1.00  0.00     0.182 C 
HETATM    2  O4  UNL     1      -0.800   0.052   1.618  1.00  0.00    -0.369 OA
HETATM    3  C10 UNL     1       0.502  -0.269   1.969  1.00  0.00     0.194 C 
HETATM    4  C12 UNL     1       1.426   0.853   1.570  1.00  0.00     0.255 C 
HETATM    5  O7  UNL     1       0.778   1.897   1.006  1.00  0.00    -0.356 OA
HETATM    6  C19 UNL     1      -0.214   1.686   0.086  1.00  0.00     0.151 C 
HETATM    7  C20 UNL     1      -1.233   2.792   0.305  1.00  0.00     0.042 C 
ENDROOT
BRANCH   1   8
HETATM    8  C8  UNL     1      -1.938  -0.081  -0.531  1.00  0.00     0.190 C 
HETATM    9  C4  UNL     1      -3.299   0.326  -0.250  1.00  0.00     0.187 C 
HETATM   10  O2  UNL     1      -3.943   0.180  -1.512  1.00  0.00    -0.344 OA
HETATM   11  C5  UNL     1      -2.959   0.246  -2.466  1.00  0.00     0.158 C 
HETATM   12  C6  UNL     1      -2.958  -0.997  -3.344  1.00  0.00     0.078 C 
HETATM   13  C7  UNL     1      -3.201   1.436  -3.392  1.00  0.00     0.078 C 
HETATM   14  O3  UNL     1      -1.723   0.317  -1.854  1.00  0.00    -0.345 OA
BRANCH   9  15
HETATM   15  C2  UNL     1      -4.096  -0.533   0.654  1.00  0.00    -0.031 C 
HETATM   16  C1  UNL     1      -5.505  -0.112   0.931  1.00  0.00     0.048 C 
HETATM   17  C3  UNL     1      -3.684  -1.636   1.234  1.00  0.00     0.136 C 
BRANCH  17  18
HETATM   18  O1  UNL     1      -4.510  -2.394   2.072  1.00  0.00    -0.372 OA
ATOM     19  H1  UNL     1      -4.212  -3.192   2.492  1.00  0.00     0.216 HD
ENDBRANCH  17  18
ENDBRANCH   9  15
ENDBRANCH   1   8
BRANCH   3  20
HETATM   20  C11 UNL     1       0.649  -0.661   3.416  1.00  0.00     0.200 C 
BRANCH  20  21
HETATM   21  O5  UNL     1       0.279   0.334   4.306  1.00  0.00    -0.398 OA
ATOM     22  H5  UNL     1       0.372   0.087   5.219  1.00  0.00     0.209 HD
ENDBRANCH  20  21
ENDBRANCH   3  20
BRANCH   4  23
HETATM   23  N1  UNL     1       2.494   0.398   0.710  1.00  0.00    -0.328 N 
HETATM   24  C13 UNL     1       3.830   0.200   1.144  1.00  0.00     0.260 C 
HETATM   25  O6  UNL     1       4.105   0.437   2.352  1.00  0.00    -0.267 OA
ATOM     26  H1  UNL     1       2.274   0.208  -0.268  1.00  0.00     0.165 HD
BRANCH  24  27
HETATM   27  C14 UNL     1       4.886  -0.267   0.250  1.00  0.00     0.073 A 
HETATM   28  C15 UNL     1       4.782  -0.554  -1.089  1.00  0.00     0.025 A 
HETATM   29  C16 UNL     1       5.883  -0.969  -1.717  1.00  0.00     0.015 A 
HETATM   30  C17 UNL     1       7.034  -1.078  -0.980  1.00  0.00    -0.020 A 
HETATM   31  C18 UNL     1       8.394  -1.527  -1.455  1.00  0.00     0.056 C 
HETATM   32  S1  UNL     1       6.525  -0.590   0.574  1.00  0.00    -0.090 SA
ENDBRANCH  24  27
ENDBRANCH   4  23
TORSDOF 7
