REMARK  10 active torsions:
REMARK  status: ('A' for Active; 'I' for Inactive)
REMARK    1  A    between atoms: C2_2  and  O1_4 
REMARK    2  A    between atoms: O1_4  and  C4_5 
REMARK    3  A    between atoms: C4_5  and  C5_7 
REMARK    4  A    between atoms: C8_10  and  C9_11 
REMARK    5  A    between atoms: C9_11  and  O3_12 
REMARK    6  A    between atoms: O3_12  and  C10_13 
REMARK    7  A    between atoms: C10_13  and  O4_14 
REMARK    8  A    between atoms: C10_13  and  C11_16 
REMARK    9  A    between atoms: C21_28  and  O7_29 
REMARK   10  A    between atoms: C22_31  and  O8_32 
ROOT
HETATM    1  C5  UNL     1       1.757  -0.033   1.064  1.00  0.00     0.137 C 
HETATM    2  C6  UNL     1       1.015   1.204   1.596  1.00  0.00     0.031 C 
HETATM    3  C7  UNL     1      -0.421   0.820   1.635  1.00  0.00     0.017 C 
HETATM    4  C8  UNL     1      -0.774  -0.334   0.697  1.00  0.00     0.026 C 
HETATM    5  C15 UNL     1      -0.133  -0.074  -0.631  1.00  0.00     0.074 C 
HETATM    6  C16 UNL     1       1.359  -0.110  -0.373  1.00  0.00     0.153 C 
HETATM    7  O6  UNL     1       2.116  -0.194  -1.296  1.00  0.00    -0.296 OA
HETATM    8  C17 UNL     1      -0.382  -1.159  -1.637  1.00  0.00    -0.006 C 
HETATM    9  C18 UNL     1      -1.579  -0.861  -2.531  1.00  0.00     0.011 C 
HETATM   10  C19 UNL     1      -0.533  -2.531  -1.067  1.00  0.00     0.008 C 
HETATM   11  C20 UNL     1       0.151  -2.637   0.247  1.00  0.00     0.042 C 
HETATM   12  C21 UNL     1      -0.164  -1.582   1.248  1.00  0.00     0.096 C 
HETATM   13  C22 UNL     1       1.185  -1.190   1.877  1.00  0.00     0.179 C 
ENDROOT
BRANCH   4  14
HETATM   14  C9  UNL     1      -2.275  -0.361   0.678  1.00  0.00     0.185 C 
BRANCH  14  15
HETATM   15  O3  UNL     1      -2.803   0.852   0.206  1.00  0.00    -0.354 OA
BRANCH  15  16
HETATM   16  C10 UNL     1      -4.172   0.855   0.181  1.00  0.00     0.315 C 
BRANCH  16  17
HETATM   17  O4  UNL     1      -4.723   1.823   1.041  1.00  0.00    -0.365 OA
ATOM     18  H4  UNL     1      -5.673   1.825   1.024  1.00  0.00     0.213 HD
ENDBRANCH  16  17
BRANCH  16  19
HETATM   19  C11 UNL     1      -4.711   1.048  -1.214  1.00  0.00     0.107 A 
HETATM   20  C12 UNL     1      -5.731   0.347  -1.809  1.00  0.00     0.040 A 
HETATM   21  C13 UNL     1      -5.889   0.848  -3.071  1.00  0.00     0.027 A 
HETATM   22  C14 UNL     1      -4.958   1.844  -3.211  1.00  0.00     0.142 A 
HETATM   23  O5  UNL     1      -4.289   1.921  -2.087  1.00  0.00    -0.322 OA
ENDBRANCH  16  19
ENDBRANCH  15  16
ENDBRANCH  14  15
ENDBRANCH   4  14
BRANCH  12  24
HETATM   24  O7  UNL     1      -0.995  -2.089   2.252  1.00  0.00    -0.386 OA
ATOM     25  H7  UNL     1      -0.607  -2.882   2.602  1.00  0.00     0.210 HD
ENDBRANCH  12  24
BRANCH  13  26
HETATM   26  O8  UNL     1       2.032  -2.282   1.914  1.00  0.00    -0.391 OA
ATOM     27  H8  UNL     1       1.676  -3.003   2.420  1.00  0.00     0.210 HD
ENDBRANCH  13  26
BRANCH   1  28
HETATM   28  C4  UNL     1       3.203   0.083   1.258  1.00  0.00     0.278 C 
HETATM   29  O2  UNL     1       3.853  -0.757   1.958  1.00  0.00    -0.264 OA
BRANCH  28  30
HETATM   30  O1  UNL     1       3.943   1.099   0.700  1.00  0.00    -0.316 OA
BRANCH  30  31
HETATM   31  C2  UNL     1       5.313   1.218   0.877  1.00  0.00     0.123 C 
HETATM   32  C1  UNL     1       5.637   2.484   1.639  1.00  0.00     0.040 C 
HETATM   33  C3  UNL     1       6.114   1.155  -0.395  1.00  0.00     0.040 C 
ENDBRANCH  30  31
ENDBRANCH  28  30
ENDBRANCH   1  28
TORSDOF 10
