REMARK  7 active torsions:
REMARK  status: ('A' for Active; 'I' for Inactive)
REMARK    1  A    between atoms: N1_1  and  C1_5 
REMARK    2  A    between atoms: C1_5  and  C2_6 
REMARK    3  A    between atoms: C1_5  and  C12_16 
REMARK    4  A    between atoms: C2_6  and  C3_7 
REMARK    5  A    between atoms: C12_16  and  O1_17 
REMARK    6  A    between atoms: C12_16  and  N2_19 
REMARK    7  A    between atoms: N2_19  and  C13_21 
ROOT
HETATM    1  C1  UNL     1       1.186  -0.119   1.195  1.00  0.00     0.235 C 
ENDROOT
BRANCH   1   2
HETATM    2  N1  UNL     1       0.790  -1.379   1.873  1.00  0.00    -0.071 N 
ATOM      3  H13 UNL     1      -0.210  -1.564   1.791  1.00  0.00     0.274 HD
ATOM      4  H12 UNL     1       1.131  -2.205   1.382  1.00  0.00     0.274 HD
ATOM      5  H11 UNL     1       1.099  -1.352   2.845  1.00  0.00     0.274 HD
ENDBRANCH   1   2
BRANCH   1   6
HETATM    6  C2  UNL     1       0.733  -0.158  -0.230  1.00  0.00     0.075 C 
BRANCH   6   7
HETATM    7  C3  UNL     1      -0.758  -0.356  -0.293  1.00  0.00    -0.056 A 
HETATM    8  C4  UNL     1      -1.264  -1.633  -0.389  1.00  0.00     0.007 A 
HETATM    9  C5  UNL     1      -2.631  -1.804  -0.425  1.00  0.00     0.008 A 
HETATM   10  C6  UNL     1      -3.497  -0.695  -0.364  1.00  0.00    -0.052 A 
HETATM   11  C7  UNL     1      -2.989   0.575  -0.268  1.00  0.00    -0.051 A 
HETATM   12  C11 UNL     1      -4.977  -0.601  -0.390  1.00  0.00     0.039 C 
HETATM   13  C8  UNL     1      -1.611   0.718  -0.235  1.00  0.00     0.014 A 
HETATM   14  C9  UNL     1      -4.105   1.587  -0.201  1.00  0.00     0.039 C 
HETATM   15  C10 UNL     1      -5.250   0.702   0.312  1.00  0.00     0.009 C 
ENDBRANCH   6   7
ENDBRANCH   1   6
BRANCH   1  16
HETATM   16  C12 UNL     1       2.645  -0.006   1.446  1.00  0.00     0.244 C 
BRANCH  16  17
HETATM   17  O1  UNL     1       2.788   0.078   2.864  1.00  0.00    -0.375 OA
ATOM     18  H1  UNL     1       3.722   0.150   3.025  1.00  0.00     0.212 HD
ENDBRANCH  16  17
BRANCH  16  19
HETATM   19  N2  UNL     1       3.440   0.890   0.763  1.00  0.00    -0.391 N 
ATOM     20  H2  UNL     1       3.855   1.666   1.278  1.00  0.00     0.156 HD
BRANCH  19  21
HETATM   21  C13 UNL     1       3.704   0.778  -0.623  1.00  0.00     0.079 A 
HETATM   22  C14 UNL     1       4.431  -0.488  -1.104  1.00  0.00     0.027 A 
HETATM   23  C15 UNL     1       5.125   0.852  -1.108  1.00  0.00     0.027 A 
ENDBRANCH  19  21
ENDBRANCH  16  19
ENDBRANCH   1  16
TORSDOF 7
