REMARK  5 active torsions:
REMARK  status: ('A' for Active; 'I' for Inactive)
REMARK    1  A    between atoms: N3_4  and  C2_6 
REMARK    2  A    between atoms: C2_6  and  C3_7 
REMARK    3  A    between atoms: C3_7  and  O1_8 
REMARK    4  A    between atoms: O1_8  and  C4_9 
REMARK    5  A    between atoms: C7_12  and  C8_13 
ROOT
HETATM    1  C4  UNL     1       0.301  -0.769  -0.205  1.00  0.00     0.068 A 
HETATM    2  C5  UNL     1      -0.516  -1.844   0.017  1.00  0.00     0.037 A 
HETATM    3  C6  UNL     1      -1.893  -1.675   0.091  1.00  0.00     0.016 A 
HETATM    4  C7  UNL     1      -2.487  -0.443  -0.055  1.00  0.00    -0.009 A 
HETATM    5  C13 UNL     1      -1.613   0.626  -0.280  1.00  0.00     0.016 A 
HETATM    6  C14 UNL     1      -0.253   0.471  -0.355  1.00  0.00     0.037 A 
ENDROOT
BRANCH   1   7
HETATM    7  O1  UNL     1       1.666  -1.012  -0.267  1.00  0.00    -0.350 OA
BRANCH   7   8
HETATM    8  C3  UNL     1       2.645  -0.048  -0.484  1.00  0.00     0.195 C 
BRANCH   8   9
HETATM    9  C2  UNL     1       3.998  -0.760  -0.473  1.00  0.00     0.148 C 
BRANCH   9  10
HETATM   10  N3  UNL     1       5.089   0.141  -0.689  1.00  0.00    -0.365 N 
HETATM   11  C1  UNL     1       5.534   0.991   0.158  1.00  0.00     0.197 C 
HETATM   12  N1  UNL     1       4.921   1.085   1.435  1.00  0.00    -0.067 NA
HETATM   13  N2  UNL     1       6.623   1.804  -0.222  1.00  0.00    -0.067 NA
ATOM     14  H3  UNL     1       5.552   0.102  -1.597  1.00  0.00     0.161 HD
ENDBRANCH   9  10
ENDBRANCH   8   9
ENDBRANCH   7   8
ENDBRANCH   1   7
BRANCH   4  15
HETATM   15  C8  UNL     1      -3.920  -0.209   0.013  1.00  0.00     0.042 A 
HETATM   16  C9  UNL     1      -4.782  -1.240   0.232  1.00  0.00     0.030 A 
HETATM   17  C10 UNL     1      -6.147  -0.982   0.291  1.00  0.00     0.004 A 
HETATM   18  C11 UNL     1      -6.567   0.310   0.124  1.00  0.00     0.017 A 
HETATM   19  C12 UNL     1      -5.663   1.322  -0.095  1.00  0.00     0.088 A 
HETATM   20  N4  UNL     1      -4.361   1.043  -0.146  1.00  0.00    -0.365 N 
ATOM     21  H4  UNL     1      -3.692   1.795  -0.309  1.00  0.00     0.165 HD
ENDBRANCH   4  15
TORSDOF 5
