REMARK  3 active torsions:
REMARK  status: ('A' for Active; 'I' for Inactive)
REMARK    1  A    between atoms: C2_5  and  C3_6 
REMARK    2  A    between atoms: C3_6  and  N2_7 
REMARK    3  A    between atoms: N2_7  and  C4_10 
ROOT
HETATM    1  C4  UNL     1       2.623  -0.064  -0.494  1.00  0.00     0.189 C 
HETATM    2  C5  UNL     1       2.668   0.460   0.902  1.00  0.00     0.036 C 
HETATM    3  C6  UNL     1       1.215   0.245   1.348  1.00  0.00     0.043 C 
HETATM    4  C7  UNL     1       0.385   0.260   0.070  1.00  0.00     0.098 C 
HETATM    5  C8  UNL     1      -0.240  -1.095  -0.185  1.00  0.00     0.044 C 
HETATM    6  C9  UNL     1      -1.588  -0.858  -0.852  1.00  0.00     0.047 C 
HETATM    7  C10 UNL     1      -2.422  -0.053   0.134  1.00  0.00     0.122 C 
HETATM    8  C11 UNL     1      -3.264  -1.018   0.909  1.00  0.00     0.044 C 
HETATM    9  C12 UNL     1      -4.137  -0.373   1.940  1.00  0.00     0.010 C 
HETATM   10  C13 UNL     1      -5.357   0.280   1.413  1.00  0.00     0.015 C 
HETATM   11  C14 UNL     1      -6.081  -0.370   0.288  1.00  0.00     0.014 C 
HETATM   12  C15 UNL     1      -5.603   0.722  -0.630  1.00  0.00     0.018 C 
HETATM   13  C16 UNL     1      -4.346   0.415  -1.400  1.00  0.00     0.042 C 
HETATM   14  C17 UNL     1      -3.254   0.983  -0.558  1.00  0.00     0.160 C 
HETATM   15  O2  UNL     1      -3.809   1.811   0.384  1.00  0.00    -0.377 OA
HETATM   16  C18 UNL     1      -5.119   1.488   0.569  1.00  0.00     0.130 C 
HETATM   17  O3  UNL     1      -1.542   0.651   0.982  1.00  0.00    -0.226 OA
HETATM   18  O4  UNL     1      -0.637   1.189   0.157  1.00  0.00    -0.229 OA
HETATM   19  C19 UNL     1       1.365   0.548  -1.055  1.00  0.00     0.074 C 
ENDROOT
BRANCH   1  20
HETATM   20  N2  UNL     1       3.805   0.206  -1.282  1.00  0.00    -0.068 N 
ATOM     21  H22 UNL     1       3.989   1.202  -1.404  1.00  0.00     0.277 HD
ATOM     22  H21 UNL     1       3.693  -0.025  -2.269  1.00  0.00     0.277 HD
BRANCH  20  23
HETATM   23  C3  UNL     1       4.890  -0.499  -0.653  1.00  0.00     0.267 C 
BRANCH  23  24
HETATM   24  C2  UNL     1       6.219  -0.333  -1.315  1.00  0.00     0.182 C 
HETATM   25  O1  UNL     1       6.591   1.033  -1.309  1.00  0.00    -0.274 OA
HETATM   26  N1  UNL     1       7.092   1.297  -0.053  1.00  0.00    -0.281 N 
HETATM   27  C1  UNL     1       7.494   0.223   0.527  1.00  0.00     0.089 C 
ATOM     28  H1  UNL     1       7.138   2.227   0.364  1.00  0.00     0.193 HD
HETATM   29  C20 UNL     1       7.267  -0.922  -0.383  1.00  0.00     0.083 C 
ENDBRANCH  23  24
ENDBRANCH  20  23
ENDBRANCH   1  20
TORSDOF 3
