REMARK  3 active torsions:
REMARK  status: ('A' for Active; 'I' for Inactive)
REMARK    1  A    between atoms: C2_2  and  C3_3 
REMARK    2  A    between atoms: C14_19  and  O4_20 
REMARK    3  A    between atoms: C15_23  and  O6_24 
ROOT
HETATM    1  C3  UNL     1       1.605  -0.421  -0.523  1.00  0.00     0.019 C 
HETATM    2  C4  UNL     1       1.132  -1.595   0.265  1.00  0.00     0.010 C 
HETATM    3  C5  UNL     1      -0.342  -1.879   0.227  1.00  0.00     0.043 C 
HETATM    4  C6  UNL     1      -1.200  -0.735   0.724  1.00  0.00     0.112 C 
HETATM    5  C7  UNL     1      -0.669  -0.331   2.029  1.00  0.00     0.211 C 
HETATM    6  O1  UNL     1       0.519   0.302   2.073  1.00  0.00    -0.355 OA
HETATM    7  C8  UNL     1       1.034   1.239   1.327  1.00  0.00     0.297 C 
HETATM    8  O2  UNL     1       0.096   2.353   0.918  1.00  0.00    -0.299 OA
HETATM    9  C9  UNL     1      -1.313   2.139   0.804  1.00  0.00     0.207 A 
HETATM   10  N1  UNL     1      -2.333   2.538   1.331  1.00  0.00    -0.240 N 
ATOM     11  H1  UNL     1      -2.555   3.218   2.058  1.00  0.00     0.196 HD
HETATM   12  O3  UNL     1      -3.037   1.716   0.563  1.00  0.00    -0.229 OA
HETATM   13  C10 UNL     1      -1.954   1.294  -0.106  1.00  0.00     0.258 A 
HETATM   14  C11 UNL     1      -2.454   1.407  -1.541  1.00  0.00     0.080 C 
HETATM   15  C12 UNL     1      -3.558   0.299  -1.389  1.00  0.00     0.008 C 
HETATM   16  C13 UNL     1      -3.106  -0.983  -0.857  1.00  0.00     0.035 C 
HETATM   17  C14 UNL     1      -2.665  -1.104   0.614  1.00  0.00     0.155 C 
HETATM   18  O5  UNL     1      -1.150   0.211  -0.242  1.00  0.00    -0.331 OA
HETATM   19  C15 UNL     1       1.878   0.845   0.144  1.00  0.00     0.180 C 
ENDROOT
BRANCH   1  20
HETATM   20  C2  UNL     1       2.922  -0.867  -1.206  1.00  0.00     0.003 C 
HETATM   21  C1  UNL     1       3.961  -1.256  -0.216  1.00  0.00     0.005 C 
ENDBRANCH   1  20
BRANCH  19  22
HETATM   22  O6  UNL     1       1.738   1.888  -0.765  1.00  0.00    -0.385 OA
HETATM   23  C16 UNL     1       2.840   2.664  -0.958  1.00  0.00     0.202 C 
ENDBRANCH  19  22
BRANCH  17  24
HETATM   24  O4  UNL     1      -2.838  -2.469   0.969  1.00  0.00    -0.392 OA
ATOM     25  H4  UNL     1      -3.757  -2.700   0.900  1.00  0.00     0.210 HD
ENDBRANCH  17  24
TORSDOF 3
