REMARK  4 active torsions:
REMARK  status: ('A' for Active; 'I' for Inactive)
REMARK    1  A    between atoms: O1_1  and  C1_3 
REMARK    2  A    between atoms: C1_3  and  O2_4 
REMARK    3  A    between atoms: O2_4  and  C2_5 
REMARK    4  A    between atoms: N3_19  and  C11_20 
ROOT
HETATM    1  C1  UNL     1       1.661   0.280   1.476  1.00  0.00     0.280 C 
HETATM    2  C6  UNL     1       1.038  -0.928   0.885  1.00  0.00     0.107 C 
HETATM    3  C7  UNL     1      -0.076  -0.728  -0.091  1.00  0.00    -0.000 C 
HETATM    4  C8  UNL     1       0.249  -1.398  -1.436  1.00  0.00     0.011 C 
HETATM    5  C9  UNL     1      -0.990  -1.333  -2.291  1.00  0.00     0.061 C 
HETATM    6  C10 UNL     1      -2.252  -1.286  -1.557  1.00  0.00     0.051 A 
HETATM    7  N1  UNL     1      -3.250  -2.163  -1.728  1.00  0.00    -0.288 N 
ATOM      8  H1  UNL     1      -3.254  -2.954  -2.372  1.00  0.00     0.188 HD
HETATM    9  N2  UNL     1      -4.215  -1.821  -0.920  1.00  0.00    -0.240 N 
ATOM     10  H2  UNL     1      -5.102  -2.318  -0.840  1.00  0.00     0.208 HD
HETATM   11  N3  UNL     1      -3.894  -0.747  -0.218  1.00  0.00    -0.275 N 
HETATM   12  C14 UNL     1      -2.660  -0.384  -0.597  1.00  0.00     0.054 A 
HETATM   13  C15 UNL     1      -1.985   0.793  -0.000  1.00  0.00     0.068 C 
HETATM   14  C16 UNL     1      -0.496   0.670  -0.349  1.00  0.00     0.020 C 
HETATM   15  C17 UNL     1       0.297   1.694   0.432  1.00  0.00     0.179 C 
HETATM   16  O4  UNL     1       0.628   1.223   1.697  1.00  0.00    -0.332 OA
ENDROOT
BRANCH   1  17
HETATM   17  O1  UNL     1       2.170  -0.081   2.756  1.00  0.00    -0.343 OA
ATOM     18  H1  UNL     1       1.480  -0.454   3.292  1.00  0.00     0.215 HD
ENDBRANCH   1  17
BRANCH   1  19
HETATM   19  O2  UNL     1       2.661   0.821   0.700  1.00  0.00    -0.325 OA
BRANCH  19  20
HETATM   20  C2  UNL     1       3.739   0.016   0.458  1.00  0.00     0.153 C 
HETATM   21  C3  UNL     1       3.942  -0.115  -1.029  1.00  0.00     0.060 C 
HETATM   22  C4  UNL     1       5.185   0.714  -1.255  1.00  0.00     0.170 C 
HETATM   23  O3  UNL     1       5.946   0.411  -0.131  1.00  0.00    -0.389 OA
HETATM   24  C5  UNL     1       5.042   0.687   0.896  1.00  0.00     0.199 C 
ENDBRANCH  19  20
ENDBRANCH   1  19
BRANCH  11  25
HETATM   25  C11 UNL     1      -4.778  -0.152   0.752  1.00  0.00     0.109 A 
HETATM   26  C12 UNL     1      -5.137   1.281   0.706  1.00  0.00     0.029 A 
HETATM   27  C13 UNL     1      -6.113   0.295   0.162  1.00  0.00     0.029 A 
ENDBRANCH  11  25
TORSDOF 4
