REMARK  5 active torsions:
REMARK  status: ('A' for Active; 'I' for Inactive)
REMARK    1  A    between atoms: C2_2  and  C3_3 
REMARK    2  A    between atoms: C2_2  and  C5_13 
REMARK    3  A    between atoms: C4_9  and  N3_10 
REMARK    4  A    between atoms: C5_13  and  N4_14 
REMARK    5  A    between atoms: C5_13  and  N5_18 
ROOT
HETATM    1  C1  UNL     1      -0.851  -1.566   1.201  1.00  0.00     0.020 C 
HETATM    2  C2  UNL     1      -0.347  -0.204   0.708  1.00  0.00     0.095 C 
ENDROOT
BRANCH   2   3
HETATM    3  C3  UNL     1       0.984  -0.466   0.110  1.00  0.00     0.087 A 
HETATM    4  N1  UNL     1       1.383  -1.636  -0.400  1.00  0.00    -0.242 N 
HETATM    5  O1  UNL     1       2.555  -1.483  -0.872  1.00  0.00    -0.155 OA
ATOM      6  H1  UNL     1       0.842  -2.501  -0.409  1.00  0.00     0.196 HD
HETATM    7  N2  UNL     1       3.003  -0.259  -0.715  1.00  0.00    -0.224 N 
HETATM    8  C4  UNL     1       2.028   0.409  -0.095  1.00  0.00     0.146 A 
ATOM      9  H2  UNL     1       3.910   0.106  -1.007  1.00  0.00     0.198 HD
BRANCH   8  10
HETATM   10  N3  UNL     1       2.077   1.635   0.267  1.00  0.00    -0.382 N 
ATOM     11  H32 UNL     1       1.332   2.146   0.741  1.00  0.00     0.157 HD
ATOM     12  H31 UNL     1       2.850   2.283   0.115  1.00  0.00     0.157 HD
ENDBRANCH   8  10
ENDBRANCH   2   3
BRANCH   2  13
HETATM   13  C5  UNL     1      -1.275   0.286  -0.379  1.00  0.00     0.387 C 
BRANCH  13  14
HETATM   14  N4  UNL     1      -2.646   0.465   0.104  1.00  0.00    -0.050 N 
ATOM     15  H43 UNL     1      -3.000  -0.389   0.534  1.00  0.00     0.276 HD
ATOM     16  H42 UNL     1      -2.673   1.080   0.918  1.00  0.00     0.276 HD
ATOM     17  H41 UNL     1      -3.272   0.796  -0.630  1.00  0.00     0.276 HD
ENDBRANCH  13  14
BRANCH  13  18
HETATM   18  N5  UNL     1      -0.784   1.506  -0.962  1.00  0.00    -0.050 N 
ATOM     19  H53 UNL     1      -0.621   2.223  -0.255  1.00  0.00     0.276 HD
ATOM     20  H52 UNL     1       0.172   1.403  -1.301  1.00  0.00     0.276 HD
ATOM     21  H51 UNL     1      -1.410   1.837  -1.696  1.00  0.00     0.276 HD
ENDBRANCH  13  18
ENDBRANCH   2  13
TORSDOF 5
