REMARK  5 active torsions:
REMARK  status: ('A' for Active; 'I' for Inactive)
REMARK    1  A    between atoms: N1_1  and  C1_5 
REMARK    2  A    between atoms: C1_5  and  C2_6 
REMARK    3  A    between atoms: C2_6  and  C3_7 
REMARK    4  A    between atoms: C3_7  and  N2_8 
REMARK    5  A    between atoms: N2_8  and  C4_10 
ROOT
HETATM    1  N2  UNL     1       0.055  -0.452  -1.226  1.00  0.00    -0.225 N 
ATOM      2  H2  UNL     1       0.239  -0.961  -2.090  1.00  0.00     0.177 HD
ENDROOT
BRANCH   1   3
HETATM    3  C3  UNL     1      -1.305  -0.084  -0.922  1.00  0.00     0.139 C 
BRANCH   3   4
HETATM    4  C2  UNL     1      -1.865  -0.829   0.248  1.00  0.00     0.047 C 
BRANCH   4   5
HETATM    5  C1  UNL     1      -3.292  -0.412   0.516  1.00  0.00     0.231 C 
BRANCH   5   6
HETATM    6  N1  UNL     1      -3.494   0.944   0.816  1.00  0.00    -0.079 N 
ATOM      7  H13 UNL     1      -2.902   1.216   1.601  1.00  0.00     0.274 HD
ATOM      8  H12 UNL     1      -3.098   1.524   0.076  1.00  0.00     0.274 HD
ATOM      9  H11 UNL     1      -4.458   1.226   0.997  1.00  0.00     0.274 HD
ENDBRANCH   5   6
ENDBRANCH   4   5
ENDBRANCH   3   4
ENDBRANCH   1   3
BRANCH   1  10
HETATM   10  C4  UNL     1       1.143  -0.141  -0.384  1.00  0.00     0.685 C 
HETATM   11  N3  UNL     1       1.000   0.419   0.771  1.00  0.00    -0.224 N 
HETATM   12  C5  UNL     1       2.093   0.749   1.654  1.00  0.00     0.155 C 
ATOM     13  H3  UNL     1       0.054   0.642   1.079  1.00  0.00     0.177 HD
HETATM   14  C6  UNL     1       3.418   0.578   0.957  1.00  0.00     0.155 C 
HETATM   15  N4  UNL     1       3.440  -0.628   0.137  1.00  0.00    -0.125 NA
HETATM   16  N5  UNL     1       2.454  -0.451  -0.828  1.00  0.00    -0.137 N 
ATOM     17  H5  UNL     1       2.667  -0.541  -1.822  1.00  0.00     0.201 HD
ENDBRANCH   1  10
TORSDOF 5
