REMARK  3 active torsions:
REMARK  status: ('A' for Active; 'I' for Inactive)
REMARK    1  A    between atoms: N1_1  and  C1_4 
REMARK    2  A    between atoms: C2_7  and  C3_8 
REMARK    3  A    between atoms: C4_9  and  N3_10 
ROOT
HETATM    1  C1  UNL     1      -2.761  -0.167   0.427  1.00  0.00     0.692 A 
HETATM    2  N2  UNL     1      -1.987   0.890   0.266  1.00  0.00    -0.174 N 
ATOM      3  H2  UNL     1      -2.280   1.863   0.354  1.00  0.00     0.186 HD
HETATM    4  C2  UNL     1      -0.699   0.451  -0.045  1.00  0.00     0.137 A 
HETATM    5  N7  UNL     1      -0.748  -0.874  -0.058  1.00  0.00    -0.271 N 
ATOM      6  H7  UNL     1       0.028  -1.507  -0.252  1.00  0.00     0.189 HD
HETATM    7  N8  UNL     1      -2.012  -1.228   0.232  1.00  0.00    -0.131 N 
ATOM      8  H8  UNL     1      -2.344  -2.190   0.292  1.00  0.00     0.205 HD
ENDROOT
BRANCH   4   9
HETATM    9  C3  UNL     1       0.324   1.421  -0.267  1.00  0.00     0.071 C 
HETATM   10  C4  UNL     1       1.560   1.443  -0.556  1.00  0.00     0.143 C 
BRANCH  10  11
HETATM   11  N3  UNL     1       2.506   0.436  -0.797  1.00  0.00    -0.177 N 
HETATM   12  N4  UNL     1       3.851   0.624  -1.109  1.00  0.00    -0.205 N 
HETATM   13  N5  UNL     1       3.988  -0.673  -1.165  1.00  0.00    -0.210 N 
ATOM     14  H4  UNL     1       4.464   1.429  -1.238  1.00  0.00     0.212 HD
HETATM   15  N6  UNL     1       2.721  -0.853  -0.871  1.00  0.00    -0.205 N 
ATOM     16  H5  UNL     1       4.770  -1.299  -1.360  1.00  0.00     0.211 HD
ATOM     17  H6  UNL     1       2.133  -1.677  -0.748  1.00  0.00     0.212 HD
ENDBRANCH  10  11
ENDBRANCH   4   9
BRANCH   1  18
HETATM   18  N1  UNL     1      -4.033  -0.076   0.728  1.00  0.00    -0.233 N 
ATOM     19  H12 UNL     1      -4.615   0.748   0.879  1.00  0.00     0.174 HD
ATOM     20  H11 UNL     1      -4.631  -0.893   0.852  1.00  0.00     0.174 HD
ENDBRANCH   1  18
TORSDOF 3
