REMARK  5 active torsions:
REMARK  status: ('A' for Active; 'I' for Inactive)
REMARK    1  A    between atoms: C1_4  and  C2_5 
REMARK    2  A    between atoms: C2_5  and  C3_6 
REMARK    3  A    between atoms: C4_9  and  N3_10 
REMARK    4  A    between atoms: N3_10  and  N4_12 
REMARK    5  A    between atoms: N4_12  and  N5_14 
ROOT
HETATM    1  C3  UNL     1      -1.165  -0.457   0.507  1.00  0.00     0.167 A 
HETATM    2  N2  UNL     1      -0.131   0.142   1.117  1.00  0.00    -0.169 N 
ATOM      3  H2  UNL     1      -0.192   0.669   1.988  1.00  0.00     0.186 HD
HETATM    4  C4  UNL     1       0.996  -0.054   0.413  1.00  0.00     0.720 A 
HETATM    5  N6  UNL     1       0.624  -0.792  -0.649  1.00  0.00    -0.088 N 
ATOM      6  H6  UNL     1       1.242  -1.120  -1.391  1.00  0.00     0.214 HD
HETATM    7  O1  UNL     1      -0.673  -1.020  -0.570  1.00  0.00    -0.209 OA
ENDROOT
BRANCH   4   8
HETATM    8  N3  UNL     1       2.199   0.368   0.680  1.00  0.00    -0.116 N 
ATOM      9  H3  UNL     1       2.343   0.922   1.524  1.00  0.00     0.207 HD
BRANCH   8  10
HETATM   10  N4  UNL     1       3.287   0.101  -0.125  1.00  0.00    -0.235 N 
ATOM     11  H4  UNL     1       3.175  -0.323  -1.046  1.00  0.00     0.208 HD
BRANCH  10  12
HETATM   12  N5  UNL     1       4.561   0.439   0.379  1.00  0.00    -0.330 N 
ATOM     13  H52 UNL     1       4.656   0.862   1.302  1.00  0.00     0.178 HD
ATOM     14  H51 UNL     1       5.365   0.242  -0.216  1.00  0.00     0.178 HD
ENDBRANCH  10  12
ENDBRANCH   8  10
ENDBRANCH   4   8
BRANCH   1  15
HETATM   15  C2  UNL     1      -2.604  -0.500   0.934  1.00  0.00     0.131 C 
BRANCH  15  16
HETATM   16  C1  UNL     1      -3.359   0.649   0.362  1.00  0.00     0.060 C 
HETATM   17  N1  UNL     1      -4.619   0.615   0.243  1.00  0.00    -0.411 N 
ATOM     18  H12 UNL     1      -5.112  -0.224   0.550  1.00  0.00     0.155 HD
ATOM     19  H11 UNL     1      -5.136   1.402  -0.149  1.00  0.00     0.155 HD
ENDBRANCH  15  16
ENDBRANCH   1  15
TORSDOF 5
