REMARK  6 active torsions:
REMARK  status: ('A' for Active; 'I' for Inactive)
REMARK    1  A    between atoms: C3_8  and  C4_9 
REMARK    2  A    between atoms: C4_9  and  N4_10 
REMARK    3  A    between atoms: C4_9  and  N5_14 
REMARK    4  A    between atoms: N5_14  and  C5_16 
REMARK    5  A    between atoms: C5_16  and  N6_17 
REMARK    6  A    between atoms: N6_17  and  N7_19 
ROOT
HETATM    1  C4  UNL     1       0.154  -0.199   1.175  1.00  0.00     0.343 C 
ENDROOT
BRANCH   1   2
HETATM    2  C3  UNL     1      -1.143   0.233   0.578  1.00  0.00     0.102 A 
HETATM    3  C1  UNL     1      -1.623   0.006  -0.703  1.00  0.00     0.143 A 
HETATM    4  N1  UNL     1      -0.950  -0.706  -1.731  1.00  0.00    -0.080 NA
HETATM    5  N2  UNL     1      -2.825   0.577  -0.785  1.00  0.00    -0.339 N 
HETATM    6  C2  UNL     1      -3.095   1.143   0.395  1.00  0.00     0.182 A 
ATOM      7  H2  UNL     1      -3.432   0.581  -1.605  1.00  0.00     0.167 HD
HETATM    8  N3  UNL     1      -2.070   0.940   1.244  1.00  0.00    -0.350 N 
ATOM      9  H3  UNL     1      -2.009   1.262   2.210  1.00  0.00     0.166 HD
ENDBRANCH   1   2
BRANCH   1  10
HETATM   10  N4  UNL     1      -0.110  -0.738   2.518  1.00  0.00    -0.052 N 
ATOM     11  H43 UNL     1      -0.616  -0.081   3.112  1.00  0.00     0.277 HD
ATOM     12  H42 UNL     1      -0.806  -1.483   2.512  1.00  0.00     0.277 HD
ATOM     13  H41 UNL     1       0.777  -1.033   2.926  1.00  0.00     0.277 HD
ENDBRANCH   1  10
BRANCH   1  14
HETATM   14  N5  UNL     1       0.773  -1.228   0.402  1.00  0.00    -0.308 N 
ATOM     15  H5  UNL     1       0.338  -2.147   0.319  1.00  0.00     0.173 HD
BRANCH  14  16
HETATM   16  C5  UNL     1       1.870  -0.982  -0.179  1.00  0.00     0.065 C 
BRANCH  16  17
HETATM   17  N6  UNL     1       2.797  -0.651  -1.006  1.00  0.00    -0.257 N 
ATOM     18  H6  UNL     1       3.064  -1.265  -1.775  1.00  0.00     0.197 HD
BRANCH  17  19
HETATM   19  N7  UNL     1       3.418   0.570  -0.813  1.00  0.00    -0.337 N 
ATOM     20  H72 UNL     1       3.139   1.173  -0.039  1.00  0.00     0.177 HD
ATOM     21  H71 UNL     1       4.153   0.833  -1.469  1.00  0.00     0.177 HD
ENDBRANCH  17  19
ENDBRANCH  16  17
ENDBRANCH  14  16
ENDBRANCH   1  14
TORSDOF 6
