REMARK  2 active torsions:
REMARK  status: ('A' for Active; 'I' for Inactive)
REMARK    1  A    between atoms: C2_3  and  N2_4 
REMARK    2  A    between atoms: N2_4  and  C3_7 
ROOT
HETATM    1  N1  UNL     1      -3.282   1.718  -0.301  1.00  0.00    -0.196 NA
HETATM    2  C1  UNL     1      -2.896   0.629  -0.105  1.00  0.00     0.086 C 
HETATM    3  C2  UNL     1      -2.455  -0.720   0.116  1.00  0.00     0.360 C 
ENDROOT
BRANCH   3   4
HETATM    4  N2  UNL     1      -1.254  -0.878   0.874  1.00  0.00    -0.025 N 
ATOM      5  H22 UNL     1      -1.333  -0.416   1.780  1.00  0.00     0.282 HD
ATOM      6  H21 UNL     1      -1.146  -1.843   1.187  1.00  0.00     0.282 HD
BRANCH   4   7
HETATM    7  C3  UNL     1      -0.099  -0.440   0.184  1.00  0.00     0.393 C 
HETATM    8  N3  UNL     1       0.196   0.950   0.162  1.00  0.00    -0.330 N 
HETATM    9  C4  UNL     1       1.594   1.047  -0.120  1.00  0.00     0.142 C 
ATOM     10  H3  UNL     1      -0.455   1.720   0.316  1.00  0.00     0.165 HD
HETATM   11  N4  UNL     1       2.276   2.013  -0.630  1.00  0.00    -0.383 N 
HETATM   12  C5  UNL     1       2.185  -0.234   0.302  1.00  0.00     0.142 C 
ATOM     13  H42 UNL     1       1.867   2.900  -0.922  1.00  0.00     0.157 HD
ATOM     14  H41 UNL     1       3.274   2.082  -0.831  1.00  0.00     0.157 HD
HETATM   15  N5  UNL     1       3.423  -0.589   0.231  1.00  0.00    -0.383 N 
HETATM   16  N6  UNL     1       1.099  -1.006   0.803  1.00  0.00    -0.330 N 
ATOM     17  H52 UNL     1       4.201  -0.036  -0.128  1.00  0.00     0.157 HD
ATOM     18  H51 UNL     1       3.832  -1.476   0.523  1.00  0.00     0.157 HD
ATOM     19  H6  UNL     1       1.146  -1.788   1.456  1.00  0.00     0.165 HD
ENDBRANCH   4   7
ENDBRANCH   3   4
TORSDOF 2
