REMARK  4 active torsions:
REMARK  status: ('A' for Active; 'I' for Inactive)
REMARK    1  A    between atoms: C3_3  and  C4_4 
REMARK    2  A    between atoms: N1_5  and  N2_7 
REMARK       I    between atoms: N2_7  and  C5_9 
REMARK       I    between atoms: C5_9  and  N3_11 
REMARK    3  A    between atoms: N3_11  and  S1_13 
REMARK    4  A    between atoms: C9_21  and  C10_22 
ROOT
HETATM    1  C4  UNL     1       0.077  -1.553  -0.588  1.00  0.00     0.090 C 
HETATM    2  N1  UNL     1       1.312  -1.895  -0.512  1.00  0.00    -0.311 N 
ATOM      3  H1  UNL     1       1.545  -2.850  -0.241  1.00  0.00     0.185 HD
ENDROOT
BRANCH   1   4
HETATM    4  C3  UNL     1      -0.365  -0.210  -0.968  1.00  0.00     0.068 A 
HETATM    5  C2  UNL     1      -0.622   0.743   0.144  1.00  0.00    -0.072 A 
HETATM    6  C1  UNL     1       0.183   1.347   0.998  1.00  0.00     0.015 C 
HETATM    7  C13 UNL     1      -2.090   0.736  -0.107  1.00  0.00     0.059 A 
HETATM    8  C7  UNL     1      -1.845  -0.180  -1.274  1.00  0.00     0.109 A 
HETATM    9  C9  UNL     1      -2.833  -0.058   0.904  1.00  0.00     0.144 C 
HETATM   10  C8  UNL     1      -2.545  -1.422  -0.863  1.00  0.00     0.265 C 
HETATM   11  O4  UNL     1      -2.929  -2.379  -1.592  1.00  0.00    -0.265 OA
HETATM   12  O5  UNL     1      -2.737  -1.402   0.511  1.00  0.00    -0.315 OA
BRANCH   9  13
HETATM   13  C10 UNL     1      -4.296   0.291   0.996  1.00  0.00     0.008 C 
HETATM   14  C11 UNL     1      -4.552   1.712   1.408  1.00  0.00     0.012 C 
HETATM   15  C12 UNL     1      -5.058  -0.038  -0.252  1.00  0.00     0.012 C 
ENDBRANCH   9  13
ENDBRANCH   1   4
BRANCH   2  16
HETATM   16  N2  UNL     1       2.339  -1.003  -0.788  1.00  0.00    -0.252 N 
HETATM   17  C5  UNL     1       3.562  -0.975  -0.078  1.00  0.00     0.348 C 
HETATM   18  O1  UNL     1       3.753  -1.782   0.849  1.00  0.00    -0.245 OA
HETATM   19  N3  UNL     1       4.552  -0.036  -0.422  1.00  0.00    -0.235 N 
ATOM     20  H3  UNL     1       4.397   0.628  -1.181  1.00  0.00     0.183 HD
ATOM     21  H2  UNL     1       2.204  -0.331  -1.544  1.00  0.00     0.191 HD
BRANCH  19  22
HETATM   22  S1  UNL     1       6.035  -0.027   0.464  1.00  0.00     0.230 S 
HETATM   23  C6  UNL     1       7.357   0.302  -0.657  1.00  0.00     0.186 C 
HETATM   24  O2  UNL     1       5.993   0.983   1.586  1.00  0.00    -0.206 OA
HETATM   25  O3  UNL     1       6.265  -1.396   1.069  1.00  0.00    -0.206 OA
ENDBRANCH  19  22
ENDBRANCH   2  16
TORSDOF 4
