REMARK  4 active torsions:
REMARK  status: ('A' for Active; 'I' for Inactive)
REMARK    1  A    between atoms: C3_4  and  C4_5 
REMARK    2  A    between atoms: N2_11  and  C10_12 
REMARK    3  A    between atoms: C10_12  and  C11_13 
REMARK    4  A    between atoms: C11_13  and  N3_14 
ROOT
HETATM    1  C4  UNL     1       3.734   0.704   0.223  1.00  0.00     0.012 C 
HETATM    2  C5  UNL     1       3.045   1.937  -0.312  1.00  0.00     0.011 C 
HETATM    3  C6  UNL     1       1.675   1.421  -0.678  1.00  0.00     0.033 C 
HETATM    4  C7  UNL     1       1.491   0.089   0.014  1.00  0.00     0.049 C 
HETATM    5  C8  UNL     1       2.612   0.039   1.005  1.00  0.00     0.041 C 
HETATM    6  C9  UNL     1       0.126   0.055   0.664  1.00  0.00     0.156 C 
HETATM    7  N2  UNL     1      -0.670  -0.373  -0.482  1.00  0.00    -0.352 N 
HETATM    8  C16 UNL     1       0.174  -1.274  -1.184  1.00  0.00     0.187 C 
HETATM    9  N4  UNL     1      -0.314  -2.281  -2.046  1.00  0.00    -0.064 NA
HETATM   10  N5  UNL     1       1.427  -1.007  -0.896  1.00  0.00    -0.354 N 
ATOM     11  H5  UNL     1       2.234  -1.508  -1.268  1.00  0.00     0.163 HD
ENDROOT
BRANCH   1  12
HETATM   12  C3  UNL     1       4.885   1.033   1.081  1.00  0.00    -0.001 C 
HETATM   13  C2  UNL     1       6.056   0.509   0.819  1.00  0.00     0.017 C 
HETATM   14  C1  UNL     1       6.219  -0.403  -0.326  1.00  0.00     0.064 C 
HETATM   15  N1  UNL     1       7.170   0.815   1.632  1.00  0.00    -0.108 NA
ENDBRANCH   1  12
BRANCH   7  16
HETATM   16  C10 UNL     1      -2.003   0.073  -0.754  1.00  0.00     0.145 C 
BRANCH  16  17
HETATM   17  C11 UNL     1      -2.969  -0.470   0.287  1.00  0.00     0.141 C 
BRANCH  17  18
HETATM   18  N3  UNL     1      -4.274   0.011   0.009  1.00  0.00    -0.390 N 
HETATM   19  C12 UNL     1      -4.902  -0.472  -1.153  1.00  0.00     0.068 C 
HETATM   20  C13 UNL     1      -6.358  -0.088  -1.286  1.00  0.00     0.118 C 
HETATM   21  S1  UNL     1      -7.242  -0.937   0.067  1.00  0.00    -0.162 SA
HETATM   22  C14 UNL     1      -6.023  -0.977   1.443  1.00  0.00     0.094 C 
HETATM   23  C15 UNL     1      -5.103   0.195   1.166  1.00  0.00     0.132 C 
ENDBRANCH  17  18
ENDBRANCH  16  17
ENDBRANCH   7  16
TORSDOF 4
