REMARK  7 active torsions:
REMARK  status: ('A' for Active; 'I' for Inactive)
REMARK    1  A    between atoms: C2_2  and  C3_3 
REMARK    2  A    between atoms: C3_3  and  C4_4 
REMARK    3  A    between atoms: C4_4  and  C5_5 
REMARK    4  A    between atoms: C5_5  and  C6_6 
REMARK    5  A    between atoms: C8_11  and  C9_12 
REMARK    6  A    between atoms: C12_17  and  O2_18 
REMARK    7  A    between atoms: C14_20  and  O3_21 
ROOT
HETATM    1  C9  UNL     1      -2.398   1.969  -1.566  1.00  0.00     0.143 C 
HETATM    2  C10 UNL     1      -3.827   1.833  -1.756  1.00  0.00     0.112 C 
HETATM    3  N2  UNL     1      -4.994   1.784  -1.918  1.00  0.00    -0.191 NA
HETATM    4  C11 UNL     1      -1.859   3.165  -2.245  1.00  0.00     0.112 C 
HETATM    5  N3  UNL     1      -1.474   4.126  -2.799  1.00  0.00    -0.191 NA
ENDROOT
BRANCH   1   6
HETATM    6  C8  UNL     1      -1.655   1.163  -0.889  1.00  0.00     0.099 A 
HETATM    7  C7  UNL     1      -0.292   1.447  -0.798  1.00  0.00     0.261 A 
HETATM    8  N1  UNL     1       0.561   0.686  -0.051  1.00  0.00    -0.320 N 
HETATM    9  O1  UNL     1       0.198   2.413  -1.401  1.00  0.00    -0.267 OA
HETATM   10  C6  UNL     1       0.183  -0.383   0.652  1.00  0.00     0.071 A 
ATOM     11  H1  UNL     1       1.546   0.951  -0.029  1.00  0.00     0.169 HD
HETATM   12  C14 UNL     1      -1.189  -0.682   0.567  1.00  0.00     0.127 A 
HETATM   13  C12 UNL     1      -2.072   0.085  -0.196  1.00  0.00     0.121 A 
BRANCH  10  14
HETATM   14  C5  UNL     1       0.943  -1.153   1.388  1.00  0.00     0.032 C 
BRANCH  14  15
HETATM   15  C4  UNL     1       2.326  -1.158   1.700  1.00  0.00     0.002 C 
BRANCH  15  16
HETATM   16  C3  UNL     1       3.324  -0.423   1.382  1.00  0.00    -0.001 C 
BRANCH  16  17
HETATM   17  C2  UNL     1       4.666  -0.774   1.940  1.00  0.00    -0.010 C 
HETATM   18  C1  UNL     1       5.746  -0.073   1.664  1.00  0.00     0.011 C 
ENDBRANCH  16  17
ENDBRANCH  15  16
ENDBRANCH  14  15
ENDBRANCH  10  14
BRANCH  12  19
HETATM   19  O3  UNL     1      -1.689  -1.766   1.260  1.00  0.00    -0.356 OA
ATOM     20  H3  UNL     1      -2.616  -1.968   1.203  1.00  0.00     0.218 HD
ENDBRANCH  12  19
BRANCH  13  21
HETATM   21  O2  UNL     1      -3.416  -0.323  -0.228  1.00  0.00    -0.352 OA
HETATM   22  C13 UNL     1      -3.781  -1.365  -1.160  1.00  0.00     0.210 C 
ENDBRANCH  13  21
ENDBRANCH   1   6
TORSDOF 7
