REMARK  4 active torsions:
REMARK  status: ('A' for Active; 'I' for Inactive)
REMARK    1  A    between atoms: N1_1  and  S1_4 
REMARK    2  A    between atoms: S1_4  and  C1_7 
REMARK    3  A    between atoms: C4_10  and  C5_11 
REMARK    4  A    between atoms: C5_11  and  N2_12 
ROOT
HETATM    1  C1  UNL     1       2.669  -0.084  -0.357  1.00  0.00     0.079 A 
HETATM    2  C2  UNL     1       2.124   1.146  -0.055  1.00  0.00     0.026 A 
HETATM    3  C3  UNL     1       0.800   1.462  -0.383  1.00  0.00     0.010 A 
HETATM    4  C4  UNL     1       0.017   0.532  -1.021  1.00  0.00    -0.040 A 
HETATM    5  C10 UNL     1       0.547  -0.702  -1.331  1.00  0.00     0.010 A 
HETATM    6  C11 UNL     1       1.867  -1.023  -1.006  1.00  0.00     0.026 A 
ENDROOT
BRANCH   4   7
HETATM    7  C5  UNL     1      -1.381   0.834  -1.376  1.00  0.00     0.171 C 
BRANCH   7   8
HETATM    8  N2  UNL     1      -2.348   0.416  -0.382  1.00  0.00    -0.305 N 
HETATM    9  C6  UNL     1      -2.880  -0.841  -0.439  1.00  0.00     0.101 A 
HETATM   10  C7  UNL     1      -3.800  -1.289   0.484  1.00  0.00     0.092 A 
HETATM   11  C8  UNL     1      -4.203  -0.461   1.495  1.00  0.00     0.250 A 
HETATM   12  O3  UNL     1      -5.048  -0.817   2.374  1.00  0.00    -0.268 OA
HETATM   13  N3  UNL     1      -3.675   0.771   1.542  1.00  0.00    -0.275 N 
HETATM   14  C9  UNL     1      -2.772   1.188   0.623  1.00  0.00     0.329 A 
ATOM     15  H3  UNL     1      -3.960   1.408   2.286  1.00  0.00     0.173 HD
HETATM   16  O4  UNL     1      -2.304   2.354   0.708  1.00  0.00    -0.246 OA
ENDBRANCH   7   8
ENDBRANCH   4   7
BRANCH   1  17
HETATM   17  S1  UNL     1       4.329  -0.428   0.075  1.00  0.00     0.256 S 
HETATM   18  O1  UNL     1       4.973  -1.345  -0.948  1.00  0.00    -0.201 OA
HETATM   19  O2  UNL     1       5.156   0.836   0.074  1.00  0.00    -0.201 OA
BRANCH  17  20
HETATM   20  N1  UNL     1       4.450  -1.117   1.647  1.00  0.00    -0.324 N 
ATOM     21  H12 UNL     1       4.894  -2.014   1.846  1.00  0.00     0.169 HD
ATOM     22  H11 UNL     1       4.017  -0.501   2.335  1.00  0.00     0.169 HD
ENDBRANCH  17  20
ENDBRANCH   1  17
TORSDOF 4
