REMARK  2 active torsions:
REMARK  status: ('A' for Active; 'I' for Inactive)
REMARK    1  A    between atoms: C2_2  and  C3_4 
REMARK    2  A    between atoms: C5_6  and  C6_7 
ROOT
HETATM    1  C6  UNL     1       0.967  -0.386   0.540  1.00  0.00     0.012 C 
HETATM    2  C7  UNL     1       0.329  -1.763   0.448  1.00  0.00     0.009 C 
HETATM    3  C8  UNL     1      -0.856  -1.833  -0.442  1.00  0.00     0.005 C 
HETATM    4  C9  UNL     1      -2.148  -1.395   0.148  1.00  0.00    -0.011 C 
HETATM    5  C10 UNL     1      -2.466  -2.076   1.452  1.00  0.00     0.010 C 
HETATM    6  C11 UNL     1      -2.333   0.104   0.229  1.00  0.00     0.034 C 
HETATM    7  C12 UNL     1      -2.744   0.647  -1.110  1.00  0.00     0.037 C 
HETATM    8  C13 UNL     1      -3.058   2.112  -1.040  1.00  0.00     0.210 C 
HETATM    9  O2  UNL     1      -1.984   2.774  -0.463  1.00  0.00    -0.238 OA
HETATM   10  O3  UNL     1      -2.290   2.917   0.826  1.00  0.00    -0.202 OA
HETATM   11  C14 UNL     1      -1.469   2.075   1.526  1.00  0.00     0.371 C 
HETATM   12  O4  UNL     1      -2.028   1.259   2.477  1.00  0.00    -0.201 OA
HETATM   13  O5  UNL     1      -1.051   0.388   2.203  1.00  0.00    -0.221 OA
HETATM   14  C15 UNL     1      -1.189   0.774   0.872  1.00  0.00     0.156 C 
HETATM   15  C16 UNL     1       0.099   0.692   0.054  1.00  0.00     0.055 C 
ENDROOT
BRANCH   1  16
HETATM   16  C5  UNL     1       2.325  -0.362   0.040  1.00  0.00    -0.012 C 
HETATM   17  C3  UNL     1       3.029   0.357  -0.736  1.00  0.00    -0.020 C 
HETATM   18  C4  UNL     1       2.595   1.557  -1.450  1.00  0.00     0.052 C 
BRANCH  17  19
HETATM   19  C2  UNL     1       4.448  -0.032  -0.957  1.00  0.00     0.151 C 
HETATM   20  C1  UNL     1       5.029  -1.226  -0.292  1.00  0.00     0.096 C 
HETATM   21  O1  UNL     1       5.188   0.637  -1.709  1.00  0.00    -0.293 OA
ENDBRANCH  17  19
ENDBRANCH   1  16
TORSDOF 2
