REMARK  11 active torsions:
REMARK  status: ('A' for Active; 'I' for Inactive)
REMARK    1  A    between atoms: S1_2  and  N1_4 
REMARK    2  A    between atoms: S1_2  and  C21_39 
REMARK    3  A    between atoms: N1_4  and  C1_6 
REMARK    4  A    between atoms: C3_8  and  C4_9 
REMARK    5  A    between atoms: C4_9  and  O3_10 
REMARK    6  A    between atoms: C4_9  and  C5_12 
REMARK    7  A    between atoms: C5_12  and  N2_13 
REMARK    8  A    between atoms: N2_13  and  C6_16 
REMARK    9  A    between atoms: C9_19  and  C10_21 
REMARK   10  A    between atoms: C11_26  and  C12_27 
REMARK   11  A    between atoms: C24_42  and  C25_43 
ROOT
HETATM    1  C4  UNL     1      -2.949  -2.653   0.892  1.00  0.00     0.178 C 
ENDROOT
BRANCH   1   2
HETATM    2  C3  UNL     1      -3.454  -2.277  -0.441  1.00  0.00    -0.009 A 
HETATM    3  C2  UNL     1      -4.816  -2.092  -0.689  1.00  0.00     0.060 A 
HETATM    4  C1  UNL     1      -4.931  -1.754  -2.012  1.00  0.00     0.115 A 
HETATM    5  N5  UNL     1      -3.675  -1.726  -2.586  1.00  0.00    -0.351 N 
HETATM    6  C20 UNL     1      -2.815  -2.044  -1.615  1.00  0.00     0.099 A 
ATOM      7  H5  UNL     1      -3.450  -1.507  -3.556  1.00  0.00     0.166 HD
BRANCH   4   8
HETATM    8  N1  UNL     1      -6.090  -1.442  -2.746  1.00  0.00    -0.266 N 
ATOM      9  H1  UNL     1      -5.979  -1.282  -3.747  1.00  0.00     0.180 HD
BRANCH   8  10
HETATM   10  S1  UNL     1      -7.665  -1.309  -2.104  1.00  0.00     0.264 S 
HETATM   11  O1  UNL     1      -8.693  -1.164  -3.211  1.00  0.00    -0.200 OA
HETATM   12  O2  UNL     1      -8.056  -2.610  -1.408  1.00  0.00    -0.200 OA
BRANCH  10  13
HETATM   13  C21 UNL     1      -7.779  -0.031  -0.960  1.00  0.00     0.082 A 
HETATM   14  C22 UNL     1      -7.726  -0.167   0.397  1.00  0.00     0.026 A 
HETATM   15  C23 UNL     1      -7.828   0.891   1.270  1.00  0.00     0.021 A 
HETATM   16  C24 UNL     1      -7.992   2.163   0.799  1.00  0.00     0.086 A 
HETATM   17  C26 UNL     1      -8.049   2.329  -0.570  1.00  0.00     0.133 A 
HETATM   18  F5  UNL     1      -8.209   3.622  -0.995  1.00  0.00    -0.205 F 
HETATM   19  C27 UNL     1      -7.946   1.284  -1.421  1.00  0.00     0.068 A 
BRANCH  16  20
HETATM   20  C25 UNL     1      -8.107   3.337   1.726  1.00  0.00     0.420 C 
HETATM   21  F2  UNL     1      -9.334   3.958   1.532  1.00  0.00    -0.166 F 
HETATM   22  F3  UNL     1      -7.068   4.196   1.397  1.00  0.00    -0.166 F 
HETATM   23  F4  UNL     1      -7.929   2.884   3.000  1.00  0.00    -0.166 F 
ENDBRANCH  16  20
ENDBRANCH  10  13
ENDBRANCH   8  10
ENDBRANCH   4   8
ENDBRANCH   1   2
BRANCH   1  24
HETATM   24  O3  UNL     1      -3.581  -1.898   1.890  1.00  0.00    -0.389 OA
ATOM     25  H3  UNL     1      -3.256  -2.140   2.749  1.00  0.00     0.210 HD
ENDBRANCH   1  24
BRANCH   1  26
HETATM   26  C5  UNL     1      -1.473  -2.486   1.050  1.00  0.00     0.269 C 
BRANCH  26  27
HETATM   27  N2  UNL     1      -1.046  -1.111   0.924  1.00  0.00    -0.068 N 
ATOM     28  H22 UNL     1      -1.332  -0.691   0.039  1.00  0.00     0.277 HD
ATOM     29  H21 UNL     1      -1.555  -0.484   1.547  1.00  0.00     0.277 HD
BRANCH  27  30
HETATM   30  C6  UNL     1       0.408  -1.055   1.132  1.00  0.00     0.186 C 
HETATM   31  C7  UNL     1       1.065  -1.843   0.052  1.00  0.00     0.036 C 
HETATM   32  C8  UNL     1       2.493  -1.418  -0.215  1.00  0.00     0.054 C 
HETATM   33  C9  UNL     1       2.639   0.039  -0.500  1.00  0.00     0.169 C 
HETATM   34  F1  UNL     1       2.576   0.197  -1.895  1.00  0.00    -0.234 F 
HETATM   35  C18 UNL     1       1.649   0.919   0.165  1.00  0.00     0.054 C 
HETATM   36  C19 UNL     1       0.919   0.329   1.324  1.00  0.00     0.036 C 
BRANCH  33  37
HETATM   37  C10 UNL     1       4.069   0.386  -0.160  1.00  0.00     0.180 A 
HETATM   38  N3  UNL     1       4.439   1.201   0.850  1.00  0.00    -0.279 N 
HETATM   39  N4  UNL     1       5.764   1.273   0.841  1.00  0.00    -0.281 N 
ATOM     40  H3  UNL     1       3.814   1.675   1.502  1.00  0.00     0.189 HD
HETATM   41  C11 UNL     1       6.208   0.506  -0.170  1.00  0.00     0.144 A 
ATOM     42  H4  UNL     1       6.342   1.813   1.485  1.00  0.00     0.189 HD
HETATM   43  O4  UNL     1       5.151  -0.009  -0.746  1.00  0.00    -0.278 OA
BRANCH  41  44
HETATM   44  C12 UNL     1       7.648   0.295  -0.556  1.00  0.00     0.062 C 
HETATM   45  C13 UNL     1       8.532   0.020   0.610  1.00  0.00     0.013 C 
HETATM   46  C14 UNL     1       9.703   0.988   0.540  1.00  0.00     0.001 C 
HETATM   47  C15 UNL     1       9.144   2.378   0.792  1.00  0.00     0.000 C 
HETATM   48  C16 UNL     1       8.240   2.720  -0.378  1.00  0.00     0.001 C 
HETATM   49  C17 UNL     1       8.039   1.562  -1.306  1.00  0.00     0.013 C 
ENDBRANCH  41  44
ENDBRANCH  33  37
ENDBRANCH  27  30
ENDBRANCH  26  27
ENDBRANCH   1  26
TORSDOF 11
