REMARK  4 active torsions:
REMARK  status: ('A' for Active; 'I' for Inactive)
REMARK    1  A    between atoms: C4_7  and  C5_8 
REMARK       I    between atoms: C5_8  and  N2_10 
REMARK    2  A    between atoms: N2_10  and  C6_12 
REMARK    3  A    between atoms: C9_15  and  C10_16 
REMARK    4  A    between atoms: C14_21  and  O3_22 
ROOT
HETATM    1  C6  UNL     1       2.742  -1.241   0.713  1.00  0.00     0.084 C 
HETATM    2  C7  UNL     1       2.218  -2.074  -0.441  1.00  0.00     0.025 C 
HETATM    3  C8  UNL     1       0.933  -1.430  -0.944  1.00  0.00     0.007 C 
HETATM    4  C9  UNL     1      -0.203  -1.740   0.047  1.00  0.00    -0.008 C 
HETATM    5  C21 UNL     1       0.311  -1.272   1.393  1.00  0.00     0.007 C 
HETATM    6  C22 UNL     1       1.595  -0.479   1.293  1.00  0.00     0.025 C 
ENDROOT
BRANCH   4   7
HETATM    7  C10 UNL     1      -1.415  -1.035  -0.409  1.00  0.00     0.029 C 
HETATM    8  C11 UNL     1      -1.259   0.476  -0.460  1.00  0.00     0.283 C 
HETATM    9  N3  UNL     1      -2.623   0.832  -0.604  1.00  0.00     0.136 N 
HETATM   10  C12 UNL     1      -3.175   0.108   0.564  1.00  0.00     0.238 C 
HETATM   11  C15 UNL     1      -3.005   2.152  -0.235  1.00  0.00     0.321 C 
HETATM   12  C13 UNL     1      -4.600   0.409   0.359  1.00  0.00     0.074 C 
HETATM   13  C17 UNL     1      -2.677  -1.257   0.330  1.00  0.00    -0.004 C 
HETATM   14  C14 UNL     1      -4.498   1.922   0.062  1.00  0.00     0.191 C 
HETATM   15  C18 UNL     1      -2.646  -2.027   1.610  1.00  0.00     0.012 C 
HETATM   16  C20 UNL     1      -3.610  -2.290  -0.228  1.00  0.00     0.012 C 
HETATM   17  C19 UNL     1      -3.994  -2.641   1.201  1.00  0.00     0.002 C 
HETATM   18  C16 UNL     1      -2.797   3.150  -1.322  1.00  0.00     0.090 C 
HETATM   19  F1  UNL     1      -2.456   2.557   0.976  1.00  0.00    -0.206 F 
BRANCH  14  20
HETATM   20  O3  UNL     1      -5.221   2.277  -1.054  1.00  0.00    -0.390 OA
ATOM     21  H3  UNL     1      -5.158   3.207  -1.237  1.00  0.00     0.210 HD
ENDBRANCH  14  20
ENDBRANCH   4   7
BRANCH   1  22
HETATM   22  N2  UNL     1       3.700  -0.240   0.227  1.00  0.00    -0.351 N 
HETATM   23  C5  UNL     1       4.988  -0.167   0.743  1.00  0.00     0.271 C 
HETATM   24  O2  UNL     1       5.271  -1.027   1.658  1.00  0.00    -0.266 OA
ATOM     25  H2  UNL     1       3.415   0.413  -0.502  1.00  0.00     0.163 HD
BRANCH  23  26
HETATM   26  C4  UNL     1       6.051   0.748   0.384  1.00  0.00     0.131 A 
HETATM   27  C2  UNL     1       6.032   1.750  -0.549  1.00  0.00     0.082 A 
HETATM   28  C1  UNL     1       4.958   2.186  -1.444  1.00  0.00     0.079 C 
HETATM   29  O1  UNL     1       7.234   2.332  -0.535  1.00  0.00    -0.308 OA
HETATM   30  C3  UNL     1       8.004   1.758   0.348  1.00  0.00     0.234 A 
HETATM   31  N1  UNL     1       7.302   0.777   0.931  1.00  0.00    -0.340 N 
ATOM     32  H1  UNL     1       7.645   0.155   1.663  1.00  0.00     0.167 HD
ENDBRANCH  23  26
ENDBRANCH   1  22
TORSDOF 4
