REMARK  5 active torsions:
REMARK  status: ('A' for Active; 'I' for Inactive)
REMARK    1  A    between atoms: C5_9  and  C6_10 
REMARK    2  A    between atoms: C9_14  and  N4_15 
REMARK       I    between atoms: N4_15  and  C10_17 
REMARK    3  A    between atoms: C10_17  and  O2_19 
REMARK    4  A    between atoms: O2_19  and  C11_20 
REMARK    5  A    between atoms: C17_26  and  C19_28 
ROOT
HETATM    1  C6  UNL     1      -2.207  -1.055   0.885  1.00  0.00     0.096 C 
HETATM    2  N3  UNL     1      -1.521  -1.160  -0.269  1.00  0.00    -0.381 N 
HETATM    3  C7  UNL     1      -1.664  -0.428  -1.428  1.00  0.00     0.086 C 
HETATM    4  C8  UNL     1      -0.319  -0.041  -2.003  1.00  0.00     0.050 C 
HETATM    5  C9  UNL     1       0.773  -0.588  -1.074  1.00  0.00     0.090 C 
HETATM    6  C15 UNL     1       0.569  -2.075  -0.991  1.00  0.00     0.051 C 
HETATM    7  C16 UNL     1      -0.862  -2.376  -0.615  1.00  0.00     0.095 C 
HETATM    8  C17 UNL     1      -1.636  -2.814  -1.818  1.00  0.00    -0.009 C 
HETATM    9  C18 UNL     1      -0.793  -3.569  -2.820  1.00  0.00     0.018 C 
HETATM   10  C20 UNL     1      -2.184  -1.533  -2.381  1.00  0.00     0.037 C 
ENDROOT
BRANCH   1  11
HETATM   11  C5  UNL     1      -2.019   0.139   1.730  1.00  0.00     0.286 C 
HETATM   12  N1  UNL     1      -2.820   0.082   2.947  1.00  0.00     0.097 N 
HETATM   13  C1  UNL     1      -2.081   0.276   4.149  1.00  0.00     0.310 C 
HETATM   14  C2  UNL     1      -3.915   0.991   2.887  1.00  0.00     0.300 C 
HETATM   15  C3  UNL     1      -3.460   2.437   2.804  1.00  0.00     0.262 C 
HETATM   16  N2  UNL     1      -2.290   2.542   1.951  1.00  0.00    -0.071 N 
HETATM   17  C4  UNL     1      -2.265   1.427   0.996  1.00  0.00     0.273 C 
ATOM     18  H22 UNL     1      -2.237   3.447   1.484  1.00  0.00     0.277 HD
ATOM     19  H21 UNL     1      -1.427   2.603   2.491  1.00  0.00     0.277 HD
ENDBRANCH   1  11
BRANCH   8  20
HETATM   20  C19 UNL     1      -2.808  -3.657  -1.348  1.00  0.00     0.126 C 
HETATM   21 CL1  UNL     1      -3.743  -4.193  -2.770  1.00  0.00    -0.130 Cl
ENDBRANCH   8  20
BRANCH   5  22
HETATM   22  N4  UNL     1       2.070  -0.171  -1.468  1.00  0.00    -0.332 N 
HETATM   23  C10 UNL     1       2.908   0.701  -0.698  1.00  0.00     0.361 C 
HETATM   24  O1  UNL     1       2.542   1.166   0.411  1.00  0.00    -0.238 OA
ATOM     25  H4  UNL     1       2.431  -0.514  -2.358  1.00  0.00     0.165 HD
BRANCH  23  26
HETATM   26  O2  UNL     1       4.169   1.074  -1.144  1.00  0.00    -0.294 OA
BRANCH  26  27
HETATM   27  C11 UNL     1       5.037   1.936  -0.414  1.00  0.00     0.061 C 
HETATM   28  C12 UNL     1       5.407   1.404   0.936  1.00  0.00     0.046 C 
HETATM   29  C13 UNL     1       6.304   2.067  -1.234  1.00  0.00     0.046 C 
HETATM   30  C14 UNL     1       4.433   3.324  -0.287  1.00  0.00     0.046 C 
ENDBRANCH  26  27
ENDBRANCH  23  26
ENDBRANCH   5  22
TORSDOF 5
