REMARK  1 active torsions:
REMARK  status: ('A' for Active; 'I' for Inactive)
REMARK    1  A    between atoms: C2_2  and  N1_3 
ROOT
HETATM    1  N1  UNL     1      -1.303   0.131  -0.473  1.00  0.00    -0.296 N 
HETATM    2  C3  UNL     1      -2.078   1.235  -0.516  1.00  0.00     0.330 A 
HETATM    3  O1  UNL     1      -3.304   1.081  -0.794  1.00  0.00    -0.246 OA
HETATM    4  N2  UNL     1      -1.636   2.463  -0.287  1.00  0.00    -0.273 N 
ATOM      5  H2  UNL     1      -2.283   3.250  -0.338  1.00  0.00     0.173 HD
HETATM    6  C4  UNL     1      -0.337   2.684   0.013  1.00  0.00     0.278 A 
HETATM    7  O2  UNL     1       0.119   3.834   0.237  1.00  0.00    -0.265 OA
HETATM    8  C5  UNL     1       0.491   1.604   0.071  1.00  0.00     0.130 A 
HETATM    9  N3  UNL     1       1.791   1.489   0.336  1.00  0.00    -0.352 N 
ATOM     10  H3  UNL     1       2.404   2.275   0.552  1.00  0.00     0.166 HD
HETATM   11  C6  UNL     1       2.192   0.216   0.283  1.00  0.00     0.032 A 
HETATM   12  C7  UNL     1       3.587  -0.276   0.527  1.00  0.00     0.070 C 
HETATM   13  C8  UNL     1       1.082  -0.516  -0.035  1.00  0.00     0.098 A 
HETATM   14  N4  UNL     1       1.025  -1.923  -0.199  1.00  0.00    -0.098 NA
HETATM   15  C9  UNL     1       0.001   0.325  -0.174  1.00  0.00     0.097 A 
ENDROOT
BRANCH   1  16
HETATM   16  C2  UNL     1      -1.835  -1.178  -0.729  1.00  0.00     0.130 C 
HETATM   17  C1  UNL     1      -2.327  -1.847   0.549  1.00  0.00     0.027 C 
ENDBRANCH   1  16
TORSDOF 1
