REMARK  2 active torsions:
REMARK  status: ('A' for Active; 'I' for Inactive)
REMARK    1  A    between atoms: C5_7  and  C7_9 
REMARK    2  A    between atoms: C7_9  and  O3_10 
ROOT
HETATM    1  C1  UNL     1      -1.727   0.857   1.539  1.00  0.00     0.048 C 
HETATM    2  C2  UNL     1      -1.047   0.167   0.347  1.00  0.00     0.082 C 
HETATM    3  C3  UNL     1      -1.897   0.594  -0.860  1.00  0.00     0.048 C 
HETATM    4  C4  UNL     1      -1.162  -1.299   0.565  1.00  0.00     0.247 C 
HETATM    5  O1  UNL     1       0.020  -1.984   0.619  1.00  0.00    -0.235 OA
HETATM    6  O2  UNL     1       1.060  -1.280   0.902  1.00  0.00    -0.199 OA
HETATM    7  C5  UNL     1       1.198  -0.279  -0.033  1.00  0.00     0.215 C 
HETATM    8  C6  UNL     1       1.259  -0.875  -1.428  1.00  0.00     0.084 C 
HETATM    9  O4  UNL     1       0.209   0.644   0.129  1.00  0.00    -0.339 OA
ENDROOT
BRANCH   7  10
HETATM   10  C7  UNL     1       2.536   0.446   0.165  1.00  0.00     0.235 C 
BRANCH  10  11
HETATM   11  O3  UNL     1       2.695   1.454  -0.761  1.00  0.00    -0.395 OA
ATOM     12  H3  UNL     1       3.523   1.903  -0.638  1.00  0.00     0.209 HD
ENDBRANCH  10  11
ENDBRANCH   7  10
TORSDOF 2
