REMARK  2 active torsions:
REMARK  status: ('A' for Active; 'I' for Inactive)
REMARK    1  A    between atoms: C2_2  and  C3_4 
REMARK    2  A    between atoms: N1_7  and  O2_8 
ROOT
HETATM    1  C3  UNL     1       0.580   0.255  -0.759  1.00  0.00     0.137 C 
HETATM    2  S1  UNL     1       0.518  -1.483  -1.367  1.00  0.00    -0.138 SA
HETATM    3  C4  UNL     1      -0.942  -1.961  -0.355  1.00  0.00     0.195 C 
HETATM    4  N1  UNL     1      -1.137  -0.786   0.466  1.00  0.00    -0.185 NA
HETATM    5  C5  UNL     1      -0.871   0.370  -0.343  1.00  0.00     0.103 C 
HETATM    6  C6  UNL     1      -1.166   1.594   0.453  1.00  0.00     0.030 C 
ENDROOT
BRANCH   1   7
HETATM    7  C2  UNL     1       1.478   0.267   0.395  1.00  0.00     0.138 C 
HETATM    8  C1  UNL     1       2.948   0.165   0.221  1.00  0.00     0.092 C 
HETATM    9  O1  UNL     1       1.043   0.361   1.531  1.00  0.00    -0.297 OA
ENDBRANCH   1   7
BRANCH   4  10
HETATM   10  O2  UNL     1      -2.464  -0.727   0.805  1.00  0.00    -0.312 OA
ATOM     11  H2  UNL     1      -2.592   0.045   1.344  1.00  0.00     0.237 HD
ENDBRANCH   4  10
TORSDOF 2
