REMARK  2 active torsions:
REMARK  status: ('A' for Active; 'I' for Inactive)
REMARK    1  A    between atoms: S1_2  and  C2_3 
REMARK    2  A    between atoms: N2_9  and  O1_10 
ROOT
HETATM    1  C2  UNL     1       0.485  -0.300   0.354  1.00  0.00     0.181 C 
HETATM    2  C3  UNL     1      -0.259   0.499  -0.680  1.00  0.00     0.249 C 
HETATM    3  C4  UNL     1      -0.363  -0.237  -1.988  1.00  0.00     0.045 C 
HETATM    4  N1  UNL     1      -1.597   0.531  -0.097  1.00  0.00     0.105 N 
HETATM    5  C5  UNL     1      -1.642   1.656   0.798  1.00  0.00     0.312 C 
HETATM    6  C6  UNL     1      -1.758  -0.741   0.560  1.00  0.00     0.393 C 
HETATM    7  N2  UNL     1      -0.451  -1.263   0.844  1.00  0.00    -0.155 NA
ENDROOT
BRANCH   1   8
HETATM    8  S1  UNL     1       2.032  -0.979  -0.238  1.00  0.00    -0.149 SA
HETATM    9  C1  UNL     1       3.352   0.240   0.081  1.00  0.00     0.091 C 
ENDBRANCH   1   8
BRANCH   7  10
HETATM   10  O1  UNL     1      -0.248  -2.515   0.421  1.00  0.00    -0.310 OA
ATOM     11  H1  UNL     1      -0.870  -3.155   0.747  1.00  0.00     0.237 HD
ENDBRANCH   7  10
TORSDOF 2
