REMARK  12 active torsions:
REMARK  status: ('A' for Active; 'I' for Inactive)
REMARK    1  A    between atoms: C3_3  and  O1_4 
REMARK    2  A    between atoms: O1_4  and  C4_5 
REMARK    3  A    between atoms: C11_15  and  C12_16 
REMARK    4  A    between atoms: C12_16  and  O3_17 
REMARK    5  A    between atoms: O3_17  and  C13_18 
REMARK    6  A    between atoms: C13_18  and  C14_19 
REMARK    7  A    between atoms: C14_19  and  O4_20 
REMARK    8  A    between atoms: C15_22  and  C16_23 
REMARK    9  A    between atoms: C16_23  and  S1_24 
REMARK   10  A    between atoms: S1_24  and  O7_27 
REMARK   11  A    between atoms: O7_27  and  C17_28 
REMARK   12  A    between atoms: C20_31  and  C21_32 
ROOT
HETATM    1  C1  UNL     1       1.473  -3.100  -3.642  1.00  0.00     0.014 C 
HETATM    2  C2  UNL     1       0.720  -2.830  -2.742  1.00  0.00    -0.091 C 
HETATM    3  C3  UNL     1      -0.205  -2.477  -1.643  1.00  0.00     0.261 C 
ENDROOT
BRANCH   3   4
HETATM    4  O1  UNL     1      -0.619  -1.193  -1.861  1.00  0.00    -0.369 OA
BRANCH   4   5
HETATM    5  C4  UNL     1      -1.494  -0.684  -0.932  1.00  0.00     0.166 C 
HETATM    6  C5  UNL     1      -2.827  -0.347  -1.482  1.00  0.00     0.007 A 
HETATM    7  C6  UNL     1      -3.390  -1.217  -2.427  1.00  0.00     0.031 A 
HETATM    8  C10 UNL     1      -3.542   0.763  -1.115  1.00  0.00     0.095 A 
HETATM    9  C7  UNL     1      -4.617  -0.943  -2.950  1.00  0.00     0.013 A 
HETATM   10 BR1  UNL     1      -5.338  -2.167  -4.238  1.00  0.00    -0.051 Br
HETATM   11  C8  UNL     1      -5.318   0.177  -2.569  1.00  0.00     0.041 A 
HETATM   12  C9  UNL     1      -4.797   1.046  -1.649  1.00  0.00     0.046 A 
HETATM   13 BR2  UNL     1      -5.698   2.609  -1.071  1.00  0.00    -0.048 Br
HETATM   14  O2  UNL     1      -2.974   1.613  -0.183  1.00  0.00    -0.341 OA
HETATM   15  C11 UNL     1      -1.896   1.223   0.636  1.00  0.00     0.160 C 
HETATM   16  C15 UNL     1      -0.894   0.520  -0.177  1.00  0.00     0.067 C 
BRANCH  15  17
HETATM   17  C12 UNL     1      -2.442   0.553   1.830  1.00  0.00     0.200 C 
BRANCH  17  18
HETATM   18  O3  UNL     1      -3.210  -0.587   1.554  1.00  0.00    -0.387 OA
BRANCH  18  19
HETATM   19  C13 UNL     1      -3.696  -1.182   2.686  1.00  0.00     0.193 C 
BRANCH  19  20
HETATM   20  C14 UNL     1      -4.587  -0.316   3.528  1.00  0.00     0.190 C 
BRANCH  20  21
HETATM   21  O4  UNL     1      -5.709   0.111   2.843  1.00  0.00    -0.399 OA
ATOM     22  H4  UNL     1      -6.273   0.659   3.376  1.00  0.00     0.209 HD
ENDBRANCH  20  21
ENDBRANCH  19  20
ENDBRANCH  18  19
ENDBRANCH  17  18
ENDBRANCH  15  17
BRANCH  16  23
HETATM   23  C16 UNL     1       0.392   0.114   0.432  1.00  0.00     0.181 C 
BRANCH  23  24
HETATM   24  S1  UNL     1       1.249   1.370   1.325  1.00  0.00     0.271 S 
HETATM   25  O5  UNL     1       0.467   2.033   2.388  1.00  0.00    -0.198 OA
HETATM   26  O6  UNL     1       1.642   2.440   0.318  1.00  0.00    -0.198 OA
BRANCH  24  27
HETATM   27  O7  UNL     1       2.726   0.771   1.961  1.00  0.00    -0.230 OA
BRANCH  27  28
HETATM   28  C17 UNL     1       3.880   0.715   1.213  1.00  0.00     0.128 A 
HETATM   29  C18 UNL     1       4.248  -0.364   0.447  1.00  0.00     0.042 A 
HETATM   30  C19 UNL     1       5.420  -0.382  -0.292  1.00  0.00     0.020 A 
HETATM   31  C20 UNL     1       6.246   0.703  -0.268  1.00  0.00     0.032 A 
HETATM   32  C22 UNL     1       5.911   1.807   0.489  1.00  0.00     0.061 A 
HETATM   33  C23 UNL     1       4.728   1.798   1.223  1.00  0.00     0.151 A 
HETATM   34  F1  UNL     1       4.476   2.928   1.941  1.00  0.00    -0.203 F 
BRANCH  31  35
HETATM   35  C21 UNL     1       7.488   0.680  -1.054  1.00  0.00     0.265 C 
HETATM   36  N1  UNL     1       8.386   1.774  -1.071  1.00  0.00    -0.057 NA
HETATM   37  O8  UNL     1       7.770  -0.333  -1.733  1.00  0.00    -0.271 OA
ENDBRANCH  31  35
ENDBRANCH  27  28
ENDBRANCH  24  27
ENDBRANCH  23  24
ENDBRANCH  16  23
ENDBRANCH   4   5
ENDBRANCH   3   4
TORSDOF 12
