REMARK  12 active torsions:
REMARK  status: ('A' for Active; 'I' for Inactive)
REMARK    1  A    between atoms: C2_2  and  C3_3 
REMARK    2  A    between atoms: C3_3  and  C4_4 
REMARK    3  A    between atoms: C4_4  and  C5_5 
REMARK    4  A    between atoms: C7_11  and  S1_12 
REMARK    5  A    between atoms: S1_12  and  C8_13 
REMARK    6  A    between atoms: C8_13  and  C9_14 
REMARK    7  A    between atoms: C9_14  and  C10_15 
REMARK    8  A    between atoms: C10_15  and  C11_16 
REMARK    9  A    between atoms: C11_16  and  N3_17 
REMARK   10  A    between atoms: N4_20  and  C14_21 
REMARK   11  A    between atoms: C14_21  and  C15_23 
REMARK       I    between atoms: N5_28  and  C19_29 
REMARK   12  A    between atoms: C19_29  and  C20_31 
ROOT
HETATM    1  N3  UNL     1      -0.398   1.052  -0.878  1.00  0.00     0.091 N 
HETATM    2  C12 UNL     1      -1.439   0.489  -1.712  1.00  0.00     0.302 C 
HETATM    3  C13 UNL     1      -2.824   0.695  -1.197  1.00  0.00     0.304 C 
HETATM    4  N4  UNL     1      -2.904   0.279   0.166  1.00  0.00     0.112 N 
HETATM    5  C27 UNL     1      -1.935   0.948   1.013  1.00  0.00     0.304 C 
HETATM    6  C28 UNL     1      -0.524   0.753   0.512  1.00  0.00     0.302 C 
ENDROOT
BRANCH   1   7
HETATM    7  C11 UNL     1       0.853   0.547  -1.419  1.00  0.00     0.272 C 
BRANCH   7   8
HETATM    8  C10 UNL     1       2.051   1.020  -0.672  1.00  0.00     0.031 C 
BRANCH   8   9
HETATM    9  C9  UNL     1       3.291   0.436  -1.300  1.00  0.00     0.012 C 
BRANCH   9  10
HETATM   10  C8  UNL     1       3.500   0.814  -2.730  1.00  0.00     0.082 C 
BRANCH  10  11
HETATM   11  S1  UNL     1       5.045   0.013  -3.319  1.00  0.00    -0.094 SA
BRANCH  11  12
HETATM   12  C7  UNL     1       6.460   0.697  -2.452  1.00  0.00     0.148 A 
HETATM   13  N2  UNL     1       6.876   0.144  -1.296  1.00  0.00    -0.321 N 
HETATM   14  C6  UNL     1       7.951   0.637  -0.615  1.00  0.00     0.141 A 
ATOM     15  H2  UNL     1       6.376  -0.662  -0.921  1.00  0.00     0.169 HD
HETATM   16  N1  UNL     1       8.565   0.298   0.519  1.00  0.00    -0.330 N 
HETATM   17  C30 UNL     1       8.625   1.725  -1.123  1.00  0.00     0.147 A 
HETATM   18  C5  UNL     1       9.593   1.124   0.744  1.00  0.00     0.083 A 
ATOM     19  H1  UNL     1       8.292  -0.476   1.125  1.00  0.00     0.168 HD
HETATM   20  N8  UNL     1       9.623   1.998  -0.269  1.00  0.00    -0.338 N 
ATOM     21  H8  UNL     1      10.299   2.754  -0.375  1.00  0.00     0.167 HD
HETATM   22  C29 UNL     1       8.190   2.280  -2.304  1.00  0.00     0.278 A 
HETATM   23  N7  UNL     1       7.109   1.748  -2.946  1.00  0.00    -0.302 N 
HETATM   24  O2  UNL     1       8.801   3.274  -2.773  1.00  0.00    -0.265 OA
ATOM     25  H7  UNL     1       6.793   2.165  -3.822  1.00  0.00     0.171 HD
BRANCH  18  26
HETATM   26  C4  UNL     1      10.520   1.086   1.892  1.00  0.00     0.076 C 
BRANCH  26  27
HETATM   27  C3  UNL     1      11.711   0.208   1.601  1.00  0.00     0.007 C 
BRANCH  27  28
HETATM   28  C2  UNL     1      11.295  -1.215   1.308  1.00  0.00    -0.004 C 
HETATM   29  C1  UNL     1      12.559  -2.036   1.025  1.00  0.00     0.005 C 
ENDBRANCH  27  28
ENDBRANCH  26  27
ENDBRANCH  18  26
ENDBRANCH  11  12
ENDBRANCH  10  11
ENDBRANCH   9  10
ENDBRANCH   8   9
ENDBRANCH   7   8
ENDBRANCH   1   7
BRANCH   4  30
HETATM   30  C14 UNL     1      -2.969  -1.124   0.394  1.00  0.00     0.341 C 
HETATM   31 CL1  UNL     1      -2.639  -1.570   2.075  1.00  0.00    -0.090 Cl
BRANCH  30  32
HETATM   32  C15 UNL     1      -4.162  -1.843  -0.112  1.00  0.00     0.138 C 
HETATM   33  C16 UNL     1      -3.999  -3.335   0.241  1.00  0.00     0.067 C 
HETATM   34  C17 UNL     1      -4.908  -3.572   1.426  1.00  0.00     0.190 C 
HETATM   35  F1  UNL     1      -4.292  -4.191   2.482  1.00  0.00    -0.248 F 
HETATM   36  C18 UNL     1      -5.567  -2.274   1.749  1.00  0.00     0.163 C 
HETATM   37  N5  UNL     1      -5.419  -1.553   0.481  1.00  0.00    -0.340 N 
HETATM   38  C19 UNL     1      -6.449  -0.726  -0.030  1.00  0.00     0.254 C 
HETATM   39  O1  UNL     1      -6.293  -0.169  -1.133  1.00  0.00    -0.271 OA
BRANCH  38  40
HETATM   40  C20 UNL     1      -7.724  -0.500   0.719  1.00  0.00     0.317 C 
HETATM   41  C21 UNL     1      -7.371   0.454   1.874  1.00  0.00     0.085 C 
HETATM   42  C22 UNL     1      -8.526   1.473   1.903  1.00  0.00     0.206 C 
HETATM   43  F2  UNL     1      -8.064   2.614   1.316  1.00  0.00    -0.247 F 
HETATM   44  C23 UNL     1      -9.499   0.790   1.014  1.00  0.00     0.258 C 
HETATM   45  C24 UNL     1     -10.397   1.654   0.213  1.00  0.00     0.040 C 
HETATM   46  N6  UNL     1      -8.572   0.335  -0.046  1.00  0.00     0.109 N 
HETATM   47  C25 UNL     1     -10.576   0.785  -1.045  1.00  0.00     0.033 C 
HETATM   48  C26 UNL     1      -9.483  -0.288  -0.932  1.00  0.00     0.274 C 
ENDBRANCH  38  40
ENDBRANCH  30  32
ENDBRANCH   4  30
TORSDOF 12
