REMARK  16 active torsions:
REMARK  status: ('A' for Active; 'I' for Inactive)
REMARK    1  A    between atoms: C2_2  and  C3_3 
REMARK    2  A    between atoms: C3_3  and  O1_4 
REMARK    3  A    between atoms: C3_3  and  N1_6 
REMARK    4  A    between atoms: C5_8  and  N2_9 
REMARK    5  A    between atoms: C7_14  and  N4_15 
REMARK    6  A    between atoms: N4_15  and  C8_17 
REMARK    7  A    between atoms: C11_20  and  C12_21 
REMARK    8  A    between atoms: C12_21  and  C13_22 
REMARK    9  A    between atoms: C16_30  and  N6_31 
REMARK   10  A    between atoms: N6_31  and  C17_33 
REMARK   11  A    between atoms: C17_33  and  C18_34 
REMARK   12  A    between atoms: C18_34  and  C19_35 
REMARK   13  A    between atoms: C19_35  and  C20_36 
REMARK   14  A    between atoms: C22_40  and  C23_41 
REMARK   15  A    between atoms: C23_41  and  S1_42 
REMARK   16  A    between atoms: S1_42  and  C24_44 
ROOT
HETATM    1  C20 UNL     1      -1.239   7.517  -1.337  1.00  0.00     0.124 C 
HETATM    2  C21 UNL     1      -2.160   8.596  -1.618  1.00  0.00     0.059 C 
HETATM    3  N7  UNL     1      -2.888   9.476  -1.857  1.00  0.00    -0.197 NA
ENDROOT
BRANCH   1   4
HETATM    4  C19 UNL     1      -1.971   6.184  -1.374  1.00  0.00     0.016 C 
BRANCH   4   5
HETATM    5  C18 UNL     1      -1.017   5.040  -1.080  1.00  0.00     0.021 C 
BRANCH   5   6
HETATM    6  C17 UNL     1      -1.861   3.757  -1.144  1.00  0.00     0.138 C 
BRANCH   6   7
HETATM    7  N6  UNL     1      -1.057   2.611  -0.882  1.00  0.00    -0.225 N 
ATOM      8  H6  UNL     1      -0.065   2.704  -1.101  1.00  0.00     0.177 HD
BRANCH   7   9
HETATM    9  C16 UNL     1      -1.420   1.483  -0.408  1.00  0.00     0.701 A 
HETATM   10  N2  UNL     1      -0.485   0.510  -0.232  1.00  0.00    -0.102 N 
HETATM   11  C6  UNL     1      -0.882  -0.668   0.269  1.00  0.00     0.357 A 
HETATM   12  O2  UNL     1      -0.046  -1.587   0.444  1.00  0.00    -0.245 OA
HETATM   13  N3  UNL     1      -2.154  -0.933   0.603  1.00  0.00    -0.140 N 
HETATM   14  C7  UNL     1      -3.043   0.051   0.414  1.00  0.00     0.701 A 
ATOM     15  H3  UNL     1      -2.430  -1.839   0.982  1.00  0.00     0.189 HD
HETATM   16  N5  UNL     1      -2.712   1.262  -0.085  1.00  0.00    -0.022 N 
ATOM     17  H5  UNL     1      -3.417   1.988  -0.214  1.00  0.00     0.203 HD
BRANCH  10  18
HETATM   18  C5  UNL     1       0.891   0.783  -0.590  1.00  0.00     0.269 C 
HETATM   19  C4  UNL     1       1.518   1.871   0.255  1.00  0.00     0.180 C 
HETATM   20  N1  UNL     1       2.888   1.699   0.580  1.00  0.00    -0.351 N 
HETATM   21  C30 UNL     1       3.642   0.485   0.196  1.00  0.00     0.112 C 
HETATM   22  C22 UNL     1       2.920  -0.206  -0.900  1.00  0.00     0.158 C 
HETATM   23  C31 UNL     1       3.766  -0.343   1.457  1.00  0.00     0.035 C 
HETATM   24  O3  UNL     1       1.591  -0.381  -0.441  1.00  0.00    -0.356 OA
BRANCH  20  25
HETATM   25  C3  UNL     1       3.623   2.663   1.292  1.00  0.00     0.137 C 
BRANCH  25  26
HETATM   26  C2  UNL     1       3.199   3.917   1.817  1.00  0.00     0.045 C 
HETATM   27  C1  UNL     1       2.072   4.552   1.820  1.00  0.00     0.015 C 
ENDBRANCH  25  26
BRANCH  25  28
HETATM   28  O1  UNL     1       4.886   2.344   1.496  1.00  0.00    -0.346 OA
ATOM     29  H1  UNL     1       5.169   1.507   1.146  1.00  0.00     0.219 HD
ENDBRANCH  25  28
ENDBRANCH  20  25
BRANCH  22  30
HETATM   30  C23 UNL     1       3.407  -1.568  -1.256  1.00  0.00     0.148 C 
BRANCH  30  31
HETATM   31  S1  UNL     1       5.067  -1.628  -1.857  1.00  0.00     0.052 S 
HETATM   32  O4  UNL     1       6.127  -1.036  -0.689  1.00  0.00    -0.253 OA
BRANCH  31  33
HETATM   33  C24 UNL     1       5.428  -3.322  -2.198  1.00  0.00     0.031 A 
HETATM   34  C25 UNL     1       5.938  -4.132  -1.202  1.00  0.00     0.021 A 
HETATM   35  C26 UNL     1       6.237  -5.467  -1.416  1.00  0.00     0.001 A 
HETATM   36  C27 UNL     1       6.016  -6.021  -2.683  1.00  0.00     0.000 A 
HETATM   37  C28 UNL     1       5.508  -5.226  -3.682  1.00  0.00     0.001 A 
HETATM   38  C29 UNL     1       5.226  -3.903  -3.426  1.00  0.00     0.021 A 
ENDBRANCH  31  33
ENDBRANCH  30  31
ENDBRANCH  22  30
ENDBRANCH  10  18
BRANCH  14  39
HETATM   39  N4  UNL     1      -4.278  -0.162   0.721  1.00  0.00    -0.191 N 
ATOM     40  H4  UNL     1      -4.964   0.580   0.581  1.00  0.00     0.184 HD
BRANCH  39  41
HETATM   41  C8  UNL     1      -4.702  -1.420   1.254  1.00  0.00     0.049 A 
HETATM   42  C9  UNL     1      -5.114  -2.441   0.401  1.00  0.00     0.030 A 
HETATM   43  C10 UNL     1      -5.520  -3.647   0.918  1.00  0.00     0.009 A 
HETATM   44  C11 UNL     1      -5.523  -3.855   2.289  1.00  0.00    -0.050 A 
HETATM   45  C14 UNL     1      -5.111  -2.832   3.115  1.00  0.00     0.009 A 
HETATM   46  C15 UNL     1      -4.701  -1.617   2.616  1.00  0.00     0.030 A 
BRANCH  44  47
HETATM   47  C12 UNL     1      -5.963  -5.161   2.829  1.00  0.00     0.155 C 
BRANCH  47  48
HETATM   48  C13 UNL     1      -7.438  -5.132   3.080  1.00  0.00     0.391 C 
HETATM   49  F1  UNL     1      -7.898  -6.324   3.583  1.00  0.00    -0.171 F 
HETATM   50  F2  UNL     1      -7.739  -4.136   3.988  1.00  0.00    -0.171 F 
HETATM   51  F3  UNL     1      -8.117  -4.822   1.919  1.00  0.00    -0.171 F 
ENDBRANCH  47  48
ENDBRANCH  44  47
ENDBRANCH  39  41
ENDBRANCH  14  39
ENDBRANCH   7   9
ENDBRANCH   6   7
ENDBRANCH   5   6
ENDBRANCH   4   5
ENDBRANCH   1   4
TORSDOF 16
