REMARK  12 active torsions:
REMARK  status: ('A' for Active; 'I' for Inactive)
REMARK    1  A    between atoms: C8_10  and  C9_11 
REMARK       I    between atoms: C9_11  and  N2_13 
REMARK    2  A    between atoms: N2_13  and  C10_14 
REMARK    3  A    between atoms: C10_14  and  C11_15 
REMARK    4  A    between atoms: C12_17  and  C13_18 
REMARK    5  A    between atoms: C13_18  and  O3_19 
REMARK    6  A    between atoms: C15_21  and  O4_22 
REMARK    7  A    between atoms: O4_22  and  C16_23 
REMARK    8  A    between atoms: C16_23  and  C17_24 
REMARK    9  A    between atoms: C23_30  and  O5_31 
REMARK   10  A    between atoms: O5_31  and  C24_32 
REMARK   11  A    between atoms: C24_32  and  C25_33 
REMARK   12  A    between atoms: C31_41  and  O6_42 
ROOT
HETATM    1  C1  UNL     1       4.721   2.303  -2.040  1.00  0.00     0.098 C 
HETATM    2  C2  UNL     1       5.220   1.529  -1.220  1.00  0.00    -0.169 C 
HETATM    3  C3  UNL     1       5.774   0.600  -0.221  1.00  0.00     0.083 C 
HETATM    4  C4  UNL     1       5.604   1.189   1.160  1.00  0.00     0.037 C 
HETATM    5  C5  UNL     1       7.288   0.476  -0.596  1.00  0.00     0.208 C 
HETATM    6  F1  UNL     1       7.527   1.335  -1.622  1.00  0.00    -0.246 F 
HETATM    7  C6  UNL     1       7.418  -0.971  -1.106  1.00  0.00     0.134 C 
HETATM    8  N1  UNL     1       6.498  -1.640  -0.164  1.00  0.00    -0.281 NA
HETATM    9  C7  UNL     1       7.153  -1.596   1.103  1.00  0.00     0.116 C 
HETATM   10  C8  UNL     1       5.340  -0.809  -0.324  1.00  0.00     0.093 C 
ENDROOT
BRANCH  10  11
HETATM   11  C9  UNL     1       4.107  -1.292   0.332  1.00  0.00     0.334 C 
HETATM   12  O1  UNL     1       4.273  -2.131   1.263  1.00  0.00    -0.250 OA
HETATM   13  N2  UNL     1       2.895  -0.854  -0.083  1.00  0.00    -0.380 NA
BRANCH  13  14
HETATM   14  C10 UNL     1       1.602  -0.482  -0.438  1.00  0.00     0.194 C 
BRANCH  14  15
HETATM   15  C11 UNL     1       0.593   0.121   0.471  1.00  0.00     0.205 C 
HETATM   16  O2  UNL     1       0.169  -0.588   1.544  1.00  0.00    -0.367 OA
HETATM   17  C12 UNL     1      -1.072  -1.170   1.445  1.00  0.00     0.177 C 
HETATM   18  C15 UNL     1      -2.211  -0.312   0.949  1.00  0.00     0.184 C 
HETATM   19  C23 UNL     1      -1.778   0.945   0.302  1.00  0.00     0.191 C 
HETATM   20  C31 UNL     1      -0.444   0.657  -0.454  1.00  0.00     0.185 C 
BRANCH  17  21
HETATM   21  C13 UNL     1      -0.916  -2.385   0.522  1.00  0.00     0.201 C 
BRANCH  21  22
HETATM   22  O3  UNL     1       0.088  -3.206   1.023  1.00  0.00    -0.393 OA
HETATM   23  C14 UNL     1       0.283  -4.247   0.130  1.00  0.00     0.201 C 
ENDBRANCH  21  22
ENDBRANCH  17  21
BRANCH  18  24
HETATM   24  O4  UNL     1      -3.057  -1.175   0.305  1.00  0.00    -0.376 OA
BRANCH  24  25
HETATM   25  C16 UNL     1      -4.316  -1.316   0.828  1.00  0.00     0.207 C 
BRANCH  25  26
HETATM   26  C17 UNL     1      -5.130  -2.385   0.267  1.00  0.00    -0.035 A 
HETATM   27  C18 UNL     1      -4.686  -3.476  -0.333  1.00  0.00     0.009 A 
HETATM   28  C19 UNL     1      -5.552  -4.448  -0.861  1.00  0.00     0.001 A 
HETATM   29  C20 UNL     1      -6.889  -4.265  -0.742  1.00  0.00     0.000 A 
HETATM   30  C21 UNL     1      -7.415  -3.153  -0.123  1.00  0.00     0.001 A 
HETATM   31  C22 UNL     1      -6.532  -2.235   0.366  1.00  0.00     0.009 A 
ENDBRANCH  25  26
ENDBRANCH  24  25
ENDBRANCH  18  24
BRANCH  19  32
HETATM   32  O5  UNL     1      -2.553   1.632  -0.483  1.00  0.00    -0.351 OA
BRANCH  32  33
HETATM   33  C24 UNL     1      -2.922   2.748  -0.884  1.00  0.00     0.149 C 
BRANCH  33  34
HETATM   34  C25 UNL     1      -3.598   3.907  -0.327  1.00  0.00     0.024 A 
HETATM   35  C26 UNL     1      -4.813   4.471  -0.744  1.00  0.00     0.018 A 
HETATM   36  C27 UNL     1      -5.223   5.713  -0.354  1.00  0.00     0.020 A 
HETATM   37  C28 UNL     1      -4.478   6.458   0.478  1.00  0.00     0.013 A 
HETATM   38 BR1  UNL     1      -5.014   8.229   1.050  1.00  0.00    -0.051 Br
HETATM   39  C29 UNL     1      -3.257   5.965   0.954  1.00  0.00     0.062 A 
HETATM   40  C30 UNL     1      -2.849   4.743   0.550  1.00  0.00     0.129 A 
HETATM   41  F2  UNL     1      -1.645   4.313   1.050  1.00  0.00    -0.205 F 
ENDBRANCH  33  34
ENDBRANCH  32  33
ENDBRANCH  19  32
BRANCH  20  42
HETATM   42  O6  UNL     1       0.073   1.921  -0.929  1.00  0.00    -0.390 OA
ATOM     43  H6  UNL     1      -0.588   2.263  -1.519  1.00  0.00     0.210 HD
ENDBRANCH  20  42
ENDBRANCH  14  15
ENDBRANCH  13  14
ENDBRANCH  10  11
TORSDOF 12
