REMARK  4 active torsions:
REMARK  status: ('A' for Active; 'I' for Inactive)
REMARK    1  A    between atoms: C5_6  and  C6_7 
REMARK    2  A    between atoms: C6_7  and  C7_9 
REMARK    3  A    between atoms: C7_9  and  S2_10 
REMARK    4  A    between atoms: S2_10  and  C8_11 
ROOT
HETATM    1  C7  UNL     1       0.652   0.390  -0.858  1.00  0.00     0.165 C 
ENDROOT
BRANCH   1   2
HETATM    2  C6  UNL     1      -0.726   0.704  -1.203  1.00  0.00     0.170 C 
HETATM    3  O1  UNL     1      -1.026   1.067  -2.359  1.00  0.00    -0.291 OA
BRANCH   2   4
HETATM    4  C5  UNL     1      -1.810   0.601  -0.185  1.00  0.00     0.030 A 
HETATM    5  C3  UNL     1      -2.115   1.698   0.585  1.00  0.00    -0.006 A 
HETATM    6  S1  UNL     1      -3.376   1.140   1.582  1.00  0.00    -0.099 SA
HETATM    7  C4  UNL     1      -1.478   3.066   0.546  1.00  0.00     0.057 C 
HETATM    8  C2  UNL     1      -3.492  -0.458   1.011  1.00  0.00    -0.014 A 
HETATM    9  C1  UNL     1      -4.420  -1.570   1.446  1.00  0.00     0.057 C 
HETATM   10  C10 UNL     1      -2.527  -0.514   0.041  1.00  0.00    -0.034 A 
HETATM   11  C11 UNL     1      -2.287  -1.799  -0.745  1.00  0.00     0.050 C 
ENDBRANCH   2   4
ENDBRANCH   1   2
BRANCH   1  12
HETATM   12  S2  UNL     1       1.797   0.583  -2.244  1.00  0.00    -0.096 SA
BRANCH  12  13
HETATM   13  C8  UNL     1       3.438   0.151  -1.625  1.00  0.00     0.130 A 
HETATM   14  N1  UNL     1       4.047  -1.014  -1.592  1.00  0.00    -0.286 N 
HETATM   15  N2  UNL     1       5.217  -1.126  -1.112  1.00  0.00    -0.279 N 
ATOM     16  H1  UNL     1       3.572  -1.840  -1.957  1.00  0.00     0.188 HD
HETATM   17  C9  UNL     1       5.820  -0.029  -0.639  1.00  0.00     0.159 A 
ATOM     18  H2  UNL     1       5.687  -2.031  -1.087  1.00  0.00     0.189 HD
HETATM   19  N3  UNL     1       7.017   0.066  -0.107  1.00  0.00    -0.379 N 
HETATM   20  S3  UNL     1       4.635   1.169  -0.913  1.00  0.00    -0.027 SA
ATOM     21  H32 UNL     1       7.725  -0.650   0.057  1.00  0.00     0.158 HD
ATOM     22  H31 UNL     1       7.477   0.902   0.254  1.00  0.00     0.158 HD
ENDBRANCH  12  13
ENDBRANCH   1  12
TORSDOF 4
