REMARK  6 active torsions:
REMARK  status: ('A' for Active; 'I' for Inactive)
REMARK    1  A    between atoms: C2_2  and  C4_4 
REMARK    2  A    between atoms: C4_4  and  C5_5 
REMARK    3  A    between atoms: C5_5  and  C6_7 
REMARK    4  A    between atoms: C6_7  and  N1_8 
REMARK    5  A    between atoms: C7_9  and  O2_10 
REMARK    6  A    between atoms: C10_14  and  O3_15 
ROOT
HETATM    1  N1  UNL     1      -0.037  -0.730  -0.550  1.00  0.00    -0.301 N 
HETATM    2  C7  UNL     1      -1.002  -1.480  -0.046  1.00  0.00     0.152 A 
HETATM    3  C8  UNL     1      -2.191  -0.821  -0.172  1.00  0.00     0.009 A 
HETATM    4  C9  UNL     1      -1.916   0.396  -0.790  1.00  0.00     0.018 A 
HETATM    5  C10 UNL     1      -0.572   0.422  -1.012  1.00  0.00     0.152 A 
HETATM    6  C11 UNL     1      -3.085   1.282  -1.026  1.00  0.00     0.085 C 
HETATM    7  C12 UNL     1      -3.798   1.444   0.303  1.00  0.00     0.021 C 
HETATM    8  C13 UNL     1      -4.135   0.130   0.932  1.00  0.00     0.011 C 
HETATM    9  C14 UNL     1      -3.621  -1.065   0.169  1.00  0.00     0.033 C 
HETATM   10  C15 UNL     1      -4.367  -1.301  -1.126  1.00  0.00     0.084 C 
HETATM   11  S1  UNL     1      -4.226   0.279  -2.060  1.00  0.00    -0.159 SA
ENDROOT
BRANCH   1  12
HETATM   12  C6  UNL     1       1.367  -1.034  -0.634  1.00  0.00     0.211 C 
BRANCH  12  13
HETATM   13  C5  UNL     1       2.133  -0.650   0.556  1.00  0.00     0.145 C 
HETATM   14  O1  UNL     1       2.370  -1.515   1.416  1.00  0.00    -0.296 OA
BRANCH  13  15
HETATM   15  C4  UNL     1       2.656   0.706   0.819  1.00  0.00     0.084 C 
BRANCH  15  16
HETATM   16  C2  UNL     1       4.056   0.933   0.309  1.00  0.00    -0.016 C 
HETATM   17  C1  UNL     1       4.190   0.757  -1.181  1.00  0.00     0.010 C 
HETATM   18  C3  UNL     1       5.024  -0.029   0.973  1.00  0.00     0.010 C 
ENDBRANCH  15  16
ENDBRANCH  13  15
ENDBRANCH  12  13
ENDBRANCH   1  12
BRANCH   2  19
HETATM   19  O2  UNL     1      -0.853  -2.723   0.518  1.00  0.00    -0.345 OA
ATOM     20  H2  UNL     1      -1.546  -3.262   0.880  1.00  0.00     0.219 HD
ENDBRANCH   2  19
BRANCH   5  21
HETATM   21  O3  UNL     1       0.066   1.494  -1.619  1.00  0.00    -0.345 OA
ATOM     22  H3  UNL     1      -0.310   2.304  -1.944  1.00  0.00     0.219 HD
ENDBRANCH   5  21
TORSDOF 6
