REMARK  5 active torsions:
REMARK  status: ('A' for Active; 'I' for Inactive)
REMARK    1  A    between atoms: C4_10  and  N4_11 
REMARK    2  A    between atoms: C6_17  and  S2_18 
REMARK    3  A    between atoms: S2_18  and  C7_19 
REMARK    4  A    between atoms: C7_19  and  C8_20 
REMARK    5  A    between atoms: C8_20  and  C9_21 
ROOT
HETATM    1  N1  UNL     1       1.888  -4.561   1.511  1.00  0.00    -0.190 NA
HETATM    2  C1  UNL     1       2.213  -3.498   1.193  1.00  0.00     0.120 C 
HETATM    3  C2  UNL     1       2.614  -2.179   0.815  1.00  0.00     0.148 A 
HETATM    4  N2  UNL     1       3.875  -1.859   0.482  1.00  0.00    -0.337 N 
ATOM      5  H2  UNL     1       4.588  -2.588   0.496  1.00  0.00     0.167 HD
HETATM    6  C3  UNL     1       4.237  -0.587   0.124  1.00  0.00     0.122 A 
HETATM    7  S1  UNL     1       5.677   0.191  -0.347  1.00  0.00     0.008 SA
HETATM    8  N3  UNL     1       5.092   1.748  -0.573  1.00  0.00    -0.309 N 
ATOM      9  H3  UNL     1       5.610   2.577  -0.864  1.00  0.00     0.176 HD
HETATM   10  C4  UNL     1       3.801   1.651  -0.285  1.00  0.00     0.135 A 
HETATM   11  C5  UNL     1       3.329   0.430   0.085  1.00  0.00     0.113 A 
HETATM   12  N5  UNL     1       2.029   0.104   0.427  1.00  0.00    -0.343 N 
ATOM     13  H5  UNL     1       1.314   0.831   0.413  1.00  0.00     0.167 HD
HETATM   14  C6  UNL     1       1.687  -1.136   0.774  1.00  0.00     0.108 A 
ENDROOT
BRANCH  14  15
HETATM   15  S2  UNL     1       0.015  -1.531   1.208  1.00  0.00    -0.109 SA
BRANCH  15  16
HETATM   16  C7  UNL     1      -1.014  -2.050  -0.142  1.00  0.00     0.081 C 
BRANCH  16  17
HETATM   17  C8  UNL     1      -1.368  -1.042  -1.164  1.00  0.00     0.015 C 
BRANCH  17  18
HETATM   18  C9  UNL     1      -2.162   0.130  -0.757  1.00  0.00    -0.014 C 
HETATM   19  C10 UNL     1      -3.523  -0.208  -0.179  1.00  0.00     0.005 C 
HETATM   20  C11 UNL     1      -3.959   1.073   0.545  1.00  0.00     0.000 C 
HETATM   21  C12 UNL     1      -2.790   2.033   0.418  1.00  0.00     0.000 C 
HETATM   22  C13 UNL     1      -1.619   1.031   0.288  1.00  0.00     0.005 C 
ENDBRANCH  17  18
ENDBRANCH  16  17
ENDBRANCH  15  16
ENDBRANCH  14  15
BRANCH  10  23
HETATM   23  N4  UNL     1       3.007   2.716  -0.359  1.00  0.00    -0.383 N 
ATOM     24  H42 UNL     1       3.361   3.632  -0.636  1.00  0.00     0.157 HD
ATOM     25  H41 UNL     1       2.014   2.641  -0.138  1.00  0.00     0.157 HD
ENDBRANCH  10  23
TORSDOF 5
