REMARK  9 active torsions:
REMARK  status: ('A' for Active; 'I' for Inactive)
REMARK    1  A    between atoms: C2_2  and  C3_3 
REMARK    2  A    between atoms: C2_2  and  C4_6 
REMARK    3  A    between atoms: C4_6  and  C5_7 
REMARK    4  A    between atoms: C4_6  and  N2_10 
REMARK    5  A    between atoms: C5_7  and  C6_8 
REMARK    6  A    between atoms: N2_10  and  C7_13 
REMARK    7  A    between atoms: C7_13  and  O3_14 
REMARK    8  A    between atoms: C7_13  and  C8_16 
REMARK    9  A    between atoms: C11_19  and  C12_20 
ROOT
HETATM    1  N2  UNL     1      -0.486   0.466   0.782  1.00  0.00    -0.037 N 
ATOM      2  H21 UNL     1      -1.050   0.512   1.631  1.00  0.00     0.281 HD
ATOM      3  H22 UNL     1       0.063   1.316   0.913  1.00  0.00     0.281 HD
ENDROOT
BRANCH   1   4
HETATM    4  C4  UNL     1      -1.308   0.541  -0.408  1.00  0.00     0.208 C 
BRANCH   4   5
HETATM    5  C2  UNL     1      -2.337  -0.491  -0.467  1.00  0.00     0.102 C 
HETATM    6  C1  UNL     1      -3.045  -0.532  -1.826  1.00  0.00     0.021 C 
BRANCH   5   7
HETATM    7  C3  UNL     1      -3.316  -0.677   0.578  1.00  0.00     0.236 C 
HETATM    8  N1  UNL     1      -4.128  -1.849   0.460  1.00  0.00    -0.062 NA
HETATM    9  O1  UNL     1      -3.576   0.020   1.576  1.00  0.00    -0.276 OA
ENDBRANCH   5   7
ENDBRANCH   4   5
BRANCH   4  10
HETATM   10  C5  UNL     1      -1.602   1.960  -0.644  1.00  0.00     0.103 C 
BRANCH  10  11
HETATM   11  C6  UNL     1      -2.565   2.638   0.229  1.00  0.00     0.233 C 
HETATM   12  O2  UNL     1      -3.695   2.829  -0.153  1.00  0.00    -0.307 OA
ENDBRANCH  10  11
ENDBRANCH   4  10
ENDBRANCH   1   4
BRANCH   1  13
HETATM   13  C7  UNL     1       0.337  -0.689   0.763  1.00  0.00     0.377 C 
BRANCH  13  14
HETATM   14  O3  UNL     1       0.620  -0.948   2.155  1.00  0.00    -0.365 OA
ATOM     15  H3  UNL     1       1.171  -1.722   2.142  1.00  0.00     0.212 HD
ENDBRANCH  13  14
BRANCH  13  16
HETATM   16  C8  UNL     1       1.702  -0.380   0.200  1.00  0.00     0.109 A 
HETATM   17  C9  UNL     1       2.095   0.488  -0.762  1.00  0.00     0.040 A 
HETATM   18  C10 UNL     1       3.478   0.363  -0.886  1.00  0.00     0.045 A 
HETATM   19  C11 UNL     1       3.861  -0.584   0.016  1.00  0.00     0.140 A 
HETATM   20  O5  UNL     1       2.786  -0.993   0.632  1.00  0.00    -0.305 OA
BRANCH  19  21
HETATM   21  C12 UNL     1       5.205  -1.074   0.276  1.00  0.00     0.288 C 
HETATM   22  N3  UNL     1       6.282  -0.512  -0.468  1.00  0.00    -0.055 NA
HETATM   23  O4  UNL     1       5.468  -1.960   1.114  1.00  0.00    -0.269 OA
ENDBRANCH  19  21
ENDBRANCH  13  16
ENDBRANCH   1  13
TORSDOF 9
