REMARK  9 active torsions:
REMARK  status: ('A' for Active; 'I' for Inactive)
REMARK    1  A    between atoms: C2_2  and  C4_4 
REMARK    2  A    between atoms: C4_4  and  C5_5 
REMARK    3  A    between atoms: C5_5  and  O1_6 
REMARK    4  A    between atoms: C5_5  and  C6_8 
REMARK    5  A    between atoms: C6_8  and  C7_9 
REMARK    6  A    between atoms: C6_8  and  N5_17 
REMARK    7  A    between atoms: C7_9  and  C8_10 
REMARK    8  A    between atoms: N5_17  and  C9_19 
REMARK    9  A    between atoms: C9_19  and  C10_20 
ROOT
HETATM    1  C6  UNL     1      -0.097   0.777   0.152  1.00  0.00     0.112 C 
ENDROOT
BRANCH   1   2
HETATM    2  C5  UNL     1      -1.191  -0.098   0.670  1.00  0.00     0.141 C 
BRANCH   2   3
HETATM    3  C4  UNL     1      -1.757  -0.999  -0.365  1.00  0.00     0.037 C 
BRANCH   3   4
HETATM    4  C2  UNL     1      -3.135  -1.526   0.032  1.00  0.00    -0.020 C 
HETATM    5  C1  UNL     1      -3.707  -2.435  -1.012  1.00  0.00     0.009 C 
HETATM    6  C3  UNL     1      -4.116  -0.427   0.317  1.00  0.00     0.009 C 
ENDBRANCH   3   4
ENDBRANCH   2   3
BRANCH   2   7
HETATM    7  O1  UNL     1      -0.989  -0.632   1.924  1.00  0.00    -0.394 OA
ATOM      8  H1  UNL     1      -0.627  -0.055   2.586  1.00  0.00     0.210 HD
ENDBRANCH   2   7
ENDBRANCH   1   2
BRANCH   1   9
HETATM    9  C7  UNL     1      -0.170   2.084   0.947  1.00  0.00     0.106 C 
BRANCH   9  10
HETATM   10  C8  UNL     1       0.843   3.061   0.561  1.00  0.00     0.108 A 
HETATM   11  N1  UNL     1       2.080   3.217   1.074  1.00  0.00    -0.274 N 
HETATM   12  N2  UNL     1       2.703   4.211   0.463  1.00  0.00    -0.007 NA
ATOM     13  H1  UNL     1       2.477   2.651   1.824  1.00  0.00     0.185 HD
HETATM   14  N3  UNL     1       1.864   4.693  -0.443  1.00  0.00    -0.007 NA
HETATM   15  N4  UNL     1       0.736   4.004  -0.391  1.00  0.00    -0.274 N 
ATOM     16  H4  UNL     1      -0.083   4.163  -0.978  1.00  0.00     0.185 HD
ENDBRANCH   9  10
ENDBRANCH   1   9
BRANCH   1  17
HETATM   17  N5  UNL     1       1.172   0.223   0.116  1.00  0.00    -0.410 N 
ATOM     18  H5  UNL     1       1.917   0.642   0.672  1.00  0.00     0.154 HD
BRANCH  17  19
HETATM   19  C9  UNL     1       1.453  -0.915  -0.679  1.00  0.00     0.156 C 
BRANCH  19  20
HETATM   20  C10 UNL     1       2.932  -1.215  -0.616  1.00  0.00    -0.007 A 
HETATM   21  C11 UNL     1       3.602  -2.068   0.218  1.00  0.00     0.117 A 
HETATM   22  N6  UNL     1       4.914  -2.004  -0.095  1.00  0.00    -0.312 N 
HETATM   23  N7  UNL     1       5.045  -1.142  -1.085  1.00  0.00    -0.312 N 
ATOM     24  H6  UNL     1       5.667  -2.527   0.353  1.00  0.00     0.186 HD
HETATM   25  C12 UNL     1       3.855  -0.636  -1.435  1.00  0.00     0.117 A 
ATOM     26  H7  UNL     1       5.932  -0.894  -1.524  1.00  0.00     0.186 HD
ENDBRANCH  19  20
ENDBRANCH  17  19
ENDBRANCH   1  17
TORSDOF 9
