REMARK  9 active torsions:
REMARK  status: ('A' for Active; 'I' for Inactive)
REMARK    1  A    between atoms: N1_1  and  C1_5 
REMARK    2  A    between atoms: C1_5  and  C2_6 
REMARK    3  A    between atoms: C2_6  and  N2_7 
REMARK    4  A    between atoms: N2_7  and  C3_10 
REMARK    5  A    between atoms: C3_10  and  C4_11 
REMARK    6  A    between atoms: C5_12  and  C6_13 
REMARK    7  A    between atoms: C6_13  and  N3_14 
REMARK       I    between atoms: N3_14  and  C7_16 
REMARK    8  A    between atoms: C7_16  and  C8_18 
REMARK    9  A    between atoms: C12_24  and  N5_25 
ROOT
HETATM    1  N3  UNL     1      -1.908   1.462  -0.143  1.00  0.00    -0.352 N 
ATOM      2  H3  UNL     1      -2.729   1.916   0.258  1.00  0.00     0.163 HD
HETATM    3  C7  UNL     1      -2.035   0.157  -0.607  1.00  0.00     0.271 C 
HETATM    4  O1  UNL     1      -0.970  -0.357  -1.120  1.00  0.00    -0.266 OA
ENDROOT
BRANCH   1   5
HETATM    5  C6  UNL     1      -0.674   2.206  -0.200  1.00  0.00     0.150 C 
BRANCH   5   6
HETATM    6  C5  UNL     1       0.357   1.471   0.598  1.00  0.00    -0.010 C 
HETATM    7  C4  UNL     1       1.485   1.039   0.056  1.00  0.00    -0.002 C 
BRANCH   7   8
HETATM    8  C3  UNL     1       2.457   0.316   0.922  1.00  0.00     0.259 C 
BRANCH   8   9
HETATM    9  N2  UNL     1       3.721   0.982   0.978  1.00  0.00    -0.070 N 
ATOM     10  H22 UNL     1       4.290   0.602   1.734  1.00  0.00     0.277 HD
ATOM     11  H21 UNL     1       3.605   1.939   1.311  1.00  0.00     0.277 HD
BRANCH   9  12
HETATM   12  C2  UNL     1       4.456   0.967  -0.262  1.00  0.00     0.259 C 
BRANCH  12  13
HETATM   13  C1  UNL     1       4.922  -0.420  -0.610  1.00  0.00     0.257 C 
BRANCH  13  14
HETATM   14  N1  UNL     1       5.790  -0.909   0.453  1.00  0.00    -0.078 N 
ATOM     15  H13 UNL     1       6.566  -0.275   0.644  1.00  0.00     0.274 HD
ATOM     16  H12 UNL     1       5.343  -0.868   1.369  1.00  0.00     0.274 HD
ATOM     17  H11 UNL     1       6.106  -1.850   0.217  1.00  0.00     0.274 HD
ENDBRANCH  13  14
ENDBRANCH  12  13
ENDBRANCH   9  12
ENDBRANCH   8   9
ENDBRANCH   7   8
ENDBRANCH   5   6
ENDBRANCH   1   5
BRANCH   3  18
HETATM   18  C8  UNL     1      -3.191  -0.698  -0.604  1.00  0.00     0.134 A 
HETATM   19  N4  UNL     1      -3.405  -1.406  -1.763  1.00  0.00    -0.359 N 
HETATM   20  C9  UNL     1      -4.441  -2.228  -1.931  1.00  0.00     0.088 A 
ATOM     21  H4  UNL     1      -2.741  -1.297  -2.529  1.00  0.00     0.165 HD
HETATM   22  C10 UNL     1      -5.351  -2.393  -0.913  1.00  0.00     0.020 A 
HETATM   23  C11 UNL     1      -5.197  -1.729   0.247  1.00  0.00     0.040 A 
HETATM   24  C12 UNL     1      -4.078  -0.859   0.398  1.00  0.00     0.135 A 
BRANCH  24  25
HETATM   25  N5  UNL     1      -3.934  -0.233   1.656  1.00  0.00    -0.113 N 
HETATM   26  O2  UNL     1      -4.970   0.042   2.294  1.00  0.00    -0.532 OA
HETATM   27  O3  UNL     1      -2.748   0.088   2.214  1.00  0.00    -0.532 OA
ENDBRANCH  24  25
ENDBRANCH   3  18
TORSDOF 9
