REMARK  16 active torsions:
REMARK  status: ('A' for Active; 'I' for Inactive)
REMARK    1  A    between atoms: C2_2  and  C4_4 
REMARK    2  A    between atoms: C2_2  and  C5_7 
REMARK    3  A    between atoms: C4_4  and  O1_5 
REMARK    4  A    between atoms: C5_7  and  N1_8 
REMARK    5  A    between atoms: N1_8  and  C6_10 
REMARK    6  A    between atoms: C7_13  and  N3_14 
REMARK    7  A    between atoms: N3_14  and  C8_16 
REMARK    8  A    between atoms: C8_16  and  C9_17 
REMARK    9  A    between atoms: C9_17  and  O2_18 
REMARK   10  A    between atoms: N5_23  and  C11_25 
REMARK   11  A    between atoms: C11_25  and  C12_26 
REMARK       I    between atoms: C12_26  and  N6_28 
REMARK   12  A    between atoms: N6_28  and  C13_30 
REMARK   13  A    between atoms: C13_30  and  C14_31 
REMARK   14  A    between atoms: C14_31  and  C15_32 
REMARK   15  A    between atoms: C15_32  and  C16_33 
REMARK   16  A    between atoms: C16_33  and  N7_34 
ROOT
HETATM    1  C6  UNL     1      -3.024   0.925  -0.491  1.00  0.00     0.707 A 
HETATM    2  N2  UNL     1      -2.782   0.385  -1.698  1.00  0.00    -0.022 N 
ATOM      3  H2  UNL     1      -3.237   0.771  -2.525  1.00  0.00     0.203 HD
HETATM    4  C7  UNL     1      -1.947  -0.657  -1.824  1.00  0.00     0.707 A 
HETATM    5  N4  UNL     1      -1.353  -1.151  -0.702  1.00  0.00    -0.021 N 
ATOM      6  H4  UNL     1      -0.718  -1.943  -0.802  1.00  0.00     0.203 HD
HETATM    7  C10 UNL     1      -1.556  -0.655   0.523  1.00  0.00     0.711 A 
HETATM    8  N5  UNL     1      -1.016  -1.094   1.593  1.00  0.00    -0.195 N 
ATOM      9  H5  UNL     1      -1.279  -0.599   2.445  1.00  0.00     0.183 HD
HETATM   10  N8  UNL     1      -2.419   0.407   0.576  1.00  0.00    -0.021 N 
ATOM     11  H8  UNL     1      -2.610   0.826   1.486  1.00  0.00     0.203 HD
ENDROOT
BRANCH   8  12
HETATM   12  C11 UNL     1      -0.114  -2.157   1.775  1.00  0.00     0.180 C 
BRANCH  12  13
HETATM   13  C12 UNL     1       1.281  -1.927   1.311  1.00  0.00     0.257 C 
HETATM   14  O3  UNL     1       2.129  -2.875   1.466  1.00  0.00    -0.267 OA
HETATM   15  N6  UNL     1       1.724  -0.748   0.717  1.00  0.00    -0.356 N 
ATOM     16  H6  UNL     1       1.065   0.021   0.594  1.00  0.00     0.162 HD
BRANCH  15  17
HETATM   17  C13 UNL     1       3.098  -0.577   0.266  1.00  0.00     0.126 C 
BRANCH  17  18
HETATM   18  C14 UNL     1       3.511  -1.514  -0.795  1.00  0.00     0.048 C 
BRANCH  18  19
HETATM   19  C15 UNL     1       4.870  -1.436  -1.368  1.00  0.00    -0.008 C 
BRANCH  19  20
HETATM   20  C16 UNL     1       6.093  -1.729  -0.623  1.00  0.00     0.090 C 
BRANCH  20  21
HETATM   21  N7  UNL     1       6.508  -1.054   0.534  1.00  0.00    -0.327 N 
HETATM   22  C17 UNL     1       7.254   0.221   0.422  1.00  0.00     0.141 C 
HETATM   23  C18 UNL     1       8.532   0.071   1.237  1.00  0.00     0.094 C 
HETATM   24  S1  UNL     1       7.997   0.160   2.994  1.00  0.00    -0.158 SA
HETATM   25  C19 UNL     1       6.316  -0.580   3.002  1.00  0.00     0.177 C 
HETATM   26  C20 UNL     1       6.247  -1.545   1.842  1.00  0.00     0.233 C 
HETATM   27  O4  UNL     1       5.964  -2.759   2.037  1.00  0.00    -0.272 OA
ENDBRANCH  20  21
ENDBRANCH  19  20
ENDBRANCH  18  19
ENDBRANCH  17  18
ENDBRANCH  15  17
ENDBRANCH  12  13
ENDBRANCH   8  12
BRANCH   4  28
HETATM   28  N3  UNL     1      -1.656  -1.213  -2.956  1.00  0.00    -0.223 N 
ATOM     29  H3  UNL     1      -1.011  -2.003  -2.962  1.00  0.00     0.177 HD
BRANCH  28  30
HETATM   30  C8  UNL     1      -2.204  -0.763  -4.200  1.00  0.00     0.164 C 
BRANCH  30  31
HETATM   31  C9  UNL     1      -3.579  -1.359  -4.443  1.00  0.00     0.184 C 
BRANCH  31  32
HETATM   32  O2  UNL     1      -3.468  -2.745  -4.476  1.00  0.00    -0.399 OA
ATOM     33  H2  UNL     1      -4.328  -3.118  -4.628  1.00  0.00     0.209 HD
ENDBRANCH  31  32
ENDBRANCH  30  31
ENDBRANCH  28  30
ENDBRANCH   4  28
BRANCH   1  34
HETATM   34  N1  UNL     1      -3.836   1.909  -0.465  1.00  0.00    -0.224 N 
ATOM     35  H1  UNL     1      -4.220   2.185  -1.369  1.00  0.00     0.177 HD
BRANCH  34  36
HETATM   36  C5  UNL     1      -4.279   2.673   0.645  1.00  0.00     0.149 C 
BRANCH  36  37
HETATM   37  C2  UNL     1      -5.756   2.575   0.940  1.00  0.00    -0.010 C 
HETATM   38  C1  UNL     1      -6.072   1.124   1.224  1.00  0.00     0.018 C 
HETATM   39  C3  UNL     1      -6.620   3.061  -0.172  1.00  0.00     0.018 C 
BRANCH  37  40
HETATM   40  C4  UNL     1      -6.121   3.361   2.187  1.00  0.00     0.174 C 
BRANCH  40  41
HETATM   41  O1  UNL     1      -5.842   4.723   1.975  1.00  0.00    -0.400 OA
ATOM     42  H1  UNL     1      -6.070   5.215   2.755  1.00  0.00     0.209 HD
ENDBRANCH  40  41
ENDBRANCH  37  40
ENDBRANCH  36  37
ENDBRANCH  34  36
ENDBRANCH   1  34
TORSDOF 16
