REMARK  10 active torsions:
REMARK  status: ('A' for Active; 'I' for Inactive)
REMARK    1  A    between atoms: C5_7  and  N1_8 
REMARK    2  A    between atoms: N1_8  and  C6_9 
REMARK    3  A    between atoms: N3_13  and  C8_15 
REMARK    4  A    between atoms: C8_15  and  C9_16 
REMARK    5  A    between atoms: C9_16  and  C10_17 
REMARK    6  A    between atoms: C10_17  and  N4_18 
REMARK    7  A    between atoms: C15_25  and  N6_26 
REMARK    8  A    between atoms: N6_26  and  C16_28 
REMARK    9  A    between atoms: N7_31  and  C19_32 
REMARK   10  A    between atoms: C19_32  and  C20_33 
ROOT
HETATM    1  C6  UNL     1      -2.400   3.017   0.190  1.00  0.00     0.288 A 
HETATM    2  N2  UNL     1      -2.939   1.921  -0.438  1.00  0.00    -0.148 N 
ATOM      3  H2  UNL     1      -3.944   1.899  -0.609  1.00  0.00     0.188 HD
HETATM    4  C7  UNL     1      -2.197   0.880  -0.835  1.00  0.00     0.696 A 
HETATM    5  N3  UNL     1      -2.686  -0.156  -1.417  1.00  0.00    -0.225 N 
ATOM      6  H3  UNL     1      -2.055  -0.909  -1.691  1.00  0.00     0.177 HD
HETATM    7  N5  UNL     1      -0.849   0.933  -0.594  1.00  0.00    -0.022 N 
ATOM      8  H5  UNL     1      -0.277   0.144  -0.896  1.00  0.00     0.203 HD
HETATM    9  C15 UNL     1      -0.243   1.947   0.007  1.00  0.00     0.696 A 
HETATM   10  N8  UNL     1      -1.039   2.972   0.388  1.00  0.00    -0.148 N 
ATOM     11  H8  UNL     1      -0.600   3.766   0.854  1.00  0.00     0.188 HD
ENDROOT
BRANCH   9  12
HETATM   12  N6  UNL     1       1.026   2.032   0.187  1.00  0.00    -0.221 N 
ATOM     13  H6  UNL     1       1.334   2.876   0.670  1.00  0.00     0.178 HD
BRANCH  12  14
HETATM   14  C16 UNL     1       2.056   1.151  -0.174  1.00  0.00     0.102 C 
HETATM   15  C17 UNL     1       3.379   1.921  -0.436  1.00  0.00     0.056 C 
HETATM   16  C18 UNL     1       4.165   0.998  -1.306  1.00  0.00     0.274 C 
HETATM   17  N7  UNL     1       4.457  -0.237  -0.655  1.00  0.00     0.088 N 
HETATM   18  C27 UNL     1       3.355  -0.896  -0.037  1.00  0.00     0.274 C 
HETATM   19  C28 UNL     1       2.340  -0.030   0.675  1.00  0.00     0.056 C 
BRANCH  17  20
HETATM   20  C19 UNL     1       5.559  -0.030   0.279  1.00  0.00     0.277 C 
BRANCH  20  21
HETATM   21  C20 UNL     1       6.273  -1.398   0.391  1.00  0.00     0.014 C 
HETATM   22  C21 UNL     1       7.426  -1.318   1.356  1.00  0.00     0.006 C 
HETATM   23  C22 UNL     1       7.761  -2.682   1.903  1.00  0.00     0.000 C 
HETATM   24  C23 UNL     1       8.416  -3.605   0.937  1.00  0.00     0.000 C 
HETATM   25  C24 UNL     1       8.646  -3.024  -0.439  1.00  0.00     0.000 C 
HETATM   26  C25 UNL     1       7.322  -2.979  -1.207  1.00  0.00     0.000 C 
HETATM   27  C26 UNL     1       6.787  -1.595  -1.045  1.00  0.00     0.006 C 
ENDBRANCH  20  21
ENDBRANCH  17  20
ENDBRANCH  12  14
ENDBRANCH   9  12
BRANCH   1  28
HETATM   28  N1  UNL     1      -3.092   3.942   0.500  1.00  0.00    -0.367 NA
BRANCH  28  29
HETATM   29  C5  UNL     1      -3.862   4.969   0.844  1.00  0.00     0.157 A 
HETATM   30  C4  UNL     1      -5.240   4.924   0.643  1.00  0.00     0.076 A 
HETATM   31  C3  UNL     1      -6.017   6.019   0.990  1.00  0.00     0.030 A 
HETATM   32 CL1  UNL     1      -6.093   3.532  -0.028  1.00  0.00    -0.081 Cl
HETATM   33  C2  UNL     1      -5.460   7.146   1.526  1.00  0.00     0.046 A 
HETATM   34  C1  UNL     1      -4.110   7.196   1.726  1.00  0.00     0.141 A 
HETATM   35  F1  UNL     1      -3.570   8.322   2.263  1.00  0.00    -0.204 F 
HETATM   36  C29 UNL     1      -3.286   6.143   1.402  1.00  0.00     0.115 A 
HETATM   37 CL2  UNL     1      -1.568   6.292   1.677  1.00  0.00    -0.077 Cl
ENDBRANCH  28  29
ENDBRANCH   1  28
BRANCH   5  38
HETATM   38  C8  UNL     1      -4.071  -0.290  -1.692  1.00  0.00     0.140 C 
BRANCH  38  39
HETATM   39  C9  UNL     1      -4.699  -1.142  -0.571  1.00  0.00     0.050 C 
BRANCH  39  40
HETATM   40  C10 UNL     1      -6.159  -1.222  -0.898  1.00  0.00     0.274 C 
BRANCH  40  41
HETATM   41  N4  UNL     1      -6.855  -2.047   0.108  1.00  0.00     0.088 N 
HETATM   42  C11 UNL     1      -6.360  -3.409  -0.112  1.00  0.00     0.272 C 
HETATM   43  C12 UNL     1      -7.429  -4.255   0.497  1.00  0.00     0.032 C 
HETATM   44  C13 UNL     1      -8.691  -3.562  -0.007  1.00  0.00     0.032 C 
HETATM   45  C14 UNL     1      -8.259  -2.164  -0.289  1.00  0.00     0.272 C 
ENDBRANCH  40  41
ENDBRANCH  39  40
ENDBRANCH  38  39
ENDBRANCH   5  38
TORSDOF 10
