REMARK  9 active torsions:
REMARK  status: ('A' for Active; 'I' for Inactive)
REMARK    1  A    between atoms: C2_2  and  N1_4 
REMARK    2  A    between atoms: C2_2  and  C21_25 
REMARK       I    between atoms: N1_4  and  C4_6 
REMARK    3  A    between atoms: C4_6  and  C5_8 
REMARK    4  A    between atoms: C5_8  and  C6_9 
REMARK       I    between atoms: C21_25  and  N2_27 
REMARK    5  A    between atoms: N2_27  and  C22_29 
REMARK    6  A    between atoms: C25_32  and  C26_33 
REMARK    7  A    between atoms: C29_37  and  C30_38 
REMARK       I    between atoms: C30_38  and  N4_40 
REMARK    8  A    between atoms: N4_40  and  C31_42 
REMARK    9  A    between atoms: C31_42  and  C32_43 
ROOT
HETATM    1  C26 UNL     1      -7.744  -0.922  -3.457  1.00  0.00     0.128 C 
HETATM    2  C27 UNL     1      -7.343   0.346  -4.025  1.00  0.00     0.059 C 
HETATM    3  N3  UNL     1      -7.023   1.361  -4.458  1.00  0.00    -0.197 NA
ENDROOT
BRANCH   1   4
HETATM    4  C25 UNL     1      -6.864  -1.339  -2.298  1.00  0.00    -0.001 C 
HETATM    5  C24 UNL     1      -5.463  -1.452  -2.843  1.00  0.00     0.007 C 
HETATM    6  C23 UNL     1      -4.476  -1.968  -1.807  1.00  0.00     0.026 C 
HETATM    7  C22 UNL     1      -4.538  -1.028  -0.618  1.00  0.00     0.097 C 
HETATM    8  C29 UNL     1      -5.924  -0.866  -0.094  1.00  0.00     0.101 C 
HETATM    9  C28 UNL     1      -6.877  -0.355  -1.178  1.00  0.00     0.021 C 
BRANCH   7  10
HETATM   10  N2  UNL     1      -3.667  -1.454   0.445  1.00  0.00    -0.353 N 
HETATM   11  C21 UNL     1      -2.469  -0.793   0.794  1.00  0.00     0.245 C 
HETATM   12  O3  UNL     1      -2.108   0.215   0.169  1.00  0.00    -0.271 OA
ATOM     13  H2  UNL     1      -3.931  -2.283   0.978  1.00  0.00     0.163 HD
BRANCH  11  14
HETATM   14  C2  UNL     1      -1.631  -1.299   1.912  1.00  0.00     0.106 C 
HETATM   15  C1  UNL     1      -2.433  -1.159   3.206  1.00  0.00     0.048 C 
HETATM   16  C3  UNL     1      -1.253  -2.717   1.633  1.00  0.00     0.048 C 
BRANCH  14  17
HETATM   17  N1  UNL     1      -0.431  -0.512   2.066  1.00  0.00    -0.344 N 
HETATM   18  C4  UNL     1       0.581  -0.464   1.052  1.00  0.00     0.218 C 
HETATM   19  O1  UNL     1       0.393  -1.141   0.014  1.00  0.00    -0.274 OA
ATOM     20  H1  UNL     1      -0.299   0.026   2.922  1.00  0.00     0.163 HD
BRANCH  18  21
HETATM   21  C5  UNL     1       1.813   0.381   1.260  1.00  0.00     0.108 C 
BRANCH  21  22
HETATM   22  C6  UNL     1       2.721   0.220   0.049  1.00  0.00     0.003 C 
HETATM   23  C7  UNL     1       3.146  -1.180  -0.148  1.00  0.00     0.006 C 
HETATM   24  C8  UNL     1       4.638  -1.202  -0.013  1.00  0.00     0.007 C 
HETATM   25  C9  UNL     1       5.095   0.171   0.421  1.00  0.00     0.006 C 
HETATM   26  C10 UNL     1       6.432   0.530  -0.152  1.00  0.00    -0.016 C 
HETATM   27  C19 UNL     1       3.965   1.079   0.137  1.00  0.00    -0.035 C 
HETATM   28  C11 UNL     1       7.125  -0.792  -0.527  1.00  0.00     0.020 C 
HETATM   29  C12 UNL     1       7.321   1.183   0.854  1.00  0.00     0.022 C 
HETATM   30  C16 UNL     1       6.334   1.311  -1.397  1.00  0.00    -0.068 C 
HETATM   31  C13 UNL     1       8.669   1.554   0.301  1.00  0.00     0.084 C 
HETATM   32  C14 UNL     1       8.707   1.765  -1.148  1.00  0.00     0.149 C 
HETATM   33  O2  UNL     1       9.791   1.837  -1.783  1.00  0.00    -0.293 OA
HETATM   34  C15 UNL     1       7.418   1.893  -1.862  1.00  0.00     0.053 C 
HETATM   35  C17 UNL     1       5.058   1.447  -2.117  1.00  0.00     0.036 C 
HETATM   36  C18 UNL     1       4.041   1.909  -1.101  1.00  0.00     0.014 C 
HETATM   37  C20 UNL     1       3.784   2.056   1.311  1.00  0.00     0.016 C 
ENDBRANCH  21  22
ENDBRANCH  18  21
ENDBRANCH  14  17
ENDBRANCH  11  14
ENDBRANCH   7  10
BRANCH   8  38
HETATM   38  C30 UNL     1      -5.943   0.063   1.045  1.00  0.00     0.224 C 
HETATM   39  O4  UNL     1      -6.303  -0.402   2.180  1.00  0.00    -0.273 OA
HETATM   40  N4  UNL     1      -5.596   1.422   0.979  1.00  0.00    -0.352 N 
ATOM     41  H4  UNL     1      -5.303   1.827   0.090  1.00  0.00     0.162 HD
BRANCH  40  42
HETATM   42  C31 UNL     1      -5.650   2.250   2.159  1.00  0.00     0.239 C 
BRANCH  42  43
HETATM   43  C32 UNL     1      -5.252   3.676   1.904  1.00  0.00     0.403 C 
HETATM   44  F1  UNL     1      -3.973   3.813   1.427  1.00  0.00    -0.169 F 
HETATM   45  F2  UNL     1      -6.131   4.332   1.057  1.00  0.00    -0.169 F 
HETATM   46  F3  UNL     1      -5.302   4.338   3.129  1.00  0.00    -0.169 F 
ENDBRANCH  42  43
ENDBRANCH  40  42
ENDBRANCH   8  38
ENDBRANCH   1   4
TORSDOF 9
