REMARK  11 active torsions:
REMARK  status: ('A' for Active; 'I' for Inactive)
REMARK    1  A    between atoms: N1_1  and  C1_4 
REMARK    2  A    between atoms: N6_15  and  C5_16 
REMARK    3  A    between atoms: C6_18  and  N7_19 
REMARK       I    between atoms: N7_19  and  C7_21 
REMARK    4  A    between atoms: C7_21  and  C8_23 
REMARK    5  A    between atoms: C8_23  and  N8_24 
REMARK    6  A    between atoms: C8_23  and  C9_28 
REMARK    7  A    between atoms: C9_28  and  N9_29 
REMARK    8  A    between atoms: C9_28  and  S1_33 
REMARK    9  A    between atoms: S1_33  and  N10_34 
REMARK   10  A    between atoms: C10_39  and  O5_40 
REMARK   11  A    between atoms: C11_42  and  O6_43 
ROOT
HETATM    1  C5  UNL     1      -1.932   0.669   1.471  1.00  0.00     0.278 C 
HETATM    2  O1  UNL     1      -0.654   1.205   1.355  1.00  0.00    -0.335 OA
HETATM    3  C6  UNL     1       0.047   0.170   0.748  1.00  0.00     0.257 C 
HETATM    4  C10 UNL     1      -0.264  -0.984   1.638  1.00  0.00     0.200 C 
HETATM    5  C11 UNL     1      -1.784  -0.801   1.796  1.00  0.00     0.201 C 
ENDROOT
BRANCH   3   6
HETATM    6  N7  UNL     1       1.450   0.472   0.589  1.00  0.00    -0.330 N 
HETATM    7  C7  UNL     1       2.130   0.427  -0.637  1.00  0.00     0.253 C 
HETATM    8  O2  UNL     1       1.459   0.100  -1.681  1.00  0.00    -0.271 OA
ATOM      9  H7  UNL     1       1.980   0.734   1.420  1.00  0.00     0.165 HD
BRANCH   7  10
HETATM   10  C8  UNL     1       3.553   0.732  -0.814  1.00  0.00     0.321 C 
BRANCH  10  11
HETATM   11  N8  UNL     1       3.705   1.106  -2.254  1.00  0.00    -0.063 N 
ATOM     12  H83 UNL     1       3.353   0.400  -2.901  1.00  0.00     0.275 HD
ATOM     13  H82 UNL     1       3.084   1.859  -2.550  1.00  0.00     0.275 HD
ATOM     14  H81 UNL     1       4.695   1.318  -2.377  1.00  0.00     0.275 HD
ENDBRANCH  10  11
BRANCH  10  15
HETATM   15  C9  UNL     1       4.496  -0.425  -0.601  1.00  0.00     0.364 C 
BRANCH  15  16
HETATM   16  N9  UNL     1       5.843   0.143  -0.860  1.00  0.00    -0.057 N 
ATOM     17  H93 UNL     1       5.937   0.595  -1.770  1.00  0.00     0.276 HD
ATOM     18  H92 UNL     1       6.062   0.968  -0.301  1.00  0.00     0.276 HD
ATOM     19  H91 UNL     1       6.481  -0.640  -0.716  1.00  0.00     0.276 HD
ENDBRANCH  15  16
BRANCH  15  20
HETATM   20  S1  UNL     1       4.539  -1.020   1.040  1.00  0.00     0.256 S 
HETATM   21  O3  UNL     1       5.762  -1.913   1.162  1.00  0.00    -0.204 OA
HETATM   22  O4  UNL     1       3.313  -1.727   1.466  1.00  0.00    -0.204 OA
BRANCH  20  23
HETATM   23  N10 UNL     1       4.820   0.320   2.108  1.00  0.00    -0.327 N 
ATOM     24 2H10 UNL     1       4.938   1.289   1.811  1.00  0.00     0.168 HD
ATOM     25 1H10 UNL     1       4.845  -0.028   3.067  1.00  0.00     0.168 HD
ENDBRANCH  20  23
ENDBRANCH  15  20
ENDBRANCH  10  15
ENDBRANCH   7  10
ENDBRANCH   3   6
BRANCH   4  26
HETATM   26  O5  UNL     1      -0.008  -2.219   1.044  1.00  0.00    -0.388 OA
ATOM     27  H5  UNL     1      -0.206  -2.955   1.611  1.00  0.00     0.210 HD
ENDBRANCH   4  26
BRANCH   1  28
HETATM   28  N6  UNL     1      -2.621   0.910   0.222  1.00  0.00    -0.226 N 
HETATM   29  C3  UNL     1      -3.814   0.390  -0.127  1.00  0.00     0.156 A 
HETATM   30  N3  UNL     1      -4.668  -0.437   0.503  1.00  0.00    -0.336 N 
HETATM   31  C4  UNL     1      -4.099   0.868  -1.373  1.00  0.00     0.135 A 
HETATM   32  C2  UNL     1      -5.824  -0.814  -0.081  1.00  0.00     0.183 A 
ATOM     33  H3  UNL     1      -4.438  -0.783   1.434  1.00  0.00     0.168 HD
HETATM   34  N2  UNL     1      -6.111  -0.342  -1.316  1.00  0.00    -0.337 N 
HETATM   35  C1  UNL     1      -5.290   0.485  -1.983  1.00  0.00     0.132 A 
ATOM     36  H2  UNL     1      -6.986  -0.626  -1.758  1.00  0.00     0.168 HD
HETATM   37  N4  UNL     1      -3.093   1.666  -1.773  1.00  0.00    -0.277 N 
HETATM   38  N5  UNL     1      -2.218   1.667  -0.783  1.00  0.00    -0.015 NA
ATOM     39  H4  UNL     1      -3.020   2.167  -2.658  1.00  0.00     0.184 HD
BRANCH  35  40
HETATM   40  N1  UNL     1      -5.538   0.950  -3.164  1.00  0.00    -0.383 N 
ATOM     41  H12 UNL     1      -6.411   0.669  -3.611  1.00  0.00     0.157 HD
ATOM     42  H11 UNL     1      -4.914   1.578  -3.671  1.00  0.00     0.157 HD
ENDBRANCH  35  40
ENDBRANCH   1  28
BRANCH   5  43
HETATM   43  O6  UNL     1      -2.179  -1.108   3.076  1.00  0.00    -0.388 OA
ATOM     44  H6  UNL     1      -2.086  -2.031   3.280  1.00  0.00     0.210 HD
ENDBRANCH   5  43
TORSDOF 11
