REMARK  12 active torsions:
REMARK  status: ('A' for Active; 'I' for Inactive)
REMARK    1  A    between atoms: C2_3  and  C3_4 
REMARK    2  A    between atoms: C3_4  and  C4_5 
REMARK    3  A    between atoms: C4_5  and  C5_7 
REMARK    4  A    between atoms: C5_7  and  O2_8 
REMARK    5  A    between atoms: C5_7  and  O3_10 
REMARK    6  A    between atoms: C6_13  and  N2_14 
REMARK    7  A    between atoms: C7_15  and  C8_16 
REMARK    8  A    between atoms: C8_16  and  N3_17 
REMARK    9  A    between atoms: C8_16  and  O5_21 
REMARK   10  A    between atoms: C11_30  and  N6_31 
REMARK   11  A    between atoms: C13_37  and  O7_38 
REMARK   12  A    between atoms: C14_40  and  O8_41 
ROOT
HETATM    1  N1  UNL     1       2.924  -2.069  -2.524  1.00  0.00    -0.194 NA
HETATM    2  C1  UNL     1       2.435  -1.613  -1.567  1.00  0.00     0.101 C 
HETATM    3  C2  UNL     1       1.831  -1.032  -0.362  1.00  0.00     0.186 C 
HETATM    4  O4  UNL     1       0.713  -0.324  -0.698  1.00  0.00    -0.335 OA
HETATM    5  C6  UNL     1      -0.394  -1.151  -0.524  1.00  0.00     0.265 C 
HETATM    6  C13 UNL     1      -0.047  -1.806   0.815  1.00  0.00     0.200 C 
HETATM    7  C14 UNL     1       1.405  -2.185   0.527  1.00  0.00     0.200 C 
ENDROOT
BRANCH   3   8
HETATM    8  C3  UNL     1       2.862  -0.244   0.388  1.00  0.00     0.140 C 
BRANCH   8   9
HETATM    9  C4  UNL     1       3.447   0.864  -0.371  1.00  0.00     0.184 C 
HETATM   10  O1  UNL     1       3.172   1.181  -1.516  1.00  0.00    -0.292 OA
BRANCH   9  11
HETATM   11  C5  UNL     1       4.481   1.690   0.315  1.00  0.00     0.325 C 
BRANCH  11  12
HETATM   12  O2  UNL     1       4.972   2.705  -0.473  1.00  0.00    -0.365 OA
ATOM     13  H2  UNL     1       5.631   3.231  -0.036  1.00  0.00     0.213 HD
ENDBRANCH  11  12
BRANCH  11  14
HETATM   14  O3  UNL     1       4.026   2.151   1.550  1.00  0.00    -0.365 OA
ATOM     15  H3  UNL     1       4.685   2.677   1.987  1.00  0.00     0.213 HD
ENDBRANCH  11  14
ENDBRANCH   9  11
ENDBRANCH   8   9
ENDBRANCH   3   8
BRANCH   7  16
HETATM   16  O8  UNL     1       2.098  -2.214   1.727  1.00  0.00    -0.389 OA
ATOM     17  H8  UNL     1       1.831  -2.936   2.284  1.00  0.00     0.210 HD
ENDBRANCH   7  16
BRANCH   5  18
HETATM   18  N2  UNL     1      -1.626  -0.448  -0.480  1.00  0.00    -0.286 N 
HETATM   19  C7  UNL     1      -2.788  -0.861  -1.019  1.00  0.00     0.145 A 
HETATM   20  N4  UNL     1      -3.745   0.078  -0.772  1.00  0.00    -0.335 N 
HETATM   21  C9  UNL     1      -3.164   1.068  -0.079  1.00  0.00     0.148 A 
ATOM     22  H4  UNL     1      -4.722   0.035  -1.061  1.00  0.00     0.167 HD
HETATM   23  C10 UNL     1      -3.655   2.243   0.423  1.00  0.00     0.290 A 
HETATM   24  C12 UNL     1      -1.836   0.741   0.106  1.00  0.00     0.159 A 
HETATM   25  O6  UNL     1      -4.869   2.562   0.265  1.00  0.00    -0.265 OA
HETATM   26  N5  UNL     1      -2.826   3.063   1.091  1.00  0.00    -0.154 N 
HETATM   27  C11 UNL     1      -1.531   2.773   1.286  1.00  0.00     0.680 A 
ATOM     28  H5  UNL     1      -3.195   3.938   1.463  1.00  0.00     0.187 HD
HETATM   29  N7  UNL     1      -1.068   1.606   0.782  1.00  0.00    -0.174 N 
ATOM     30  H7  UNL     1      -0.085   1.373   0.924  1.00  0.00     0.186 HD
BRANCH  19  31
HETATM   31  C8  UNL     1      -3.086  -2.102  -1.769  1.00  0.00     0.385 C 
BRANCH  31  32
HETATM   32  N3  UNL     1      -3.886  -1.836  -2.966  1.00  0.00    -0.046 N 
ATOM     33  H33 UNL     1      -4.740  -1.327  -2.736  1.00  0.00     0.277 HD
ATOM     34  H32 UNL     1      -3.440  -1.139  -3.563  1.00  0.00     0.277 HD
ATOM     35  H31 UNL     1      -4.091  -2.691  -3.483  1.00  0.00     0.277 HD
ENDBRANCH  31  32
BRANCH  31  36
HETATM   36  O5  UNL     1      -3.820  -2.956  -0.950  1.00  0.00    -0.364 OA
ATOM     37  H5  UNL     1      -4.011  -3.752  -1.431  1.00  0.00     0.212 HD
ENDBRANCH  31  36
ENDBRANCH  19  31
BRANCH  27  38
HETATM   38  N6  UNL     1      -0.732   3.579   1.939  1.00  0.00    -0.234 N 
ATOM     39  H62 UNL     1      -1.081   4.459   2.319  1.00  0.00     0.174 HD
ATOM     40  H61 UNL     1       0.253   3.358   2.087  1.00  0.00     0.174 HD
ENDBRANCH  27  38
ENDBRANCH   5  18
BRANCH   6  41
HETATM   41  O7  UNL     1      -0.825  -2.934   1.040  1.00  0.00    -0.388 OA
ATOM     42  H7  UNL     1      -0.610  -3.341   1.871  1.00  0.00     0.210 HD
ENDBRANCH   6  41
TORSDOF 12
