REMARK  10 active torsions:
REMARK  status: ('A' for Active; 'I' for Inactive)
REMARK    1  A    between atoms: N1_1  and  N2_4 
REMARK       I    between atoms: N2_4  and  C1_6 
REMARK    2  A    between atoms: N4_8  and  N5_10 
REMARK    3  A    between atoms: C3_13  and  C4_14 
REMARK    4  A    between atoms: C5_19  and  N7_20 
REMARK    5  A    between atoms: N7_20  and  N8_21 
REMARK    6  A    between atoms: C6_24  and  O3_25 
REMARK    7  A    between atoms: O3_25  and  C7_26 
REMARK    8  A    between atoms: C10_31  and  C11_32 
REMARK    9  A    between atoms: C11_32  and  N9_33 
REMARK   10  A    between atoms: C14_40  and  O7_41 
ROOT
HETATM    1  N5  UNL     1       3.420   0.147  -1.087  1.00  0.00    -0.301 N 
ATOM      2  H5  UNL     1       4.384  -0.184  -1.052  1.00  0.00     0.186 HD
HETATM    3  C2  UNL     1       2.532  -0.431  -0.350  1.00  0.00     0.068 C 
HETATM    4  C3  UNL     1       2.965  -1.541   0.504  1.00  0.00     0.230 C 
HETATM    5  N6  UNL     1       1.954  -2.451   0.914  1.00  0.00    -0.383 N 
ATOM      6  H6  UNL     1       2.158  -3.233   1.536  1.00  0.00     0.156 HD
HETATM    7  C5  UNL     1       0.640  -2.217   0.414  1.00  0.00     0.225 C 
HETATM    8  C6  UNL     1       0.217  -0.763   0.453  1.00  0.00     0.203 C 
HETATM    9  C14 UNL     1       1.128   0.076  -0.423  1.00  0.00     0.200 C 
ENDROOT
BRANCH   8  10
HETATM   10  O3  UNL     1      -1.064  -0.652  -0.046  1.00  0.00    -0.335 OA
BRANCH  10  11
HETATM   11  C7  UNL     1      -2.216  -0.233   0.551  1.00  0.00     0.125 C 
HETATM   12  C8  UNL     1      -2.125   0.133   1.871  1.00  0.00     0.123 C 
HETATM   13  C9  UNL     1      -2.894   1.064   2.586  1.00  0.00     0.290 C 
HETATM   14  O4  UNL     1      -2.383   1.486   3.652  1.00  0.00    -0.260 OA
HETATM   15  O5  UNL     1      -4.058   1.531   2.275  1.00  0.00    -0.278 OA
HETATM   16  C10 UNL     1      -4.796   1.257   1.226  1.00  0.00     0.086 C 
HETATM   17  C12 UNL     1      -4.570   0.505   0.088  1.00  0.00     0.092 C 
HETATM   18  C13 UNL     1      -3.388  -0.199  -0.189  1.00  0.00     0.207 C 
HETATM   19  O6  UNL     1      -3.365  -0.885  -1.222  1.00  0.00    -0.285 OA
BRANCH  16  20
HETATM   20  C11 UNL     1      -6.146   1.890   1.285  1.00  0.00     0.294 C 
BRANCH  20  21
HETATM   21  N9  UNL     1      -6.956   1.603   0.142  1.00  0.00    -0.074 N 
ATOM     22  H93 UNL     1      -6.473   1.860  -0.718  1.00  0.00     0.274 HD
ATOM     23  H92 UNL     1      -7.034   0.596  -0.003  1.00  0.00     0.274 HD
ATOM     24  H91 UNL     1      -7.879   2.036   0.182  1.00  0.00     0.274 HD
ENDBRANCH  20  21
ENDBRANCH  16  20
ENDBRANCH  10  11
ENDBRANCH   8  10
BRANCH   7  25
HETATM   25  N7  UNL     1       0.463  -2.769  -0.933  1.00  0.00    -0.120 NA
BRANCH  25  26
HETATM   26  N8  UNL     1       0.661  -4.133  -0.958  1.00  0.00    -0.346 N 
ATOM     27  H82 UNL     1       0.901  -4.678  -0.130  1.00  0.00     0.172 HD
ATOM     28  H81 UNL     1       0.538  -4.517  -1.895  1.00  0.00     0.172 HD
ENDBRANCH  25  26
ENDBRANCH   7  25
BRANCH   9  29
HETATM   29  O7  UNL     1       0.676   0.127  -1.725  1.00  0.00    -0.387 OA
ATOM     30  H7  UNL     1      -0.216   0.449  -1.771  1.00  0.00     0.210 HD
ENDBRANCH   9  29
BRANCH   4  31
HETATM   31  C4  UNL     1       4.123  -2.269  -0.121  1.00  0.00     0.202 C 
HETATM   32  O1  UNL     1       4.076  -3.518  -0.208  1.00  0.00    -0.646 OA
HETATM   33  O2  UNL     1       5.232  -1.629  -0.602  1.00  0.00    -0.646 OA
ENDBRANCH   4  31
BRANCH   1  34
HETATM   34  N4  UNL     1       3.102   1.207  -1.927  1.00  0.00    -0.272 N 
HETATM   35  C1  UNL     1       3.419   2.424  -1.693  1.00  0.00     0.221 C 
HETATM   36  N2  UNL     1       4.135   2.723  -0.510  1.00  0.00    -0.279 N 
HETATM   37  N3  UNL     1       3.072   3.471  -2.582  1.00  0.00    -0.061 NA
ATOM     38  H2  UNL     1       3.784   3.418   0.149  1.00  0.00     0.189 HD
ATOM     39  H4  UNL     1       2.585   1.002  -2.782  1.00  0.00     0.189 HD
BRANCH  36  40
HETATM   40  N1  UNL     1       5.330   2.048  -0.263  1.00  0.00    -0.343 N 
ATOM     41  H12 UNL     1       5.667   1.356  -0.932  1.00  0.00     0.176 HD
ATOM     42  H11 UNL     1       5.846   2.264   0.590  1.00  0.00     0.176 HD
ENDBRANCH  36  40
ENDBRANCH   1  34
TORSDOF 10
