REMARK  1 active torsions:
REMARK  status: ('A' for Active; 'I' for Inactive)
REMARK    1  A    between atoms: C1_4  and  C2_6 
ROOT
HETATM    1  C2  UNL     1      -0.519  -0.782   0.168  1.00  0.00     0.117 A 
HETATM    2  C3  UNL     1      -0.021  -2.107   0.234  1.00  0.00     0.140 A 
HETATM    3  N3  UNL     1       1.289  -2.012   0.009  1.00  0.00    -0.198 N 
ATOM      4  H3  UNL     1       1.937  -2.800  -0.009  1.00  0.00     0.183 HD
HETATM    5  C4  UNL     1       1.633  -0.733  -0.190  1.00  0.00     0.706 A 
HETATM    6  N4  UNL     1       2.849  -0.230  -0.445  1.00  0.00    -0.132 N 
ATOM      7  H4  UNL     1       3.650  -0.859  -0.506  1.00  0.00     0.205 HD
HETATM    8  N5  UNL     1       3.026   1.071  -0.619  1.00  0.00    -0.292 N 
ATOM      9  H5  UNL     1       3.957   1.440  -0.813  1.00  0.00     0.186 HD
HETATM   10  C5  UNL     1       1.978   1.900  -0.539  1.00  0.00     0.183 A 
HETATM   11  C6  UNL     1       0.716   1.350  -0.272  1.00  0.00     0.283 A 
HETATM   12  O1  UNL     1      -0.245   2.126  -0.201  1.00  0.00    -0.266 OA
HETATM   13  N6  UNL     1       0.514   0.038  -0.092  1.00  0.00    -0.104 N 
ENDROOT
BRANCH   1  14
HETATM   14  C1  UNL     1      -1.904  -0.428   0.355  1.00  0.00     0.139 C 
HETATM   15  N1  UNL     1      -2.700  -1.472   0.602  1.00  0.00    -0.386 N 
ATOM     16  H12 UNL     1      -3.680  -1.222   0.734  1.00  0.00     0.157 HD
ATOM     17  H11 UNL     1      -2.257  -2.390   0.631  1.00  0.00     0.157 HD
HETATM   18  N2  UNL     1      -2.513   0.835   0.315  1.00  0.00    -0.081 NA
ENDBRANCH   1  14
TORSDOF 1
