REMARK  2 active torsions:
REMARK  status: ('A' for Active; 'I' for Inactive)
REMARK    1  A    between atoms: C3_4  and  N2_5 
REMARK    2  A    between atoms: N2_5  and  N3_7 
ROOT
HETATM    1  N1  UNL     1       1.450   2.866   0.380  1.00  0.00    -0.191 NA
HETATM    2  C1  UNL     1       0.744   1.963   0.273  1.00  0.00     0.109 C 
HETATM    3  C2  UNL     1      -0.170   0.856   0.145  1.00  0.00     0.157 A 
HETATM    4  C3  UNL     1       0.296  -0.407  -0.109  1.00  0.00     0.150 A 
HETATM    5  N4  UNL     1      -0.641  -1.393  -0.214  1.00  0.00    -0.292 N 
ATOM      6  H4  UNL     1      -0.319  -2.342  -0.402  1.00  0.00     0.172 HD
HETATM    7  C4  UNL     1      -1.958  -1.189  -0.085  1.00  0.00     0.328 A 
HETATM    8  O1  UNL     1      -2.790  -2.153  -0.194  1.00  0.00    -0.247 OA
HETATM    9  N5  UNL     1      -2.374   0.064   0.163  1.00  0.00    -0.274 N 
ATOM     10  H5  UNL     1      -3.375   0.230   0.263  1.00  0.00     0.173 HD
HETATM   11  C5  UNL     1      -1.544   1.105   0.286  1.00  0.00     0.274 A 
HETATM   12  O2  UNL     1      -1.936   2.258   0.514  1.00  0.00    -0.266 OA
ENDROOT
BRANCH   4  13
HETATM   13  N2  UNL     1       1.664  -0.742  -0.264  1.00  0.00    -0.291 N 
ATOM     14  H2  UNL     1       1.925  -1.710  -0.451  1.00  0.00     0.188 HD
BRANCH  13  15
HETATM   15  N3  UNL     1       2.644   0.213  -0.167  1.00  0.00    -0.344 N 
ATOM     16  H32 UNL     1       2.366   1.176   0.020  1.00  0.00     0.176 HD
ATOM     17  H31 UNL     1       3.629  -0.028  -0.279  1.00  0.00     0.176 HD
ENDBRANCH  13  15
ENDBRANCH   4  13
TORSDOF 2
