REMARK  1 active torsions:
REMARK  status: ('A' for Active; 'I' for Inactive)
REMARK    1  A    between atoms: C3_6  and  N2_7 
ROOT
HETATM    1  O1  UNL     1      -4.074  -0.466   0.111  1.00  0.00    -0.247 OA
HETATM    2  C1  UNL     1      -2.825  -0.245   0.091  1.00  0.00     0.327 A 
HETATM    3  N1  UNL     1      -2.255   0.597  -0.788  1.00  0.00    -0.316 N 
ATOM      4  H1  UNL     1      -2.834   1.085  -1.471  1.00  0.00     0.170 HD
HETATM    5  C2  UNL     1      -0.927   0.800  -0.773  1.00  0.00     0.129 A 
HETATM    6  C3  UNL     1      -0.088   0.165   0.132  1.00  0.00     0.137 A 
HETATM    7  C6  UNL     1      -0.697  -0.695   1.023  1.00  0.00     0.279 A 
HETATM    8  O2  UNL     1       0.030  -1.292   1.863  1.00  0.00    -0.265 OA
HETATM    9  N5  UNL     1      -2.047  -0.880   0.983  1.00  0.00    -0.274 N 
ATOM     10  H5  UNL     1      -2.479  -1.519   1.650  1.00  0.00     0.173 HD
ENDROOT
BRANCH   6  11
HETATM   11  N2  UNL     1       1.318   0.377   0.152  1.00  0.00    -0.243 N 
HETATM   12  C4  UNL     1       2.188  -0.367  -0.575  1.00  0.00     0.133 A 
HETATM   13  C5  UNL     1       3.474   0.097  -0.327  1.00  0.00     0.123 A 
HETATM   14  N3  UNL     1       3.317   1.112   0.548  1.00  0.00    -0.294 N 
HETATM   15  N4  UNL     1       2.028   1.268   0.826  1.00  0.00    -0.016 NA
ATOM     16  H3  UNL     1       4.074   1.674   0.937  1.00  0.00     0.183 HD
ENDBRANCH   6  11
TORSDOF 1
