REMARK  15 active torsions:
REMARK  status: ('A' for Active; 'I' for Inactive)
REMARK    1  A    between atoms: C2_2  and  O1_3 
REMARK    2  A    between atoms: O1_3  and  C3_4 
REMARK    3  A    between atoms: C3_4  and  C4_5 
REMARK    4  A    between atoms: C3_4  and  C24_37 
REMARK       I    between atoms: C4_5  and  N1_7 
REMARK    5  A    between atoms: N1_7  and  C5_9 
REMARK    6  A    between atoms: C5_9  and  C6_10 
REMARK    7  A    between atoms: C6_10  and  C7_11 
REMARK    8  A    between atoms: C7_11  and  C8_12 
REMARK    9  A    between atoms: C8_12  and  C10_14 
REMARK   10  A    between atoms: C11_15  and  O3_16 
REMARK   11  A    between atoms: C12_18  and  O4_19 
REMARK   12  A    between atoms: C14_22  and  N2_23 
REMARK       I    between atoms: N2_23  and  C15_25 
REMARK   13  A    between atoms: C15_25  and  C16_27 
REMARK   14  A    between atoms: C16_27  and  C17_28 
REMARK   15  A    between atoms: C23_34  and  O6_35 
ROOT
HETATM    1  C10 UNL     1      -0.098   0.267  -0.424  1.00  0.00     0.051 C 
HETATM    2  C11 UNL     1      -0.053   1.685   0.004  1.00  0.00     0.153 C 
HETATM    3  C12 UNL     1      -1.233   2.531  -0.181  1.00  0.00     0.149 C 
HETATM    4  C13 UNL     1      -2.519   1.870  -0.498  1.00  0.00     0.062 C 
HETATM    5  C14 UNL     1      -2.601   0.448  -0.022  1.00  0.00     0.116 C 
HETATM    6  C23 UNL     1      -1.440  -0.383  -0.359  1.00  0.00     0.148 C 
ENDROOT
BRANCH   1   7
HETATM    7  C8  UNL     1       0.525   0.049  -1.809  1.00  0.00    -0.009 C 
HETATM    8  C9  UNL     1      -0.219   0.856  -2.855  1.00  0.00     0.010 C 
BRANCH   7   9
HETATM    9  C7  UNL     1       1.952   0.464  -1.872  1.00  0.00     0.006 C 
BRANCH   9  10
HETATM   10  C6  UNL     1       2.887  -0.248  -0.911  1.00  0.00     0.020 C 
BRANCH  10  11
HETATM   11  C5  UNL     1       4.246   0.369  -1.140  1.00  0.00     0.122 C 
BRANCH  11  12
HETATM   12  N1  UNL     1       5.233  -0.304  -0.342  1.00  0.00    -0.359 N 
HETATM   13  C4  UNL     1       6.587   0.103  -0.344  1.00  0.00     0.248 C 
HETATM   14  O2  UNL     1       6.917   1.090  -1.040  1.00  0.00    -0.271 OA
ATOM     15  H1  UNL     1       4.951  -1.093   0.239  1.00  0.00     0.162 HD
BRANCH  13  16
HETATM   16  C3  UNL     1       7.602  -0.609   0.442  1.00  0.00     0.231 C 
BRANCH  16  17
HETATM   17  O1  UNL     1       8.844  -0.038   0.360  1.00  0.00    -0.375 OA
BRANCH  17  18
HETATM   18  C2  UNL     1       9.483   0.267   1.526  1.00  0.00     0.164 C 
HETATM   19  C1  UNL     1      10.832   0.926   1.200  1.00  0.00     0.033 C 
ENDBRANCH  17  18
ENDBRANCH  16  17
BRANCH  16  20
HETATM   20  C24 UNL     1       7.661  -2.086  -0.013  1.00  0.00     0.116 C 
HETATM   21  C25 UNL     1       8.130  -2.192  -1.428  1.00  0.00     0.030 C 
HETATM   22 CL1  UNL     1       8.820  -2.907   1.041  1.00  0.00    -0.122 Cl
ENDBRANCH  16  20
ENDBRANCH  13  16
ENDBRANCH  11  12
ENDBRANCH  10  11
ENDBRANCH   9  10
ENDBRANCH   7   9
ENDBRANCH   1   7
BRANCH   2  23
HETATM   23  O3  UNL     1       0.408   1.757   1.345  1.00  0.00    -0.393 OA
ATOM     24  H3  UNL     1       0.437   2.666   1.619  1.00  0.00     0.210 HD
ENDBRANCH   2  23
BRANCH   6  25
HETATM   25  O6  UNL     1      -1.443  -1.475   0.547  1.00  0.00    -0.393 OA
ATOM     26  H6  UNL     1      -2.297  -1.889   0.588  1.00  0.00     0.210 HD
ENDBRANCH   6  25
BRANCH   3  27
HETATM   27  O4  UNL     1      -1.435   3.297   0.993  1.00  0.00    -0.393 OA
ATOM     28  H4  UNL     1      -2.201   3.846   0.873  1.00  0.00     0.210 HD
ENDBRANCH   3  27
BRANCH   5  29
HETATM   29  N2  UNL     1      -3.813  -0.098  -0.668  1.00  0.00    -0.354 N 
HETATM   30  C15 UNL     1      -5.019  -0.295   0.057  1.00  0.00     0.218 C 
HETATM   31  O5  UNL     1      -5.040   0.008   1.270  1.00  0.00    -0.274 OA
ATOM     32  H2  UNL     1      -3.783  -0.339  -1.659  1.00  0.00     0.162 HD
BRANCH  30  33
HETATM   33  C16 UNL     1      -6.190  -0.841  -0.633  1.00  0.00     0.107 C 
BRANCH  33  34
HETATM   34  C17 UNL     1      -7.459  -0.850   0.161  1.00  0.00    -0.006 C 
HETATM   35  C18 UNL     1      -7.906   0.511   0.580  1.00  0.00     0.005 C 
HETATM   36  C19 UNL     1      -9.329   0.386   1.126  1.00  0.00     0.000 C 
HETATM   37  C20 UNL     1      -9.423  -0.603   2.251  1.00  0.00     0.000 C 
HETATM   38  C21 UNL     1      -8.023  -1.077   2.586  1.00  0.00     0.000 C 
HETATM   39  C22 UNL     1      -7.438  -1.768   1.348  1.00  0.00     0.005 C 
ENDBRANCH  33  34
ENDBRANCH  30  33
ENDBRANCH   5  29
TORSDOF 15
