REMARK  18 active torsions:
REMARK  status: ('A' for Active; 'I' for Inactive)
REMARK    1  A    between atoms: C5_5  and  C6_6 
REMARK    2  A    between atoms: C10_10  and  C11_11 
REMARK    3  A    between atoms: C12_12  and  C13_13 
REMARK    4  A    between atoms: C13_13  and  N2_17 
REMARK    5  A    between atoms: N2_17  and  C14_19 
REMARK    6  A    between atoms: C14_19  and  C15_20 
REMARK    7  A    between atoms: C15_20  and  C16_21 
REMARK    8  A    between atoms: C16_21  and  C17_22 
REMARK    9  A    between atoms: C17_22  and  C18_23 
REMARK   10  A    between atoms: C18_23  and  C19_24 
REMARK   11  A    between atoms: C19_24  and  C20_25 
REMARK   12  A    between atoms: C20_25  and  O1_26 
REMARK   13  A    between atoms: O1_26  and  C21_27 
REMARK   14  A    between atoms: C22_29  and  C23_30 
REMARK   15  A    between atoms: C23_30  and  O3_31 
REMARK   16  A    between atoms: C24_33  and  O4_34 
REMARK   17  A    between atoms: C25_36  and  O5_37 
REMARK   18  A    between atoms: C26_39  and  O6_40 
ROOT
HETATM    1  C16 UNL     1      -0.692   2.218  -0.056  1.00  0.00     0.002 C 
ENDROOT
BRANCH   1   2
HETATM    2  C15 UNL     1       0.193   1.236  -0.691  1.00  0.00     0.020 C 
BRANCH   2   3
HETATM    3  C14 UNL     1      -0.383  -0.001  -1.284  1.00  0.00     0.121 C 
BRANCH   3   4
HETATM    4  N2  UNL     1       0.695  -0.836  -1.834  1.00  0.00    -0.376 N 
ATOM      5  H2  UNL     1       0.760  -0.961  -2.844  1.00  0.00     0.161 HD
BRANCH   4   6
HETATM    6  C13 UNL     1       1.642  -1.469  -1.001  1.00  0.00     0.111 C 
HETATM    7  N1  UNL     1       1.342  -2.555  -0.390  1.00  0.00    -0.284 N 
HETATM    8 CL1  UNL     1      -0.233  -3.239  -0.594  1.00  0.00     0.012 Cl
ATOM      9  H1  UNL     1       2.027  -3.012   0.212  1.00  0.00     0.182 HD
BRANCH   6  10
HETATM   10  C12 UNL     1       2.970  -0.885  -0.834  1.00  0.00     0.049 C 
HETATM   11  C11 UNL     1       3.886  -1.440  -0.068  1.00  0.00     0.011 C 
BRANCH  11  12
HETATM   12  C10 UNL     1       5.219  -0.841   0.090  1.00  0.00    -0.058 C 
HETATM   13  C2  UNL     1       5.511   0.395  -0.631  1.00  0.00     0.014 C 
HETATM   14  C1  UNL     1       4.822   1.593   0.034  1.00  0.00     0.015 C 
HETATM   15  C3  UNL     1       6.979   0.651  -0.792  1.00  0.00     0.009 C 
HETATM   16  C4  UNL     1       7.740   0.450   0.503  1.00  0.00     0.009 C 
HETATM   17  C5  UNL     1       7.481  -0.900   1.094  1.00  0.00     0.012 C 
HETATM   18  C9  UNL     1       6.121  -1.404   0.859  1.00  0.00    -0.014 C 
BRANCH  17  19
HETATM   19  C6  UNL     1       8.457  -1.916   0.483  1.00  0.00    -0.015 C 
HETATM   20  C7  UNL     1       9.877  -1.542   0.753  1.00  0.00     0.010 C 
HETATM   21  C8  UNL     1       8.105  -3.289   1.027  1.00  0.00     0.010 C 
ENDBRANCH  17  19
ENDBRANCH  11  12
ENDBRANCH   6  10
ENDBRANCH   4   6
ENDBRANCH   3   4
ENDBRANCH   2   3
ENDBRANCH   1   2
BRANCH   1  22
HETATM   22  C17 UNL     1      -1.727   2.930  -0.805  1.00  0.00     0.000 C 
BRANCH  22  23
HETATM   23  C18 UNL     1      -2.835   2.215  -1.459  1.00  0.00     0.002 C 
BRANCH  23  24
HETATM   24  C19 UNL     1      -3.707   1.377  -0.562  1.00  0.00     0.026 C 
BRANCH  24  25
HETATM   25  C20 UNL     1      -4.340   2.295   0.489  1.00  0.00     0.171 C 
BRANCH  25  26
HETATM   26  O1  UNL     1      -5.161   1.612   1.358  1.00  0.00    -0.359 OA
BRANCH  26  27
HETATM   27  C21 UNL     1      -6.226   0.972   0.778  1.00  0.00     0.291 C 
HETATM   28  O2  UNL     1      -5.997  -0.408   0.971  1.00  0.00    -0.348 OA
HETATM   29  C22 UNL     1      -6.961  -1.171   0.321  1.00  0.00     0.179 C 
HETATM   30  C24 UNL     1      -8.237  -1.019   1.146  1.00  0.00     0.180 C 
HETATM   31  C25 UNL     1      -8.660   0.408   1.016  1.00  0.00     0.183 C 
HETATM   32  C26 UNL     1      -7.561   1.387   1.344  1.00  0.00     0.204 C 
BRANCH  29  33
HETATM   33  C23 UNL     1      -6.537  -2.621   0.437  1.00  0.00     0.198 C 
BRANCH  33  34
HETATM   34  O3  UNL     1      -7.444  -3.475  -0.187  1.00  0.00    -0.398 OA
ATOM     35  H3  UNL     1      -7.178  -4.384  -0.114  1.00  0.00     0.209 HD
ENDBRANCH  33  34
ENDBRANCH  29  33
BRANCH  30  36
HETATM   36  O4  UNL     1      -9.257  -1.817   0.621  1.00  0.00    -0.390 OA
ATOM     37  H4  UNL     1     -10.051  -1.722   1.134  1.00  0.00     0.210 HD
ENDBRANCH  30  36
BRANCH  31  38
HETATM   38  O5  UNL     1      -9.783   0.727   1.737  1.00  0.00    -0.390 OA
ATOM     39  H5  UNL     1     -10.052   1.634   1.654  1.00  0.00     0.210 HD
ENDBRANCH  31  38
BRANCH  32  40
HETATM   40  O6  UNL     1      -7.940   2.608   0.787  1.00  0.00    -0.388 OA
ATOM     41  H6  UNL     1      -8.781   2.869   1.144  1.00  0.00     0.210 HD
ENDBRANCH  32  40
ENDBRANCH  26  27
ENDBRANCH  25  26
ENDBRANCH  24  25
ENDBRANCH  23  24
ENDBRANCH  22  23
ENDBRANCH   1  22
TORSDOF 18
