REMARK  9 active torsions:
REMARK  status: ('A' for Active; 'I' for Inactive)
REMARK    1  A    between atoms: C2_2  and  C3_3 
REMARK    2  A    between atoms: C5_5  and  C6_6 
REMARK    3  A    between atoms: C6_6  and  N1_7 
REMARK    4  A    between atoms: N1_7  and  C7_8 
REMARK    5  A    between atoms: N1_7  and  C9_10 
REMARK    6  A    between atoms: C9_10  and  C10_11 
REMARK    7  A    between atoms: C10_11  and  C11_12 
REMARK    8  A    between atoms: C11_12  and  N2_13 
REMARK    9  A    between atoms: N2_13  and  C12_16 
ROOT
HETATM    1  N1  UNL     1       1.517   0.745   0.127  1.00  0.00    -0.389 N 
ENDROOT
BRANCH   1   2
HETATM    2  C6  UNL     1       2.590   0.321   0.955  1.00  0.00     0.163 C 
BRANCH   2   3
HETATM    3  C5  UNL     1       3.914   0.257   0.330  1.00  0.00    -0.003 A 
HETATM    4  C4  UNL     1       4.325  -0.807  -0.413  1.00  0.00     0.022 A 
HETATM    5  C3  UNL     1       5.623  -0.924  -0.871  1.00  0.00    -0.017 A 
HETATM    6  C25 UNL     1       6.515   0.091  -0.549  1.00  0.00     0.152 A 
HETATM    7  C24 UNL     1       6.110   1.168   0.197  1.00  0.00     0.111 A 
HETATM    8  F1  UNL     1       7.792  -0.002  -0.958  1.00  0.00    -0.203 F 
HETATM    9  C22 UNL     1       4.821   1.276   0.648  1.00  0.00     0.118 A 
HETATM   10  N3  UNL     1       6.760   2.287   0.638  1.00  0.00    -0.297 N 
HETATM   11  O1  UNL     1       4.687   2.396   1.323  1.00  0.00    -0.258 OA
HETATM   12  C23 UNL     1       5.852   2.997   1.313  1.00  0.00     0.370 A 
HETATM   13  O2  UNL     1       6.073   4.111   1.882  1.00  0.00    -0.238 OA
ATOM     14  H3  UNL     1       7.738   2.530   0.483  1.00  0.00     0.171 HD
BRANCH   5  15
HETATM   15  C2  UNL     1       6.178  -2.062  -1.660  1.00  0.00     0.037 C 
HETATM   16  C1  UNL     1       7.192  -2.815  -0.775  1.00  0.00     0.010 C 
ENDBRANCH   5  15
ENDBRANCH   2   3
ENDBRANCH   1   2
BRANCH   1  17
HETATM   17  C7  UNL     1       1.584   2.191  -0.009  1.00  0.00     0.118 C 
HETATM   18  C8  UNL     1       0.335   2.821  -0.505  1.00  0.00     0.026 C 
ENDBRANCH   1  17
BRANCH   1  19
HETATM   19  C9  UNL     1       0.990   0.006  -0.894  1.00  0.00     0.060 C 
BRANCH  19  20
HETATM   20  C10 UNL     1      -0.050  -1.054  -0.615  1.00  0.00     0.072 C 
BRANCH  20  21
HETATM   21  C11 UNL     1      -1.341  -0.383  -0.160  1.00  0.00     0.238 C 
BRANCH  21  22
HETATM   22  N2  UNL     1      -2.347  -1.342   0.122  1.00  0.00    -0.066 N 
ATOM     23  H22 UNL     1      -2.321  -2.100  -0.560  1.00  0.00     0.278 HD
ATOM     24  H21 UNL     1      -2.118  -1.864   0.968  1.00  0.00     0.278 HD
BRANCH  22  25
HETATM   25  C12 UNL     1      -3.678  -0.786   0.213  1.00  0.00     0.128 C 
HETATM   26  C13 UNL     1      -3.854   0.275   1.234  1.00  0.00     0.043 C 
HETATM   27  C14 UNL     1      -5.310   0.714   1.193  1.00  0.00    -0.010 C 
HETATM   28  C15 UNL     1      -6.235  -0.402   1.591  1.00  0.00     0.009 C 
HETATM   29  C19 UNL     1      -5.740   1.201  -0.162  1.00  0.00     0.026 C 
HETATM   30  C16 UNL     1      -6.025  -1.548   0.634  1.00  0.00    -0.010 C 
HETATM   31  C17 UNL     1      -6.422  -1.139  -0.760  1.00  0.00     0.026 C 
HETATM   32  C21 UNL     1      -4.567  -1.943   0.669  1.00  0.00     0.043 C 
HETATM   33  C18 UNL     1      -5.612   0.055  -1.137  1.00  0.00     0.021 C 
HETATM   34 BR1  UNL     1      -6.025   0.648  -2.944  1.00  0.00    -0.085 Br
HETATM   35  C20 UNL     1      -4.136  -0.341  -1.133  1.00  0.00     0.060 C 
ENDBRANCH  22  25
ENDBRANCH  21  22
ENDBRANCH  20  21
ENDBRANCH  19  20
ENDBRANCH   1  19
TORSDOF 9
