REMARK  12 active torsions:
REMARK  status: ('A' for Active; 'I' for Inactive)
REMARK    1  A    between atoms: C2_2  and  C3_3 
REMARK    2  A    between atoms: C3_3  and  C4_4 
REMARK    3  A    between atoms: C9_9  and  C10_10 
REMARK    4  A    between atoms: C10_10  and  C11_11 
REMARK       I    between atoms: C11_11  and  N1_13 
REMARK    5  A    between atoms: N1_13  and  C12_15 
REMARK    6  A    between atoms: C12_15  and  C13_16 
REMARK    7  A    between atoms: C12_15  and  C18_21 
REMARK    8  A    between atoms: C13_16  and  C14_17 
REMARK       I    between atoms: C18_21  and  N2_23 
REMARK    9  A    between atoms: C22_27  and  C23_28 
REMARK   10  A    between atoms: N3_36  and  C28_37 
REMARK   11  A    between atoms: C28_37  and  C30_39 
REMARK   12  A    between atoms: C30_39  and  O4_40 
ROOT
HETATM    1  C10 UNL     1      -0.110   1.544   0.469  1.00  0.00     0.108 C 
ENDROOT
BRANCH   1   2
HETATM    2  C9  UNL     1       1.098   1.016  -0.202  1.00  0.00     0.003 C 
HETATM    3  C8  UNL     1       2.363   1.554   0.500  1.00  0.00     0.005 C 
HETATM    4  C7  UNL     1       2.632   2.986   0.342  1.00  0.00     0.000 C 
HETATM    5  C6  UNL     1       4.158   3.181   0.378  1.00  0.00     0.000 C 
HETATM    6  C5  UNL     1       4.846   2.292   1.366  1.00  0.00     0.005 C 
HETATM    7  C4  UNL     1       5.764   1.256   0.730  1.00  0.00    -0.011 C 
HETATM    8  C33 UNL     1       5.585  -0.089   1.416  1.00  0.00    -0.013 C 
HETATM    9  C32 UNL     1       5.422  -1.222   0.394  1.00  0.00     0.024 C 
HETATM   10  C34 UNL     1       6.612  -0.460   2.403  1.00  0.00     0.010 C 
HETATM   11  C31 UNL     1       4.088  -1.924   0.524  1.00  0.00     0.127 C 
HETATM   12  N3  UNL     1       3.316  -1.953  -0.697  1.00  0.00    -0.346 N 
HETATM   13  C27 UNL     1       2.219  -1.071  -0.932  1.00  0.00     0.220 C 
HETATM   14  C26 UNL     1       1.288  -0.499   0.063  1.00  0.00     0.108 C 
HETATM   15  O3  UNL     1       2.012  -0.732  -2.143  1.00  0.00    -0.273 OA
BRANCH   7  16
HETATM   16  C3  UNL     1       7.146   1.793   0.720  1.00  0.00     0.004 C 
BRANCH  16  17
HETATM   17  C2  UNL     1       8.176   0.900   0.084  1.00  0.00    -0.004 C 
HETATM   18  C1  UNL     1       9.506   1.627   0.179  1.00  0.00     0.005 C 
ENDBRANCH  16  17
ENDBRANCH   7  16
BRANCH  12  19
HETATM   19  C28 UNL     1       3.656  -2.905  -1.741  1.00  0.00     0.106 C 
HETATM   20  C29 UNL     1       5.010  -2.661  -2.362  1.00  0.00     0.034 C 
BRANCH  19  21
HETATM   21  C30 UNL     1       3.505  -4.338  -1.373  1.00  0.00     0.189 C 
BRANCH  21  22
HETATM   22  O4  UNL     1       4.258  -4.809  -0.339  1.00  0.00    -0.399 OA
ATOM     23  H4  UNL     1       4.162  -5.724  -0.104  1.00  0.00     0.209 HD
ENDBRANCH  21  22
ENDBRANCH  19  21
ENDBRANCH  12  19
ENDBRANCH   1   2
BRANCH   1  24
HETATM   24  C11 UNL     1      -1.321   1.045  -0.220  1.00  0.00     0.218 C 
HETATM   25  O1  UNL     1      -1.310   0.292  -1.232  1.00  0.00    -0.274 OA
HETATM   26  N1  UNL     1      -2.581   1.441   0.293  1.00  0.00    -0.348 N 
ATOM     27  H1  UNL     1      -2.637   2.057   1.104  1.00  0.00     0.163 HD
BRANCH  26  28
HETATM   28  C12 UNL     1      -3.846   0.938  -0.377  1.00  0.00     0.177 C 
BRANCH  28  29
HETATM   29  C13 UNL     1      -4.307   2.113  -1.181  1.00  0.00     0.043 C 
BRANCH  29  30
HETATM   30  C14 UNL     1      -5.527   2.006  -2.002  1.00  0.00    -0.049 C 
HETATM   31  C15 UNL     1      -5.664   3.411  -2.681  1.00  0.00     0.014 C 
HETATM   32  C16 UNL     1      -5.432   1.061  -3.184  1.00  0.00     0.014 C 
HETATM   33  C17 UNL     1      -6.817   1.845  -1.255  1.00  0.00     0.014 C 
ENDBRANCH  29  30
ENDBRANCH  28  29
BRANCH  28  34
HETATM   34  C18 UNL     1      -4.738   0.479   0.681  1.00  0.00     0.243 C 
HETATM   35  O2  UNL     1      -4.845   1.255   1.696  1.00  0.00    -0.271 OA
HETATM   36  N2  UNL     1      -5.496  -0.718   0.737  1.00  0.00    -0.345 N 
HETATM   37  C19 UNL     1      -5.383  -1.653  -0.363  1.00  0.00     0.126 C 
HETATM   38  C24 UNL     1      -6.342  -1.055   1.845  1.00  0.00     0.092 C 
HETATM   39  C20 UNL     1      -6.694  -2.266  -0.771  1.00  0.00     0.020 C 
HETATM   40  C21 UNL     1      -7.200  -3.000   0.460  1.00  0.00     0.014 C 
HETATM   41  C22 UNL     1      -7.368  -2.098   1.627  1.00  0.00     0.073 C 
HETATM   42  C25 UNL     1      -7.059   0.148   2.456  1.00  0.00     0.033 C 
BRANCH  41  43
HETATM   43  C23 UNL     1      -7.391  -3.007   2.871  1.00  0.00     0.359 C 
HETATM   44  F1  UNL     1      -6.152  -3.663   2.854  1.00  0.00    -0.214 F 
HETATM   45  F2  UNL     1      -8.436  -3.883   2.833  1.00  0.00    -0.214 F 
ENDBRANCH  41  43
ENDBRANCH  28  34
ENDBRANCH  26  28
ENDBRANCH   1  24
TORSDOF 12
