REMARK  11 active torsions:
REMARK  status: ('A' for Active; 'I' for Inactive)
REMARK    1  A    between atoms: C2_2  and  O1_3 
REMARK    2  A    between atoms: O1_3  and  C3_4 
REMARK    3  A    between atoms: C6_7  and  C7_8 
REMARK    4  A    between atoms: C9_10  and  C10_11 
REMARK       I    between atoms: C10_11  and  N1_13 
REMARK    5  A    between atoms: N1_13  and  C12_15 
REMARK    6  A    between atoms: C14_17  and  N2_18 
REMARK       I    between atoms: N2_18  and  C15_20 
REMARK    7  A    between atoms: C15_20  and  C16_22 
REMARK    8  A    between atoms: C16_22  and  C17_23 
REMARK       I    between atoms: C17_23  and  N3_25 
REMARK    9  A    between atoms: N3_25  and  C18_27 
REMARK   10  A    between atoms: C25_34  and  C26_35 
REMARK   11  A    between atoms: C31_40  and  C32_41 
ROOT
HETATM    1  C12 UNL     1       0.143   1.053   0.621  1.00  0.00     0.090 C 
HETATM    2  C13 UNL     1      -0.674   1.588  -0.511  1.00  0.00     0.050 C 
HETATM    3  C14 UNL     1      -1.415   0.271  -0.606  1.00  0.00     0.088 C 
HETATM    4  C30 UNL     1      -0.370  -0.334   0.271  1.00  0.00     0.050 C 
ENDROOT
BRANCH   1   5
HETATM    5  N1  UNL     1       1.561   1.215   0.562  1.00  0.00    -0.351 N 
HETATM    6  C10 UNL     1       2.365   0.851  -0.545  1.00  0.00     0.224 C 
HETATM    7  O2  UNL     1       1.799   0.361  -1.551  1.00  0.00    -0.273 OA
HETATM    8  C11 UNL     1       2.249   1.795   1.724  1.00  0.00     0.153 C 
BRANCH   6   9
HETATM    9  C9  UNL     1       3.818   1.021  -0.563  1.00  0.00     0.087 A 
HETATM   10  C7  UNL     1       4.751   0.288  -1.409  1.00  0.00     0.033 A 
HETATM   11  C8  UNL     1       4.315   1.656  -1.869  1.00  0.00     0.025 A 
BRANCH  10  12
HETATM   12  C6  UNL     1       6.170   0.137  -1.033  1.00  0.00    -0.037 A 
HETATM   13  C5  UNL     1       7.103   1.129  -1.290  1.00  0.00     0.011 A 
HETATM   14  C4  UNL     1       8.441   1.025  -0.961  1.00  0.00     0.038 A 
HETATM   15  C3  UNL     1       8.898  -0.102  -0.349  1.00  0.00     0.075 A 
HETATM   16  C33 UNL     1       7.997  -1.138  -0.065  1.00  0.00    -0.013 A 
HETATM   17  C31 UNL     1       6.649  -1.024  -0.400  1.00  0.00     0.063 A 
HETATM   18  C34 UNL     1       8.538  -2.332   0.595  1.00  0.00     0.052 C 
BRANCH  15  19
HETATM   19  O1  UNL     1      10.237  -0.232  -0.008  1.00  0.00    -0.351 OA
BRANCH  19  20
HETATM   20  C2  UNL     1      11.203   0.742  -0.250  1.00  0.00     0.171 C 
HETATM   21  C1  UNL     1      12.556   0.247   0.260  1.00  0.00     0.034 C 
ENDBRANCH  19  20
ENDBRANCH  15  19
BRANCH  17  22
HETATM   22  C32 UNL     1       5.658  -2.085  -0.127  1.00  0.00     0.418 C 
HETATM   23  F1  UNL     1       6.225  -3.165   0.510  1.00  0.00    -0.166 F 
HETATM   24  F2  UNL     1       5.084  -2.602  -1.285  1.00  0.00    -0.166 F 
HETATM   25  F3  UNL     1       4.665  -1.643   0.765  1.00  0.00    -0.166 F 
ENDBRANCH  17  22
ENDBRANCH  10  12
ENDBRANCH   6   9
ENDBRANCH   1   5
BRANCH   3  26
HETATM   26  N2  UNL     1      -2.722   0.298   0.064  1.00  0.00    -0.355 N 
HETATM   27  C15 UNL     1      -3.899  -0.184  -0.502  1.00  0.00     0.236 C 
HETATM   28  O3  UNL     1      -3.837  -0.676  -1.652  1.00  0.00    -0.272 OA
ATOM     29  H2  UNL     1      -2.770   0.695   1.002  1.00  0.00     0.162 HD
BRANCH  27  30
HETATM   30  C16 UNL     1      -5.170  -0.124   0.200  1.00  0.00     0.126 C 
HETATM   31  C22 UNL     1      -5.074  -0.466   1.679  1.00  0.00     0.029 C 
HETATM   32  C23 UNL     1      -6.239   0.191   2.355  1.00  0.00     0.002 C 
HETATM   33  C24 UNL     1      -6.988   0.856   1.258  1.00  0.00     0.007 C 
HETATM   34  C25 UNL     1      -6.025   1.055   0.079  1.00  0.00     0.020 C 
BRANCH  30  35
HETATM   35  C17 UNL     1      -5.969  -1.282  -0.388  1.00  0.00     0.236 C 
HETATM   36  O4  UNL     1      -7.008  -1.039  -1.024  1.00  0.00    -0.272 OA
HETATM   37  N3  UNL     1      -5.528  -2.617  -0.211  1.00  0.00    -0.351 N 
ATOM     38  H3  UNL     1      -4.670  -2.785   0.315  1.00  0.00     0.163 HD
BRANCH  37  39
HETATM   39  C18 UNL     1      -6.247  -3.749  -0.747  1.00  0.00     0.029 A 
HETATM   40  C19 UNL     1      -7.670  -3.843  -0.203  1.00  0.00     0.038 C 
HETATM   41  C20 UNL     1      -5.965  -4.294  -2.089  1.00  0.00     0.033 A 
HETATM   42  C21 UNL     1      -5.501  -5.052  -0.860  1.00  0.00     0.033 A 
ENDBRANCH  37  39
ENDBRANCH  30  35
BRANCH  34  43
HETATM   43  C26 UNL     1      -5.514   2.424  -0.011  1.00  0.00    -0.046 C 
HETATM   44  C27 UNL     1      -4.699   2.984   1.083  1.00  0.00     0.015 C 
HETATM   45  C28 UNL     1      -4.786   2.682  -1.331  1.00  0.00     0.015 C 
HETATM   46  C29 UNL     1      -6.771   3.333  -0.102  1.00  0.00     0.015 C 
ENDBRANCH  34  43
ENDBRANCH  27  30
ENDBRANCH   3  26
TORSDOF 11
