REMARK  9 active torsions:
REMARK  status: ('A' for Active; 'I' for Inactive)
REMARK    1  A    between atoms: C2_2  and  N1_4 
REMARK    2  A    between atoms: C6_7  and  C7_8 
REMARK       I    between atoms: C7_8  and  N2_10 
REMARK    3  A    between atoms: N2_10  and  C8_12 
REMARK    4  A    between atoms: N3_20  and  C16_21 
REMARK    5  A    between atoms: C16_21  and  C17_22 
REMARK    6  A    between atoms: C17_22  and  C18_23 
REMARK    7  A    between atoms: C18_23  and  C19_24 
REMARK    8  A    between atoms: C19_24  and  C20_25 
REMARK    9  A    between atoms: C20_25  and  C21_26 
ROOT
HETATM    1  C8  UNL     1       2.535   0.189  -0.335  1.00  0.00     0.084 C 
HETATM    2  C9  UNL     1       1.988  -0.949  -1.139  1.00  0.00     0.026 C 
HETATM    3  C10 UNL     1       1.147  -1.832  -0.256  1.00  0.00     0.011 C 
HETATM    4  C11 UNL     1       0.188  -1.029   0.545  1.00  0.00    -0.037 C 
HETATM    5  C12 UNL     1       0.847   0.000   1.445  1.00  0.00     0.011 C 
HETATM    6  C13 UNL     1       2.344   0.004   1.156  1.00  0.00     0.026 C 
HETATM    7  C14 UNL     1      -0.767  -0.302  -0.370  1.00  0.00     0.039 C 
HETATM    8  C15 UNL     1      -1.947   0.088   0.535  1.00  0.00     0.273 C 
HETATM    9  N3  UNL     1      -2.848  -1.063   0.550  1.00  0.00     0.088 N 
HETATM   10  C30 UNL     1      -1.958  -2.224   0.608  1.00  0.00     0.273 C 
HETATM   11  C31 UNL     1      -0.705  -1.948   1.398  1.00  0.00     0.039 C 
ENDROOT
BRANCH   9  12
HETATM   12  C16 UNL     1      -3.647  -1.058   1.746  1.00  0.00     0.272 C 
BRANCH  12  13
HETATM   13  C17 UNL     1      -4.769  -2.056   1.771  1.00  0.00     0.030 C 
BRANCH  13  14
HETATM   14  C18 UNL     1      -5.751  -1.877   0.605  1.00  0.00     0.003 C 
BRANCH  14  15
HETATM   15  C19 UNL     1      -6.323  -0.516   0.630  1.00  0.00     0.029 C 
BRANCH  15  16
HETATM   16  C20 UNL     1      -7.343  -0.174  -0.413  1.00  0.00     0.124 C 
HETATM   17  C27 UNL     1      -8.547  -1.059  -0.101  1.00  0.00     0.238 C 
HETATM   18  O2  UNL     1      -9.060  -1.648   0.852  1.00  0.00    -0.272 OA
HETATM   19  N4  UNL     1      -8.877  -0.925  -1.475  1.00  0.00    -0.323 N 
HETATM   20  C28 UNL     1      -7.426  -0.813  -1.706  1.00  0.00     0.195 C 
ATOM     21  H4  UNL     1      -9.726  -0.912  -2.041  1.00  0.00     0.165 HD
HETATM   22  C29 UNL     1      -7.244   0.019  -2.958  1.00  0.00     0.078 C 
HETATM   23  F1  UNL     1      -6.961  -2.072  -1.929  1.00  0.00    -0.218 F 
BRANCH  16  24
HETATM   24  C21 UNL     1      -7.850   1.223  -0.346  1.00  0.00    -0.013 A 
HETATM   25  C22 UNL     1      -9.148   1.542  -0.005  1.00  0.00     0.012 A 
HETATM   26  C23 UNL     1      -9.622   2.826   0.087  1.00  0.00     0.024 A 
HETATM   27  C24 UNL     1      -8.785   3.881  -0.168  1.00  0.00     0.035 A 
HETATM   28 CL1  UNL     1      -9.327   5.555  -0.065  1.00  0.00    -0.084 Cl
HETATM   29  C25 UNL     1      -7.497   3.623  -0.508  1.00  0.00     0.048 A 
HETATM   30  C26 UNL     1      -7.034   2.334  -0.598  1.00  0.00     0.043 A 
HETATM   31 CL2  UNL     1      -5.379   2.114  -1.071  1.00  0.00    -0.084 Cl
ENDBRANCH  16  24
ENDBRANCH  15  16
ENDBRANCH  14  15
ENDBRANCH  13  14
ENDBRANCH  12  13
ENDBRANCH   9  12
BRANCH   1  32
HETATM   32  N2  UNL     1       3.912   0.403  -0.621  1.00  0.00    -0.356 N 
HETATM   33  C7  UNL     1       4.911  -0.550  -0.341  1.00  0.00     0.222 C 
HETATM   34  O1  UNL     1       4.612  -1.650   0.180  1.00  0.00    -0.273 OA
ATOM     35  H2  UNL     1       4.189   1.287  -1.048  1.00  0.00     0.162 HD
BRANCH  33  36
HETATM   36  C6  UNL     1       6.309  -0.169  -0.698  1.00  0.00     0.081 C 
HETATM   37  C5  UNL     1       6.783   1.037   0.093  1.00  0.00     0.033 C 
HETATM   38  C4  UNL     1       8.013   0.703   0.900  1.00  0.00     0.118 C 
HETATM   39  N1  UNL     1       9.076   0.111   0.166  1.00  0.00    -0.409 N 
HETATM   40  C33 UNL     1       8.648  -0.735  -0.905  1.00  0.00     0.118 C 
HETATM   41  C32 UNL     1       7.272  -1.305  -0.508  1.00  0.00     0.033 C 
BRANCH  39  42
HETATM   42  C2  UNL     1      10.184   0.966  -0.131  1.00  0.00     0.070 C 
HETATM   43  C1  UNL     1      10.879   1.440   1.123  1.00  0.00     0.031 C 
HETATM   44  C3  UNL     1       9.754   2.206  -0.893  1.00  0.00     0.031 C 
ENDBRANCH  39  42
ENDBRANCH  33  36
ENDBRANCH   1  32
TORSDOF 9
