REMARK  3 active torsions:
REMARK  status: ('A' for Active; 'I' for Inactive)
REMARK    1  A    between atoms: C3_5  and  N2_6 
REMARK    2  A    between atoms: C7_12  and  N4_13 
REMARK    3  A    between atoms: N4_13  and  C8_15 
ROOT
HETATM    1  C1  UNL     1       2.093  -2.889   0.428  1.00  0.00     0.019 A 
HETATM    2  C2  UNL     1       3.387  -2.432   0.315  1.00  0.00     0.090 A 
HETATM    3  N1  UNL     1       3.623  -1.139   0.157  1.00  0.00    -0.350 N 
ATOM      4  H1  UNL     1       4.582  -0.802   0.073  1.00  0.00     0.166 HD
HETATM    5  C3  UNL     1       2.602  -0.273   0.107  1.00  0.00     0.139 A 
HETATM    6  C7  UNL     1       1.272  -0.644   0.212  1.00  0.00     0.073 A 
HETATM    7  C14 UNL     1       1.037  -1.991   0.376  1.00  0.00     0.034 A 
ENDROOT
BRANCH   6   8
HETATM    8  N4  UNL     1       0.220   0.293   0.173  1.00  0.00    -0.382 N 
ATOM      9  H4  UNL     1       0.464   1.282   0.127  1.00  0.00     0.160 HD
BRANCH   8  10
HETATM   10  C8  UNL     1      -1.157  -0.052   0.194  1.00  0.00     0.082 C 
HETATM   11  C9  UNL     1      -1.661  -0.763  -1.041  1.00  0.00     0.025 C 
HETATM   12  C10 UNL     1      -3.014  -1.333  -0.683  1.00  0.00     0.002 C 
HETATM   13  C11 UNL     1      -3.979  -0.264  -0.231  1.00  0.00     0.000 C 
HETATM   14  C12 UNL     1      -3.393   0.769   0.666  1.00  0.00     0.002 C 
HETATM   15  C13 UNL     1      -2.005   1.225   0.278  1.00  0.00     0.025 C 
ENDBRANCH   8  10
ENDBRANCH   6   8
BRANCH   5  16
HETATM   16  N2  UNL     1       2.894   1.124  -0.064  1.00  0.00    -0.301 N 
HETATM   17  C4  UNL     1       2.969   2.088   0.864  1.00  0.00     0.116 A 
HETATM   18  C5  UNL     1       3.273   3.306   0.306  1.00  0.00     0.106 A 
HETATM   19  N3  UNL     1       3.386   3.056  -1.026  1.00  0.00    -0.360 N 
HETATM   20  C6  UNL     1       3.157   1.747  -1.237  1.00  0.00     0.189 A 
ATOM     21  H3  UNL     1       3.607   3.745  -1.745  1.00  0.00     0.166 HD
ENDBRANCH   5  16
TORSDOF 3
