REMARK  3 active torsions:
REMARK  status: ('A' for Active; 'I' for Inactive)
REMARK    1  A    between atoms: C4_4  and  O1_5 
REMARK    2  A    between atoms: O1_5  and  C5_6 
REMARK    3  A    between atoms: C8_13  and  C9_14 
ROOT
HETATM    1  C5  UNL     1       0.104  -1.046   0.780  1.00  0.00     0.177 A 
HETATM    2  N1  UNL     1       0.780  -1.949   1.486  1.00  0.00    -0.343 N 
ATOM      3  H1  UNL     1       1.771  -2.093   1.293  1.00  0.00     0.167 HD
HETATM    4  C6  UNL     1       0.187  -2.673   2.445  1.00  0.00     0.107 A 
HETATM    5  C7  UNL     1      -1.129  -2.458   2.682  1.00  0.00     0.105 A 
HETATM    6  N2  UNL     1      -1.821  -1.544   1.976  1.00  0.00    -0.360 N 
ATOM      7  H2  UNL     1      -2.810  -1.410   2.187  1.00  0.00     0.165 HD
HETATM    8  C8  UNL     1      -1.263  -0.798   1.002  1.00  0.00     0.106 A 
ENDROOT
BRANCH   1   9
HETATM    9  O1  UNL     1       0.667  -0.279  -0.181  1.00  0.00    -0.292 OA
BRANCH   9  10
HETATM   10  C4  UNL     1       1.988  -0.075  -0.492  1.00  0.00     0.077 A 
HETATM   11  C3  UNL     1       2.493   1.231  -0.386  1.00  0.00     0.037 A 
HETATM   12  C2  UNL     1       3.773   1.561  -0.657  1.00  0.00     0.003 A 
HETATM   13  C1  UNL     1       4.660   0.576  -1.067  1.00  0.00     0.000 A 
HETATM   14  C14 UNL     1       4.182  -0.715  -1.180  1.00  0.00     0.003 A 
HETATM   15  C13 UNL     1       2.878  -1.027  -0.898  1.00  0.00     0.037 A 
ENDBRANCH   9  10
ENDBRANCH   1   9
BRANCH   8  16
HETATM   16  C9  UNL     1      -2.060   0.046   0.182  1.00  0.00     0.036 C 
HETATM   17  C10 UNL     1      -1.966   1.543   0.262  1.00  0.00     0.061 C 
HETATM   18  C11 UNL     1      -3.140   1.951  -0.590  1.00  0.00     0.026 C 
HETATM   19  C12 UNL     1      -3.490   0.722  -1.391  1.00  0.00     0.120 C 
HETATM   20  N3  UNL     1      -2.384  -0.228  -1.158  1.00  0.00    -0.391 N 
ATOM     21  H3  UNL     1      -1.966  -0.903  -1.799  1.00  0.00     0.159 HD
ENDBRANCH   8  16
TORSDOF 3
