REMARK  3 active torsions:
REMARK  status: ('A' for Active; 'I' for Inactive)
REMARK    1  A    between atoms: C4_4  and  O1_5 
REMARK    2  A    between atoms: O1_5  and  C5_6 
REMARK    3  A    between atoms: C10_11  and  C11_12 
ROOT
HETATM    1  C5  UNL     1      -0.026   1.735  -0.636  1.00  0.00     0.091 A 
HETATM    2  C6  UNL     1       0.247   3.086  -0.559  1.00  0.00     0.038 A 
HETATM    3  C7  UNL     1      -0.506   3.911   0.238  1.00  0.00     0.003 A 
HETATM    4  C8  UNL     1      -1.559   3.444   0.995  1.00  0.00     0.001 A 
HETATM    5  C9  UNL     1      -1.824   2.093   0.909  1.00  0.00     0.018 A 
HETATM    6  C10 UNL     1      -1.068   1.235   0.101  1.00  0.00     0.041 A 
ENDROOT
BRANCH   1   7
HETATM    7  O1  UNL     1       0.762   0.948  -1.453  1.00  0.00    -0.293 OA
BRANCH   7   8
HETATM    8  C4  UNL     1       1.634  -0.036  -1.064  1.00  0.00     0.147 A 
HETATM    9  C3  UNL     1       1.913  -0.382   0.234  1.00  0.00     0.056 A 
HETATM   10  C2  UNL     1       2.812  -1.386   0.552  1.00  0.00     0.006 A 
HETATM   11  C1  UNL     1       3.447  -2.061  -0.462  1.00  0.00     0.017 A 
HETATM   12  C14 UNL     1       3.158  -1.704  -1.762  1.00  0.00     0.090 A 
HETATM   13  N3  UNL     1       2.278  -0.722  -2.026  1.00  0.00    -0.347 N 
ATOM     14  H3  UNL     1       2.090  -0.486  -3.000  1.00  0.00     0.167 HD
ENDBRANCH   7   8
ENDBRANCH   1   7
BRANCH   6  15
HETATM   15  C11 UNL     1      -1.502  -0.160   0.041  1.00  0.00     0.110 C 
HETATM   16  N1  UNL     1      -1.509  -0.942  -0.985  1.00  0.00    -0.374 N 
HETATM   17  C12 UNL     1      -2.011  -2.257  -0.653  1.00  0.00     0.141 C 
ATOM     18  H1  UNL     1      -1.198  -0.666  -1.917  1.00  0.00     0.161 HD
HETATM   19  C13 UNL     1      -1.904  -2.262   0.857  1.00  0.00     0.141 C 
HETATM   20  N2  UNL     1      -2.002  -0.867   1.185  1.00  0.00    -0.374 N 
ATOM     21  H2  UNL     1      -2.354  -0.462   2.052  1.00  0.00     0.161 HD
ENDBRANCH   6  15
TORSDOF 3
