REMARK  4 active torsions:
REMARK  status: ('A' for Active; 'I' for Inactive)
REMARK    1  A    between atoms: N1_1  and  C1_5 
REMARK    2  A    between atoms: C5_10  and  O2_11 
REMARK    3  A    between atoms: O2_11  and  C6_12 
REMARK    4  A    between atoms: C6_12  and  C7_13 
ROOT
HETATM    1  C1  UNL     1      -4.313   1.170  -1.248  1.00  0.00     0.477 C 
HETATM    2  O1  UNL     1      -4.073   1.024   0.161  1.00  0.00    -0.294 OA
HETATM    3  C2  UNL     1      -2.859   0.331   0.215  1.00  0.00     0.107 A 
HETATM    4  C3  UNL     1      -1.846   0.229   1.140  1.00  0.00     0.042 A 
HETATM    5  C4  UNL     1      -0.726  -0.570   0.893  1.00  0.00     0.039 A 
HETATM    6  C5  UNL     1      -0.580  -1.283  -0.265  1.00  0.00     0.071 A 
HETATM    7  C13 UNL     1      -1.625  -1.171  -1.204  1.00  0.00     0.076 A 
HETATM    8  C14 UNL     1      -2.728  -0.383  -0.960  1.00  0.00     0.110 A 
HETATM    9  O3  UNL     1      -3.889  -0.099  -1.708  1.00  0.00    -0.294 OA
ENDROOT
BRANCH   6  10
HETATM   10  O2  UNL     1       0.496  -2.072  -0.547  1.00  0.00    -0.347 OA
BRANCH  10  11
HETATM   11  C6  UNL     1       1.589  -2.233   0.296  1.00  0.00     0.214 C 
BRANCH  11  12
HETATM   12  C7  UNL     1       2.334  -0.990   0.522  1.00  0.00    -0.034 A 
HETATM   13  C8  UNL     1       3.137  -0.815   1.626  1.00  0.00     0.009 A 
HETATM   14  C9  UNL     1       3.849   0.339   1.836  1.00  0.00     0.001 A 
HETATM   15  C10 UNL     1       3.753   1.349   0.915  1.00  0.00     0.000 A 
HETATM   16  C11 UNL     1       2.958   1.205  -0.199  1.00  0.00     0.001 A 
HETATM   17  C12 UNL     1       2.253   0.036  -0.388  1.00  0.00     0.009 A 
ENDBRANCH  11  12
ENDBRANCH  10  11
ENDBRANCH   6  10
BRANCH   1  18
HETATM   18  N1  UNL     1      -3.357   2.140  -1.733  1.00  0.00    -0.028 N 
ATOM     19  H13 UNL     1      -3.388   3.024  -1.225  1.00  0.00     0.280 HD
ATOM     20  H12 UNL     1      -2.391   1.899  -1.512  1.00  0.00     0.280 HD
ATOM     21  H11 UNL     1      -3.527   2.244  -2.733  1.00  0.00     0.280 HD
ENDBRANCH   1  18
TORSDOF 4
