REMARK  7 active torsions:
REMARK  status: ('A' for Active; 'I' for Inactive)
REMARK    1  A    between atoms: C2_2  and  O1_3 
REMARK    2  A    between atoms: O1_3  and  C3_4 
REMARK    3  A    between atoms: C5_6  and  N1_7 
REMARK       I    between atoms: N1_7  and  C6_9 
REMARK    4  A    between atoms: C6_9  and  C7_11 
REMARK    5  A    between atoms: C7_11  and  N2_12 
REMARK    6  A    between atoms: N2_12  and  C8_14 
REMARK    7  A    between atoms: C21_32  and  C22_33 
ROOT
HETATM    1  C8  UNL     1      -2.122   1.145  -0.229  1.00  0.00     0.124 A 
HETATM    2  N3  UNL     1      -3.121   0.868  -1.157  1.00  0.00    -0.327 N 
ATOM      3  H3  UNL     1      -2.940   1.076  -2.139  1.00  0.00     0.169 HD
HETATM    4  C9  UNL     1      -4.295   0.348  -0.830  1.00  0.00     0.118 A 
HETATM    5  N4  UNL     1      -5.246   0.107  -1.766  1.00  0.00    -0.345 N 
ATOM      6  H4  UNL     1      -5.041   0.325  -2.741  1.00  0.00     0.167 HD
HETATM    7  C10 UNL     1      -6.456  -0.412  -1.456  1.00  0.00     0.013 A 
HETATM    8  C11 UNL     1      -7.482  -0.681  -2.509  1.00  0.00     0.068 C 
HETATM    9  C12 UNL     1      -6.788  -0.725  -0.157  1.00  0.00    -0.033 A 
HETATM   10  C13 UNL     1      -8.114  -1.308   0.191  1.00  0.00     0.050 C 
HETATM   11  C14 UNL     1      -5.805  -0.471   0.786  1.00  0.00    -0.040 A 
HETATM   12  C15 UNL     1      -6.140  -0.782   2.197  1.00  0.00     0.050 C 
HETATM   13  C16 UNL     1      -4.581   0.050   0.496  1.00  0.00     0.016 A 
HETATM   14  C17 UNL     1      -3.605   0.316   1.417  1.00  0.00     0.042 A 
HETATM   15  C18 UNL     1      -2.375   0.858   1.093  1.00  0.00     0.089 A 
HETATM   16  C19 UNL     1      -1.393   1.087   2.132  1.00  0.00     0.103 C 
HETATM   17  N5  UNL     1      -0.614   1.250   2.988  1.00  0.00    -0.191 NA
ENDROOT
BRANCH   1  18
HETATM   18  N2  UNL     1      -1.079   1.650  -0.618  1.00  0.00    -0.366 N 
ATOM     19  H2  UNL     1      -1.193   1.763  -1.625  1.00  0.00     0.161 HD
BRANCH  18  20
HETATM   20  C7  UNL     1       0.159   2.131  -0.340  1.00  0.00     0.224 C 
BRANCH  20  21
HETATM   21  C6  UNL     1       1.232   1.040  -0.383  1.00  0.00     0.239 C 
HETATM   22  N1  UNL     1       2.533   1.504  -0.127  1.00  0.00    -0.326 N 
ATOM     23  H1  UNL     1       2.638   2.501   0.062  1.00  0.00     0.169 HD
HETATM   24  O2  UNL     1       0.866  -0.096  -0.631  1.00  0.00    -0.271 OA
BRANCH  22  25
HETATM   25  C5  UNL     1       3.706   0.724  -0.106  1.00  0.00     0.038 A 
HETATM   26  C4  UNL     1       4.954   1.369  -0.210  1.00  0.00     0.066 A 
HETATM   27  C3  UNL     1       6.147   0.693  -0.154  1.00  0.00     0.071 A 
HETATM   28  C23 UNL     1       6.114  -0.670   0.008  1.00  0.00     0.053 A 
HETATM   29  C21 UNL     1       4.911  -1.357   0.117  1.00  0.00     0.052 A 
HETATM   30  C20 UNL     1       3.725  -0.631   0.057  1.00  0.00     0.046 A 
BRANCH  27  31
HETATM   31  O1  UNL     1       7.301   1.393  -0.263  1.00  0.00    -0.351 OA
BRANCH  31  32
HETATM   32  C2  UNL     1       8.624   1.040  -0.241  1.00  0.00     0.171 C 
HETATM   33  C1  UNL     1       9.058   0.065  -1.312  1.00  0.00     0.034 C 
ENDBRANCH  31  32
ENDBRANCH  27  31
BRANCH  29  34
HETATM   34  C22 UNL     1       4.901  -2.844   0.288  1.00  0.00     0.417 C 
HETATM   35  F1  UNL     1       4.461  -3.195   1.551  1.00  0.00    -0.166 F 
HETATM   36  F2  UNL     1       4.119  -3.484  -0.636  1.00  0.00    -0.166 F 
HETATM   37  F3  UNL     1       6.196  -3.305   0.090  1.00  0.00    -0.166 F 
ENDBRANCH  29  34
ENDBRANCH  22  25
ENDBRANCH  20  21
ENDBRANCH  18  20
ENDBRANCH   1  18
TORSDOF 7
