REMARK  8 active torsions:
REMARK  status: ('A' for Active; 'I' for Inactive)
REMARK    1  A    between atoms: C4_5  and  S1_6 
REMARK    2  A    between atoms: S1_6  and  N2_7 
REMARK    3  A    between atoms: S1_6  and  C5_11 
REMARK    4  A    between atoms: C8_14  and  C9_15 
REMARK    5  A    between atoms: C9_15  and  C10_16 
REMARK    6  A    between atoms: C10_16  and  C11_17 
REMARK       I    between atoms: C11_17  and  N3_19 
REMARK    7  A    between atoms: N3_19  and  C12_21 
REMARK    8  A    between atoms: C19_31  and  C20_32 
ROOT
HETATM    1  N1  UNL     1      -6.200   0.041   3.113  1.00  0.00    -0.191 NA
HETATM    2  C1  UNL     1      -5.692  -0.219   2.112  1.00  0.00     0.100 C 
HETATM    3  C2  UNL     1      -5.075  -0.544   0.865  1.00  0.00     0.061 A 
HETATM    4  C3  UNL     1      -4.470   0.430   0.102  1.00  0.00     0.045 A 
HETATM    5  C4  UNL     1      -3.872   0.111  -1.107  1.00  0.00     0.044 A 
HETATM    6  C17 UNL     1      -3.903  -1.201  -1.513  1.00  0.00     0.023 A 
HETATM    7  C18 UNL     1      -4.515  -2.175  -0.736  1.00  0.00     0.019 A 
HETATM    8  C19 UNL     1      -5.113  -1.871   0.466  1.00  0.00     0.068 A 
ENDROOT
BRANCH   8   9
HETATM    9  C20 UNL     1      -5.745  -2.910   1.258  1.00  0.00     0.418 C 
HETATM   10  F1  UNL     1      -5.231  -3.093   2.511  1.00  0.00    -0.166 F 
HETATM   11  F2  UNL     1      -5.632  -4.114   0.590  1.00  0.00    -0.166 F 
HETATM   12  F3  UNL     1      -7.112  -2.633   1.304  1.00  0.00    -0.166 F 
ENDBRANCH   8   9
BRANCH   5  13
HETATM   13  S1  UNL     1      -3.097   1.337  -2.093  1.00  0.00     0.082 S 
HETATM   14  O1  UNL     1      -3.832   2.637  -1.950  1.00  0.00    -0.240 OA
BRANCH  13  15
HETATM   15  N2  UNL     1      -3.229   0.877  -3.581  1.00  0.00    -0.353 N 
ATOM     16  H22 UNL     1      -3.683   0.022  -3.902  1.00  0.00     0.166 HD
ATOM     17  H21 UNL     1      -2.778   1.590  -4.154  1.00  0.00     0.166 HD
ENDBRANCH  13  15
BRANCH  13  18
HETATM   18  C5  UNL     1      -1.432   1.447  -1.627  1.00  0.00     0.043 A 
HETATM   19  C6  UNL     1      -0.491   0.664  -2.249  1.00  0.00     0.023 A 
HETATM   20  C7  UNL     1       0.851   0.747  -1.879  1.00  0.00     0.008 A 
HETATM   21  C8  UNL     1       1.248   1.616  -0.885  1.00  0.00    -0.058 A 
HETATM   22  C15 UNL     1       0.273   2.394  -0.277  1.00  0.00     0.008 A 
HETATM   23  C16 UNL     1      -1.053   2.308  -0.646  1.00  0.00     0.023 A 
BRANCH  21  24
HETATM   24  C9  UNL     1       2.675   1.708  -0.489  1.00  0.00     0.048 C 
BRANCH  24  25
HETATM   25  C10 UNL     1       3.014   0.751   0.608  1.00  0.00     0.108 C 
BRANCH  25  26
HETATM   26  C11 UNL     1       4.439   0.888   0.958  1.00  0.00     0.223 C 
HETATM   27  O2  UNL     1       5.136   1.726   0.340  1.00  0.00    -0.273 OA
HETATM   28  N3  UNL     1       5.073   0.114   1.969  1.00  0.00    -0.312 N 
ATOM     29  H3  UNL     1       4.594  -0.002   2.862  1.00  0.00     0.170 HD
BRANCH  28  30
HETATM   30  C12 UNL     1       6.215  -0.445   1.814  1.00  0.00     0.130 A 
HETATM   31  C13 UNL     1       6.856  -1.199   2.767  1.00  0.00     0.077 A 
HETATM   32  C14 UNL     1       8.061  -1.624   2.216  1.00  0.00     0.171 A 
HETATM   33  O3  UNL     1       8.099  -1.138   1.018  1.00  0.00    -0.248 OA
HETATM   34  N4  UNL     1       7.029  -0.437   0.743  1.00  0.00    -0.245 N 
ATOM     35  H4  UNL     1       6.842   0.038  -0.140  1.00  0.00     0.196 HD
ENDBRANCH  28  30
ENDBRANCH  25  26
ENDBRANCH  24  25
ENDBRANCH  21  24
ENDBRANCH  13  18
ENDBRANCH   5  13
TORSDOF 8
