REMARK  6 active torsions:
REMARK  status: ('A' for Active; 'I' for Inactive)
REMARK    1  A    between atoms: O1_2  and  C2_3 
REMARK    2  A    between atoms: C5_6  and  N1_7 
REMARK    3  A    between atoms: C7_12  and  C8_13 
REMARK    4  A    between atoms: C7_12  and  C15_25 
REMARK    5  A    between atoms: C11_16  and  N3_17 
REMARK    6  A    between atoms: N3_17  and  S1_19 
ROOT
HETATM    1  N1  UNL     1      -2.085  -0.789  -0.956  1.00  0.00    -0.344 N 
ATOM      2  H1  UNL     1      -1.960  -0.579  -1.946  1.00  0.00     0.167 HD
HETATM    3  C6  UNL     1      -1.099  -1.404  -0.553  1.00  0.00     0.115 C 
HETATM    4  N2  UNL     1       0.025  -1.742  -1.404  1.00  0.00    -0.334 N 
ATOM      5  H2  UNL     1       0.029  -1.799  -2.422  1.00  0.00     0.164 HD
HETATM    6  C7  UNL     1       1.140  -1.982  -0.512  1.00  0.00     0.265 C 
HETATM    7  O4  UNL     1       0.668  -2.064   0.769  1.00  0.00    -0.331 OA
HETATM    8  C16 UNL     1      -0.725  -1.942   0.748  1.00  0.00     0.115 C 
HETATM    9  C17 UNL     1      -1.085  -1.010   1.887  1.00  0.00     0.054 C 
HETATM   10  C18 UNL     1      -1.265  -3.339   0.947  1.00  0.00     0.054 C 
ENDROOT
BRANCH   6  11
HETATM   11  C8  UNL     1       2.074  -0.807  -0.644  1.00  0.00     0.006 A 
HETATM   12  C9  UNL     1       1.794   0.219  -1.535  1.00  0.00     0.014 A 
HETATM   13  C10 UNL     1       2.584   1.297  -1.705  1.00  0.00     0.031 A 
HETATM   14  C11 UNL     1       3.769   1.399  -0.933  1.00  0.00     0.042 A 
HETATM   15  C13 UNL     1       4.083   0.415  -0.045  1.00  0.00     0.031 A 
HETATM   16  C14 UNL     1       3.217  -0.673   0.076  1.00  0.00     0.014 A 
BRANCH  14  17
HETATM   17  N3  UNL     1       4.548   2.560  -1.142  1.00  0.00    -0.285 N 
ATOM     18  H3  UNL     1       4.022   3.407  -1.356  1.00  0.00     0.178 HD
BRANCH  17  19
HETATM   19  S1  UNL     1       6.234   2.744  -1.088  1.00  0.00     0.227 S 
HETATM   20  C12 UNL     1       6.988   2.440   0.460  1.00  0.00     0.186 C 
HETATM   21  O2  UNL     1       6.658   4.106  -1.601  1.00  0.00    -0.206 OA
HETATM   22  O3  UNL     1       6.890   1.766  -2.075  1.00  0.00    -0.206 OA
ENDBRANCH  17  19
ENDBRANCH  14  17
ENDBRANCH   6  11
BRANCH   6  23
HETATM   23  C15 UNL     1       1.877  -3.215  -1.000  1.00  0.00     0.443 C 
HETATM   24  F1  UNL     1       2.950  -3.564  -0.242  1.00  0.00    -0.166 F 
HETATM   25  F2  UNL     1       2.268  -2.905  -2.312  1.00  0.00    -0.166 F 
HETATM   26  F3  UNL     1       1.032  -4.318  -1.062  1.00  0.00    -0.166 F 
ENDBRANCH   6  23
BRANCH   1  27
HETATM   27  C5  UNL     1      -3.285  -0.289  -0.549  1.00  0.00     0.033 A 
HETATM   28  C4  UNL     1      -4.180  -0.982   0.247  1.00  0.00     0.032 A 
HETATM   29  C3  UNL     1      -5.380  -0.431   0.613  1.00  0.00     0.039 A 
HETATM   30  C2  UNL     1      -5.771   0.827   0.219  1.00  0.00     0.068 A 
HETATM   31  C20 UNL     1      -4.880   1.539  -0.584  1.00  0.00     0.039 A 
HETATM   32  C19 UNL     1      -3.684   0.999  -0.952  1.00  0.00     0.032 A 
BRANCH  30  33
HETATM   33  O1  UNL     1      -6.980   1.376   0.588  1.00  0.00    -0.356 OA
HETATM   34  C1  UNL     1      -7.392   2.668   0.188  1.00  0.00     0.210 C 
ENDBRANCH  30  33
ENDBRANCH   1  27
TORSDOF 6
