REMARK  2 active torsions:
REMARK  status: ('A' for Active; 'I' for Inactive)
REMARK    1  A    between atoms: C3_4  and  O1_5 
REMARK    2  A    between atoms: C3_4  and  C4_7 
ROOT
HETATM    1  C4  UNL     1      -0.049  -0.323  -0.456  1.00  0.00     0.152 C 
HETATM    2  C5  UNL     1       0.434  -1.756  -0.732  1.00  0.00     0.057 C 
HETATM    3  C6  UNL     1      -1.374  -0.179  -1.194  1.00  0.00     0.161 C 
HETATM    4  C7  UNL     1      -1.145   1.004  -2.064  1.00  0.00     0.292 C 
HETATM    5  O2  UNL     1      -1.877   1.461  -2.981  1.00  0.00    -0.263 OA
HETATM    6  O3  UNL     1       0.079   1.493  -1.626  1.00  0.00    -0.158 OA
HETATM    7  O4  UNL     1       0.804   0.526  -1.066  1.00  0.00    -0.214 OA
ENDROOT
BRANCH   1   8
HETATM    8  C3  UNL     1      -0.226  -0.179   0.999  1.00  0.00     0.115 C 
HETATM    9  C2  UNL     1       0.444   0.608   1.806  1.00  0.00     0.122 C 
HETATM   10  C1  UNL     1       1.527   1.513   1.371  1.00  0.00     0.085 C 
HETATM   11  F1  UNL     1       0.125   0.597   3.121  1.00  0.00    -0.208 F 
BRANCH   8  12
HETATM   12  O1  UNL     1      -1.232  -0.983   1.582  1.00  0.00    -0.359 OA
ATOM     13  H1  UNL     1      -1.717  -1.553   0.997  1.00  0.00     0.217 HD
ENDBRANCH   8  12
ENDBRANCH   1   8
TORSDOF 2
