REMARK  7 active torsions:
REMARK  status: ('A' for Active; 'I' for Inactive)
REMARK    1  A    between atoms: C2_2  and  C3_3 
REMARK    2  A    between atoms: C3_3  and  C4_4 
REMARK    3  A    between atoms: C4_4  and  O1_5 
REMARK    4  A    between atoms: C4_4  and  C5_7 
REMARK    5  A    between atoms: C7_9  and  C8_10 
REMARK    6  A    between atoms: C9_13  and  C10_14 
REMARK    7  A    between atoms: N2_18  and  O3_19 
ROOT
HETATM    1  C5  UNL     1      -0.029   0.081   0.364  1.00  0.00     0.070 A 
HETATM    2  C6  UNL     1      -0.879   1.047   0.826  1.00  0.00     0.049 A 
HETATM    3  C7  UNL     1      -2.207   0.794   0.380  1.00  0.00     0.060 A 
HETATM    4  C9  UNL     1      -2.074  -0.356  -0.356  1.00  0.00     0.109 A 
HETATM    5  N2  UNL     1      -0.765  -0.767  -0.353  1.00  0.00    -0.225 N 
ENDROOT
BRANCH   1   6
HETATM    6  C4  UNL     1       1.443   0.023   0.635  1.00  0.00     0.170 C 
BRANCH   6   7
HETATM    7  C3  UNL     1       2.230   0.538  -0.547  1.00  0.00     0.037 C 
BRANCH   7   8
HETATM    8  C2  UNL     1       3.699   0.579  -0.289  1.00  0.00    -0.002 C 
HETATM    9  C1  UNL     1       4.281  -0.777   0.034  1.00  0.00     0.005 C 
ENDBRANCH   7   8
ENDBRANCH   6   7
BRANCH   6  10
HETATM   10  O1  UNL     1       1.822  -1.268   0.979  1.00  0.00    -0.389 OA
ATOM     11  H1  UNL     1       1.327  -1.592   1.722  1.00  0.00     0.210 HD
ENDBRANCH   6  10
ENDBRANCH   1   6
BRANCH   5  12
HETATM   12  O3  UNL     1      -0.227  -1.875  -0.975  1.00  0.00    -0.282 OA
ATOM     13  H3  UNL     1      -0.752  -2.480  -1.486  1.00  0.00     0.245 HD
ENDBRANCH   5  12
BRANCH   3  14
HETATM   14  C8  UNL     1      -3.308   1.651   0.710  1.00  0.00     0.267 C 
HETATM   15  N1  UNL     1      -4.646   1.451   0.400  1.00  0.00    -0.057 NA
HETATM   16  O2  UNL     1      -3.078   2.741   1.371  1.00  0.00    -0.271 OA
ENDBRANCH   3  14
BRANCH   4  17
HETATM   17  C10 UNL     1      -3.122  -1.089  -1.075  1.00  0.00     0.234 C 
HETATM   18 CL1  UNL     1      -3.919  -0.125  -2.337  1.00  0.00    -0.077 Cl
HETATM   19 CL2  UNL     1      -2.364  -2.474  -1.948  1.00  0.00    -0.077 Cl
HETATM   20 CL3  UNL     1      -4.369  -1.798  -0.029  1.00  0.00    -0.077 Cl
ENDBRANCH   4  17
TORSDOF 7
