REMARK  7 active torsions:
REMARK  status: ('A' for Active; 'I' for Inactive)
REMARK    1  A    between atoms: C4_4  and  C5_5 
REMARK    2  A    between atoms: C5_5  and  N1_6 
REMARK    3  A    between atoms: C5_5  and  N2_10 
REMARK    4  A    between atoms: N3_12  and  C6_14 
REMARK    5  A    between atoms: C6_14  and  C7_15 
REMARK    6  A    between atoms: C6_14  and  C9_21 
REMARK    7  A    between atoms: C7_15  and  C8_17 
ROOT
HETATM    1  N2  UNL     1      -0.532   0.195  -0.180  1.00  0.00    -0.305 N 
ATOM      2  H2  UNL     1      -0.216  -0.583   0.399  1.00  0.00     0.182 HD
HETATM    3  N3  UNL     1      -1.726   0.222  -0.524  1.00  0.00    -0.322 N 
ATOM      4  H3  UNL     1      -2.044   1.000  -1.102  1.00  0.00     0.181 HD
ENDROOT
BRANCH   1   5
HETATM    5  C5  UNL     1       0.420   1.186  -0.546  1.00  0.00     0.331 C 
BRANCH   5   6
HETATM    6  C4  UNL     1       1.816   0.686  -0.408  1.00  0.00     0.017 A 
HETATM    7  C3  UNL     1       2.296  -0.455   0.176  1.00  0.00     0.045 A 
HETATM    8  C2  UNL     1       3.668  -0.457   0.040  1.00  0.00     0.049 A 
HETATM    9  C1  UNL     1       4.571  -1.544   0.552  1.00  0.00     0.076 C 
HETATM   10  O2  UNL     1       3.993   0.631  -0.597  1.00  0.00    -0.327 OA
HETATM   11  C10 UNL     1       2.933   1.350  -0.889  1.00  0.00     0.153 A 
ENDBRANCH   5   6
BRANCH   5  12
HETATM   12  N1  UNL     1       0.267   1.649  -1.902  1.00  0.00    -0.053 N 
ATOM     13  H13 UNL     1       0.968   2.340  -2.170  1.00  0.00     0.277 HD
ATOM     14  H12 UNL     1       0.509   0.942  -2.596  1.00  0.00     0.277 HD
ATOM     15  H11 UNL     1      -0.689   1.991  -1.997  1.00  0.00     0.277 HD
ENDBRANCH   5  12
ENDBRANCH   1   5
BRANCH   3  16
HETATM   16  C6  UNL     1      -2.670  -0.770  -0.156  1.00  0.00     0.228 C 
BRANCH  16  17
HETATM   17  C7  UNL     1      -3.818  -0.220   0.646  1.00  0.00     0.192 C 
HETATM   18  O1  UNL     1      -4.722  -1.012   1.035  1.00  0.00    -0.289 OA
BRANCH  17  19
HETATM   19  C8  UNL     1      -3.942   1.179   0.997  1.00  0.00     0.133 C 
HETATM   20  N4  UNL     1      -3.071   2.074   0.649  1.00  0.00    -0.405 N 
ATOM     21  H42 UNL     1      -2.268   1.762   0.103  1.00  0.00     0.155 HD
ATOM     22  H41 UNL     1      -3.158   3.060   0.896  1.00  0.00     0.155 HD
ENDBRANCH  17  19
ENDBRANCH  16  17
BRANCH  16  23
HETATM   23  C9  UNL     1      -2.046  -1.907   0.626  1.00  0.00     0.217 C 
HETATM   24 CL1  UNL     1      -3.263  -3.125   1.066  1.00  0.00    -0.081 Cl
HETATM   25 CL2  UNL     1      -0.864  -2.742  -0.444  1.00  0.00    -0.081 Cl
HETATM   26 CL3  UNL     1      -1.234  -1.326   2.084  1.00  0.00    -0.081 Cl
ENDBRANCH  16  23
ENDBRANCH   3  16
TORSDOF 7
