REMARK  10 active torsions:
REMARK  status: ('A' for Active; 'I' for Inactive)
REMARK    1  A    between atoms: C2_2  and  O1_3 
REMARK    2  A    between atoms: O1_3  and  C3_4 
REMARK    3  A    between atoms: C3_4  and  C4_6 
REMARK    4  A    between atoms: C4_6  and  O3_7 
REMARK    5  A    between atoms: O3_7  and  C5_8 
REMARK    6  A    between atoms: C6_11  and  N2_12 
REMARK    7  A    between atoms: N3_14  and  C7_16 
REMARK    8  A    between atoms: C8_17  and  O4_18 
REMARK    9  A    between atoms: C9_22  and  O5_23 
REMARK   10  A    between atoms: C10_25  and  N5_26 
ROOT
HETATM    1  N2  UNL     1      -0.677  -3.294  -1.195  1.00  0.00    -0.264 N 
ATOM      2  H2  UNL     1      -1.152  -4.191  -1.091  1.00  0.00     0.190 HD
HETATM    3  N3  UNL     1      -1.388  -2.277  -1.240  1.00  0.00    -0.291 N 
ATOM      4  H3  UNL     1      -2.394  -2.427  -1.169  1.00  0.00     0.187 HD
ENDROOT
BRANCH   3   5
HETATM    5  C7  UNL     1      -0.962  -0.927  -1.379  1.00  0.00     0.130 A 
HETATM    6  C8  UNL     1      -0.268  -0.557  -2.539  1.00  0.00     0.173 A 
HETATM    7  N4  UNL     1       0.015   0.736  -2.408  1.00  0.00    -0.314 N 
HETATM    8  C9  UNL     1      -0.458   1.205  -1.235  1.00  0.00     0.171 A 
ATOM      9  H4  UNL     1       0.519   1.294  -3.097  1.00  0.00     0.170 HD
HETATM   10  C10 UNL     1      -1.094   0.155  -0.548  1.00  0.00     0.114 A 
BRANCH   6  11
HETATM   11  O4  UNL     1       0.058  -1.371  -3.609  1.00  0.00    -0.344 OA
ATOM     12  H4  UNL     1       0.528  -1.120  -4.395  1.00  0.00     0.219 HD
ENDBRANCH   6  11
BRANCH   8  13
HETATM   13  O5  UNL     1      -0.338   2.505  -0.785  1.00  0.00    -0.344 OA
ATOM     14  H5  UNL     1      -0.671   2.835   0.041  1.00  0.00     0.219 HD
ENDBRANCH   8  13
BRANCH  10  15
HETATM   15  N5  UNL     1      -1.755   0.222   0.682  1.00  0.00    -0.375 N 
HETATM   16  C11 UNL     1      -2.468  -0.945   1.145  1.00  0.00     0.123 C 
HETATM   17  C12 UNL     1      -3.846  -0.866   0.514  1.00  0.00     0.020 C 
HETATM   18  C13 UNL     1      -4.748   0.080   1.219  1.00  0.00     0.002 C 
HETATM   19  C14 UNL     1      -4.120   1.096   2.101  1.00  0.00     0.002 C 
HETATM   20  C15 UNL     1      -3.125   2.014   1.391  1.00  0.00     0.020 C 
HETATM   21  C16 UNL     1      -1.735   1.424   1.493  1.00  0.00     0.123 C 
ENDBRANCH  10  15
ENDBRANCH   3   5
BRANCH   1  22
HETATM   22  C6  UNL     1       0.749  -3.315  -1.276  1.00  0.00     0.246 A 
HETATM   23  N1  UNL     1       1.595  -2.586  -0.503  1.00  0.00    -0.298 N 
HETATM   24  C5  UNL     1       2.860  -2.862  -0.856  1.00  0.00     0.188 A 
ATOM     25  H1  UNL     1       1.314  -1.933   0.229  1.00  0.00     0.171 HD
HETATM   26  C17 UNL     1       2.758  -3.790  -1.879  1.00  0.00     0.176 A 
HETATM   27  O6  UNL     1       1.503  -4.010  -2.075  1.00  0.00    -0.266 OA
HETATM   28 BR1  UNL     1       4.259  -4.580  -2.811  1.00  0.00    -0.018 Br
BRANCH  24  29
HETATM   29  O3  UNL     1       4.037  -2.367  -0.352  1.00  0.00    -0.323 OA
BRANCH  29  30
HETATM   30  C4  UNL     1       4.226  -1.445   0.660  1.00  0.00     0.288 C 
BRANCH  30  31
HETATM   31  C3  UNL     1       3.639  -0.114   0.436  1.00  0.00     0.283 C 
HETATM   32  O2  UNL     1       2.975   0.142  -0.587  1.00  0.00    -0.263 OA
BRANCH  31  33
HETATM   33  O1  UNL     1       3.836   0.862   1.385  1.00  0.00    -0.320 OA
BRANCH  33  34
HETATM   34  C2  UNL     1       3.348   2.172   1.318  1.00  0.00     0.174 C 
HETATM   35  C1  UNL     1       3.835   2.962   0.137  1.00  0.00     0.034 C 
ENDBRANCH  33  34
ENDBRANCH  31  33
ENDBRANCH  30  31
ENDBRANCH  29  30
ENDBRANCH  24  29
ENDBRANCH   1  22
TORSDOF 10
