REMARK  10 active torsions:
REMARK  status: ('A' for Active; 'I' for Inactive)
REMARK    1  A    between atoms: C2_2  and  O1_3 
REMARK    2  A    between atoms: O1_3  and  C3_4 
REMARK    3  A    between atoms: C3_4  and  C4_6 
REMARK    4  A    between atoms: C6_12  and  N2_13 
REMARK    5  A    between atoms: N3_15  and  C7_17 
REMARK    6  A    between atoms: C9_19  and  O5_20 
REMARK    7  A    between atoms: O5_20  and  C10_21 
REMARK    8  A    between atoms: C11_22  and  C12_23 
REMARK    9  A    between atoms: C17_30  and  O7_31 
REMARK   10  A    between atoms: C20_35  and  O8_36 
ROOT
HETATM    1  C7  UNL     1       1.256  -3.056   0.541  1.00  0.00     0.083 A 
HETATM    2  C8  UNL     1       0.243  -2.126   0.433  1.00  0.00     0.070 A 
HETATM    3  C9  UNL     1      -0.957  -2.251   1.091  1.00  0.00     0.071 A 
HETATM    4  C18 UNL     1      -1.132  -3.370   1.895  1.00  0.00     0.039 A 
HETATM    5  C19 UNL     1      -0.135  -4.296   2.010  1.00  0.00     0.041 A 
HETATM    6  C20 UNL     1       1.064  -4.157   1.343  1.00  0.00     0.093 A 
ENDROOT
BRANCH   1   7
HETATM    7  N3  UNL     1       2.483  -2.897  -0.156  1.00  0.00    -0.297 N 
HETATM    8  N2  UNL     1       3.281  -1.950  -0.076  1.00  0.00    -0.292 N 
ATOM      9  H2  UNL     1       4.110  -2.030  -0.664  1.00  0.00     0.187 HD
ATOM     10  H3  UNL     1       2.738  -3.648  -0.797  1.00  0.00     0.187 HD
BRANCH   8  11
HETATM   11  C6  UNL     1       3.211  -0.791   0.701  1.00  0.00     0.160 A 
HETATM   12  C4  UNL     1       3.192   0.503   0.210  1.00  0.00     0.164 A 
HETATM   13  N1  UNL     1       3.125   1.298   1.278  1.00  0.00    -0.249 N 
HETATM   14  O3  UNL     1       3.104   0.586   2.360  1.00  0.00    -0.193 OA
ATOM     15  H1  UNL     1       3.095   2.317   1.248  1.00  0.00     0.195 HD
HETATM   16  C5  UNL     1       3.153  -0.688   2.079  1.00  0.00     0.335 A 
HETATM   17  O4  UNL     1       3.148  -1.629   2.930  1.00  0.00    -0.255 OA
BRANCH  12  18
HETATM   18  C3  UNL     1       3.238   0.918  -1.205  1.00  0.00     0.314 C 
HETATM   19  O2  UNL     1       3.296   0.084  -2.122  1.00  0.00    -0.257 OA
BRANCH  18  20
HETATM   20  O1  UNL     1       3.217   2.243  -1.555  1.00  0.00    -0.317 OA
BRANCH  20  21
HETATM   21  C2  UNL     1       3.254   2.759  -2.834  1.00  0.00     0.175 C 
HETATM   22  C1  UNL     1       4.448   2.409  -3.651  1.00  0.00     0.034 C 
ENDBRANCH  20  21
ENDBRANCH  18  20
ENDBRANCH  12  18
ENDBRANCH   8  11
ENDBRANCH   1   7
BRANCH   6  23
HETATM   23  O8  UNL     1       2.081  -5.125   1.475  1.00  0.00    -0.358 OA
ATOM     24  H8  UNL     1       1.948  -5.885   2.029  1.00  0.00     0.217 HD
ENDBRANCH   6  23
BRANCH   3  25
HETATM   25  O5  UNL     1      -1.996  -1.349   1.013  1.00  0.00    -0.342 OA
BRANCH  25  26
HETATM   26  C10 UNL     1      -2.076  -0.167   0.291  1.00  0.00     0.170 C 
HETATM   27  C11 UNL     1      -2.289   1.016   1.184  1.00  0.00     0.087 C 
HETATM   28  C14 UNL     1      -3.602   1.712   1.043  1.00  0.00     0.016 C 
HETATM   29  C15 UNL     1      -4.765   0.826   0.741  1.00  0.00     0.024 C 
HETATM   30  C16 UNL     1      -4.473  -0.331  -0.139  1.00  0.00     0.113 C 
HETATM   31 CL1  UNL     1      -5.686  -0.399  -1.438  1.00  0.00    -0.122 Cl
HETATM   32  C17 UNL     1      -3.126  -0.264  -0.805  1.00  0.00     0.166 C 
BRANCH  27  33
HETATM   33  C12 UNL     1      -1.128   1.934   1.063  1.00  0.00     0.129 C 
HETATM   34  C13 UNL     1      -0.726   2.563  -0.222  1.00  0.00     0.091 C 
HETATM   35  O6  UNL     1      -0.432   2.222   2.044  1.00  0.00    -0.298 OA
ENDBRANCH  27  33
BRANCH  32  36
HETATM   36  O7  UNL     1      -3.009   0.741  -1.728  1.00  0.00    -0.391 OA
ATOM     37  H7  UNL     1      -3.665   0.680  -2.413  1.00  0.00     0.210 HD
ENDBRANCH  32  36
ENDBRANCH  25  26
ENDBRANCH   3  25
TORSDOF 10
