REMARK  7 active torsions:
REMARK  status: ('A' for Active; 'I' for Inactive)
REMARK    1  A    between atoms: C2_2  and  O1_3 
REMARK    2  A    between atoms: O1_3  and  C3_4 
REMARK    3  A    between atoms: C3_4  and  C4_6 
REMARK    4  A    between atoms: C9_13  and  C10_14 
REMARK    5  A    between atoms: C13_20  and  C14_21 
REMARK    6  A    between atoms: C14_21  and  S2_22 
REMARK    7  A    between atoms: S2_22  and  C15_23 
ROOT
HETATM    1  C10 UNL     1       0.444  -0.822  -0.006  1.00  0.00    -0.009 A 
HETATM    2  C11 UNL     1      -0.142  -2.098  -0.174  1.00  0.00     0.096 A 
HETATM    3  N1  UNL     1      -1.373  -2.598   0.422  1.00  0.00    -0.094 NA
HETATM    4  S1  UNL     1       1.033  -3.023  -0.968  1.00  0.00    -0.062 SA
HETATM    5  C12 UNL     1       2.256  -1.865  -1.083  1.00  0.00     0.084 A 
HETATM    6 CL1  UNL     1       3.779  -2.008  -1.973  1.00  0.00    -0.076 Cl
HETATM    7  C13 UNL     1       1.723  -0.788  -0.491  1.00  0.00    -0.010 A 
ENDROOT
BRANCH   1   8
HETATM    8  C9  UNL     1      -0.341   0.289   0.680  1.00  0.00     0.062 C 
HETATM    9  C5  UNL     1      -1.764   0.397   0.283  1.00  0.00    -0.041 C 
HETATM   10  C4  UNL     1      -2.357   0.209  -0.961  1.00  0.00     0.088 C 
HETATM   11  C6  UNL     1      -2.308   1.626   1.006  1.00  0.00     0.213 C 
HETATM   12  O3  UNL     1      -1.954   2.749   0.196  1.00  0.00    -0.317 OA
HETATM   13  C7  UNL     1      -0.714   2.593  -0.418  1.00  0.00     0.260 C 
HETATM   14  O4  UNL     1      -0.440   3.235  -1.460  1.00  0.00    -0.265 OA
HETATM   15  C8  UNL     1       0.288   1.641   0.162  1.00  0.00     0.125 C 
BRANCH  10  16
HETATM   16  C3  UNL     1      -3.812  -0.106  -0.784  1.00  0.00     0.283 C 
HETATM   17  O2  UNL     1      -4.286  -1.273  -0.859  1.00  0.00    -0.260 OA
BRANCH  16  18
HETATM   18  O1  UNL     1      -4.802   0.878  -0.511  1.00  0.00    -0.319 OA
BRANCH  18  19
HETATM   19  C2  UNL     1      -6.170   0.521  -0.359  1.00  0.00     0.174 C 
HETATM   20  C1  UNL     1      -6.458  -0.384   0.784  1.00  0.00     0.034 C 
ENDBRANCH  18  19
ENDBRANCH  16  18
ENDBRANCH  10  16
ENDBRANCH   1   8
BRANCH   7  21
HETATM   21  C14 UNL     1       2.760   0.267   0.044  1.00  0.00     0.123 C 
BRANCH  21  22
HETATM   22  S2  UNL     1       4.098  -0.517   0.934  1.00  0.00    -0.099 SA
BRANCH  22  23
HETATM   23  C15 UNL     1       5.712  -0.562   0.348  1.00  0.00     0.130 A 
HETATM   24  N2  UNL     1       6.541  -1.436  -0.156  1.00  0.00    -0.286 N 
HETATM   25  N3  UNL     1       7.717  -1.163  -0.558  1.00  0.00    -0.279 N 
ATOM     26  H2  UNL     1       6.225  -2.403  -0.233  1.00  0.00     0.188 HD
HETATM   27  C16 UNL     1       8.108   0.129  -0.448  1.00  0.00     0.159 A 
ATOM     28  H3  UNL     1       8.333  -1.879  -0.943  1.00  0.00     0.189 HD
HETATM   29  N4  UNL     1       9.250   0.599  -0.837  1.00  0.00    -0.379 N 
HETATM   30  S3  UNL     1       6.751   0.889   0.234  1.00  0.00    -0.027 SA
ATOM     31  H42 UNL     1      10.065   0.143  -1.247  1.00  0.00     0.158 HD
ATOM     32  H41 UNL     1       9.544   1.572  -0.754  1.00  0.00     0.158 HD
ENDBRANCH  22  23
ENDBRANCH  21  22
ENDBRANCH   7  21
TORSDOF 7
