REMARK  6 active torsions:
REMARK  status: ('A' for Active; 'I' for Inactive)
REMARK    1  A    between atoms: C1_2  and  C2_4 
REMARK    2  A    between atoms: C2_4  and  N2_5 
REMARK    3  A    between atoms: C2_4  and  C6_17 
REMARK    4  A    between atoms: N2_5  and  C3_7 
REMARK       I    between atoms: C6_17  and  N6_19 
REMARK    5  A    between atoms: N6_19  and  C7_21 
REMARK    6  A    between atoms: C8_25  and  N8_26 
ROOT
HETATM    1  C6  UNL     1       0.170   0.217  -0.522  1.00  0.00     0.251 C 
HETATM    2  O3  UNL     1       0.344   0.463  -1.737  1.00  0.00    -0.271 OA
HETATM    3  N6  UNL     1       1.265   0.228   0.347  1.00  0.00    -0.324 N 
ATOM      4  H6  UNL     1       1.089   0.024   1.331  1.00  0.00     0.165 HD
ENDROOT
BRANCH   1   5
HETATM    5  C2  UNL     1      -1.203  -0.077  -0.057  1.00  0.00     0.265 C 
BRANCH   5   6
HETATM    6  C1  UNL     1      -1.325  -1.433   0.520  1.00  0.00     0.263 C 
HETATM    7  N1  UNL     1      -0.592  -1.891   1.651  1.00  0.00    -0.060 NA
HETATM    8  O1  UNL     1      -2.116  -2.264   0.008  1.00  0.00    -0.274 OA
ENDBRANCH   5   6
BRANCH   5   9
HETATM    9  N2  UNL     1      -2.098   0.019  -1.176  1.00  0.00    -0.354 N 
ATOM     10  H2  UNL     1      -1.695  -0.095  -2.106  1.00  0.00     0.162 HD
BRANCH   9  11
HETATM   11  C3  UNL     1      -3.346   0.233  -1.107  1.00  0.00     0.123 A 
HETATM   12  C4  UNL     1      -3.972   0.397   0.103  1.00  0.00     0.155 A 
HETATM   13  N3  UNL     1      -5.319   0.625   0.126  1.00  0.00    -0.304 N 
HETATM   14  N4  UNL     1      -6.033   0.691  -0.991  1.00  0.00    -0.252 N 
ATOM     15  H3  UNL     1      -5.787   0.748   1.024  1.00  0.00     0.186 HD
HETATM   16  C5  UNL     1      -5.408   0.529  -2.149  1.00  0.00     0.340 A 
ATOM     17  H4  UNL     1      -7.038   0.862  -0.959  1.00  0.00     0.191 HD
HETATM   18  O2  UNL     1      -6.061   0.587  -3.219  1.00  0.00    -0.245 OA
HETATM   19  N5  UNL     1      -4.076   0.301  -2.228  1.00  0.00    -0.292 N 
ATOM     20  H5  UNL     1      -3.630   0.181  -3.138  1.00  0.00     0.172 HD
ENDBRANCH   9  11
ENDBRANCH   5   9
ENDBRANCH   1   5
BRANCH   3  21
HETATM   21  C7  UNL     1       2.628   0.507  -0.044  1.00  0.00     0.384 C 
HETATM   22  N7  UNL     1       3.471  -0.631   0.277  1.00  0.00     0.001 N 
HETATM   23  C8  UNL     1       4.799  -0.036   0.186  1.00  0.00     0.488 C 
ATOM     24  H72 UNL     1       3.260  -1.095   1.160  1.00  0.00     0.284 HD
ATOM     25  H71 UNL     1       3.323  -1.460  -0.299  1.00  0.00     0.284 HD
HETATM   26  N9  UNL     1       4.662   1.286   0.744  1.00  0.00    -0.308 N 
HETATM   27  C9  UNL     1       3.249   1.577   0.764  1.00  0.00     0.271 C 
ATOM     28  H9  UNL     1       5.415   1.896   1.062  1.00  0.00     0.166 HD
HETATM   29  O4  UNL     1       2.773   2.549   1.365  1.00  0.00    -0.269 OA
BRANCH  23  30
HETATM   30  N8  UNL     1       5.674  -0.861   1.006  1.00  0.00    -0.033 N 
ATOM     31  H83 UNL     1       5.345  -0.971   1.965  1.00  0.00     0.278 HD
ATOM     32  H82 UNL     1       5.655  -1.849   0.752  1.00  0.00     0.278 HD
ATOM     33  H81 UNL     1       6.603  -0.445   0.942  1.00  0.00     0.278 HD
ENDBRANCH  23  30
ENDBRANCH   3  21
TORSDOF 6
