REMARK  8 active torsions:
REMARK  status: ('A' for Active; 'I' for Inactive)
REMARK    1  A    between atoms: C5_10  and  C6_11 
REMARK    2  A    between atoms: C6_11  and  C7_12 
REMARK    3  A    between atoms: C7_12  and  O3_13 
REMARK    4  A    between atoms: C7_12  and  N3_15 
REMARK    5  A    between atoms: C7_12  and  C8_20 
REMARK    6  A    between atoms: N3_15  and  N4_17 
REMARK    7  A    between atoms: C8_20  and  N5_21 
REMARK    8  A    between atoms: C8_20  and  C9_25 
ROOT
HETATM    1  C7  UNL     1      -2.019  -0.710   0.208  1.00  0.00     0.185 C 
ENDROOT
BRANCH   1   2
HETATM    2  C6  UNL     1      -0.941  -0.454   1.160  1.00  0.00     0.106 C 
BRANCH   2   3
HETATM    3  C5  UNL     1       0.316   0.129   0.735  1.00  0.00    -0.018 A 
HETATM    4  C4  UNL     1       1.462  -0.529   0.333  1.00  0.00     0.084 A 
HETATM    5  C3  UNL     1       1.865  -1.852   0.260  1.00  0.00     0.264 A 
HETATM    6  C11 UNL     1       2.427   0.390  -0.062  1.00  0.00     0.127 A 
HETATM    7  N2  UNL     1       3.093  -2.184  -0.164  1.00  0.00    -0.274 N 
HETATM    8  O2  UNL     1       1.078  -2.753   0.594  1.00  0.00    -0.267 OA
HETATM    9  C2  UNL     1       3.994  -1.239  -0.538  1.00  0.00     0.330 A 
ATOM     10  H2  UNL     1       3.356  -3.168  -0.207  1.00  0.00     0.173 HD
HETATM   11  N1  UNL     1       3.660   0.060  -0.487  1.00  0.00    -0.289 N 
HETATM   12  O1  UNL     1       5.144  -1.548  -0.935  1.00  0.00    -0.246 OA
HETATM   13  C1  UNL     1       4.607   1.101  -0.885  1.00  0.00     0.163 C 
HETATM   14  N7  UNL     1       1.879   1.605   0.099  1.00  0.00    -0.351 N 
HETATM   15  C10 UNL     1       0.639   1.466   0.567  1.00  0.00     0.098 A 
ATOM     16  H7  UNL     1       2.338   2.493  -0.104  1.00  0.00     0.166 HD
ENDBRANCH   2   3
ENDBRANCH   1   2
BRANCH   1  17
HETATM   17  O3  UNL     1      -3.098  -1.324   0.919  1.00  0.00    -0.367 OA
ATOM     18  H3  UNL     1      -3.799  -1.490   0.300  1.00  0.00     0.212 HD
ENDBRANCH   1  17
BRANCH   1  19
HETATM   19  N3  UNL     1      -1.799  -1.593  -0.899  1.00  0.00    -0.306 N 
ATOM     20  H3  UNL     1      -2.225  -2.519  -0.923  1.00  0.00     0.183 HD
BRANCH  19  21
HETATM   21  N4  UNL     1      -1.008  -1.163  -1.914  1.00  0.00    -0.347 N 
ATOM     22  H42 UNL     1      -0.589  -0.234  -1.875  1.00  0.00     0.176 HD
ATOM     23  H41 UNL     1      -0.851  -1.792  -2.702  1.00  0.00     0.176 HD
ENDBRANCH  19  21
ENDBRANCH   1  19
BRANCH   1  24
HETATM   24  C8  UNL     1      -2.712   0.566  -0.328  1.00  0.00     0.328 C 
BRANCH  24  25
HETATM   25  N5  UNL     1      -3.778   0.038  -1.223  1.00  0.00    -0.062 N 
ATOM     26  H53 UNL     1      -3.443  -0.596  -1.948  1.00  0.00     0.275 HD
ATOM     27  H52 UNL     1      -4.409  -0.629  -0.779  1.00  0.00     0.275 HD
ATOM     28  H51 UNL     1      -4.235   0.879  -1.576  1.00  0.00     0.275 HD
ENDBRANCH  24  25
BRANCH  24  29
HETATM   29  C9  UNL     1      -3.431   1.310   0.716  1.00  0.00     0.266 C 
HETATM   30  N6  UNL     1      -2.890   2.139   1.713  1.00  0.00    -0.060 NA
HETATM   31  O4  UNL     1      -4.709   1.208   0.741  1.00  0.00    -0.274 OA
ENDBRANCH  24  29
ENDBRANCH   1  24
TORSDOF 8
