REMARK  10 active torsions:
REMARK  status: ('A' for Active; 'I' for Inactive)
REMARK    1  A    between atoms: N1_3  and  N2_5 
REMARK       I    between atoms: N2_5  and  C3_7 
REMARK    2  A    between atoms: C3_7  and  C4_9 
REMARK    3  A    between atoms: C5_10  and  S1_11 
REMARK    4  A    between atoms: C7_14  and  O3_15 
REMARK    5  A    between atoms: C8_18  and  O5_19 
REMARK    6  A    between atoms: C8_18  and  C9_21 
REMARK    7  A    between atoms: C9_21  and  O6_22 
REMARK    8  A    between atoms: C9_21  and  C10_24 
REMARK    9  A    between atoms: C10_24  and  O7_25 
REMARK   10  A    between atoms: C11_30  and  N4_31 
ROOT
HETATM    1  C4  UNL     1       1.288   0.721  -1.165  1.00  0.00     0.121 A 
HETATM    2  C5  UNL     1      -0.060   0.430  -1.272  1.00  0.00     0.157 A 
HETATM    3  O8  UNL     1      -0.527   1.162  -2.242  1.00  0.00    -0.228 OA
HETATM    4  N3  UNL     1       0.393   1.894  -2.768  1.00  0.00    -0.243 N 
ATOM      5  H3  UNL     1       0.268   2.548  -3.541  1.00  0.00     0.196 HD
HETATM    6  C11 UNL     1       1.547   1.648  -2.122  1.00  0.00     0.138 A 
ENDROOT
BRANCH   2   7
HETATM    7  S1  UNL     1      -0.989  -0.683  -0.322  1.00  0.00    -0.020 SA
HETATM    8  C6  UNL     1      -1.016  -2.296  -1.012  1.00  0.00     0.242 C 
HETATM    9  O2  UNL     1      -0.161  -3.055  -1.349  1.00  0.00    -0.280 OA
HETATM   10  C7  UNL     1      -2.472  -2.563  -1.107  1.00  0.00     0.344 C 
HETATM   11  O4  UNL     1      -3.177  -1.444  -1.320  1.00  0.00    -0.306 OA
HETATM   12  C8  UNL     1      -2.750  -0.389  -0.567  1.00  0.00     0.250 C 
BRANCH  10  13
HETATM   13  O3  UNL     1      -2.885  -3.333  -0.022  1.00  0.00    -0.364 OA
ATOM     14  H3  UNL     1      -3.818  -3.504  -0.083  1.00  0.00     0.213 HD
ENDBRANCH  10  13
BRANCH  12  15
HETATM   15  O5  UNL     1      -2.911   0.762  -1.334  1.00  0.00    -0.355 OA
ATOM     16  H5  UNL     1      -3.839   0.917  -1.463  1.00  0.00     0.214 HD
ENDBRANCH  12  15
BRANCH  12  17
HETATM   17  C9  UNL     1      -3.456  -0.325   0.749  1.00  0.00     0.215 C 
BRANCH  17  18
HETATM   18  O6  UNL     1      -4.806  -0.185   0.548  1.00  0.00    -0.387 OA
ATOM     19  H6  UNL     1      -5.255  -0.144   1.384  1.00  0.00     0.210 HD
ENDBRANCH  17  18
BRANCH  17  20
HETATM   20  C10 UNL     1      -2.938   0.779   1.635  1.00  0.00     0.202 C 
BRANCH  20  21
HETATM   21  O7  UNL     1      -3.595   0.715   2.860  1.00  0.00    -0.398 OA
ATOM     22  H7  UNL     1      -3.269   1.411   3.418  1.00  0.00     0.209 HD
ENDBRANCH  20  21
ENDBRANCH  17  20
ENDBRANCH  12  17
ENDBRANCH   2   7
BRANCH   1  23
HETATM   23  C3  UNL     1       2.159   0.111  -0.202  1.00  0.00     0.277 C 
HETATM   24  N2  UNL     1       3.525   0.428  -0.120  1.00  0.00    -0.266 N 
ATOM     25  H2  UNL     1       3.938   1.112  -0.755  1.00  0.00     0.190 HD
HETATM   26  O1  UNL     1       1.697  -0.739   0.603  1.00  0.00    -0.266 OA
BRANCH  24  27
HETATM   27  N1  UNL     1       4.327  -0.223   0.867  1.00  0.00    -0.313 N 
HETATM   28  C2  UNL     1       5.189   0.453   1.534  1.00  0.00     0.076 C 
HETATM   29  C1  UNL     1       6.046  -0.154   2.563  1.00  0.00     0.056 C 
ATOM     30  H1  UNL     1       4.214  -1.222   1.041  1.00  0.00     0.185 HD
ENDBRANCH  24  27
ENDBRANCH   1  23
BRANCH   6  31
HETATM   31  N4  UNL     1       2.647   2.222  -2.412  1.00  0.00    -0.383 N 
ATOM     32  H42 UNL     1       3.522   2.035  -1.922  1.00  0.00     0.157 HD
ATOM     33  H41 UNL     1       2.842   2.919  -3.131  1.00  0.00     0.157 HD
ENDBRANCH   6  31
TORSDOF 10
