REMARK  7 active torsions:
REMARK  status: ('A' for Active; 'I' for Inactive)
REMARK    1  A    between atoms: C2_7  and  S1_8 
REMARK    2  A    between atoms: S1_8  and  N3_9 
REMARK    3  A    between atoms: C5_20  and  C6_21 
REMARK    4  A    between atoms: N6_22  and  N7_24 
REMARK    5  A    between atoms: N8_27  and  C7_28 
REMARK    6  A    between atoms: C9_33  and  C10_34 
REMARK    7  A    between atoms: C10_34  and  O3_35 
ROOT
HETATM    1  N1  UNL     1       3.898   2.245  -0.616  1.00  0.00    -0.383 N 
ATOM      2  H11 UNL     1       3.462   3.139  -0.843  1.00  0.00     0.157 HD
ATOM      3  H12 UNL     1       4.914   2.158  -0.613  1.00  0.00     0.157 HD
HETATM    4  C1  UNL     1       3.167   1.221  -0.332  1.00  0.00     0.132 A 
HETATM    5  N2  UNL     1       3.740   0.046  -0.034  1.00  0.00    -0.316 N 
ATOM      6  H2  UNL     1       4.756  -0.044  -0.030  1.00  0.00     0.169 HD
HETATM    7  C2  UNL     1       2.965  -1.011   0.259  1.00  0.00     0.227 A 
HETATM    8  N4  UNL     1       1.631  -0.901   0.256  1.00  0.00    -0.315 N 
ATOM      9  H4  UNL     1       1.073  -1.724   0.483  1.00  0.00     0.169 HD
HETATM   10  C3  UNL     1       0.992   0.254  -0.035  1.00  0.00     0.144 A 
HETATM   11  C4  UNL     1       1.796   1.338  -0.336  1.00  0.00     0.123 A 
HETATM   12  N5  UNL     1       0.962   2.352  -0.586  1.00  0.00    -0.335 N 
ATOM     13  H5  UNL     1       1.242   3.299  -0.840  1.00  0.00     0.168 HD
HETATM   14  C5  UNL     1      -0.288   1.930  -0.451  1.00  0.00     0.129 A 
HETATM   15  N8  UNL     1      -0.307   0.615  -0.105  1.00  0.00    -0.286 N 
ENDROOT
BRANCH  15  16
HETATM   16  C7  UNL     1      -1.400  -0.242   0.142  1.00  0.00     0.260 C 
HETATM   17  C8  UNL     1      -2.128  -0.010   1.442  1.00  0.00     0.289 C 
HETATM   18  N9  UNL     1      -3.250  -0.917   1.237  1.00  0.00    -0.043 N 
HETATM   19  C9  UNL     1      -3.568  -0.654  -0.154  1.00  0.00     0.346 C 
ATOM     20  H92 UNL     1      -3.072  -1.894   1.469  1.00  0.00     0.280 HD
ATOM     21  H91 UNL     1      -4.025  -0.810   1.892  1.00  0.00     0.280 HD
HETATM   22  O4  UNL     1      -2.445  -0.162  -0.772  1.00  0.00    -0.330 OA
BRANCH  19  23
HETATM   23  C10 UNL     1      -4.059  -1.951  -0.761  1.00  0.00     0.225 C 
BRANCH  23  24
HETATM   24  O3  UNL     1      -4.397  -1.838  -2.092  1.00  0.00    -0.397 OA
ATOM     25  H3  UNL     1      -4.705  -2.652  -2.473  1.00  0.00     0.209 HD
ENDBRANCH  23  24
ENDBRANCH  19  23
ENDBRANCH  15  16
BRANCH  14  26
HETATM   26  C6  UNL     1      -1.485   2.700  -0.630  1.00  0.00     0.155 C 
HETATM   27  N6  UNL     1      -1.405   3.940  -0.958  1.00  0.00    -0.315 N 
ATOM     28  H6  UNL     1      -2.265   4.474  -1.082  1.00  0.00     0.185 HD
BRANCH  27  29
HETATM   29  N7  UNL     1      -0.184   4.578  -1.150  1.00  0.00    -0.345 N 
ATOM     30  H72 UNL     1       0.666   4.029  -1.022  1.00  0.00     0.176 HD
ATOM     31  H71 UNL     1      -0.121   5.562  -1.410  1.00  0.00     0.176 HD
ENDBRANCH  27  29
ENDBRANCH  14  26
BRANCH   7  32
HETATM   32  S1  UNL     1       3.663  -2.572   0.656  1.00  0.00     0.289 S 
HETATM   33  O1  UNL     1       2.600  -3.595   0.831  1.00  0.00    -0.198 OA
HETATM   34  O2  UNL     1       4.543  -2.964  -0.508  1.00  0.00    -0.198 OA
BRANCH  32  35
HETATM   35  N3  UNL     1       4.676  -2.465   2.051  1.00  0.00    -0.322 N 
ATOM     36  H32 UNL     1       4.838  -1.600   2.566  1.00  0.00     0.169 HD
ATOM     37  H31 UNL     1       5.082  -3.372   2.282  1.00  0.00     0.169 HD
ENDBRANCH  32  35
ENDBRANCH   7  32
TORSDOF 7
