REMARK  9 active torsions:
REMARK  status: ('A' for Active; 'I' for Inactive)
REMARK    1  A    between atoms: N1_1  and  C1_4 
REMARK    2  A    between atoms: C2_7  and  N3_8 
REMARK    3  A    between atoms: N3_8  and  O1_10 
REMARK    4  A    between atoms: O1_10  and  C3_11 
REMARK    5  A    between atoms: C3_11  and  C4_12 
REMARK    6  A    between atoms: C3_11  and  C5_15 
REMARK    7  A    between atoms: C4_12  and  O2_13 
REMARK    8  A    between atoms: C5_15  and  O3_16 
REMARK    9  A    between atoms: N7_27  and  C8_28 
ROOT
HETATM    1  C1  UNL     1       0.674   1.455   0.445  1.00  0.00     0.146 A 
HETATM    2  N2  UNL     1      -0.626   1.678   0.637  1.00  0.00    -0.173 N 
ATOM      3  H2  UNL     1      -0.926   2.624   0.873  1.00  0.00     0.186 HD
HETATM    4  C2  UNL     1      -1.558   0.722   0.535  1.00  0.00     0.705 A 
HETATM    5  N4  UNL     1      -1.144  -0.514   0.224  1.00  0.00    -0.172 N 
ATOM      6  H4  UNL     1      -1.836  -1.259   0.141  1.00  0.00     0.186 HD
HETATM    7  C6  UNL     1       0.152  -0.806   0.018  1.00  0.00     0.168 A 
HETATM    8  N5  UNL     1       0.836  -1.914  -0.295  1.00  0.00    -0.174 N 
ATOM      9  H5  UNL     1       0.420  -2.833  -0.446  1.00  0.00     0.186 HD
HETATM   10  C7  UNL     1       2.133  -1.645  -0.381  1.00  0.00     0.682 A 
HETATM   11  N6  UNL     1       3.059  -2.489  -0.664  1.00  0.00    -0.234 N 
ATOM     12  H61 UNL     1       4.056  -2.282  -0.730  1.00  0.00     0.174 HD
ATOM     13  H62 UNL     1       2.920  -3.480  -0.861  1.00  0.00     0.174 HD
HETATM   14  N7  UNL     1       2.319  -0.317  -0.117  1.00  0.00    -0.147 N 
HETATM   15  C12 UNL     1       1.106   0.184   0.124  1.00  0.00     0.143 A 
ENDROOT
BRANCH   4  16
HETATM   16  N3  UNL     1      -2.810   0.992   0.732  1.00  0.00    -0.096 N 
ATOM     17  H3  UNL     1      -3.077   1.948   0.967  1.00  0.00     0.213 HD
BRANCH  16  18
HETATM   18  O1  UNL     1      -3.777   0.047   0.637  1.00  0.00    -0.257 OA
BRANCH  18  19
HETATM   19  C3  UNL     1      -4.916   0.138  -0.165  1.00  0.00     0.199 C 
BRANCH  19  20
HETATM   20  C4  UNL     1      -4.985  -0.959  -1.190  1.00  0.00     0.200 C 
BRANCH  20  21
HETATM   21  O2  UNL     1      -3.883  -0.887  -2.006  1.00  0.00    -0.398 OA
ATOM     22  H2  UNL     1      -3.927  -1.580  -2.654  1.00  0.00     0.209 HD
ENDBRANCH  20  21
ENDBRANCH  19  20
BRANCH  19  23
HETATM   23  C5  UNL     1      -6.188   0.064   0.661  1.00  0.00     0.200 C 
BRANCH  23  24
HETATM   24  O3  UNL     1      -6.219   1.126   1.592  1.00  0.00    -0.398 OA
ATOM     25  H3  UNL     1      -7.015   1.080   2.109  1.00  0.00     0.209 HD
ENDBRANCH  23  24
ENDBRANCH  19  23
ENDBRANCH  18  19
ENDBRANCH  16  18
ENDBRANCH   4  16
BRANCH   1  26
HETATM   26  N1  UNL     1       1.518   2.392   0.553  1.00  0.00    -0.383 N 
ATOM     27  H12 UNL     1       1.199   3.331   0.790  1.00  0.00     0.157 HD
ATOM     28  H11 UNL     1       2.513   2.221   0.406  1.00  0.00     0.157 HD
ENDBRANCH   1  26
BRANCH  14  29
HETATM   29  C8  UNL     1       3.604   0.307  -0.125  1.00  0.00     0.274 C 
HETATM   30  C9  UNL     1       4.250   0.256   1.253  1.00  0.00     0.178 C 
HETATM   31  N8  UNL     1       5.611   0.702   1.187  1.00  0.00    -0.348 N 
HETATM   32  C10 UNL     1       6.422   0.547   0.015  1.00  0.00     0.317 C 
ATOM     33  H8  UNL     1       6.019   1.148   2.008  1.00  0.00     0.163 HD
HETATM   34  O4  UNL     1       7.618   0.923   0.028  1.00  0.00    -0.262 OA
HETATM   35  C11 UNL     1       5.768  -0.057  -1.138  1.00  0.00     0.353 C 
HETATM   36  O5  UNL     1       6.436  -0.222  -2.209  1.00  0.00    -0.254 OA
HETATM   37  O6  UNL     1       4.441  -0.422  -1.003  1.00  0.00    -0.285 OA
ENDBRANCH  14  29
TORSDOF 9
