REMARK  15 active torsions:
REMARK  status: ('A' for Active; 'I' for Inactive)
REMARK    1  A    between atoms: C2_2  and  C4_4 
REMARK    2  A    between atoms: C4_4  and  C5_5 
REMARK    3  A    between atoms: C5_5  and  N1_6 
REMARK    4  A    between atoms: C5_5  and  C28_40 
REMARK       I    between atoms: N1_6  and  C6_8 
REMARK    5  A    between atoms: C6_8  and  C7_10 
REMARK    6  A    between atoms: C7_10  and  N2_11 
REMARK    7  A    between atoms: C7_10  and  C24_36 
REMARK    8  A    between atoms: N2_11  and  C8_13 
REMARK    9  A    between atoms: C8_13  and  C9_14 
REMARK   10  A    between atoms: C8_13  and  C13_18 
REMARK   11  A    between atoms: C9_14  and  C10_15 
REMARK       I    between atoms: C13_18  and  N3_20 
REMARK   12  A    between atoms: C18_25  and  C19_26 
REMARK       I    between atoms: C19_26  and  N4_28 
REMARK   13  A    between atoms: N4_28  and  C20_30 
REMARK   14  A    between atoms: C20_30  and  C21_31 
REMARK   15  A    between atoms: C28_40  and  C29_42 
ROOT
HETATM    1  C8  UNL     1       1.220   0.127  -0.955  1.00  0.00     0.174 C 
ENDROOT
BRANCH   1   2
HETATM    2  N2  UNL     1       0.717   0.320   0.356  1.00  0.00    -0.375 N 
ATOM      3  H2  UNL     1       1.258   0.944   0.955  1.00  0.00     0.160 HD
BRANCH   2   4
HETATM    4  C7  UNL     1      -0.405  -0.227   0.919  1.00  0.00     0.082 C 
BRANCH   4   5
HETATM    5  C6  UNL     1      -1.763  -0.149   0.453  1.00  0.00     0.265 C 
HETATM    6  N1  UNL     1      -2.928   0.150   1.195  1.00  0.00    -0.344 N 
ATOM      7  H1  UNL     1      -2.870   0.331   2.197  1.00  0.00     0.163 HD
HETATM    8  O1  UNL     1      -2.027  -0.368  -0.795  1.00  0.00    -0.266 OA
BRANCH   6   9
HETATM    9  C5  UNL     1      -4.271   0.198   0.480  1.00  0.00     0.155 C 
BRANCH   9  10
HETATM   10  C4  UNL     1      -5.051  -0.909   1.068  1.00  0.00     0.037 C 
BRANCH  10  11
HETATM   11  C2  UNL     1      -6.410  -1.280   0.747  1.00  0.00    -0.020 C 
HETATM   12  C1  UNL     1      -7.550  -0.381   1.001  1.00  0.00     0.009 C 
HETATM   13  C3  UNL     1      -6.701  -2.620   1.479  1.00  0.00     0.009 C 
ENDBRANCH  10  11
ENDBRANCH   9  10
BRANCH   9  14
HETATM   14  C28 UNL     1      -4.828   1.537   0.772  1.00  0.00     0.152 C 
HETATM   15  O6  UNL     1      -4.909   1.911   1.969  1.00  0.00    -0.295 OA
BRANCH  14  16
HETATM   16  C29 UNL     1      -5.286   2.518  -0.217  1.00  0.00     0.049 C 
HETATM   17  C30 UNL     1      -6.184   2.029  -1.296  1.00  0.00     0.017 C 
HETATM   18  C31 UNL     1      -6.068   3.631   0.509  1.00  0.00     0.017 C 
ENDBRANCH  14  16
ENDBRANCH   9  14
ENDBRANCH   6   9
ENDBRANCH   4   5
BRANCH   4  19
HETATM   19  C24 UNL     1      -0.309   0.009   2.454  1.00  0.00    -0.004 C 
HETATM   20  C25 UNL     1       1.194  -0.117   2.774  1.00  0.00     0.021 C 
HETATM   21  C26 UNL     1      -0.679   1.398   2.844  1.00  0.00     0.021 C 
HETATM   22  C27 UNL     1      -0.995  -1.088   3.211  1.00  0.00     0.021 C 
ENDBRANCH   4  19
ENDBRANCH   2   4
ENDBRANCH   1   2
BRANCH   1  23
HETATM   23  C9  UNL     1       0.489   1.059  -1.904  1.00  0.00     0.038 C 
BRANCH  23  24
HETATM   24  C10 UNL     1       0.831   0.924  -3.347  1.00  0.00    -0.020 C 
HETATM   25  C11 UNL     1      -0.023   2.000  -4.063  1.00  0.00     0.009 C 
HETATM   26  C12 UNL     1       0.295  -0.381  -3.935  1.00  0.00     0.009 C 
ENDBRANCH  23  24
ENDBRANCH   1  23
BRANCH   1  27
HETATM   27  C13 UNL     1       2.679   0.475  -0.937  1.00  0.00     0.243 C 
HETATM   28  O2  UNL     1       2.949   1.525  -0.295  1.00  0.00    -0.271 OA
HETATM   29  N3  UNL     1       3.727  -0.248  -1.551  1.00  0.00    -0.337 N 
HETATM   30  C14 UNL     1       3.583  -1.497  -2.263  1.00  0.00     0.127 C 
HETATM   31  C18 UNL     1       5.094   0.281  -1.495  1.00  0.00     0.179 C 
HETATM   32  C15 UNL     1       4.057  -1.340  -3.660  1.00  0.00     0.020 C 
HETATM   33  C16 UNL     1       5.440  -0.772  -3.775  1.00  0.00     0.004 C 
HETATM   34  C17 UNL     1       6.016  -0.290  -2.504  1.00  0.00     0.035 C 
BRANCH  31  35
HETATM   35  C19 UNL     1       5.723   0.028  -0.156  1.00  0.00     0.241 C 
HETATM   36  O3  UNL     1       6.790   0.636   0.160  1.00  0.00    -0.271 OA
HETATM   37  N4  UNL     1       5.190  -0.869   0.795  1.00  0.00    -0.340 N 
ATOM     38  H4  UNL     1       4.332  -1.356   0.536  1.00  0.00     0.163 HD
BRANCH  37  39
HETATM   39  C20 UNL     1       5.734  -1.164   2.088  1.00  0.00     0.121 A 
HETATM   40  C22 UNL     1       6.537  -0.161   2.863  1.00  0.00     0.045 A 
HETATM   41  C23 UNL     1       7.275  -1.255   2.226  1.00  0.00     0.045 A 
BRANCH  39  42
HETATM   42  C21 UNL     1       5.011  -2.189   2.914  1.00  0.00     0.202 C 
HETATM   43  O4  UNL     1       3.882  -2.552   2.522  1.00  0.00    -0.646 OA
HETATM   44  O5  UNL     1       5.528  -2.739   4.068  1.00  0.00    -0.646 OA
ENDBRANCH  39  42
ENDBRANCH  37  39
ENDBRANCH  31  35
ENDBRANCH   1  27
TORSDOF 15
