REMARK  16 active torsions:
REMARK  status: ('A' for Active; 'I' for Inactive)
REMARK    1  A    between atoms: C2_2  and  C4_4 
REMARK    2  A    between atoms: C4_4  and  C5_5 
REMARK    3  A    between atoms: C5_5  and  C6_7 
REMARK       I    between atoms: C6_7  and  N1_9 
REMARK    4  A    between atoms: N1_9  and  C7_11 
REMARK    5  A    between atoms: C7_11  and  C8_12 
REMARK       I    between atoms: C8_12  and  N2_14 
REMARK    6  A    between atoms: N2_14  and  C9_16 
REMARK    7  A    between atoms: C9_16  and  C10_17 
REMARK    8  A    between atoms: C9_16  and  C14_21 
REMARK    9  A    between atoms: C10_17  and  C11_18 
REMARK       I    between atoms: C14_21  and  N3_23 
REMARK   10  A    between atoms: C18_27  and  C19_28 
REMARK   11  A    between atoms: C19_28  and  O4_29 
REMARK   12  A    between atoms: C19_28  and  N4_31 
REMARK   13  A    between atoms: N4_31  and  C20_33 
REMARK   14  A    between atoms: C20_33  and  C21_34 
REMARK   15  A    between atoms: C20_33  and  C28_42 
REMARK   16  A    between atoms: C21_34  and  C22_36 
ROOT
HETATM    1  C14 UNL     1      -0.165   0.006  -1.762  1.00  0.00     0.243 C 
HETATM    2  O3  UNL     1      -0.639   0.642  -0.785  1.00  0.00    -0.271 OA
HETATM    3  N3  UNL     1      -0.969  -0.882  -2.472  1.00  0.00    -0.338 N 
HETATM    4  C15 UNL     1      -0.407  -1.686  -3.614  1.00  0.00     0.127 C 
HETATM    5  C16 UNL     1      -1.409  -1.277  -4.679  1.00  0.00     0.022 C 
HETATM    6  C17 UNL     1      -2.685  -0.857  -3.935  1.00  0.00     0.035 C 
HETATM    7  C18 UNL     1      -2.314  -1.308  -2.512  1.00  0.00     0.161 C 
ENDROOT
BRANCH   1   8
HETATM    8  C9  UNL     1       1.273   0.318  -2.026  1.00  0.00     0.177 C 
BRANCH   8   9
HETATM    9  N2  UNL     1       1.932   0.359  -0.710  1.00  0.00    -0.346 N 
HETATM   10  C8  UNL     1       3.290  -0.006  -0.568  1.00  0.00     0.236 C 
HETATM   11  O2  UNL     1       3.911  -0.356  -1.612  1.00  0.00    -0.272 OA
ATOM     12  H2  UNL     1       1.402   0.655   0.110  1.00  0.00     0.163 HD
BRANCH  10  13
HETATM   13  C7  UNL     1       4.021  -0.001   0.712  1.00  0.00     0.225 C 
BRANCH  13  14
HETATM   14  N1  UNL     1       5.408  -0.384   0.495  1.00  0.00    -0.351 N 
HETATM   15  C6  UNL     1       6.363  -0.482   1.523  1.00  0.00     0.232 C 
HETATM   16  O1  UNL     1       6.024  -0.240   2.701  1.00  0.00    -0.272 OA
ATOM     17  H1  UNL     1       5.705  -0.594  -0.458  1.00  0.00     0.163 HD
BRANCH  15  18
HETATM   18  C5  UNL     1       7.747  -0.864   1.220  1.00  0.00     0.151 C 
HETATM   19  S1  UNL     1       7.705  -2.603   0.623  1.00  0.00    -0.082 SA
BRANCH  18  20
HETATM   20  C4  UNL     1       8.691  -0.830   2.371  1.00  0.00     0.029 C 
BRANCH  20  21
HETATM   21  C2  UNL     1       8.867   0.514   3.018  1.00  0.00    -0.021 C 
HETATM   22  C1  UNL     1       9.387   1.542   2.047  1.00  0.00     0.009 C 
HETATM   23  C3  UNL     1       9.967   0.366   4.082  1.00  0.00     0.009 C 
ENDBRANCH  20  21
ENDBRANCH  18  20
ENDBRANCH  15  18
ENDBRANCH  13  14
ENDBRANCH  10  13
ENDBRANCH   8   9
BRANCH   8  24
HETATM   24  C10 UNL     1       1.386   1.776  -2.501  1.00  0.00     0.038 C 
BRANCH  24  25
HETATM   25  C11 UNL     1       0.810   2.022  -3.852  1.00  0.00    -0.020 C 
HETATM   26  C12 UNL     1       0.987   3.541  -4.109  1.00  0.00     0.009 C 
HETATM   27  C13 UNL     1       1.642   1.382  -4.957  1.00  0.00     0.009 C 
ENDBRANCH  24  25
ENDBRANCH   8  24
ENDBRANCH   1   8
BRANCH   7  28
HETATM   28  C19 UNL     1      -3.315  -1.024  -1.541  1.00  0.00     0.135 C 
BRANCH  28  29
HETATM   29  O4  UNL     1      -4.539  -0.990  -2.075  1.00  0.00    -0.348 OA
ATOM     30  H4  UNL     1      -5.207  -0.800  -1.427  1.00  0.00     0.219 HD
ENDBRANCH  28  29
BRANCH  28  31
HETATM   31  N4  UNL     1      -3.345  -0.778  -0.180  1.00  0.00    -0.361 N 
ATOM     32  H4  UNL     1      -2.464  -0.787   0.334  1.00  0.00     0.162 HD
BRANCH  31  33
HETATM   33  C20 UNL     1      -4.597  -0.501   0.569  1.00  0.00     0.157 C 
BRANCH  33  34
HETATM   34  C21 UNL     1      -4.731  -1.413   1.729  1.00  0.00     0.153 C 
HETATM   35  O5  UNL     1      -3.710  -2.120   1.928  1.00  0.00    -0.295 OA
BRANCH  34  36
HETATM   36  C22 UNL     1      -5.887  -1.560   2.612  1.00  0.00     0.057 C 
HETATM   37  C23 UNL     1      -6.309  -0.424   3.449  1.00  0.00     0.012 C 
HETATM   38  C24 UNL     1      -7.696   0.120   3.074  1.00  0.00     0.001 C 
HETATM   39  C25 UNL     1      -8.711  -0.925   3.414  1.00  0.00     0.000 C 
HETATM   40  C26 UNL     1      -8.199  -2.259   2.895  1.00  0.00     0.001 C 
HETATM   41  C27 UNL     1      -7.123  -2.036   1.838  1.00  0.00     0.012 C 
ENDBRANCH  34  36
ENDBRANCH  33  34
BRANCH  33  42
HETATM   42  C28 UNL     1      -4.437   0.958   0.991  1.00  0.00     0.007 C 
HETATM   43  C29 UNL     1      -3.220   1.181   1.845  1.00  0.00     0.012 C 
HETATM   44  C30 UNL     1      -4.269   1.830  -0.270  1.00  0.00     0.012 C 
ENDBRANCH  33  42
ENDBRANCH  31  33
ENDBRANCH  28  31
ENDBRANCH   7  28
TORSDOF 16
