REMARK  14 active torsions:
REMARK  status: ('A' for Active; 'I' for Inactive)
REMARK    1  A    between atoms: S1_2  and  C2_3 
REMARK    2  A    between atoms: C2_3  and  C3_4 
REMARK    3  A    between atoms: C3_4  and  C4_5 
REMARK    4  A    between atoms: C4_5  and  N1_6 
REMARK    5  A    between atoms: C4_5  and  C18_25 
REMARK       I    between atoms: N1_6  and  C5_8 
REMARK    6  A    between atoms: C5_8  and  C6_10 
REMARK    7  A    between atoms: C6_10  and  C7_11 
REMARK    8  A    between atoms: C6_10  and  N2_18 
REMARK    9  A    between atoms: C7_11  and  C8_12 
REMARK       I    between atoms: N2_18  and  C14_20 
REMARK   10  A    between atoms: C14_20  and  C15_22 
REMARK       I    between atoms: C18_25  and  N3_27 
REMARK   11  A    between atoms: N3_27  and  C19_29 
REMARK   12  A    between atoms: C19_29  and  C20_30 
REMARK   13  A    between atoms: C19_29  and  C25_39 
REMARK       I    between atoms: C20_30  and  N4_32 
REMARK   14  A    between atoms: N4_32  and  C21_34 
ROOT
HETATM    1  C4  UNL     1       0.049  -1.869   0.250  1.00  0.00     0.177 C 
ENDROOT
BRANCH   1   2
HETATM    2  C3  UNL     1      -0.405  -2.836   1.337  1.00  0.00     0.045 C 
BRANCH   2   3
HETATM    3  C2  UNL     1       0.645  -3.908   1.568  1.00  0.00     0.076 C 
BRANCH   3   4
HETATM    4  S1  UNL     1       0.013  -5.015   2.857  1.00  0.00    -0.173 SA
HETATM    5  C1  UNL     1      -0.129  -4.196   4.444  1.00  0.00     0.089 C 
ENDBRANCH   3   4
ENDBRANCH   2   3
ENDBRANCH   1   2
BRANCH   1   6
HETATM    6  N1  UNL     1       1.265  -1.201   0.588  1.00  0.00    -0.346 N 
HETATM    7  C5  UNL     1       2.554  -1.437   0.093  1.00  0.00     0.241 C 
HETATM    8  O1  UNL     1       2.749  -2.325  -0.736  1.00  0.00    -0.271 OA
ATOM      9  H1  UNL     1       1.185  -0.455   1.279  1.00  0.00     0.163 HD
BRANCH   7  10
HETATM   10  C6  UNL     1       3.657  -0.595   0.592  1.00  0.00     0.177 C 
BRANCH  10  11
HETATM   11  C7  UNL     1       3.347   0.871   0.512  1.00  0.00     0.039 C 
BRANCH  11  12
HETATM   12  C8  UNL     1       3.071   1.437  -0.827  1.00  0.00    -0.012 C 
HETATM   13  C9  UNL     1       2.735   2.927  -0.594  1.00  0.00     0.005 C 
HETATM   14  C10 UNL     1       2.061   3.353  -1.895  1.00  0.00     0.000 C 
HETATM   15  C11 UNL     1       3.112   3.356  -2.960  1.00  0.00     0.000 C 
HETATM   16  C12 UNL     1       4.391   2.686  -2.584  1.00  0.00     0.000 C 
HETATM   17  C13 UNL     1       4.247   1.429  -1.780  1.00  0.00     0.005 C 
ENDBRANCH  11  12
ENDBRANCH  10  11
BRANCH  10  18
HETATM   18  N2  UNL     1       4.947  -0.970   0.082  1.00  0.00    -0.347 N 
HETATM   19  C14 UNL     1       6.004  -1.413   0.968  1.00  0.00     0.221 C 
HETATM   20  O2  UNL     1       5.743  -1.459   2.189  1.00  0.00    -0.273 OA
ATOM     21  H2  UNL     1       5.122  -0.923  -0.922  1.00  0.00     0.163 HD
BRANCH  19  22
HETATM   22  C15 UNL     1       7.340  -1.798   0.490  1.00  0.00     0.070 C 
HETATM   23  C16 UNL     1       8.128  -2.331   1.683  1.00  0.00     0.019 C 
HETATM   24  C17 UNL     1       8.062  -0.600  -0.117  1.00  0.00     0.019 C 
ENDBRANCH  19  22
ENDBRANCH  10  18
ENDBRANCH   7  10
ENDBRANCH   1   6
BRANCH   1  25
HETATM   25  C18 UNL     1      -1.044  -0.900   0.035  1.00  0.00     0.241 C 
HETATM   26  O3  UNL     1      -0.738   0.345   0.114  1.00  0.00    -0.271 OA
HETATM   27  N3  UNL     1      -2.382  -1.260  -0.244  1.00  0.00    -0.346 N 
ATOM     28  H3  UNL     1      -2.647  -2.243  -0.310  1.00  0.00     0.163 HD
BRANCH  27  29
HETATM   29  C19 UNL     1      -3.403  -0.192  -0.441  1.00  0.00     0.180 C 
BRANCH  29  30
HETATM   30  C20 UNL     1      -4.175  -0.045   0.814  1.00  0.00     0.241 C 
HETATM   31  O4  UNL     1      -4.015  -0.916   1.736  1.00  0.00    -0.271 OA
HETATM   32  N4  UNL     1      -5.080   1.002   1.076  1.00  0.00    -0.353 N 
ATOM     33  H4  UNL     1      -5.242   1.726   0.376  1.00  0.00     0.163 HD
BRANCH  32  34
HETATM   34  C21 UNL     1      -5.788   1.046   2.358  1.00  0.00     0.110 C 
HETATM   35  C22 UNL     1      -5.487   2.378   3.057  1.00  0.00     0.053 C 
HETATM   36  C23 UNL     1      -6.764   2.657   3.767  1.00  0.00     0.169 C 
HETATM   37  O5  UNL     1      -7.763   1.841   3.282  1.00  0.00    -0.389 OA
HETATM   38  C24 UNL     1      -7.276   1.151   2.183  1.00  0.00     0.192 C 
ENDBRANCH  32  34
ENDBRANCH  29  30
BRANCH  29  39
HETATM   39  C25 UNL     1      -4.179  -0.623  -1.629  1.00  0.00     0.018 C 
HETATM   40  C26 UNL     1      -3.227  -0.730  -2.810  1.00  0.00     0.007 C 
HETATM   41  C27 UNL     1      -3.859  -0.228  -4.091  1.00  0.00     0.000 C 
HETATM   42  C28 UNL     1      -4.299   1.223  -3.999  1.00  0.00     0.000 C 
HETATM   43  C29 UNL     1      -4.973   1.500  -2.668  1.00  0.00     0.000 C 
HETATM   44  C30 UNL     1      -5.364   0.188  -2.015  1.00  0.00     0.007 C 
ENDBRANCH  29  39
ENDBRANCH  27  29
ENDBRANCH   1  25
TORSDOF 14
