REMARK  4 active torsions:
REMARK  status: ('A' for Active; 'I' for Inactive)
REMARK    1  A    between atoms: C2_2  and  C3_3 
REMARK    2  A    between atoms: C3_3  and  N1_4 
REMARK    3  A    between atoms: N1_4  and  C4_6 
REMARK    4  A    between atoms: C4_6  and  N2_8 
REMARK       I    between atoms: N4_18  and  C13_19 
ROOT
HETATM    1  N2  UNL     1       0.208  -0.131  -0.213  1.00  0.00    -0.356 N 
HETATM    2  C5  UNL     1      -0.632  -0.100  -1.370  1.00  0.00     0.127 C 
HETATM    3  C6  UNL     1      -1.374   1.206  -1.556  1.00  0.00     0.045 C 
HETATM    4  C7  UNL     1      -2.435   1.406  -0.498  1.00  0.00     0.090 C 
HETATM    5  C8  UNL     1      -1.740   1.872   0.778  1.00  0.00     0.053 C 
HETATM    6  C9  UNL     1      -1.477   0.571   1.466  1.00  0.00     0.083 C 
HETATM    7  C10 UNL     1      -1.567   0.761   2.935  1.00  0.00     0.072 C 
HETATM    8  N3  UNL     1      -1.653   0.921   4.074  1.00  0.00    -0.196 NA
HETATM    9  C11 UNL     1      -0.081   0.129   1.196  1.00  0.00     0.151 C 
HETATM   10  C12 UNL     1      -2.539  -0.394   1.012  1.00  0.00     0.152 C 
HETATM   11  N4  UNL     1      -3.126   0.197  -0.171  1.00  0.00    -0.346 N 
HETATM   12  C13 UNL     1      -4.217  -0.348  -0.888  1.00  0.00     0.216 C 
HETATM   13  C14 UNL     1      -4.849  -1.610  -0.448  1.00  0.00     0.117 C 
HETATM   14  O1  UNL     1      -4.676   0.231  -1.920  1.00  0.00    -0.274 OA
ENDROOT
BRANCH   1  15
HETATM   15  C4  UNL     1       1.571  -0.469  -0.422  1.00  0.00     0.169 C 
HETATM   16  S1  UNL     1       2.037  -0.797  -1.959  1.00  0.00    -0.041 SA
BRANCH  15  17
HETATM   17  N1  UNL     1       2.519  -0.536   0.652  1.00  0.00    -0.367 N 
ATOM     18  H1  UNL     1       2.187  -0.332   1.595  1.00  0.00     0.161 HD
BRANCH  17  19
HETATM   19  C3  UNL     1       3.890  -0.868   0.488  1.00  0.00     0.121 C 
BRANCH  19  20
HETATM   20  C2  UNL     1       4.724   0.147  -0.243  1.00  0.00     0.015 C 
HETATM   21  C1  UNL     1       6.147  -0.428  -0.294  1.00  0.00     0.006 C 
ENDBRANCH  19  20
ENDBRANCH  17  19
ENDBRANCH  15  17
ENDBRANCH   1  15
TORSDOF 4
