REMARK  7 active torsions:
REMARK  status: ('A' for Active; 'I' for Inactive)
REMARK    1  A    between atoms: C3_3  and  O1_4 
REMARK    2  A    between atoms: C4_6  and  O2_7 
REMARK    3  A    between atoms: C5_9  and  O3_10 
REMARK    4  A    between atoms: O3_10  and  C6_11 
REMARK    5  A    between atoms: C8_14  and  O4_15 
REMARK    6  A    between atoms: C9_17  and  O5_18 
REMARK    7  A    between atoms: C9_17  and  O6_20 
ROOT
HETATM    1  C6  UNL     1       3.511   0.061  -0.378  1.00  0.00     0.291 C 
HETATM    2  C7  UNL     1       3.686   0.670   0.926  1.00  0.00     0.085 C 
HETATM    3  N1  UNL     1       3.848   1.158   1.984  1.00  0.00    -0.195 NA
ENDROOT
BRANCH   1   4
HETATM    4  O3  UNL     1       2.331   0.469  -0.951  1.00  0.00    -0.367 OA
BRANCH   4   5
HETATM    5  C5  UNL     1       1.208   0.135  -0.195  1.00  0.00     0.188 C 
HETATM    6  C4  UNL     1       0.455   1.346   0.239  1.00  0.00     0.179 C 
HETATM    7  C3  UNL     1      -0.798   0.880   0.969  1.00  0.00     0.158 C 
HETATM    8  C2  UNL     1      -1.679   0.244  -0.085  1.00  0.00     0.078 C 
HETATM    9  C1  UNL     1      -3.031  -0.142   0.490  1.00  0.00     0.018 C 
HETATM   10  C9  UNL     1      -1.011  -0.996  -0.565  1.00  0.00     0.194 C 
HETATM   11  C8  UNL     1       0.398  -0.844  -0.987  1.00  0.00     0.212 C 
BRANCH   6  12
HETATM   12  O2  UNL     1       0.148   2.206  -0.804  1.00  0.00    -0.390 OA
ATOM     13  H2  UNL     1       0.929   2.497  -1.259  1.00  0.00     0.210 HD
ENDBRANCH   6  12
BRANCH   7  14
HETATM   14  O1  UNL     1      -1.428   1.911   1.633  1.00  0.00    -0.392 OA
ATOM     15  H1  UNL     1      -0.875   2.310   2.294  1.00  0.00     0.210 HD
ENDBRANCH   7  14
BRANCH  10  16
HETATM   16  O5  UNL     1      -1.158  -2.011   0.407  1.00  0.00    -0.363 OA
ATOM     17  H5  UNL     1      -0.732  -2.803   0.101  1.00  0.00     0.213 HD
ENDBRANCH  10  16
BRANCH  10  18
HETATM   18  O6  UNL     1      -1.747  -1.455  -1.683  1.00  0.00    -0.363 OA
ATOM     19  H6  UNL     1      -1.321  -2.247  -1.989  1.00  0.00     0.213 HD
ENDBRANCH  10  18
BRANCH  11  20
HETATM   20  O4  UNL     1       1.023  -2.104  -0.831  1.00  0.00    -0.387 OA
ATOM     21  H4  UNL     1       0.509  -2.725  -1.334  1.00  0.00     0.210 HD
ENDBRANCH  11  20
ENDBRANCH   4   5
ENDBRANCH   1   4
TORSDOF 7
