REMARK  10 active torsions:
REMARK  status: ('A' for Active; 'I' for Inactive)
REMARK    1  A    between atoms: C2_2  and  N1_4 
REMARK       I    between atoms: N1_4  and  C4_6 
REMARK    2  A    between atoms: C4_6  and  C5_8 
REMARK    3  A    between atoms: N2_12  and  C9_13 
REMARK    4  A    between atoms: C9_13  and  C10_14 
REMARK    5  A    between atoms: C10_14  and  N3_15 
REMARK    6  A    between atoms: C10_14  and  C11_19 
REMARK    7  A    between atoms: C11_19  and  N4_20 
REMARK    8  A    between atoms: C11_19  and  C20_31 
REMARK       I    between atoms: N4_20  and  C12_22 
REMARK    9  A    between atoms: C12_22  and  C13_24 
REMARK   10  A    between atoms: C20_31  and  C22_33 
ROOT
HETATM    1  C10 UNL     1      -0.646  -1.231   0.463  1.00  0.00     0.234 C 
ENDROOT
BRANCH   1   2
HETATM    2  C9  UNL     1      -1.150   0.149   0.200  1.00  0.00     0.308 C 
BRANCH   2   3
HETATM    3  N2  UNL     1      -2.415   0.346  -0.347  1.00  0.00     0.104 N 
HETATM    4  C5  UNL     1      -2.627   1.803  -0.419  1.00  0.00     0.314 C 
HETATM    5  C6  UNL     1      -2.142   2.214  -1.765  1.00  0.00     0.047 C 
HETATM    6  C7  UNL     1      -2.143   0.982  -2.594  1.00  0.00     0.033 C 
HETATM    7  C8  UNL     1      -2.744  -0.047  -1.651  1.00  0.00     0.273 C 
BRANCH   4   8
HETATM    8  C4  UNL     1      -4.033   2.176  -0.184  1.00  0.00     0.251 C 
HETATM    9  N1  UNL     1      -5.001   1.258   0.251  1.00  0.00    -0.355 N 
ATOM     10  H1  UNL     1      -4.729   0.289   0.416  1.00  0.00     0.162 HD
HETATM   11  O1  UNL     1      -4.395   3.380  -0.380  1.00  0.00    -0.271 OA
BRANCH   9  12
HETATM   12  C2  UNL     1      -6.372   1.652   0.471  1.00  0.00     0.076 C 
HETATM   13  C1  UNL     1      -6.790   1.367   1.898  1.00  0.00     0.032 C 
HETATM   14  C3  UNL     1      -7.310   0.896  -0.476  1.00  0.00     0.032 C 
ENDBRANCH   9  12
ENDBRANCH   4   8
ENDBRANCH   2   3
ENDBRANCH   1   2
BRANCH   1  15
HETATM   15  N3  UNL     1      -0.580  -1.960  -0.779  1.00  0.00    -0.071 N 
ATOM     16  H33 UNL     1      -1.472  -1.962  -1.274  1.00  0.00     0.274 HD
ATOM     17  H32 UNL     1      -0.025  -1.474  -1.483  1.00  0.00     0.274 HD
ATOM     18  H31 UNL     1      -0.236  -2.903  -0.599  1.00  0.00     0.274 HD
ENDBRANCH   1  15
BRANCH   1  19
HETATM   19  C11 UNL     1       0.743  -1.106   1.006  1.00  0.00     0.120 C 
BRANCH  19  20
HETATM   20  N4  UNL     1       1.594  -0.408   0.014  1.00  0.00    -0.354 N 
HETATM   21  C12 UNL     1       2.264   0.792   0.276  1.00  0.00     0.222 C 
HETATM   22  O2  UNL     1       2.155   1.328   1.402  1.00  0.00    -0.273 OA
ATOM     23  H4  UNL     1       1.697  -0.825  -0.911  1.00  0.00     0.162 HD
BRANCH  21  24
HETATM   24  C13 UNL     1       3.092   1.425  -0.766  1.00  0.00     0.079 C 
HETATM   25  C14 UNL     1       4.252   0.561  -1.272  1.00  0.00     0.023 C 
HETATM   26  C15 UNL     1       5.139   1.739  -1.039  1.00  0.00    -0.039 C 
HETATM   27  C16 UNL     1       5.712   2.439  -2.205  1.00  0.00     0.010 C 
HETATM   28  C18 UNL     1       6.480   1.507  -0.460  1.00  0.00     0.010 C 
HETATM   29  C19 UNL     1       4.111   2.435  -0.217  1.00  0.00     0.023 C 
HETATM   30  C17 UNL     1       7.074   1.831  -1.839  1.00  0.00     0.002 C 
ENDBRANCH  21  24
ENDBRANCH  19  20
BRANCH  19  31
HETATM   31  C20 UNL     1       1.457  -2.326   1.405  1.00  0.00     0.010 C 
HETATM   32  C21 UNL     1       1.630  -3.344   0.296  1.00  0.00     0.012 C 
BRANCH  31  33
HETATM   33  C22 UNL     1       1.046  -3.048   2.643  1.00  0.00    -0.017 C 
HETATM   34  C23 UNL     1       2.000  -4.247   2.786  1.00  0.00     0.010 C 
HETATM   35  C24 UNL     1      -0.336  -3.623   2.655  1.00  0.00     0.010 C 
ENDBRANCH  31  33
ENDBRANCH  19  31
ENDBRANCH   1  19
TORSDOF 10
