REMARK  11 active torsions:
REMARK  status: ('A' for Active; 'I' for Inactive)
REMARK    1  A    between atoms: N1_2  and  C2_4 
REMARK    2  A    between atoms: C2_4  and  C3_5 
REMARK    3  A    between atoms: C2_4  and  C7_9 
REMARK    4  A    between atoms: C3_5  and  C4_6 
REMARK       I    between atoms: C7_9  and  N2_11 
REMARK    5  A    between atoms: N2_11  and  C8_13 
REMARK    6  A    between atoms: C8_13  and  C9_14 
REMARK    7  A    between atoms: C8_13  and  C13_18 
REMARK    8  A    between atoms: C9_14  and  C10_15 
REMARK    9  A    between atoms: C13_18  and  O2_19 
REMARK   10  A    between atoms: C16_24  and  C17_25 
REMARK       I    between atoms: C17_25  and  N4_27 
REMARK   11  A    between atoms: N4_27  and  C18_29 
ROOT
HETATM    1  C8  UNL     1      -1.620  -1.374  -0.167  1.00  0.00     0.159 C 
ENDROOT
BRANCH   1   2
HETATM    2  N2  UNL     1      -2.906  -0.616   0.120  1.00  0.00    -0.347 N 
HETATM    3  C7  UNL     1      -3.848  -0.376  -0.876  1.00  0.00     0.240 C 
HETATM    4  O1  UNL     1      -3.640  -0.789  -2.036  1.00  0.00    -0.271 OA
ATOM      5  H2  UNL     1      -3.083  -0.275   1.065  1.00  0.00     0.163 HD
BRANCH   3   6
HETATM    6  C2  UNL     1      -5.097   0.359  -0.598  1.00  0.00     0.169 C 
BRANCH   6   7
HETATM    7  N1  UNL     1      -5.893   0.468  -1.801  1.00  0.00    -0.413 N 
HETATM    8  C1  UNL     1      -5.272   1.159  -2.881  1.00  0.00     0.140 C 
ATOM      9  H1  UNL     1      -6.833   0.078  -1.871  1.00  0.00     0.153 HD
ENDBRANCH   6   7
BRANCH   6  10
HETATM   10  C3  UNL     1      -4.783   1.626   0.092  1.00  0.00     0.038 C 
BRANCH  10  11
HETATM   11  C4  UNL     1      -5.891   2.452   0.602  1.00  0.00    -0.020 C 
HETATM   12  C5  UNL     1      -6.776   1.765   1.608  1.00  0.00     0.009 C 
HETATM   13  C6  UNL     1      -6.736   3.103  -0.451  1.00  0.00     0.009 C 
ENDBRANCH  10  11
ENDBRANCH   6  10
ENDBRANCH   3   6
ENDBRANCH   1   2
BRANCH   1  14
HETATM   14  C9  UNL     1      -1.654  -2.513   0.717  1.00  0.00     0.038 C 
BRANCH  14  15
HETATM   15  C10 UNL     1      -0.632  -3.593   0.627  1.00  0.00    -0.012 A 
HETATM   16  C11 UNL     1      -0.776  -4.710   1.640  1.00  0.00     0.005 A 
HETATM   17  C12 UNL     1      -1.121  -4.956   0.216  1.00  0.00     0.005 A 
ENDBRANCH  14  15
ENDBRANCH   1  14
BRANCH   1  18
HETATM   18  C13 UNL     1      -0.590  -0.359  -0.246  1.00  0.00     0.137 C 
HETATM   19  N3  UNL     1       0.647  -0.049   0.227  1.00  0.00    -0.364 N 
HETATM   20  C14 UNL     1       1.459  -0.698   1.195  1.00  0.00     0.125 C 
HETATM   21  C23 UNL     1       1.318   1.177  -0.344  1.00  0.00     0.125 C 
HETATM   22  C15 UNL     1       2.695  -1.278   0.480  1.00  0.00     0.034 C 
HETATM   23  C16 UNL     1       3.416  -0.181  -0.275  1.00  0.00     0.081 C 
HETATM   24  C22 UNL     1       2.778   1.159  -0.067  1.00  0.00     0.034 C 
BRANCH  18  25
HETATM   25  O2  UNL     1      -1.028   0.631  -1.090  1.00  0.00    -0.348 OA
ATOM     26  H2  UNL     1      -0.352   1.297  -1.142  1.00  0.00     0.219 HD
ENDBRANCH  18  25
BRANCH  23  27
HETATM   27  C17 UNL     1       4.832  -0.134   0.123  1.00  0.00     0.222 C 
HETATM   28  O3  UNL     1       5.251  -0.899   1.026  1.00  0.00    -0.273 OA
HETATM   29  N4  UNL     1       5.776   0.751  -0.472  1.00  0.00    -0.353 N 
ATOM     30  H4  UNL     1       5.455   1.380  -1.208  1.00  0.00     0.163 HD
BRANCH  29  31
HETATM   31  C18 UNL     1       7.154   0.800  -0.086  1.00  0.00     0.022 C 
HETATM   32  C19 UNL     1       7.870   1.826  -0.915  1.00  0.00     0.037 C 
HETATM   33  C20 UNL     1       7.329   1.211   1.365  1.00  0.00     0.037 C 
HETATM   34  C21 UNL     1       7.851  -0.525  -0.244  1.00  0.00     0.037 C 
ENDBRANCH  29  31
ENDBRANCH  23  27
ENDBRANCH   1  18
TORSDOF 11
