REMARK  9 active torsions:
REMARK  status: ('A' for Active; 'I' for Inactive)
REMARK       I    between atoms: N1_2  and  C2_4 
REMARK    1  A    between atoms: C2_4  and  C3_6 
REMARK    2  A    between atoms: C3_6  and  C4_7 
REMARK    3  A    between atoms: C3_6  and  C12_15 
REMARK    4  A    between atoms: C4_7  and  C5_8 
REMARK    5  A    between atoms: C12_15  and  N2_16 
REMARK    6  A    between atoms: C16_20  and  C17_21 
REMARK       I    between atoms: C17_21  and  N3_23 
REMARK    7  A    between atoms: N3_23  and  C18_25 
REMARK    8  A    between atoms: C18_25  and  C19_26 
REMARK    9  A    between atoms: C18_25  and  C21_31 
REMARK       I    between atoms: C19_26  and  N4_28 
ROOT
HETATM    1  N2  UNL     1       0.296  -0.433  -1.518  1.00  0.00     0.103 N 
HETATM    2  C13 UNL     1      -0.040  -1.174  -2.710  1.00  0.00     0.273 C 
HETATM    3  C14 UNL     1       1.059  -0.733  -3.657  1.00  0.00     0.033 C 
HETATM    4  C15 UNL     1       2.225  -0.344  -2.777  1.00  0.00     0.047 C 
HETATM    5  C16 UNL     1       1.699  -0.678  -1.373  1.00  0.00     0.314 C 
ENDROOT
BRANCH   1   6
HETATM    6  C12 UNL     1      -0.480  -0.789  -0.377  1.00  0.00     0.287 C 
BRANCH   6   7
HETATM    7  C3  UNL     1      -1.949  -0.377  -0.517  1.00  0.00     0.106 C 
BRANCH   7   8
HETATM    8  C2  UNL     1      -2.085   1.063  -0.687  1.00  0.00     0.223 C 
HETATM    9  N1  UNL     1      -2.462   1.688  -1.918  1.00  0.00    -0.365 N 
HETATM   10  C1  UNL     1      -2.593   3.100  -2.105  1.00  0.00     0.149 C 
ATOM     11  H1  UNL     1      -2.651   1.084  -2.718  1.00  0.00     0.161 HD
HETATM   12  O1  UNL     1      -1.852   1.828   0.309  1.00  0.00    -0.273 OA
ENDBRANCH   7   8
BRANCH   7  13
HETATM   13  C4  UNL     1      -2.618  -0.938   0.668  1.00  0.00     0.020 C 
BRANCH  13  14
HETATM   14  C5  UNL     1      -4.089  -0.890   0.851  1.00  0.00    -0.014 C 
HETATM   15  C6  UNL     1      -4.305  -1.617   2.198  1.00  0.00     0.005 C 
HETATM   16  C7  UNL     1      -5.704  -1.982   2.416  1.00  0.00     0.000 C 
HETATM   17  C8  UNL     1      -6.501  -1.993   1.169  1.00  0.00     0.000 C 
HETATM   18  C9  UNL     1      -6.850  -0.637   0.646  1.00  0.00     0.000 C 
HETATM   19  C10 UNL     1      -6.127   0.481   1.321  1.00  0.00     0.000 C 
HETATM   20  C11 UNL     1      -4.629   0.470   1.052  1.00  0.00     0.005 C 
ENDBRANCH  13  14
ENDBRANCH   7  13
ENDBRANCH   6   7
ENDBRANCH   1   6
BRANCH   5  21
HETATM   21  C17 UNL     1       2.397   0.187  -0.421  1.00  0.00     0.252 C 
HETATM   22  O2  UNL     1       1.838   1.106   0.248  1.00  0.00    -0.271 OA
HETATM   23  N3  UNL     1       3.788   0.014  -0.208  1.00  0.00    -0.346 N 
ATOM     24  H3  UNL     1       4.272  -0.717  -0.730  1.00  0.00     0.163 HD
BRANCH  23  25
HETATM   25  C18 UNL     1       4.553   0.824   0.713  1.00  0.00     0.180 C 
BRANCH  25  26
HETATM   26  C19 UNL     1       5.583   1.565  -0.092  1.00  0.00     0.240 C 
HETATM   27  O3  UNL     1       5.653   1.410  -1.333  1.00  0.00    -0.271 OA
HETATM   28  N4  UNL     1       6.494   2.452   0.531  1.00  0.00    -0.364 N 
HETATM   29  C20 UNL     1       7.476   3.155  -0.255  1.00  0.00     0.149 C 
ATOM     30  H4  UNL     1       6.455   2.594   1.540  1.00  0.00     0.161 HD
ENDBRANCH  25  26
BRANCH  25  31
HETATM   31  C21 UNL     1       5.339  -0.040   1.687  1.00  0.00     0.009 C 
HETATM   32  C22 UNL     1       4.400  -0.905   2.486  1.00  0.00     0.012 C 
HETATM   33  C23 UNL     1       6.325  -0.915   0.954  1.00  0.00     0.012 C 
ENDBRANCH  25  31
ENDBRANCH  23  25
ENDBRANCH   5  21
TORSDOF 9
