REMARK  5 active torsions:
REMARK  status: ('A' for Active; 'I' for Inactive)
REMARK    1  A    between atoms: C4_5  and  C5_6 
REMARK    2  A    between atoms: C5_6  and  N2_7 
REMARK    3  A    between atoms: N2_7  and  C6_9 
REMARK    4  A    between atoms: C7_12  and  N4_13 
REMARK    5  A    between atoms: C8_18  and  N6_19 
ROOT
HETATM    1  C6  UNL     1       1.595   0.184   0.014  1.00  0.00     0.707 A 
HETATM    2  N3  UNL     1       2.364   1.133   0.596  1.00  0.00    -0.022 N 
ATOM      3  H3  UNL     1       1.930   1.897   1.114  1.00  0.00     0.203 HD
HETATM    4  C7  UNL     1       3.706   1.066   0.489  1.00  0.00     0.705 A 
HETATM    5  N5  UNL     1       4.296   0.060  -0.195  1.00  0.00    -0.022 N 
ATOM      6  H5  UNL     1       5.313   0.028  -0.265  1.00  0.00     0.203 HD
HETATM    7  C8  UNL     1       3.561  -0.898  -0.784  1.00  0.00     0.705 A 
HETATM    8  N7  UNL     1       2.224  -0.796  -0.654  1.00  0.00    -0.022 N 
ATOM      9  H7  UNL     1       1.649  -1.514  -1.094  1.00  0.00     0.203 HD
ENDROOT
BRANCH   1  10
HETATM   10  N2  UNL     1       0.326   0.281   0.138  1.00  0.00    -0.219 N 
ATOM     11  H2  UNL     1      -0.045   1.069   0.669  1.00  0.00     0.178 HD
BRANCH  10  12
HETATM   12  C5  UNL     1      -0.609  -0.654  -0.427  1.00  0.00     0.196 C 
BRANCH  12  13
HETATM   13  C4  UNL     1      -1.992  -0.229  -0.060  1.00  0.00     0.045 A 
HETATM   14  C3  UNL     1      -2.348   0.874   0.694  1.00  0.00     0.047 A 
HETATM   15  C2  UNL     1      -3.728   0.909   0.801  1.00  0.00     0.111 A 
HETATM   16  N1  UNL     1      -4.170  -0.162   0.116  1.00  0.00    -0.308 N 
HETATM   17  C1  UNL     1      -5.573  -0.534  -0.047  1.00  0.00     0.177 C 
HETATM   18  N8  UNL     1      -3.155  -0.829  -0.389  1.00  0.00    -0.302 N 
ATOM     19  H8  UNL     1      -3.235  -1.678  -0.949  1.00  0.00     0.187 HD
ENDBRANCH  12  13
ENDBRANCH  10  12
ENDBRANCH   1  10
BRANCH   4  20
HETATM   20  N4  UNL     1       4.456   1.973   1.044  1.00  0.00    -0.234 N 
ATOM     21  H42 UNL     1       4.011   2.732   1.560  1.00  0.00     0.174 HD
ATOM     22  H41 UNL     1       5.472   1.922   0.963  1.00  0.00     0.174 HD
ENDBRANCH   4  20
BRANCH   7  23
HETATM   23  N6  UNL     1       4.122  -1.858  -1.437  1.00  0.00    -0.234 N 
ATOM     24  H62 UNL     1       5.134  -1.935  -1.535  1.00  0.00     0.174 HD
ATOM     25  H61 UNL     1       3.564  -2.585  -1.884  1.00  0.00     0.174 HD
ENDBRANCH   7  23
TORSDOF 5
