REMARK  7 active torsions:
REMARK  status: ('A' for Active; 'I' for Inactive)
REMARK    1  A    between atoms: C2_2  and  N1_3 
REMARK    2  A    between atoms: N1_3  and  C3_5 
REMARK    3  A    between atoms: C4_8  and  N3_9 
REMARK    4  A    between atoms: C5_14  and  N5_15 
REMARK    5  A    between atoms: N5_15  and  C6_17 
REMARK    6  A    between atoms: C6_17  and  C7_18 
REMARK    7  A    between atoms: C7_18  and  O1_20 
ROOT
HETATM    1  C3  UNL     1       2.461   0.448   0.128  1.00  0.00     0.711 A 
HETATM    2  N2  UNL     1       2.213   1.762   0.263  1.00  0.00    -0.021 N 
ATOM      3  H2  UNL     1       2.983   2.428   0.196  1.00  0.00     0.203 HD
HETATM    4  C4  UNL     1       0.957   2.214   0.486  1.00  0.00     0.705 A 
HETATM    5  N4  UNL     1      -0.075   1.345   0.577  1.00  0.00    -0.022 N 
ATOM      6  H4  UNL     1      -1.025   1.675   0.745  1.00  0.00     0.203 HD
HETATM    7  C5  UNL     1       0.185   0.043   0.441  1.00  0.00     0.707 A 
HETATM    8  N6  UNL     1       1.445  -0.417   0.217  1.00  0.00    -0.021 N 
ATOM      9  H6  UNL     1       1.614  -1.418   0.117  1.00  0.00     0.203 HD
ENDROOT
BRANCH   7  10
HETATM   10  N5  UNL     1      -0.738  -0.829   0.515  1.00  0.00    -0.223 N 
ATOM     11  H5  UNL     1      -0.441  -1.798   0.398  1.00  0.00     0.177 HD
BRANCH  10  12
HETATM   12  C6  UNL     1      -2.135  -0.632   0.740  1.00  0.00     0.169 C 
BRANCH  12  13
HETATM   13  C7  UNL     1      -2.833  -0.721  -0.624  1.00  0.00     0.132 C 
HETATM   14  C8  UNL     1      -4.310  -0.567  -0.357  1.00  0.00     0.041 C 
BRANCH  13  15
HETATM   15  O1  UNL     1      -2.307   0.265  -1.420  1.00  0.00    -0.394 OA
ATOM     16  H1  UNL     1      -2.739   0.210  -2.264  1.00  0.00     0.210 HD
ENDBRANCH  13  15
ENDBRANCH  12  13
ENDBRANCH  10  12
ENDBRANCH   7  10
BRANCH   4  17
HETATM   17  N3  UNL     1       0.745   3.463   0.611  1.00  0.00    -0.234 N 
ATOM     18  H32 UNL     1       1.523   4.119   0.542  1.00  0.00     0.174 HD
ATOM     19  H31 UNL     1      -0.202   3.804   0.779  1.00  0.00     0.174 HD
ENDBRANCH   4  17
BRANCH   1  20
HETATM   20  N1  UNL     1       3.677   0.015  -0.087  1.00  0.00    -0.202 N 
ATOM     21  H1  UNL     1       4.453   0.673  -0.154  1.00  0.00     0.183 HD
BRANCH  20  22
HETATM   22  C2  UNL     1       3.904  -1.370  -0.225  1.00  0.00     0.096 C 
HETATM   23  C1  UNL     1       4.580  -1.886  -1.233  1.00  0.00     0.030 C 
ENDBRANCH  20  22
ENDBRANCH   1  20
TORSDOF 7
