REMARK  8 active torsions:
REMARK  status: ('A' for Active; 'I' for Inactive)
REMARK    1  A    between atoms: N1_1  and  C1_5 
REMARK    2  A    between atoms: C1_5  and  C2_6 
REMARK    3  A    between atoms: C3_7  and  C4_8 
REMARK    4  A    between atoms: C4_8  and  O1_9 
REMARK    5  A    between atoms: C4_8  and  N2_11 
REMARK    6  A    between atoms: N2_11  and  C5_13 
REMARK    7  A    between atoms: C6_16  and  N4_17 
REMARK    8  A    between atoms: N4_17  and  N5_19 
ROOT
HETATM    1  C5  UNL     1       1.410   0.343   0.322  1.00  0.00     0.178 A 
HETATM    2  N3  UNL     1       2.542   0.954   0.665  1.00  0.00    -0.167 N 
ATOM      3  H3  UNL     1       2.575   1.966   0.790  1.00  0.00     0.186 HD
HETATM    4  C6  UNL     1       3.615   0.216   0.838  1.00  0.00     0.704 A 
HETATM    5  N6  UNL     1       3.498  -1.102   0.657  1.00  0.00    -0.156 N 
ATOM      6  H6  UNL     1       4.217  -1.820   0.747  1.00  0.00     0.193 HD
HETATM    7  S1  UNL     1       1.882  -1.292   0.245  1.00  0.00     0.039 SA
ENDROOT
BRANCH   1   8
HETATM    8  N2  UNL     1       0.236   0.900   0.105  1.00  0.00    -0.340 N 
ATOM      9  H2  UNL     1       0.085   1.905   0.186  1.00  0.00     0.164 HD
BRANCH   8  10
HETATM   10  C4  UNL     1      -0.825  -0.018  -0.257  1.00  0.00     0.243 C 
BRANCH  10  11
HETATM   11  C3  UNL     1      -2.161   0.514   0.017  1.00  0.00     0.023 C 
HETATM   12  C2  UNL     1      -3.236  -0.067  -0.476  1.00  0.00     0.000 C 
BRANCH  12  13
HETATM   13  C1  UNL     1      -4.617   0.452  -0.214  1.00  0.00     0.257 C 
BRANCH  13  14
HETATM   14  N1  UNL     1      -5.373  -0.585   0.454  1.00  0.00    -0.076 N 
ATOM     15  H13 UNL     1      -5.375  -1.464  -0.063  1.00  0.00     0.274 HD
ATOM     16  H12 UNL     1      -4.914  -0.923   1.300  1.00  0.00     0.274 HD
ATOM     17  H11 UNL     1      -6.313  -0.232   0.632  1.00  0.00     0.274 HD
ENDBRANCH  13  14
ENDBRANCH  12  13
ENDBRANCH  10  11
BRANCH  10  18
HETATM   18  O1  UNL     1      -0.709  -0.365  -1.621  1.00  0.00    -0.373 OA
ATOM     19  H1  UNL     1       0.158  -0.710  -1.799  1.00  0.00     0.212 HD
ENDBRANCH  10  18
ENDBRANCH   8  10
ENDBRANCH   1   8
BRANCH   4  20
HETATM   20  N4  UNL     1       4.808   0.709   1.183  1.00  0.00    -0.138 N 
ATOM     21  H4  UNL     1       4.899   1.716   1.321  1.00  0.00     0.205 HD
BRANCH  20  22
HETATM   22  N5  UNL     1       5.909  -0.075   1.358  1.00  0.00    -0.331 N 
ATOM     23  H52 UNL     1       5.800  -1.079   1.216  1.00  0.00     0.177 HD
ATOM     24  H51 UNL     1       6.820   0.301   1.621  1.00  0.00     0.177 HD
ENDBRANCH  20  22
ENDBRANCH   4  20
TORSDOF 8
