REMARK  6 active torsions:
REMARK  status: ('A' for Active; 'I' for Inactive)
REMARK    1  A    between atoms: N1_2  and  C2_3 
REMARK    2  A    between atoms: N1_2  and  C4_9 
REMARK    3  A    between atoms: C2_3  and  C3_4 
REMARK    4  A    between atoms: C3_4  and  N2_5 
REMARK    5  A    between atoms: C5_12  and  N4_13 
REMARK    6  A    between atoms: C6_18  and  N6_19 
ROOT
HETATM    1  C4  UNL     1       0.621  -0.211   0.007  1.00  0.00     0.143 A 
HETATM    2  N3  UNL     1       1.620  -1.146  -0.115  1.00  0.00    -0.175 N 
ATOM      3  H3  UNL     1       1.379  -2.121   0.064  1.00  0.00     0.186 HD
HETATM    4  C5  UNL     1       2.876  -0.874  -0.449  1.00  0.00     0.679 A 
HETATM    5  N5  UNL     1       3.231   0.393  -0.690  1.00  0.00    -0.176 N 
ATOM      6  H5  UNL     1       4.191   0.625  -0.947  1.00  0.00     0.186 HD
HETATM    7  C6  UNL     1       2.288   1.365  -0.586  1.00  0.00     0.139 A 
HETATM    8  C7  UNL     1       0.968   1.075  -0.235  1.00  0.00     0.133 A 
HETATM    9  C8  UNL     1       0.055   2.168  -0.143  1.00  0.00     0.107 C 
HETATM   10  N7  UNL     1      -0.659   3.067  -0.075  1.00  0.00    -0.191 NA
ENDROOT
BRANCH   1  11
HETATM   11  N1  UNL     1      -0.660  -0.666   0.373  1.00  0.00    -0.368 N 
HETATM   12  C1  UNL     1      -0.691  -1.591   1.516  1.00  0.00     0.151 C 
BRANCH  11  13
HETATM   13  C2  UNL     1      -1.868  -0.417  -0.317  1.00  0.00     0.151 C 
BRANCH  13  14
HETATM   14  C3  UNL     1      -2.956   0.237   0.500  1.00  0.00     0.249 C 
BRANCH  14  15
HETATM   15  N2  UNL     1      -4.088   0.403  -0.413  1.00  0.00    -0.078 N 
ATOM     16  H23 UNL     1      -3.855   0.911  -1.266  1.00  0.00     0.274 HD
ATOM     17  H22 UNL     1      -4.380  -0.464  -0.865  1.00  0.00     0.274 HD
ATOM     18  H21 UNL     1      -4.823   0.845   0.139  1.00  0.00     0.274 HD
ENDBRANCH  14  15
ENDBRANCH  13  14
ENDBRANCH  11  13
ENDBRANCH   1  11
BRANCH   7  19
HETATM   19  N6  UNL     1       2.610   2.590  -0.811  1.00  0.00    -0.384 N 
ATOM     20  H62 UNL     1       3.574   2.802  -1.067  1.00  0.00     0.157 HD
ATOM     21  H61 UNL     1       1.902   3.320  -0.733  1.00  0.00     0.157 HD
ENDBRANCH   7  19
BRANCH   4  22
HETATM   22  N4  UNL     1       3.780  -1.791  -0.552  1.00  0.00    -0.234 N 
ATOM     23  H42 UNL     1       3.509  -2.757  -0.368  1.00  0.00     0.174 HD
ATOM     24  H41 UNL     1       4.745  -1.582  -0.809  1.00  0.00     0.174 HD
ENDBRANCH   4  22
TORSDOF 6
