REMARK  10 active torsions:
REMARK  status: ('A' for Active; 'I' for Inactive)
REMARK    1  A    between atoms: C2_2  and  C3_3 
REMARK    2  A    between atoms: C3_3  and  C4_4 
REMARK    3  A    between atoms: C4_4  and  C5_5 
REMARK    4  A    between atoms: C5_5  and  O1_6 
REMARK    5  A    between atoms: O1_6  and  C6_7 
REMARK    6  A    between atoms: C6_7  and  O3_9 
REMARK    7  A    between atoms: O3_9  and  C7_10 
REMARK    8  A    between atoms: C7_10  and  C8_11 
REMARK    9  A    between atoms: C12_15  and  C13_16 
REMARK   10  A    between atoms: C19_24  and  O6_25 
ROOT
HETATM    1  C8  UNL     1      -1.263  -0.793   0.476  1.00  0.00    -0.010 C 
HETATM    2  C9  UNL     1      -0.904  -2.203   0.817  1.00  0.00     0.018 C 
HETATM    3  C10 UNL     1      -2.575  -0.340   1.032  1.00  0.00     0.003 C 
HETATM    4  C11 UNL     1      -2.486   1.202   1.069  1.00  0.00     0.021 C 
HETATM    5  C12 UNL     1      -2.264   1.763  -0.295  1.00  0.00     0.088 C 
HETATM    6  C14 UNL     1      -1.153   1.110  -1.073  1.00  0.00     0.026 C 
HETATM    7  C15 UNL     1      -1.213  -0.421  -0.959  1.00  0.00    -0.026 A 
HETATM    8  C16 UNL     1      -0.620  -1.194  -2.030  1.00  0.00     0.016 A 
HETATM    9  C17 UNL     1      -2.114  -1.045  -1.900  1.00  0.00    -0.002 A 
HETATM   10  C18 UNL     1      -2.975  -2.169  -1.470  1.00  0.00     0.037 C 
HETATM   11  C19 UNL     1      -4.041  -1.818  -0.501  1.00  0.00     0.122 C 
HETATM   12  C20 UNL     1      -3.832  -0.703   0.426  1.00  0.00     0.015 C 
HETATM   13  C21 UNL     1      -4.830  -0.993   1.584  1.00  0.00     0.013 C 
ENDROOT
BRANCH   1  14
HETATM   14  C7  UNL     1      -0.149  -0.017   1.181  1.00  0.00     0.191 C 
BRANCH  14  15
HETATM   15  O3  UNL     1       1.059  -0.515   0.571  1.00  0.00    -0.297 OA
BRANCH  15  16
HETATM   16  C6  UNL     1       2.306  -0.069   0.926  1.00  0.00     0.406 C 
HETATM   17  O2  UNL     1       2.435   0.804   1.812  1.00  0.00    -0.230 OA
BRANCH  16  18
HETATM   18  O1  UNL     1       3.405  -0.600   0.292  1.00  0.00    -0.298 OA
BRANCH  18  19
HETATM   19  C5  UNL     1       4.737  -0.257   0.527  1.00  0.00     0.181 C 
BRANCH  19  20
HETATM   20  C4  UNL     1       4.995   1.186   0.195  1.00  0.00     0.031 C 
BRANCH  20  21
HETATM   21  C3  UNL     1       6.444   1.555   0.445  1.00  0.00     0.028 C 
BRANCH  21  22
HETATM   22  C2  UNL     1       7.362   0.742  -0.374  1.00  0.00    -0.037 C 
HETATM   23  C1  UNL     1       8.171   1.312  -1.237  1.00  0.00     0.007 C 
ENDBRANCH  21  22
ENDBRANCH  20  21
ENDBRANCH  19  20
ENDBRANCH  18  19
ENDBRANCH  16  18
ENDBRANCH  15  16
ENDBRANCH  14  15
ENDBRANCH   1  14
BRANCH   5  24
HETATM   24  C13 UNL     1      -2.000   3.209  -0.173  1.00  0.00     0.177 C 
HETATM   25  O4  UNL     1      -0.925   3.704  -0.574  1.00  0.00    -0.648 OA
HETATM   26  O5  UNL     1      -2.929   4.078   0.389  1.00  0.00    -0.648 OA
ENDBRANCH   5  24
BRANCH  11  27
HETATM   27  O6  UNL     1      -4.468  -2.998   0.161  1.00  0.00    -0.395 OA
ATOM     28  H6  UNL     1      -5.151  -2.773   0.782  1.00  0.00     0.210 HD
ENDBRANCH  11  27
TORSDOF 10
