REMARK  11 active torsions:
REMARK  status: ('A' for Active; 'I' for Inactive)
REMARK    1  A    between atoms: O1_2  and  C2_3 
REMARK    2  A    between atoms: C2_3  and  C3_4 
REMARK    3  A    between atoms: C5_6  and  N1_7 
REMARK    4  A    between atoms: C7_9  and  C8_10 
REMARK    5  A    between atoms: C8_10  and  C9_11 
REMARK    6  A    between atoms: C9_11  and  C10_12 
REMARK    7  A    between atoms: C10_12  and  C11_13 
REMARK    8  A    between atoms: C11_13  and  C12_14 
REMARK    9  A    between atoms: C12_14  and  C13_15 
REMARK   10  A    between atoms: C13_15  and  C14_16 
REMARK   11  A    between atoms: C21_27  and  O4_28 
ROOT
HETATM    1  N1  UNL     1       2.153  -1.205   0.899  1.00  0.00    -0.304 N 
HETATM    2  C6  UNL     1       1.195  -1.754   0.137  1.00  0.00     0.109 A 
HETATM    3  C7  UNL     1      -0.096  -1.943   0.695  1.00  0.00     0.029 A 
HETATM    4  C18 UNL     1      -0.264  -1.548   1.989  1.00  0.00     0.257 A 
HETATM    5  O2  UNL     1      -1.379  -1.698   2.559  1.00  0.00    -0.267 OA
HETATM    6  N2  UNL     1       0.731  -0.997   2.723  1.00  0.00    -0.275 N 
ATOM      7  H2  UNL     1       0.561  -0.714   3.688  1.00  0.00     0.173 HD
HETATM    8  C19 UNL     1       1.941  -0.826   2.174  1.00  0.00     0.329 A 
HETATM    9  O3  UNL     1       2.895  -0.307   2.848  1.00  0.00    -0.246 OA
ENDROOT
BRANCH   1  10
HETATM   10  C5  UNL     1       3.473  -1.005   0.340  1.00  0.00     0.097 C 
HETATM   11  C4  UNL     1       3.872   0.434   0.201  1.00  0.00     0.035 C 
HETATM   12  C3  UNL     1       5.389   0.417   0.188  1.00  0.00     0.040 C 
HETATM   13  C21 UNL     1       5.786  -0.806   0.992  1.00  0.00     0.126 C 
HETATM   14  C20 UNL     1       4.576  -1.718   1.034  1.00  0.00     0.058 C 
BRANCH  12  15
HETATM   15  C2  UNL     1       5.932   0.327  -1.213  1.00  0.00     0.174 C 
BRANCH  15  16
HETATM   16  O1  UNL     1       5.578   1.344  -2.050  1.00  0.00    -0.395 OA
HETATM   17  C1  UNL     1       5.984   2.607  -1.645  1.00  0.00     0.201 C 
ENDBRANCH  15  16
ENDBRANCH  12  15
BRANCH  13  18
HETATM   18  O4  UNL     1       6.225  -0.396   2.228  1.00  0.00    -0.395 OA
ATOM     19  H4  UNL     1       6.474  -1.162   2.732  1.00  0.00     0.210 HD
ENDBRANCH  13  18
ENDBRANCH   1  10
BRANCH   3  20
HETATM   20  C8  UNL     1      -1.079  -2.453  -0.250  1.00  0.00     0.073 C 
BRANCH  20  21
HETATM   21  C9  UNL     1      -1.540  -1.523  -1.271  1.00  0.00    -0.022 C 
BRANCH  21  22
HETATM   22  C10 UNL     1      -2.264  -0.326  -1.051  1.00  0.00    -0.008 C 
BRANCH  22  23
HETATM   23  C11 UNL     1      -2.767   0.299  -0.020  1.00  0.00    -0.027 C 
BRANCH  23  24
HETATM   24  C12 UNL     1      -3.501   1.606  -0.183  1.00  0.00     0.028 C 
BRANCH  24  25
HETATM   25  C13 UNL     1      -4.898   1.600   0.286  1.00  0.00     0.012 C 
BRANCH  25  26
HETATM   26  C14 UNL     1      -5.863   0.672  -0.340  1.00  0.00    -0.051 C 
HETATM   27  C15 UNL     1      -5.553  -0.789  -0.223  1.00  0.00     0.014 C 
HETATM   28  C16 UNL     1      -7.215   0.921   0.353  1.00  0.00     0.014 C 
HETATM   29  C17 UNL     1      -6.112   0.961  -1.806  1.00  0.00     0.014 C 
ENDBRANCH  25  26
ENDBRANCH  24  25
ENDBRANCH  23  24
ENDBRANCH  22  23
ENDBRANCH  21  22
ENDBRANCH  20  21
ENDBRANCH   3  20
TORSDOF 11
