REMARK  11 active torsions:
REMARK  status: ('A' for Active; 'I' for Inactive)
REMARK    1  A    between atoms: C2_2  and  C9_11 
REMARK    2  A    between atoms: C3_3  and  C4_4 
REMARK    3  A    between atoms: C5_5  and  C6_6 
REMARK    4  A    between atoms: C6_6  and  O1_9 
REMARK    5  A    between atoms: C9_11  and  C10_12 
REMARK    6  A    between atoms: C10_12  and  S1_13 
REMARK    7  A    between atoms: S1_13  and  C11_14 
REMARK    8  A    between atoms: C11_14  and  N1_16 
REMARK    9  A    between atoms: N2_19  and  C14_20 
REMARK   10  A    between atoms: C14_20  and  C15_21 
REMARK   11  A    between atoms: C15_21  and  C16_22 
ROOT
HETATM    1  S1  UNL     1       0.737   2.228  -0.679  1.00  0.00    -0.100 SA
ENDROOT
BRANCH   1   2
HETATM    2  C10 UNL     1      -1.026   2.394  -0.991  1.00  0.00     0.086 C 
BRANCH   2   3
HETATM    3  C9  UNL     1      -1.788   1.886   0.218  1.00  0.00     0.044 C 
BRANCH   3   4
HETATM    4  C2  UNL     1      -3.215   2.039  -0.060  1.00  0.00    -0.083 C 
HETATM    5  C1  UNL     1      -3.658   3.456  -0.359  1.00  0.00     0.043 C 
HETATM    6  C3  UNL     1      -4.066   1.062  -0.074  1.00  0.00     0.002 C 
BRANCH   6   7
HETATM    7  C4  UNL     1      -3.745  -0.304   0.196  1.00  0.00    -0.001 C 
HETATM    8  C5  UNL     1      -4.610  -1.309   0.182  1.00  0.00     0.010 C 
BRANCH   8   9
HETATM    9  C6  UNL     1      -6.030  -1.141  -0.118  1.00  0.00     0.068 C 
HETATM   10  C7  UNL     1      -6.686  -0.340   1.002  1.00  0.00     0.050 C 
HETATM   11  C8  UNL     1      -6.732  -2.498  -0.151  1.00  0.00     0.050 C 
BRANCH   9  12
HETATM   12  O1  UNL     1      -6.227  -0.556  -1.357  1.00  0.00    -0.387 OA
ATOM     13  H1  UNL     1      -7.150  -0.447  -1.552  1.00  0.00     0.211 HD
ENDBRANCH   9  12
ENDBRANCH   8   9
ENDBRANCH   6   7
ENDBRANCH   3   4
ENDBRANCH   2   3
ENDBRANCH   1   2
BRANCH   1  14
HETATM   14  C11 UNL     1       1.185   0.512  -0.680  1.00  0.00     0.136 C 
HETATM   15  S2  UNL     1       0.063  -0.625  -1.091  1.00  0.00    -0.053 SA
BRANCH  14  16
HETATM   16  N1  UNL     1       2.483   0.053  -0.368  1.00  0.00    -0.363 N 
HETATM   17  C12 UNL     1       2.781  -1.347  -0.382  1.00  0.00     0.154 C 
HETATM   18  C13 UNL     1       3.487  -1.686   0.912  1.00  0.00     0.292 C 
HETATM   19  N2  UNL     1       4.694  -0.898   0.988  1.00  0.00     0.092 N 
HETATM   20  C17 UNL     1       4.398   0.483   1.090  1.00  0.00     0.292 C 
HETATM   21  C18 UNL     1       3.519   0.992  -0.036  1.00  0.00     0.154 C 
BRANCH  19  22
HETATM   22  C14 UNL     1       5.711  -1.305   0.097  1.00  0.00     0.283 C 
BRANCH  22  23
HETATM   23  C15 UNL     1       6.962  -0.507   0.258  1.00  0.00     0.143 C 
BRANCH  23  24
HETATM   24  C16 UNL     1       7.956  -1.061  -0.727  1.00  0.00     0.174 C 
HETATM   25  O2  UNL     1       7.674  -1.996  -1.497  1.00  0.00    -0.648 OA
HETATM   26  O3  UNL     1       9.220  -0.504  -0.768  1.00  0.00    -0.648 OA
ENDBRANCH  23  24
ENDBRANCH  22  23
ENDBRANCH  19  22
ENDBRANCH  14  16
ENDBRANCH   1  14
TORSDOF 11
