REMARK  10 active torsions:
REMARK  status: ('A' for Active; 'I' for Inactive)
REMARK    1  A    between atoms: C2_2  and  C3_3 
REMARK    2  A    between atoms: C3_3  and  C4_4 
REMARK    3  A    between atoms: C4_4  and  C5_5 
REMARK    4  A    between atoms: C6_6  and  C7_7 
REMARK    5  A    between atoms: C8_8  and  C9_9 
REMARK    6  A    between atoms: C9_9  and  C10_10 
REMARK    7  A    between atoms: C13_13  and  O1_14 
REMARK    8  A    between atoms: C14_16  and  O2_17 
REMARK    9  A    between atoms: C16_20  and  O3_21 
REMARK   10  A    between atoms: O3_21  and  C17_22 
REMARK       I    between atoms: C17_22  and  N1_24 
ROOT
HETATM    1  C10 UNL     1      -0.542  -0.885  -0.485  1.00  0.00     0.125 C 
HETATM    2  C11 UNL     1       0.028  -1.430  -1.733  1.00  0.00     0.035 C 
HETATM    3  C12 UNL     1       1.289  -2.202  -1.637  1.00  0.00     0.037 C 
HETATM    4  C13 UNL     1       1.780  -2.541  -0.287  1.00  0.00     0.147 C 
HETATM    5  C14 UNL     1       2.590  -1.525   0.420  1.00  0.00     0.155 C 
HETATM    6  C15 UNL     1       2.562  -0.149  -0.169  1.00  0.00     0.075 C 
HETATM    7  C16 UNL     1       3.551   0.749   0.532  1.00  0.00     0.142 C 
HETATM    8  C20 UNL     1       2.933   0.935   1.877  1.00  0.00     0.036 C 
HETATM    9  C21 UNL     1       1.488   1.221   1.525  1.00  0.00     0.035 C 
HETATM   10  C22 UNL     1       1.215   0.479   0.218  1.00  0.00     0.131 C 
HETATM   11  O5  UNL     1       0.320  -0.519   0.501  1.00  0.00    -0.380 OA
ENDROOT
BRANCH   1  12
HETATM   12  C9  UNL     1      -1.482   0.272  -0.878  1.00  0.00     0.059 C 
BRANCH  12  13
HETATM   13  C8  UNL     1      -2.547  -0.235  -1.748  1.00  0.00    -0.024 C 
HETATM   14  C7  UNL     1      -3.808  -0.185  -1.491  1.00  0.00    -0.004 C 
BRANCH  14  15
HETATM   15  C6  UNL     1      -4.364   0.386  -0.290  1.00  0.00    -0.004 C 
HETATM   16  C5  UNL     1      -5.694   0.412  -0.073  1.00  0.00    -0.027 C 
BRANCH  16  17
HETATM   17  C4  UNL     1      -6.184   1.011   1.177  1.00  0.00     0.027 C 
BRANCH  17  18
HETATM   18  C3  UNL     1      -7.085   2.170   0.876  1.00  0.00     0.003 C 
BRANCH  18  19
HETATM   19  C2  UNL     1      -8.256   1.706   0.071  1.00  0.00    -0.004 C 
HETATM   20  C1  UNL     1      -9.031   0.651   0.860  1.00  0.00     0.005 C 
ENDBRANCH  18  19
ENDBRANCH  17  18
ENDBRANCH  16  17
ENDBRANCH  14  15
ENDBRANCH  12  13
ENDBRANCH   1  12
BRANCH   4  21
HETATM   21  O1  UNL     1       2.583  -3.701  -0.420  1.00  0.00    -0.393 OA
ATOM     22  H1  UNL     1       2.899  -3.919   0.449  1.00  0.00     0.210 HD
ENDBRANCH   4  21
BRANCH   5  23
HETATM   23  O2  UNL     1       3.916  -1.963   0.647  1.00  0.00    -0.392 OA
ATOM     24  H2  UNL     1       4.436  -1.311   1.101  1.00  0.00     0.210 HD
ENDBRANCH   5  23
BRANCH   7  25
HETATM   25  O3  UNL     1       4.849   0.251   0.538  1.00  0.00    -0.298 OA
BRANCH  25  26
HETATM   26  C17 UNL     1       5.924   0.917  -0.022  1.00  0.00     0.362 C 
HETATM   27  O4  UNL     1       5.687   2.026  -0.556  1.00  0.00    -0.238 OA
HETATM   28  N1  UNL     1       7.239   0.367   0.009  1.00  0.00    -0.337 N 
HETATM   29  C18 UNL     1       8.304   1.133  -0.602  1.00  0.00     0.154 C 
HETATM   30  C19 UNL     1       7.549  -0.894   0.609  1.00  0.00     0.154 C 
ENDBRANCH  25  26
ENDBRANCH   7  25
TORSDOF 10
