REMARK  9 active torsions:
REMARK  status: ('A' for Active; 'I' for Inactive)
REMARK    1  A    between atoms: C2_2  and  C3_3 
REMARK    2  A    between atoms: C3_3  and  N1_4 
REMARK    3  A    between atoms: C4_5  and  C5_6 
REMARK    4  A    between atoms: C5_6  and  C6_7 
REMARK    5  A    between atoms: C9_11  and  C10_12 
REMARK    6  A    between atoms: C13_15  and  N3_16 
REMARK    7  A    between atoms: N3_16  and  C14_18 
REMARK    8  A    between atoms: C14_18  and  C15_19 
REMARK    9  A    between atoms: C15_19  and  C16_20 
ROOT
HETATM    1  C6  UNL     1      -4.469  -1.764  -1.601  1.00  0.00    -0.010 C 
HETATM    2  C7  UNL     1      -4.544  -3.044  -1.874  1.00  0.00     0.090 C 
HETATM    3  C8  UNL     1      -4.290  -4.015  -0.855  1.00  0.00     0.087 C 
HETATM    4  N2  UNL     1      -4.078  -4.808  -0.039  1.00  0.00    -0.192 NA
ENDROOT
BRANCH   1   5
HETATM    5  C5  UNL     1      -4.132  -1.245  -0.279  1.00  0.00     0.085 C 
BRANCH   5   6
HETATM    6  C4  UNL     1      -3.005  -0.270  -0.256  1.00  0.00     0.024 A 
HETATM    7  N1  UNL     1      -3.190   1.063  -0.164  1.00  0.00    -0.335 N 
HETATM    8  C22 UNL     1      -1.956   1.602  -0.191  1.00  0.00     0.123 A 
HETATM    9  C12 UNL     1      -0.995   0.647  -0.298  1.00  0.00     0.060 A 
HETATM   10  N7  UNL     1      -1.613   2.897  -0.130  1.00  0.00    -0.338 N 
HETATM   11  C9  UNL     1      -1.660  -0.588  -0.342  1.00  0.00    -0.018 A 
HETATM   12  C13 UNL     1       0.331   1.052  -0.339  1.00  0.00     0.116 A 
HETATM   13  N6  UNL     1       0.634   2.353  -0.276  1.00  0.00    -0.338 N 
HETATM   14  C21 UNL     1      -0.342   3.303  -0.170  1.00  0.00     0.183 A 
ATOM     15  H6  UNL     1       1.612   2.641  -0.308  1.00  0.00     0.168 HD
ATOM     16  H7  UNL     1      -2.350   3.597  -0.050  1.00  0.00     0.168 HD
BRANCH   7  17
HETATM   17  C3  UNL     1      -4.424   1.807  -0.052  1.00  0.00     0.130 C 
BRANCH  17  18
HETATM   18  C2  UNL     1      -4.841   2.027   1.400  1.00  0.00     0.016 C 
HETATM   19  C1  UNL     1      -6.132   2.819   1.379  1.00  0.00     0.006 C 
ENDBRANCH  17  18
ENDBRANCH   7  17
BRANCH  11  20
HETATM   20  C10 UNL     1      -0.996  -1.877  -0.439  1.00  0.00     0.037 C 
HETATM   21  C11 UNL     1      -0.870  -2.629   0.850  1.00  0.00     0.010 C 
ENDBRANCH  11  20
BRANCH  12  22
HETATM   22  N3  UNL     1       1.283   0.192  -0.426  1.00  0.00    -0.375 N 
ATOM     23  H3  UNL     1       0.996  -0.786  -0.460  1.00  0.00     0.161 HD
BRANCH  22  24
HETATM   24  C14 UNL     1       2.676   0.428  -0.480  1.00  0.00     0.127 C 
BRANCH  24  25
HETATM   25  C15 UNL     1       3.432  -0.750   0.156  1.00  0.00     0.078 C 
BRANCH  25  26
HETATM   26  C16 UNL     1       4.912  -0.466   0.077  1.00  0.00     0.034 A 
HETATM   27  N4  UNL     1       5.673  -0.038   1.087  1.00  0.00    -0.348 N 
HETATM   28  C17 UNL     1       6.949   0.126   0.660  1.00  0.00     0.077 A 
ATOM     29  H4  UNL     1       5.344   0.139   2.036  1.00  0.00     0.167 HD
HETATM   30  C18 UNL     1       8.077   0.595   1.508  1.00  0.00     0.089 C 
HETATM   31  N5  UNL     1       6.965  -0.212  -0.645  1.00  0.00    -0.348 N 
HETATM   32  C19 UNL     1       5.722  -0.579  -1.023  1.00  0.00     0.029 A 
ATOM     33  H5  UNL     1       7.786  -0.193  -1.250  1.00  0.00     0.167 HD
HETATM   34  C20 UNL     1       5.263  -1.033  -2.366  1.00  0.00     0.070 C 
ENDBRANCH  25  26
ENDBRANCH  24  25
ENDBRANCH  22  24
ENDBRANCH  12  22
ENDBRANCH   5   6
ENDBRANCH   1   5
TORSDOF 9
