REMARK  9 active torsions:
REMARK  status: ('A' for Active; 'I' for Inactive)
REMARK    1  A    between atoms: C7_11  and  C8_12 
REMARK    2  A    between atoms: C8_12  and  C9_13 
REMARK    3  A    between atoms: C9_13  and  O2_14 
REMARK    4  A    between atoms: O2_14  and  C10_15 
REMARK    5  A    between atoms: C10_15  and  C11_16 
REMARK    6  A    between atoms: C11_16  and  O3_17 
REMARK    7  A    between atoms: C11_16  and  C12_19 
REMARK    8  A    between atoms: C12_19  and  C13_20 
REMARK    9  A    between atoms: C13_20  and  C14_21 
ROOT
HETATM    1  C1  UNL     1       5.789  -1.644  -1.632  1.00  0.00     0.055 C 
HETATM    2  C2  UNL     1       5.230  -0.320  -1.223  1.00  0.00     0.122 C 
HETATM    3  C3  UNL     1       4.671   0.320  -2.423  1.00  0.00     0.091 C 
HETATM    4  N1  UNL     1       4.217   0.828  -3.355  1.00  0.00    -0.195 NA
HETATM    5  N2  UNL     1       6.293   0.498  -0.673  1.00  0.00    -0.339 N 
ATOM      6  H2  UNL     1       6.842   1.104  -1.283  1.00  0.00     0.164 HD
HETATM    7  C4  UNL     1       6.566   0.452   0.719  1.00  0.00     0.218 C 
HETATM    8  O1  UNL     1       7.572   1.073   1.139  1.00  0.00    -0.274 OA
HETATM    9  C5  UNL     1       5.740  -0.280   1.703  1.00  0.00     0.103 C 
HETATM   10  C6  UNL     1       4.635  -1.071   1.042  1.00  0.00     0.017 C 
HETATM   11  C7  UNL     1       4.130  -0.413  -0.209  1.00  0.00     0.030 C 
ENDROOT
BRANCH  11  12
HETATM   12  C8  UNL     1       3.543   0.945   0.003  1.00  0.00     0.034 C 
BRANCH  12  13
HETATM   13  C9  UNL     1       2.398   0.851   1.058  1.00  0.00     0.168 C 
BRANCH  13  14
HETATM   14  O2  UNL     1       1.496  -0.011   0.518  1.00  0.00    -0.389 OA
BRANCH  14  15
HETATM   15  C10 UNL     1       0.409  -0.356   1.246  1.00  0.00     0.199 C 
BRANCH  15  16
HETATM   16  C11 UNL     1      -0.503   0.761   1.608  1.00  0.00     0.142 C 
BRANCH  16  17
HETATM   17  O3  UNL     1       0.151   1.716   2.434  1.00  0.00    -0.393 OA
ATOM     18  H3  UNL     1      -0.432   2.430   2.665  1.00  0.00     0.210 HD
ENDBRANCH  16  17
BRANCH  16  19
HETATM   19  C12 UNL     1      -0.941   1.496   0.382  1.00  0.00     0.034 C 
BRANCH  19  20
HETATM   20  C13 UNL     1      -1.695   0.806  -0.663  1.00  0.00     0.012 C 
BRANCH  20  21
HETATM   21  C14 UNL     1      -3.038   0.247  -0.397  1.00  0.00    -0.039 C 
HETATM   22  C15 UNL     1      -4.007   1.311   0.084  1.00  0.00     0.014 C 
HETATM   23  C16 UNL     1      -5.400   0.779   0.169  1.00  0.00    -0.013 C 
HETATM   24  C17 UNL     1      -5.396  -0.402   1.099  1.00  0.00     0.009 C 
HETATM   25  C21 UNL     1      -5.885   0.429  -1.221  1.00  0.00     0.009 C 
HETATM   26  C18 UNL     1      -4.583  -1.481   0.467  1.00  0.00    -0.013 C 
HETATM   27  C19 UNL     1      -5.083  -1.876  -0.897  1.00  0.00     0.009 C 
HETATM   28  C23 UNL     1      -3.134  -1.055   0.313  1.00  0.00     0.014 C 
HETATM   29  C20 UNL     1      -4.977  -0.631  -1.764  1.00  0.00    -0.013 C 
HETATM   30  C22 UNL     1      -3.579  -0.096  -1.837  1.00  0.00     0.014 C 
ENDBRANCH  20  21
ENDBRANCH  19  20
ENDBRANCH  16  19
ENDBRANCH  15  16
ENDBRANCH  14  15
ENDBRANCH  13  14
ENDBRANCH  12  13
ENDBRANCH  11  12
TORSDOF 9
