REMARK  7 active torsions:
REMARK  status: ('A' for Active; 'I' for Inactive)
REMARK    1  A    between atoms: O1_2  and  C2_3 
REMARK    2  A    between atoms: C7_8  and  O2_9 
REMARK    3  A    between atoms: N1_16  and  C14_17 
REMARK    4  A    between atoms: C14_17  and  C15_18 
REMARK    5  A    between atoms: C15_18  and  C16_19 
REMARK    6  A    between atoms: C17_20  and  C18_21 
REMARK    7  A    between atoms: C18_21  and  C19_22 
ROOT
HETATM    1  C2  UNL     1      -5.133  -0.040   0.438  1.00  0.00     0.102 A 
HETATM    2  C3  UNL     1      -4.829   0.492  -0.795  1.00  0.00     0.047 A 
HETATM    3  C4  UNL     1      -3.519   0.492  -1.229  1.00  0.00    -0.047 A 
HETATM    4  C5  UNL     1      -2.494  -0.025  -0.468  1.00  0.00    -0.023 A 
HETATM    5  C6  UNL     1      -2.833  -0.554   0.770  1.00  0.00     0.049 A 
HETATM    6  C7  UNL     1      -4.114  -0.571   1.232  1.00  0.00     0.102 A 
HETATM    7  C9  UNL     1      -1.251   0.141  -1.222  1.00  0.00     0.074 C 
HETATM    8  C10 UNL     1      -1.676   0.170  -2.642  1.00  0.00     0.038 C 
HETATM    9  C11 UNL     1      -2.959   1.011  -2.531  1.00  0.00     0.042 C 
HETATM   10  C12 UNL     1      -0.647   1.510  -0.885  1.00  0.00     0.049 C 
HETATM   11  C13 UNL     1       0.305   1.083   0.241  1.00  0.00     0.112 C 
HETATM   12  N1  UNL     1       0.875  -0.114  -0.377  1.00  0.00    -0.230 NA
HETATM   13  N5  UNL     1      -0.233  -0.808  -0.908  1.00  0.00    -0.149 NA
ENDROOT
BRANCH  12  14
HETATM   14  C14 UNL     1       1.581  -0.937   0.589  1.00  0.00     0.136 C 
BRANCH  14  15
HETATM   15  C15 UNL     1       2.097  -2.139  -0.090  1.00  0.00    -0.011 C 
BRANCH  15  16
HETATM   16  C16 UNL     1       2.995  -2.099  -1.234  1.00  0.00    -0.003 C 
HETATM   17  C17 UNL     1       4.334  -1.599  -1.340  1.00  0.00     0.003 C 
BRANCH  17  18
HETATM   18  C18 UNL     1       4.876  -0.272  -1.254  1.00  0.00     0.050 C 
BRANCH  18  19
HETATM   19  C19 UNL     1       4.829   0.624  -0.124  1.00  0.00     0.121 A 
HETATM   20  N2  UNL     1       5.673   0.588   0.961  1.00  0.00    -0.330 N 
HETATM   21  C20 UNL     1       5.413   1.603   1.771  1.00  0.00     0.093 A 
ATOM     22  H2  UNL     1       6.393  -0.117   1.119  1.00  0.00     0.168 HD
HETATM   23  C21 UNL     1       6.032   2.011   3.060  1.00  0.00     0.090 C 
HETATM   24  N3  UNL     1       4.404   2.282   1.203  1.00  0.00    -0.288 N 
HETATM   25  N4  UNL     1       4.046   1.724   0.089  1.00  0.00    -0.284 N 
ATOM     26  H3  UNL     1       3.977   3.122   1.594  1.00  0.00     0.188 HD
ATOM     27  H4  UNL     1       3.302   2.052  -0.527  1.00  0.00     0.188 HD
ENDBRANCH  18  19
ENDBRANCH  17  18
ENDBRANCH  15  16
ENDBRANCH  14  15
ENDBRANCH  12  14
BRANCH   6  28
HETATM   28  O2  UNL     1      -4.421  -1.106   2.472  1.00  0.00    -0.353 OA
HETATM   29  C8  UNL     1      -3.393  -1.640   3.269  1.00  0.00     0.210 C 
ENDBRANCH   6  28
BRANCH   1  30
HETATM   30  O1  UNL     1      -6.408  -0.081   0.948  1.00  0.00    -0.353 OA
HETATM   31  C1  UNL     1      -7.522   0.427   0.236  1.00  0.00     0.210 C 
ENDBRANCH   1  30
TORSDOF 7
