REMARK  10 active torsions:
REMARK  status: ('A' for Active; 'I' for Inactive)
REMARK    1  A    between atoms: C6_6  and  C8_8 
REMARK    2  A    between atoms: C8_8  and  C9_9 
REMARK    3  A    between atoms: C9_9  and  O1_10 
REMARK    4  A    between atoms: C9_9  and  N1_12 
REMARK    5  A    between atoms: N1_12  and  C10_14 
REMARK    6  A    between atoms: C10_14  and  C11_15 
REMARK    7  A    between atoms: C11_15  and  C12_16 
REMARK    8  A    between atoms: C12_16  and  C13_17 
REMARK       I    between atoms: C13_17  and  N2_19 
REMARK    9  A    between atoms: C21_28  and  C22_29 
REMARK   10  A    between atoms: C22_29  and  C23_30 
ROOT
HETATM    1  C1  UNL     1      -5.784  -1.238   0.375  1.00  0.00     0.011 C 
HETATM    2  C2  UNL     1      -5.101  -0.266  -0.512  1.00  0.00    -0.006 C 
HETATM    3  C3  UNL     1      -4.169  -0.862  -1.496  1.00  0.00     0.006 C 
HETATM    4  C4  UNL     1      -3.004  -1.609  -0.876  1.00  0.00     0.015 C 
HETATM    5  C5  UNL     1      -2.029  -0.562  -0.496  1.00  0.00     0.037 C 
HETATM    6  C6  UNL     1      -0.674  -1.070  -0.036  1.00  0.00    -0.029 C 
HETATM    7  C7  UNL     1      -0.936  -2.551   0.379  1.00  0.00     0.016 C 
HETATM    8  C17 UNL     1      -0.181  -0.219   1.015  1.00  0.00     0.011 C 
HETATM    9  C18 UNL     1      -0.171   0.843   1.963  1.00  0.00     0.009 C 
HETATM   10  C19 UNL     1      -1.513   1.635   1.835  1.00  0.00     0.055 C 
HETATM   11  S1  UNL     1      -2.950   0.327   1.183  1.00  0.00    -0.248 SA
HETATM   12  C20 UNL     1      -3.447  -1.091   2.637  1.00  0.00     0.069 C 
HETATM   13  C21 UNL     1      -4.532   0.968   0.212  1.00  0.00     0.043 C 
ENDROOT
BRANCH   6  14
HETATM   14  C8  UNL     1       0.278  -1.247  -1.180  1.00  0.00     0.063 C 
BRANCH  14  15
HETATM   15  C9  UNL     1       0.658  -0.086  -1.994  1.00  0.00     0.217 C 
BRANCH  15  16
HETATM   16  O1  UNL     1      -0.351   0.583  -2.672  1.00  0.00    -0.377 OA
ATOM     17  H1  UNL     1      -0.105   1.334  -3.199  1.00  0.00     0.212 HD
ENDBRANCH  15  16
BRANCH  15  18
HETATM   18  N1  UNL     1       1.618  -0.399  -3.022  1.00  0.00    -0.377 N 
ATOM     19  H1  UNL     1       1.382  -0.278  -4.007  1.00  0.00     0.161 HD
BRANCH  18  20
HETATM   20  C10 UNL     1       2.884  -0.873  -2.644  1.00  0.00     0.058 C 
BRANCH  20  21
HETATM   21  C11 UNL     1       3.702   0.177  -1.944  1.00  0.00     0.053 C 
BRANCH  21  22
HETATM   22  C12 UNL     1       5.072  -0.338  -1.555  1.00  0.00     0.108 C 
BRANCH  22  23
HETATM   23  C13 UNL     1       5.790   0.766  -0.870  1.00  0.00     0.220 C 
HETATM   24  O2  UNL     1       5.195   1.835  -0.568  1.00  0.00    -0.273 OA
HETATM   25  N2  UNL     1       7.159   0.642  -0.542  1.00  0.00    -0.344 N 
HETATM   26  C14 UNL     1       8.364  -0.175  -0.570  1.00  0.00     0.151 A 
HETATM   27  C15 UNL     1       8.388   1.171   0.037  1.00  0.00     0.101 A 
HETATM   28  C16 UNL     1       8.505   1.234   1.534  1.00  0.00     0.034 C 
ENDBRANCH  22  23
ENDBRANCH  21  22
ENDBRANCH  20  21
ENDBRANCH  18  20
ENDBRANCH  15  18
ENDBRANCH  14  15
ENDBRANCH   6  14
BRANCH  13  29
HETATM   29  C22 UNL     1      -5.569   1.626   1.030  1.00  0.00     0.127 C 
BRANCH  29  30
HETATM   30  C23 UNL     1      -5.151   2.823   1.732  1.00  0.00     0.173 C 
HETATM   31  O3  UNL     1      -4.041   3.370   1.647  1.00  0.00    -0.648 OA
HETATM   32  O4  UNL     1      -6.092   3.421   2.594  1.00  0.00    -0.648 OA
ENDBRANCH  29  30
ENDBRANCH  13  29
TORSDOF 10
