REMARK  10 active torsions:
REMARK  status: ('A' for Active; 'I' for Inactive)
REMARK    1  A    between atoms: C2_2  and  C3_3 
REMARK    2  A    between atoms: C3_3  and  C5_5 
REMARK    3  A    between atoms: C3_3  and  N1_8 
REMARK    4  A    between atoms: C5_5  and  O1_6 
REMARK       I    between atoms: N1_8  and  C6_10 
REMARK    5  A    between atoms: C6_10  and  C7_12 
REMARK    6  A    between atoms: C7_12  and  C8_13 
REMARK    7  A    between atoms: C14_19  and  C15_20 
REMARK    8  A    between atoms: C15_20  and  C16_21 
REMARK    9  A    between atoms: C16_21  and  C17_22 
REMARK   10  A    between atoms: C20_26  and  C21_27 
ROOT
HETATM    1  C8  UNL     1      -0.698  -0.168   0.219  1.00  0.00    -0.000 C 
HETATM    2  C9  UNL     1       0.577   0.590   0.684  1.00  0.00     0.006 C 
HETATM    3  C10 UNL     1       1.821   0.072   0.089  1.00  0.00     0.014 C 
HETATM    4  C11 UNL     1       2.215   0.951  -1.047  1.00  0.00    -0.015 C 
HETATM    5  C12 UNL     1       2.812   2.250  -0.546  1.00  0.00     0.020 C 
HETATM    6  C13 UNL     1       3.095   0.213  -2.013  1.00  0.00    -0.061 C 
HETATM    7  C14 UNL     1       4.351  -0.159  -2.103  1.00  0.00    -0.022 C 
HETATM    8  C19 UNL     1       1.899   0.054  -2.889  1.00  0.00     0.082 C 
HETATM    9  S1  UNL     1       1.190  -1.563  -2.671  1.00  0.00    -0.143 SA
HETATM   10  C20 UNL     1      -0.479  -1.434  -1.988  1.00  0.00     0.153 C 
HETATM   11  C22 UNL     1      -0.788  -0.178  -1.261  1.00  0.00     0.015 C 
HETATM   12  C23 UNL     1      -0.180   1.046  -1.859  1.00  0.00     0.013 C 
HETATM   13  C24 UNL     1       1.239   1.135  -2.122  1.00  0.00     0.016 C 
ENDROOT
BRANCH   1  14
HETATM   14  C7  UNL     1      -1.783   0.554   0.943  1.00  0.00     0.108 C 
BRANCH  14  15
HETATM   15  C6  UNL     1      -3.155   0.124   0.779  1.00  0.00     0.218 C 
HETATM   16  N1  UNL     1      -4.259   0.826   1.399  1.00  0.00    -0.347 N 
ATOM     17  H1  UNL     1      -4.051   1.647   1.967  1.00  0.00     0.163 HD
HETATM   18  O2  UNL     1      -3.510  -0.874   0.100  1.00  0.00    -0.274 OA
BRANCH  16  19
HETATM   19  C3  UNL     1      -5.628   0.428   1.256  1.00  0.00     0.068 C 
HETATM   20  C4  UNL     1      -6.457   1.285   2.193  1.00  0.00     0.045 C 
BRANCH  19  21
HETATM   21  C2  UNL     1      -5.738  -0.970   1.785  1.00  0.00    -0.004 C 
HETATM   22  C1  UNL     1      -6.683  -1.815   1.426  1.00  0.00     0.009 C 
ENDBRANCH  19  21
BRANCH  19  23
HETATM   23  C5  UNL     1      -6.121   0.487  -0.149  1.00  0.00     0.199 C 
BRANCH  23  24
HETATM   24  O1  UNL     1      -5.979   1.828  -0.577  1.00  0.00    -0.398 OA
ATOM     25  H1  UNL     1      -6.293   1.866  -1.473  1.00  0.00     0.209 HD
ENDBRANCH  23  24
ENDBRANCH  19  23
ENDBRANCH  16  19
ENDBRANCH  14  15
ENDBRANCH   1  14
BRANCH  10  26
HETATM   26  C21 UNL     1      -0.758  -2.697  -1.284  1.00  0.00     0.187 C 
HETATM   27  O3  UNL     1      -1.813  -3.388  -1.516  1.00  0.00    -0.647 OA
HETATM   28  O4  UNL     1       0.087  -3.255  -0.312  1.00  0.00    -0.647 OA
ENDBRANCH  10  26
BRANCH   7  29
HETATM   29  C15 UNL     1       5.372   0.127  -1.064  1.00  0.00     0.027 C 
BRANCH  29  30
HETATM   30  C16 UNL     1       5.899  -1.203  -0.579  1.00  0.00     0.003 C 
BRANCH  30  31
HETATM   31  C17 UNL     1       6.946  -1.105   0.479  1.00  0.00    -0.004 C 
HETATM   32  C18 UNL     1       6.499  -0.412   1.742  1.00  0.00     0.005 C 
ENDBRANCH  30  31
ENDBRANCH  29  30
ENDBRANCH   7  29
TORSDOF 10
