REMARK  12 active torsions:
REMARK  status: ('A' for Active; 'I' for Inactive)
REMARK    1  A    between atoms: O1_2  and  C2_3 
REMARK       I    between atoms: C2_3  and  N1_5 
REMARK    2  A    between atoms: N1_5  and  C3_7 
REMARK    3  A    between atoms: C3_7  and  O3_8 
REMARK    4  A    between atoms: C3_7  and  C4_10 
REMARK    5  A    between atoms: C4_10  and  N2_11 
REMARK    6  A    between atoms: C4_10  and  C12_20 
REMARK    7  A    between atoms: N2_11  and  C5_13 
REMARK    8  A    between atoms: C12_20  and  C13_21 
REMARK    9  A    between atoms: C12_20  and  N3_28 
REMARK   10  A    between atoms: C13_21  and  C14_22 
REMARK       I    between atoms: N3_28  and  C20_30 
REMARK   11  A    between atoms: C20_30  and  C21_32 
REMARK   12  A    between atoms: C21_32  and  C22_33 
ROOT
HETATM    1  C4  UNL     1       0.300   0.453  -0.647  1.00  0.00     0.175 C 
ENDROOT
BRANCH   1   2
HETATM    2  C3  UNL     1       0.631  -0.340  -1.815  1.00  0.00     0.144 C 
BRANCH   2   3
HETATM    3  N1  UNL     1       0.971  -1.666  -2.040  1.00  0.00    -0.285 N 
HETATM    4  C2  UNL     1       1.261  -2.105  -3.394  1.00  0.00     0.366 C 
HETATM    5  O2  UNL     1       1.712  -3.242  -3.590  1.00  0.00    -0.238 OA
ATOM      6  H1  UNL     1       1.017  -2.325  -1.263  1.00  0.00     0.173 HD
BRANCH   4   7
HETATM    7  O1  UNL     1       1.019  -1.260  -4.480  1.00  0.00    -0.309 OA
HETATM    8  C1  UNL     1       1.243  -1.604  -5.817  1.00  0.00     0.215 C 
ENDBRANCH   4   7
ENDBRANCH   2   3
BRANCH   2   9
HETATM    9  O3  UNL     1       0.617   0.381  -2.942  1.00  0.00    -0.348 OA
ATOM     10  H3  UNL     1       0.384   1.289  -2.788  1.00  0.00     0.219 HD
ENDBRANCH   2   9
ENDBRANCH   1   2
BRANCH   1  11
HETATM   11  N2  UNL     1       1.360   0.510   0.313  1.00  0.00    -0.404 N 
ATOM     12  H2  UNL     1       1.136   0.050   1.195  1.00  0.00     0.154 HD
BRANCH  11  13
HETATM   13  C5  UNL     1       2.587   1.046   0.286  1.00  0.00     0.077 C 
HETATM   14  C6  UNL     1       3.658   0.573  -0.627  1.00  0.00     0.025 C 
HETATM   15  C7  UNL     1       4.508  -0.539  -0.075  1.00  0.00     0.006 C 
HETATM   16  C8  UNL     1       5.282  -0.144   1.147  1.00  0.00    -0.019 C 
HETATM   17  C9  UNL     1       6.746   0.053   0.928  1.00  0.00     0.010 C 
HETATM   18  C10 UNL     1       4.647   1.112   1.765  1.00  0.00     0.006 C 
HETATM   19  C11 UNL     1       3.180   0.889   1.748  1.00  0.00     0.025 C 
ENDBRANCH  11  13
ENDBRANCH   1  11
BRANCH   1  20
HETATM   20  C12 UNL     1      -0.957   0.067   0.080  1.00  0.00     0.115 C 
BRANCH  20  21
HETATM   21  C13 UNL     1      -1.134   1.111   1.187  1.00  0.00     0.032 C 
BRANCH  21  22
HETATM   22  C14 UNL     1      -1.719   2.414   0.869  1.00  0.00    -0.013 C 
HETATM   23  C15 UNL     1      -3.276   2.185   0.630  1.00  0.00     0.005 C 
HETATM   24  C16 UNL     1      -3.919   3.497   1.030  1.00  0.00     0.000 C 
HETATM   25  C17 UNL     1      -3.131   4.653   0.418  1.00  0.00     0.000 C 
HETATM   26  C18 UNL     1      -2.392   4.146  -0.786  1.00  0.00     0.000 C 
HETATM   27  C19 UNL     1      -1.357   3.086  -0.444  1.00  0.00     0.005 C 
ENDBRANCH  21  22
ENDBRANCH  20  21
BRANCH  20  28
HETATM   28  N3  UNL     1      -0.985  -1.274   0.580  1.00  0.00    -0.354 N 
HETATM   29  C20 UNL     1      -2.210  -2.044   0.558  1.00  0.00     0.218 C 
HETATM   30  O4  UNL     1      -3.210  -1.488   0.084  1.00  0.00    -0.274 OA
ATOM     31  H3  UNL     1      -0.133  -1.691   0.955  1.00  0.00     0.162 HD
BRANCH  29  32
HETATM   32  C21 UNL     1      -2.252  -3.404   1.080  1.00  0.00     0.106 C 
BRANCH  32  33
HETATM   33  C22 UNL     1      -3.552  -3.962   1.489  1.00  0.00    -0.014 C 
HETATM   34  C23 UNL     1      -4.537  -4.101   0.400  1.00  0.00     0.010 C 
HETATM   35  C24 UNL     1      -4.151  -3.155   2.653  1.00  0.00     0.010 C 
ENDBRANCH  32  33
ENDBRANCH  29  32
ENDBRANCH  20  28
ENDBRANCH   1  20
TORSDOF 12
