REMARK  12 active torsions:
REMARK  status: ('A' for Active; 'I' for Inactive)
REMARK    1  A    between atoms: C2_2  and  C4_4 
REMARK    2  A    between atoms: C4_4  and  C5_5 
REMARK    3  A    between atoms: C5_5  and  N1_6 
REMARK    4  A    between atoms: C5_5  and  C11_15 
REMARK       I    between atoms: N1_6  and  C6_8 
REMARK    5  A    between atoms: C6_8  and  O2_10 
REMARK    6  A    between atoms: O2_10  and  C7_11 
REMARK       I    between atoms: C11_15  and  N2_17 
REMARK    7  A    between atoms: N2_17  and  C12_19 
REMARK    8  A    between atoms: C12_19  and  C13_20 
REMARK    9  A    between atoms: C12_19  and  C17_24 
REMARK   10  A    between atoms: C13_20  and  C14_21 
REMARK       I    between atoms: C17_24  and  N3_26 
REMARK   11  A    between atoms: C21_31  and  C22_32 
REMARK       I    between atoms: C22_32  and  N4_34 
REMARK   12  A    between atoms: N4_34  and  C23_36 
ROOT
HETATM    1  C12 UNL     1       1.242  -1.853   1.025  1.00  0.00     0.177 C 
ENDROOT
BRANCH   1   2
HETATM    2  N2  UNL     1      -0.239  -2.051   1.046  1.00  0.00    -0.346 N 
HETATM    3  C11 UNL     1      -1.072  -0.919   1.217  1.00  0.00     0.241 C 
HETATM    4  O3  UNL     1      -0.538   0.209   1.333  1.00  0.00    -0.271 OA
ATOM      5  H2  UNL     1      -0.641  -2.982   0.939  1.00  0.00     0.163 HD
BRANCH   3   6
HETATM    6  C5  UNL     1      -2.557  -1.017   1.268  1.00  0.00     0.179 C 
BRANCH   6   7
HETATM    7  C4  UNL     1      -3.172  -1.800   0.175  1.00  0.00     0.038 C 
BRANCH   7   8
HETATM    8  C2  UNL     1      -4.610  -2.132   0.301  1.00  0.00    -0.020 C 
HETATM    9  C1  UNL     1      -4.914  -2.954   1.546  1.00  0.00     0.009 C 
HETATM   10  C3  UNL     1      -5.589  -1.026   0.209  1.00  0.00     0.009 C 
ENDBRANCH   7   8
ENDBRANCH   6   7
BRANCH   6  11
HETATM   11  N1  UNL     1      -3.167   0.274   1.439  1.00  0.00    -0.324 N 
HETATM   12  C6  UNL     1      -3.134   1.259   0.414  1.00  0.00     0.362 C 
HETATM   13  O1  UNL     1      -2.568   0.983  -0.657  1.00  0.00    -0.238 OA
ATOM     14  H1  UNL     1      -3.636   0.489   2.319  1.00  0.00     0.165 HD
BRANCH  12  15
HETATM   15  O2  UNL     1      -3.710   2.493   0.579  1.00  0.00    -0.294 OA
BRANCH  15  16
HETATM   16  C7  UNL     1      -3.717   3.512  -0.400  1.00  0.00     0.061 C 
HETATM   17  C8  UNL     1      -4.392   4.767   0.105  1.00  0.00     0.046 C 
HETATM   18  C9  UNL     1      -4.599   3.009  -1.545  1.00  0.00     0.046 C 
HETATM   19  C10 UNL     1      -2.375   3.842  -0.955  1.00  0.00     0.046 C 
ENDBRANCH  15  16
ENDBRANCH  12  15
ENDBRANCH   6  11
ENDBRANCH   3   6
ENDBRANCH   1   2
BRANCH   1  20
HETATM   20  C13 UNL     1       1.690  -2.763   2.151  1.00  0.00     0.038 C 
BRANCH  20  21
HETATM   21  C14 UNL     1       3.126  -2.826   2.454  1.00  0.00    -0.020 C 
HETATM   22  C15 UNL     1       3.783  -1.556   2.884  1.00  0.00     0.009 C 
HETATM   23  C16 UNL     1       3.285  -3.800   3.639  1.00  0.00     0.009 C 
ENDBRANCH  20  21
ENDBRANCH   1  20
BRANCH   1  24
HETATM   24  C17 UNL     1       1.740  -2.302  -0.279  1.00  0.00     0.243 C 
HETATM   25  O4  UNL     1       1.208  -3.384  -0.719  1.00  0.00    -0.271 OA
HETATM   26  N3  UNL     1       2.730  -1.676  -1.087  1.00  0.00    -0.333 N 
HETATM   27  C18 UNL     1       3.134  -2.346  -2.307  1.00  0.00     0.153 C 
HETATM   28  C21 UNL     1       3.320  -0.398  -0.768  1.00  0.00     0.203 C 
HETATM   29  C19 UNL     1       4.653  -2.360  -2.284  1.00  0.00     0.187 C 
HETATM   30  O5  UNL     1       5.167  -1.915  -1.083  1.00  0.00    -0.387 OA
HETATM   31  C20 UNL     1       4.852  -0.626  -0.733  1.00  0.00     0.202 C 
BRANCH  28  32
HETATM   32  C22 UNL     1       3.140   0.653  -1.793  1.00  0.00     0.243 C 
HETATM   33  O6  UNL     1       3.162   0.451  -3.029  1.00  0.00    -0.271 OA
HETATM   34  N4  UNL     1       2.925   1.992  -1.373  1.00  0.00    -0.355 N 
ATOM     35  H4  UNL     1       2.887   2.183  -0.372  1.00  0.00     0.162 HD
BRANCH  34  36
HETATM   36  C23 UNL     1       2.757   3.098  -2.284  1.00  0.00     0.076 C 
HETATM   37  C24 UNL     1       3.375   4.362  -1.803  1.00  0.00     0.032 C 
HETATM   38  C25 UNL     1       1.315   3.344  -2.682  1.00  0.00     0.032 C 
ENDBRANCH  34  36
ENDBRANCH  28  32
ENDBRANCH   1  24
TORSDOF 12
