REMARK  14 active torsions:
REMARK  status: ('A' for Active; 'I' for Inactive)
REMARK    1  A    between atoms: C2_2  and  C3_3 
REMARK    2  A    between atoms: C2_2  and  C15_19 
REMARK    3  A    between atoms: C4_4  and  C5_6 
REMARK    4  A    between atoms: C5_6  and  N2_7 
REMARK    5  A    between atoms: N3_11  and  C9_12 
REMARK    6  A    between atoms: C15_19  and  C16_20 
REMARK    7  A    between atoms: C16_20  and  O1_21 
REMARK    8  A    between atoms: C16_20  and  C17_23 
REMARK    9  A    between atoms: C17_23  and  C18_24 
REMARK   10  A    between atoms: C18_24  and  C19_25 
REMARK   11  A    between atoms: C18_24  and  O3_32 
REMARK   12  A    between atoms: C19_25  and  C20_26 
REMARK       I    between atoms: C20_26  and  N4_28 
REMARK   13  A    between atoms: N4_28  and  C21_30 
REMARK   14  A    between atoms: O3_32  and  C22_33 
ROOT
HETATM    1  C1  UNL     1       2.413  -0.601   3.439  1.00  0.00     0.043 C 
HETATM    2  C2  UNL     1       1.818  -1.500   2.425  1.00  0.00    -0.080 C 
ENDROOT
BRANCH   2   3
HETATM    3  C3  UNL     1       0.368  -1.453   2.295  1.00  0.00     0.026 C 
HETATM    4  C4  UNL     1      -0.497  -0.553   2.671  1.00  0.00     0.042 C 
HETATM    5  N1  UNL     1      -0.052   0.617   3.327  1.00  0.00    -0.105 NA
BRANCH   4   6
HETATM    6  C5  UNL     1      -1.944  -0.792   2.406  1.00  0.00     0.179 C 
BRANCH   6   7
HETATM    7  N2  UNL     1      -2.572   0.166   1.569  1.00  0.00    -0.353 N 
HETATM    8  C6  UNL     1      -2.828   1.564   1.904  1.00  0.00     0.127 C 
HETATM    9  C7  UNL     1      -4.202   1.986   1.399  1.00  0.00     0.040 C 
HETATM   10  C8  UNL     1      -4.138   1.883  -0.127  1.00  0.00     0.127 C 
HETATM   11  N3  UNL     1      -4.046   0.473  -0.420  1.00  0.00    -0.353 N 
HETATM   12  C14 UNL     1      -3.012  -0.252   0.266  1.00  0.00     0.172 C 
HETATM   13  S1  UNL     1      -2.366  -1.566  -0.477  1.00  0.00    -0.041 SA
BRANCH  11  14
HETATM   14  C9  UNL     1      -4.945  -0.206  -1.327  1.00  0.00     0.086 C 
HETATM   15  C10 UNL     1      -4.984   0.318  -2.710  1.00  0.00     0.025 C 
HETATM   16  C11 UNL     1      -6.354  -0.066  -3.245  1.00  0.00     0.002 C 
HETATM   17  C12 UNL     1      -7.239   0.129  -2.048  1.00  0.00     0.002 C 
HETATM   18  C13 UNL     1      -6.372  -0.174  -0.842  1.00  0.00     0.025 C 
ENDBRANCH  11  14
ENDBRANCH   6   7
ENDBRANCH   4   6
ENDBRANCH   2   3
BRANCH   2  19
HETATM   19  C15 UNL     1       2.566  -1.555   1.106  1.00  0.00     0.065 C 
BRANCH  19  20
HETATM   20  C16 UNL     1       2.668  -0.230   0.410  1.00  0.00     0.124 C 
BRANCH  20  21
HETATM   21  O1  UNL     1       1.382   0.233   0.142  1.00  0.00    -0.395 OA
ATOM     22  H1  UNL     1       1.447   1.072  -0.299  1.00  0.00     0.210 HD
ENDBRANCH  20  21
BRANCH  20  23
HETATM   23  C17 UNL     1       3.374  -0.321  -0.914  1.00  0.00     0.065 C 
BRANCH  23  24
HETATM   24  C18 UNL     1       4.781  -0.829  -0.834  1.00  0.00     0.144 C 
BRANCH  24  25
HETATM   25  C19 UNL     1       5.716  -0.009   0.008  1.00  0.00     0.135 C 
BRANCH  25  26
HETATM   26  C20 UNL     1       5.915   1.372  -0.411  1.00  0.00     0.224 C 
HETATM   27  O2  UNL     1       4.944   2.135  -0.626  1.00  0.00    -0.273 OA
HETATM   28  N4  UNL     1       7.211   1.938  -0.606  1.00  0.00    -0.328 N 
ATOM     29  H4  UNL     1       7.814   1.615  -1.363  1.00  0.00     0.169 HD
BRANCH  28  30
HETATM   30  C21 UNL     1       7.601   2.867   0.198  1.00  0.00     0.172 C 
HETATM   31  S2  UNL     1       8.607   3.998   0.757  1.00  0.00    -0.074 SA
ENDBRANCH  28  30
ENDBRANCH  25  26
ENDBRANCH  24  25
BRANCH  24  32
HETATM   32  O3  UNL     1       5.294  -0.729  -2.171  1.00  0.00    -0.300 OA
BRANCH  32  33
HETATM   33  C22 UNL     1       5.803  -1.767  -2.899  1.00  0.00     0.373 C 
HETATM   34  N5  UNL     1       6.267  -1.498  -4.205  1.00  0.00    -0.032 NA
HETATM   35  O4  UNL     1       5.841  -2.899  -2.389  1.00  0.00    -0.242 OA
ENDBRANCH  32  33
ENDBRANCH  24  32
ENDBRANCH  23  24
ENDBRANCH  20  23
ENDBRANCH  19  20
ENDBRANCH   2  19
TORSDOF 14
