REMARK  10 active torsions:
REMARK  status: ('A' for Active; 'I' for Inactive)
REMARK    1  A    between atoms: S1_2  and  C1_4 
REMARK    2  A    between atoms: S1_2  and  N3_24 
REMARK    3  A    between atoms: C1_4  and  C2_5 
REMARK    4  A    between atoms: C5_8  and  C6_9 
REMARK    5  A    between atoms: C6_9  and  N1_10 
REMARK    6  A    between atoms: N1_10  and  C7_13 
REMARK    7  A    between atoms: C7_13  and  C8_14 
REMARK    8  A    between atoms: C8_14  and  C9_15 
REMARK    9  A    between atoms: N3_24  and  C16_26 
REMARK   10  A    between atoms: C16_26  and  C17_27 
ROOT
HETATM    1  C2  UNL     1      -2.403   0.023   0.217  1.00  0.00    -0.043 A 
HETATM    2  C3  UNL     1      -1.650   0.202   1.319  1.00  0.00     0.009 A 
HETATM    3  C4  UNL     1      -0.266   0.622   1.372  1.00  0.00     0.009 A 
HETATM    4  C5  UNL     1       0.213   0.724   0.055  1.00  0.00    -0.033 A 
HETATM    5  C14 UNL     1      -0.531   0.521  -0.935  1.00  0.00     0.009 A 
HETATM    6  C15 UNL     1      -1.832   0.197  -1.073  1.00  0.00     0.009 A 
ENDROOT
BRANCH   4   7
HETATM    7  C6  UNL     1       1.636   1.059  -0.127  1.00  0.00     0.270 C 
BRANCH   7   8
HETATM    8  N1  UNL     1       2.283  -0.282  -0.182  1.00  0.00    -0.071 N 
ATOM      9  H12 UNL     1       2.486  -0.636   0.753  1.00  0.00     0.277 HD
ATOM     10  H11 UNL     1       1.625  -1.001  -0.485  1.00  0.00     0.277 HD
BRANCH   8  11
HETATM   11  C7  UNL     1       3.425  -0.269  -0.980  1.00  0.00     0.233 C 
BRANCH  11  12
HETATM   12  C8  UNL     1       4.381  -1.187  -0.346  1.00  0.00     0.032 C 
BRANCH  12  13
HETATM   13  C9  UNL     1       5.816  -0.651  -0.563  1.00  0.00    -0.010 C 
HETATM   14  C10 UNL     1       6.666  -1.432   0.433  1.00  0.00     0.024 C 
HETATM   15  C11 UNL     1       8.079  -0.933   0.492  1.00  0.00     0.114 C 
HETATM   16  N2  UNL     1       8.118   0.521   0.619  1.00  0.00    -0.421 N 
HETATM   17  C12 UNL     1       6.865   1.137   0.830  1.00  0.00     0.114 C 
ATOM     18  H2  UNL     1       8.986   1.053   0.560  1.00  0.00     0.153 HD
HETATM   19  C13 UNL     1       5.868   0.816  -0.253  1.00  0.00     0.024 C 
ENDBRANCH  12  13
ENDBRANCH  11  12
ENDBRANCH   8  11
ENDBRANCH   7   8
ENDBRANCH   4   7
BRANCH   1  20
HETATM   20  C1  UNL     1      -3.858  -0.221   0.334  1.00  0.00     0.201 C 
BRANCH  20  21
HETATM   21  S1  UNL     1      -4.685   0.935  -0.559  1.00  0.00     0.230 S 
HETATM   22  O1  UNL     1      -4.215   2.300  -0.597  1.00  0.00    -0.206 OA
HETATM   23  O2  UNL     1      -4.684   0.382  -2.133  1.00  0.00    -0.206 OA
BRANCH  21  24
HETATM   24  N3  UNL     1      -6.451   0.945  -0.405  1.00  0.00    -0.319 N 
ATOM     25  H3  UNL     1      -6.983   1.755  -0.087  1.00  0.00     0.172 HD
BRANCH  24  26
HETATM   26  C16 UNL     1      -7.042  -0.275  -0.766  1.00  0.00     0.136 C 
BRANCH  26  27
HETATM   27  C17 UNL     1      -8.538  -0.113  -0.526  1.00  0.00     0.004 A 
HETATM   28  C18 UNL     1      -9.045   0.078   0.855  1.00  0.00     0.007 A 
HETATM   29  C19 UNL     1      -9.325  -1.182   0.049  1.00  0.00     0.007 A 
ENDBRANCH  26  27
ENDBRANCH  24  26
ENDBRANCH  21  24
ENDBRANCH  20  21
ENDBRANCH   1  20
TORSDOF 10
