REMARK  12 active torsions:
REMARK  status: ('A' for Active; 'I' for Inactive)
REMARK    1  A    between atoms: N2_3  and  S1_5 
REMARK    2  A    between atoms: S1_5  and  N3_7 
REMARK    3  A    between atoms: S1_5  and  C9_21 
REMARK    4  A    between atoms: N3_7  and  C2_9 
REMARK    5  A    between atoms: C2_9  and  C3_10 
REMARK    6  A    between atoms: C3_10  and  O2_11 
REMARK    7  A    between atoms: C3_10  and  C4_13 
REMARK    8  A    between atoms: C4_13  and  N4_14 
REMARK    9  A    between atoms: N4_14  and  C5_17 
REMARK   10  A    between atoms: C5_17  and  C6_18 
REMARK   11  A    between atoms: C13_25  and  C14_26 
REMARK   12  A    between atoms: C15_27  and  C16_28 
ROOT
HETATM    1  N1  UNL     1       0.716   3.938   2.519  1.00  0.00    -0.171 NA
HETATM    2  C1  UNL     1       0.372   3.418   1.547  1.00  0.00     0.191 C 
HETATM    3  N2  UNL     1      -0.060   2.791   0.374  1.00  0.00    -0.234 N 
ATOM      4  H2  UNL     1      -0.004   3.251  -0.535  1.00  0.00     0.190 HD
ENDROOT
BRANCH   3   5
HETATM    5  S1  UNL     1      -0.641   1.325   0.536  1.00  0.00     0.147 S 
HETATM    6  O1  UNL     1      -0.611   0.892   1.972  1.00  0.00    -0.222 OA
BRANCH   5   7
HETATM    7  N3  UNL     1       0.387   0.276  -0.358  1.00  0.00    -0.329 N 
ATOM      8  H3  UNL     1       0.086  -0.421  -1.039  1.00  0.00     0.171 HD
BRANCH   7   9
HETATM    9  C2  UNL     1       1.744   0.554   0.022  1.00  0.00     0.164 C 
BRANCH   9  10
HETATM   10  C3  UNL     1       2.761  -0.291  -0.682  1.00  0.00     0.162 C 
BRANCH  10  11
HETATM   11  O2  UNL     1       2.525  -1.618  -0.403  1.00  0.00    -0.392 OA
ATOM     12  H2  UNL     1       3.170  -2.154  -0.849  1.00  0.00     0.210 HD
ENDBRANCH  10  11
BRANCH  10  13
HETATM   13  C4  UNL     1       4.134   0.156  -0.184  1.00  0.00     0.265 C 
BRANCH  13  14
HETATM   14  N4  UNL     1       5.187  -0.623  -0.814  1.00  0.00    -0.072 N 
ATOM     15  H42 UNL     1       5.047  -1.625  -0.687  1.00  0.00     0.277 HD
ATOM     16  H41 UNL     1       5.128  -0.591  -1.832  1.00  0.00     0.277 HD
BRANCH  14  17
HETATM   17  C5  UNL     1       6.468  -0.197  -0.339  1.00  0.00     0.237 C 
BRANCH  17  18
HETATM   18  C6  UNL     1       7.573  -0.982  -0.971  1.00  0.00     0.011 A 
HETATM   19  C7  UNL     1       8.990  -0.650  -0.573  1.00  0.00     0.007 A 
HETATM   20  C8  UNL     1       8.343  -1.917  -0.116  1.00  0.00     0.007 A 
ENDBRANCH  17  18
ENDBRANCH  14  17
ENDBRANCH  13  14
ENDBRANCH  10  13
ENDBRANCH   9  10
ENDBRANCH   7   9
ENDBRANCH   5   7
BRANCH   5  21
HETATM   21  C9  UNL     1      -2.291   1.275  -0.010  1.00  0.00     0.059 A 
HETATM   22  C10 UNL     1      -2.782   2.107  -0.990  1.00  0.00     0.023 A 
HETATM   23  C11 UNL     1      -4.095   2.042  -1.398  1.00  0.00     0.002 A 
HETATM   24  C12 UNL     1      -4.931   1.094  -0.782  1.00  0.00     0.011 A 
HETATM   25  C13 UNL     1      -4.509   0.230   0.202  1.00  0.00    -0.035 A 
HETATM   26  C19 UNL     1      -3.142   0.376   0.553  1.00  0.00     0.035 A 
BRANCH  25  27
HETATM   27  C14 UNL     1      -5.287  -0.791   0.820  1.00  0.00     0.007 C 
HETATM   28  C15 UNL     1      -6.408  -1.310   0.506  1.00  0.00    -0.021 C 
BRANCH  28  29
HETATM   29  C16 UNL     1      -7.253  -0.982  -0.657  1.00  0.00     0.008 A 
HETATM   30  C17 UNL     1      -8.484  -1.858  -0.752  1.00  0.00     0.009 A 
HETATM   31  C18 UNL     1      -8.629  -0.406  -0.403  1.00  0.00     0.009 A 
ENDBRANCH  28  29
ENDBRANCH  25  27
ENDBRANCH   5  21
ENDBRANCH   3   5
TORSDOF 12
