REMARK  11 active torsions:
REMARK  status: ('A' for Active; 'I' for Inactive)
REMARK    1  A    between atoms: C2_2  and  C3_3 
REMARK    2  A    between atoms: C3_3  and  C4_4 
REMARK    3  A    between atoms: C4_4  and  O1_5 
REMARK    4  A    between atoms: N1_10  and  C8_11 
REMARK    5  A    between atoms: C8_11  and  C9_12 
REMARK    6  A    between atoms: C9_12  and  C10_13 
REMARK    7  A    between atoms: C10_13  and  C11_14 
REMARK    8  A    between atoms: C11_14  and  C12_15 
REMARK    9  A    between atoms: C12_15  and  C13_16 
REMARK   10  A    between atoms: C13_16  and  N2_17 
REMARK   11  A    between atoms: C16_24  and  C17_25 
ROOT
HETATM    1  C4  UNL     1      -2.761   1.134  -0.836  1.00  0.00     0.095 C 
HETATM    2  C5  UNL     1      -1.398   1.849  -0.842  1.00  0.00     0.039 C 
HETATM    3  C6  UNL     1      -0.690   1.594  -2.167  1.00  0.00     0.015 C 
HETATM    4  C7  UNL     1      -0.527   1.542   0.307  1.00  0.00     0.133 C 
HETATM    5  N1  UNL     1      -0.708   0.273   0.945  1.00  0.00    -0.348 N 
HETATM    6  C15 UNL     1      -1.802  -0.535   0.634  1.00  0.00     0.249 C 
HETATM    7  O2  UNL     1      -2.233  -1.459   1.388  1.00  0.00    -0.268 OA
HETATM    8  C16 UNL     1      -2.509  -0.288  -0.682  1.00  0.00     0.027 C 
ENDROOT
BRANCH   5   9
HETATM    9  C8  UNL     1       0.255  -0.157   1.923  1.00  0.00     0.126 C 
BRANCH   9  10
HETATM   10  C9  UNL     1       1.336  -0.941   1.175  1.00  0.00     0.020 C 
BRANCH  10  11
HETATM   11  C10 UNL     1       2.389  -1.425   2.159  1.00  0.00     0.002 C 
BRANCH  11  12
HETATM   12  C11 UNL     1       3.447  -2.193   1.436  1.00  0.00     0.002 C 
BRANCH  12  13
HETATM   13  C12 UNL     1       4.144  -1.360   0.387  1.00  0.00     0.020 C 
BRANCH  13  14
HETATM   14  C13 UNL     1       4.822  -0.147   0.972  1.00  0.00     0.122 C 
BRANCH  14  15
HETATM   15  N2  UNL     1       5.457   0.587  -0.083  1.00  0.00    -0.367 N 
HETATM   16  C14 UNL     1       6.663   0.456  -0.458  1.00  0.00     0.196 C 
HETATM   17  N3  UNL     1       7.534  -0.476   0.166  1.00  0.00    -0.067 NA
HETATM   18  N4  UNL     1       7.161   1.249  -1.518  1.00  0.00    -0.067 NA
ATOM     19  H2  UNL     1       4.889   1.276  -0.576  1.00  0.00     0.161 HD
ENDBRANCH  14  15
ENDBRANCH  13  14
ENDBRANCH  12  13
ENDBRANCH  11  12
ENDBRANCH  10  11
ENDBRANCH   9  10
ENDBRANCH   5   9
BRANCH   8  20
HETATM   20  C17 UNL     1      -3.491  -1.322  -0.977  1.00  0.00     0.023 C 
HETATM   21  C18 UNL     1      -4.017  -1.416  -2.387  1.00  0.00     0.009 C 
HETATM   22  C19 UNL     1      -5.156  -2.255  -1.752  1.00  0.00     0.001 C 
HETATM   23  C20 UNL     1      -4.876  -1.361  -0.517  1.00  0.00     0.009 C 
ENDBRANCH   8  20
BRANCH   1  24
HETATM   24  C3  UNL     1      -3.701   1.872   0.006  1.00  0.00     0.069 C 
BRANCH  24  25
HETATM   25  C2  UNL     1      -3.568   1.870   1.449  1.00  0.00    -0.033 C 
HETATM   26  C1  UNL     1      -4.525   1.378   2.220  1.00  0.00     0.007 C 
ENDBRANCH  24  25
ENDBRANCH   1  24
BRANCH   1  27
HETATM   27  O1  UNL     1      -3.176   1.345  -2.190  1.00  0.00    -0.384 OA
ATOM     28  H1  UNL     1      -2.565   0.865  -2.737  1.00  0.00     0.211 HD
ENDBRANCH   1  27
TORSDOF 11
