REMARK  6 active torsions:
REMARK  status: ('A' for Active; 'I' for Inactive)
REMARK    1  A    between atoms: N1_2  and  C3_4 
REMARK    2  A    between atoms: C5_6  and  O1_7 
REMARK    3  A    between atoms: N2_9  and  C6_10 
REMARK    4  A    between atoms: C6_10  and  C7_11 
REMARK    5  A    between atoms: C7_11  and  C8_12 
REMARK    6  A    between atoms: C14_19  and  O2_20 
ROOT
HETATM    1  C3  UNL     1       3.243  -0.213   0.374  1.00  0.00     0.085 A 
HETATM    2  C4  UNL     1       2.969  -0.839   1.579  1.00  0.00     0.089 A 
HETATM    3  C5  UNL     1       1.606  -0.736   1.749  1.00  0.00     0.146 A 
HETATM    4  N2  UNL     1       1.056  -0.081   0.707  1.00  0.00    -0.307 N 
HETATM    5  C14 UNL     1       2.040   0.249  -0.147  1.00  0.00     0.171 A 
ENDROOT
BRANCH   4   6
HETATM    6  C6  UNL     1      -0.375   0.220   0.538  1.00  0.00     0.133 C 
BRANCH   6   7
HETATM    7  C7  UNL     1      -0.970  -0.931  -0.196  1.00  0.00     0.025 C 
BRANCH   7   8
HETATM    8  C8  UNL     1      -2.438  -0.808  -0.466  1.00  0.00    -0.010 C 
HETATM    9  C9  UNL     1      -3.229  -0.688   0.818  1.00  0.00     0.005 C 
HETATM   10  C10 UNL     1      -3.790   0.696   1.026  1.00  0.00     0.003 C 
HETATM   11  C11 UNL     1      -4.715   1.081  -0.111  1.00  0.00     0.037 C 
HETATM   12  C12 UNL     1      -4.285   0.525  -1.432  1.00  0.00     0.170 C 
HETATM   13  F1  UNL     1      -4.956  -0.630  -1.775  1.00  0.00    -0.249 F 
HETATM   14  C13 UNL     1      -2.788   0.299  -1.420  1.00  0.00     0.042 C 
ENDBRANCH   7   8
ENDBRANCH   6   7
ENDBRANCH   4   6
BRANCH   3  15
HETATM   15  O1  UNL     1       0.882  -1.231   2.836  1.00  0.00    -0.346 OA
ATOM     16  H1  UNL     1      -0.058  -1.160   2.953  1.00  0.00     0.219 HD
ENDBRANCH   3  15
BRANCH   5  17
HETATM   17  O2  UNL     1       1.864   0.940  -1.353  1.00  0.00    -0.344 OA
ATOM     18  H2  UNL     1       1.042   1.256  -1.709  1.00  0.00     0.219 HD
ENDBRANCH   5  17
BRANCH   1  19
HETATM   19  N1  UNL     1       4.520  -0.072  -0.218  1.00  0.00    -0.386 N 
HETATM   20  C1  UNL     1       5.681  -0.609   0.450  1.00  0.00     0.149 C 
HETATM   21  C2  UNL     1       4.642   0.609  -1.483  1.00  0.00     0.149 C 
ENDBRANCH   1  19
TORSDOF 6
