REMARK  7 active torsions:
REMARK  status: ('A' for Active; 'I' for Inactive)
REMARK    1  A    between atoms: C2_2  and  C3_3 
REMARK    2  A    between atoms: C2_2  and  N2_16 
REMARK    3  A    between atoms: C3_3  and  C4_4 
REMARK    4  A    between atoms: C6_6  and  C7_7 
REMARK    5  A    between atoms: C7_7  and  N1_8 
REMARK    6  A    between atoms: C7_7  and  O1_11 
REMARK    7  A    between atoms: N2_16  and  N3_18 
ROOT
HETATM    1  C4  UNL     1       0.024   0.198  -0.570  1.00  0.00    -0.013 A 
HETATM    2  C5  UNL     1       1.239  -0.185  -0.094  1.00  0.00     0.032 A 
HETATM    3  C6  UNL     1       2.170   0.784   0.090  1.00  0.00     0.040 A 
HETATM    4  C8  UNL     1       1.792   2.063  -0.225  1.00  0.00     0.066 A 
HETATM    5 BR1  UNL     1       2.800   3.683  -0.109  1.00  0.00    -0.042 Br
HETATM    6  S1  UNL     1       0.189   1.881  -0.755  1.00  0.00    -0.086 SA
ENDROOT
BRANCH   1   7
HETATM    7  C3  UNL     1      -1.173  -0.685  -0.858  1.00  0.00     0.072 C 
BRANCH   7   8
HETATM    8  C2  UNL     1      -2.029  -0.780   0.391  1.00  0.00     0.101 C 
HETATM    9  C1  UNL     1      -3.210  -1.667   0.063  1.00  0.00     0.034 C 
BRANCH   8  10
HETATM   10  N2  UNL     1      -2.441   0.546   0.758  1.00  0.00    -0.318 N 
ATOM     11  H2  UNL     1      -2.049   1.005   1.580  1.00  0.00     0.182 HD
BRANCH  10  12
HETATM   12  N3  UNL     1      -3.278   1.116   0.058  1.00  0.00    -0.253 N 
HETATM   13  N4  UNL     1      -3.821   2.039  -0.568  1.00  0.00    -0.331 N 
ATOM     14  H42 UNL     1      -3.136   2.767  -0.366  1.00  0.00     0.178 HD
ATOM     15  H41 UNL     1      -4.515   2.511  -1.148  1.00  0.00     0.178 HD
ATOM     16  H3  UNL     1      -3.934   0.354  -0.115  1.00  0.00     0.207 HD
ENDBRANCH  10  12
ENDBRANCH   8  10
ENDBRANCH   7   8
ENDBRANCH   1   7
BRANCH   3  17
HETATM   17  C7  UNL     1       3.546   0.532   0.603  1.00  0.00     0.145 C 
BRANCH  17  18
HETATM   18  N1  UNL     1       4.386   1.484   0.757  1.00  0.00    -0.379 N 
ATOM     19  H12 UNL     1       4.086   2.429   0.518  1.00  0.00     0.158 HD
ATOM     20  H11 UNL     1       5.328   1.311   1.108  1.00  0.00     0.158 HD
ENDBRANCH  17  18
BRANCH  17  21
HETATM   21  O1  UNL     1       3.952  -0.747   0.927  1.00  0.00    -0.346 OA
ATOM     22  H1  UNL     1       4.829  -0.908   1.254  1.00  0.00     0.219 HD
ENDBRANCH  17  21
ENDBRANCH   3  17
TORSDOF 7
