REMARK  8 active torsions:
REMARK  status: ('A' for Active; 'I' for Inactive)
REMARK    1  A    between atoms: C2_2  and  C4_4 
REMARK    2  A    between atoms: C4_4  and  C5_5 
REMARK    3  A    between atoms: C5_5  and  C6_6 
REMARK    4  A    between atoms: C8_8  and  C9_9 
REMARK    5  A    between atoms: C9_9  and  C10_10 
REMARK    6  A    between atoms: C11_11  and  C12_12 
REMARK    7  A    between atoms: C14_16  and  O2_17 
REMARK    8  A    between atoms: C15_19  and  O3_20 
ROOT
HETATM    1  C12 UNL     1       2.905  -0.444   2.098  1.00  0.00    -0.023 C 
HETATM    2  C13 UNL     1       2.445  -0.767   3.160  1.00  0.00     0.012 C 
HETATM    3 CL1  UNL     1       1.762  -1.243   4.680  1.00  0.00    -0.023 Cl
ENDROOT
BRANCH   1   4
HETATM    4  C11 UNL     1       3.466  -0.072   0.832  1.00  0.00     0.142 A 
HETATM    5  C10 UNL     1       2.970  -0.270  -0.430  1.00  0.00     0.026 A 
HETATM    6  C15 UNL     1       3.895   0.274  -1.285  1.00  0.00     0.134 A 
HETATM    7  C14 UNL     1       4.932   0.790  -0.522  1.00  0.00     0.219 A 
HETATM    8  O1  UNL     1       4.621   0.555   0.731  1.00  0.00    -0.276 OA
BRANCH   5   9
HETATM    9  C9  UNL     1       1.715  -0.919  -0.803  1.00  0.00     0.072 C 
BRANCH   9  10
HETATM   10  C8  UNL     1       0.524  -0.093  -0.608  1.00  0.00    -0.020 C 
HETATM   11  C6  UNL     1      -0.475  -0.482   0.162  1.00  0.00    -0.087 C 
HETATM   12  C7  UNL     1      -0.561  -1.759   0.910  1.00  0.00     0.043 C 
BRANCH  11  13
HETATM   13  C5  UNL     1      -1.682   0.427   0.319  1.00  0.00     0.038 C 
BRANCH  13  14
HETATM   14  C4  UNL     1      -2.921  -0.326  -0.170  1.00  0.00     0.037 C 
BRANCH  14  15
HETATM   15  C2  UNL     1      -4.108   0.520  -0.040  1.00  0.00    -0.093 C 
HETATM   16  C1  UNL     1      -5.118   0.152   0.728  1.00  0.00     0.014 C 
HETATM   17  C3  UNL     1      -4.173   1.794  -0.781  1.00  0.00     0.042 C 
ENDBRANCH  14  15
ENDBRANCH  13  14
ENDBRANCH  11  13
ENDBRANCH   9  10
ENDBRANCH   5   9
BRANCH   6  18
HETATM   18  O3  UNL     1       3.829   0.313  -2.645  1.00  0.00    -0.356 OA
ATOM     19  H3  UNL     1       4.469   0.690  -3.237  1.00  0.00     0.218 HD
ENDBRANCH   6  18
BRANCH   7  20
HETATM   20  O2  UNL     1       6.088   1.433  -0.907  1.00  0.00    -0.339 OA
ATOM     21  H2  UNL     1       6.313   1.603  -1.814  1.00  0.00     0.220 HD
ENDBRANCH   7  20
ENDBRANCH   1   4
TORSDOF 8
