REMARK  1 active torsions:
REMARK  status: ('A' for Active; 'I' for Inactive)
REMARK    1  A    between atoms: C7_8  and  O2_9 
ROOT
HETATM    1  C1  UNL     1      -1.429  -1.958  -1.690  1.00  0.00     0.046 C 
HETATM    2  C2  UNL     1      -0.274  -1.106  -1.371  1.00  0.00     0.059 C 
HETATM    3  C3  UNL     1       0.426  -1.038  -2.763  1.00  0.00     0.046 C 
HETATM    4  O1  UNL     1      -0.299   0.069  -0.846  1.00  0.00    -0.363 OA
HETATM    5  C4  UNL     1      -1.054   0.761  -0.041  1.00  0.00     0.125 C 
HETATM    6  C5  UNL     1      -0.540   1.383   1.227  1.00  0.00     0.048 C 
HETATM    7  C6  UNL     1       0.877   1.723   1.361  1.00  0.00     0.053 C 
HETATM    8  C7  UNL     1       1.746   1.544   0.178  1.00  0.00     0.166 C 
HETATM    9  C8  UNL     1       1.172   2.247  -0.951  1.00  0.00     0.298 C 
HETATM   10  O3  UNL     1       1.949   2.589  -1.910  1.00  0.00    -0.262 OA
HETATM   11  O4  UNL     1      -0.149   2.623  -1.163  1.00  0.00    -0.284 OA
HETATM   12  C9  UNL     1      -1.379   1.979  -0.914  1.00  0.00     0.314 C 
HETATM   13  O5  UNL     1      -2.374   2.798  -0.422  1.00  0.00    -0.286 OA
HETATM   14  C10 UNL     1      -3.463   2.272   0.218  1.00  0.00     0.262 C 
HETATM   15  O6  UNL     1      -4.608   2.729   0.066  1.00  0.00    -0.265 OA
HETATM   16  C11 UNL     1      -3.248   1.128   1.113  1.00  0.00     0.129 C 
HETATM   17  C12 UNL     1      -2.332   0.064   0.455  1.00  0.00     0.096 C 
HETATM   18  S1  UNL     1      -1.942  -1.042   1.777  1.00  0.00    -0.161 SA
HETATM   19  C13 UNL     1      -0.740  -2.248   1.695  1.00  0.00     0.075 C 
HETATM   20  C14 UNL     1      -0.059  -2.749   0.510  1.00  0.00     0.018 C 
HETATM   21  C15 UNL     1       0.692  -1.811  -0.399  1.00  0.00     0.022 C 
HETATM   22  C16 UNL     1       1.586  -0.999   0.396  1.00  0.00     0.036 C 
HETATM   23  C17 UNL     1       2.334   0.181   0.025  1.00  0.00     0.074 C 
HETATM   24  C18 UNL     1       3.497   0.185   1.087  1.00  0.00     0.036 C 
HETATM   25 CL1  UNL     1       3.347   0.098  -1.426  1.00  0.00    -0.116 Cl
ENDROOT
BRANCH   8  26
HETATM   26  O2  UNL     1       2.883   2.391   0.425  1.00  0.00    -0.378 OA
ATOM     27  H2  UNL     1       3.441   2.276  -0.335  1.00  0.00     0.211 HD
ENDBRANCH   8  26
TORSDOF 1
