REMARK  1 active torsions:
REMARK  status: ('A' for Active; 'I' for Inactive)
REMARK    1  A    between atoms: N1_14  and  O5_16 
ROOT
HETATM    1  O1  UNL     1       1.824  -1.177   2.066  1.00  0.00    -0.261 OA
HETATM    2  C1  UNL     1       1.648  -1.352   0.822  1.00  0.00     0.297 C 
HETATM    3  O2  UNL     1       1.185  -2.565   0.417  1.00  0.00    -0.317 OA
HETATM    4  C2  UNL     1       0.231  -2.891  -0.536  1.00  0.00     0.205 C 
HETATM    5  C3  UNL     1      -1.002  -3.549   0.040  1.00  0.00     0.194 C 
HETATM    6  O3  UNL     1      -1.961  -2.610   0.361  1.00  0.00    -0.387 OA
HETATM    7  C4  UNL     1      -3.105  -2.748  -0.422  1.00  0.00     0.193 C 
HETATM    8  C5  UNL     1      -4.263  -2.001   0.173  1.00  0.00     0.193 C 
HETATM    9  O4  UNL     1      -3.853  -0.734   0.520  1.00  0.00    -0.389 OA
HETATM   10  C6  UNL     1      -4.627   0.273  -0.019  1.00  0.00     0.168 C 
HETATM   11  C7  UNL     1      -4.689   1.465   0.910  1.00  0.00     0.032 C 
HETATM   12  C8  UNL     1      -3.335   2.100   1.102  1.00  0.00     0.056 C 
HETATM   13  C9  UNL     1      -2.849   2.788  -0.116  1.00  0.00     0.010 C 
HETATM   14  N1  UNL     1      -3.549   3.747  -0.591  1.00  0.00    -0.277 N 
ATOM     15  H1  UNL     1      -4.419   4.026  -0.137  1.00  0.00     0.193 HD
HETATM   16  C10 UNL     1      -1.596   2.382  -0.765  1.00  0.00     0.056 C 
HETATM   17  C11 UNL     1      -0.479   2.147   0.239  1.00  0.00     0.032 C 
HETATM   18  C12 UNL     1      -0.164   0.649   0.345  1.00  0.00     0.170 C 
HETATM   19  O6  UNL     1       0.775   0.271  -0.565  1.00  0.00    -0.366 OA
HETATM   20  C13 UNL     1       1.974  -0.194  -0.061  1.00  0.00     0.166 C 
HETATM   21  C14 UNL     1       2.618   0.913   0.663  1.00  0.00     0.021 C 
HETATM   22  C15 UNL     1       3.775   0.728   1.564  1.00  0.00    -0.002 C 
HETATM   23  C16 UNL     1       5.048   0.411   1.206  1.00  0.00     0.010 C 
HETATM   24  C17 UNL     1       6.027   0.102   0.174  1.00  0.00     0.193 C 
HETATM   25  F1  UNL     1       6.632   1.281  -0.285  1.00  0.00    -0.245 F 
HETATM   26  C18 UNL     1       5.491  -0.617  -1.101  1.00  0.00     0.041 C 
HETATM   27  C19 UNL     1       4.100  -0.543  -0.956  1.00  0.00     0.007 C 
HETATM   28  C20 UNL     1       2.748  -0.719  -1.315  1.00  0.00     0.053 C 
ENDROOT
BRANCH  14  29
HETATM   29  O5  UNL     1      -3.116   4.393  -1.715  1.00  0.00    -0.290 OA
ATOM     30  H5  UNL     1      -3.636   5.105  -2.068  1.00  0.00     0.244 HD
ENDBRANCH  14  29
TORSDOF 1
