REMARK  1 active torsions:
REMARK  status: ('A' for Active; 'I' for Inactive)
REMARK    1  A    between atoms: C3_6  and  O4_7 
ROOT
HETATM    1  O1  UNL     1      -4.856   1.291  -2.964  1.00  0.00    -0.263 OA
HETATM    2  C1  UNL     1      -4.425   0.681  -1.952  1.00  0.00     0.280 C 
HETATM    3  O2  UNL     1      -5.135   0.095  -0.912  1.00  0.00    -0.288 OA
HETATM    4  C2  UNL     1      -4.214  -0.224   0.106  1.00  0.00     0.280 C 
HETATM    5  O3  UNL     1      -3.727   0.929   0.744  1.00  0.00    -0.330 OA
HETATM    6  C3  UNL     1      -2.605   0.389   1.396  1.00  0.00     0.277 C 
HETATM    7  C4  UNL     1      -1.893  -0.464   0.350  1.00  0.00     0.091 C 
HETATM    8  C5  UNL     1      -0.636   0.159  -0.128  1.00  0.00     0.024 C 
HETATM    9  C6  UNL     1       0.531  -0.777  -0.250  1.00  0.00     0.007 C 
HETATM   10  C7  UNL     1       1.792   0.054  -0.164  1.00  0.00    -0.002 C 
HETATM   11  C8  UNL     1       2.567  -0.014  -1.488  1.00  0.00     0.005 C 
HETATM   12  C9  UNL     1       3.920   0.567  -1.253  1.00  0.00     0.000 C 
HETATM   13  C10 UNL     1       3.917   1.514  -0.050  1.00  0.00     0.001 C 
HETATM   14  C11 UNL     1       3.670   0.754   1.231  1.00  0.00     0.013 C 
HETATM   15  C12 UNL     1       2.728  -0.407   0.915  1.00  0.00     0.072 C 
HETATM   16  C13 UNL     1       2.073  -0.935   2.106  1.00  0.00     0.201 C 
HETATM   17  O5  UNL     1       2.583  -1.878   2.687  1.00  0.00    -0.284 OA
HETATM   18  S1  UNL     1       0.548  -0.298   2.801  1.00  0.00    -0.011 SA
HETATM   19  S2  UNL     1      -0.975  -1.785   2.692  1.00  0.00    -0.011 SA
HETATM   20  C14 UNL     1      -1.598  -1.769   1.011  1.00  0.00     0.211 C 
HETATM   21  O6  UNL     1      -1.765  -2.824   0.454  1.00  0.00    -0.284 OA
HETATM   22  C15 UNL     1      -2.963  -0.602  -0.700  1.00  0.00     0.091 C 
HETATM   23  C16 UNL     1      -2.953   0.493  -1.720  1.00  0.00     0.192 C 
HETATM   24 CL1  UNL     1      -2.234   0.034  -3.256  1.00  0.00    -0.114 Cl
ENDROOT
BRANCH   6  25
HETATM   25  O4  UNL     1      -3.163  -0.431   2.406  1.00  0.00    -0.370 OA
ATOM     26  H4  UNL     1      -2.405  -0.796   2.847  1.00  0.00     0.212 HD
ENDBRANCH   6  25
TORSDOF 1
