REMARK  1 active torsions:
REMARK  status: ('A' for Active; 'I' for Inactive)
REMARK    1  A    between atoms: C3_3  and  O1_4 
ROOT
HETATM    1  C1  UNL     1      -1.993  -0.253  -2.144  1.00  0.00     0.014 C 
HETATM    2  C2  UNL     1      -1.223  -0.776  -0.982  1.00  0.00     0.026 C 
HETATM    3  C3  UNL     1      -2.036  -1.658  -0.073  1.00  0.00     0.126 C 
HETATM    4  C4  UNL     1      -1.698  -1.318   1.327  1.00  0.00     0.074 C 
HETATM    5  C5  UNL     1      -1.054   0.088   1.278  1.00  0.00     0.107 C 
HETATM    6  C6  UNL     1      -2.245   0.990   1.563  1.00  0.00     0.050 C 
HETATM    7  O2  UNL     1      -0.150   0.067   2.297  1.00  0.00    -0.226 OA
HETATM    8  O3  UNL     1       1.155   0.101   2.012  1.00  0.00    -0.194 OA
HETATM    9  C7  UNL     1       1.234   1.034   1.010  1.00  0.00     0.260 C 
HETATM   10  O4  UNL     1       0.665   2.034   1.603  1.00  0.00    -0.313 OA
HETATM   11  C8  UNL     1       0.839   3.086   0.682  1.00  0.00     0.308 C 
HETATM   12  O5  UNL     1       2.190   2.876   0.472  1.00  0.00    -0.318 OA
HETATM   13  C9  UNL     1       2.493   1.603   0.478  1.00  0.00     0.365 C 
HETATM   14  O6  UNL     1       3.371   0.771   0.914  1.00  0.00    -0.201 OA
HETATM   15  O7  UNL     1       3.057  -0.447   0.725  1.00  0.00    -0.227 OA
HETATM   16  C10 UNL     1       1.951  -0.829  -0.075  1.00  0.00     0.099 C 
HETATM   17  C11 UNL     1       2.629  -1.179  -1.422  1.00  0.00     0.049 C 
HETATM   18  C12 UNL     1       1.647  -2.212   0.455  1.00  0.00     0.049 C 
HETATM   19  C13 UNL     1       0.892   0.161  -0.162  1.00  0.00     0.109 C 
HETATM   20  C14 UNL     1      -0.525   0.239  -0.131  1.00  0.00     0.030 C 
HETATM   21  C15 UNL     1      -0.803   1.659  -0.675  1.00  0.00     0.007 C 
HETATM   22  C16 UNL     1      -0.197   2.792  -0.291  1.00  0.00     0.040 C 
HETATM   23 BR1  UNL     1      -0.849   4.331  -1.226  1.00  0.00    -0.051 Br
ENDROOT
BRANCH   3  24
HETATM   24  O1  UNL     1      -1.853  -3.005  -0.291  1.00  0.00    -0.395 OA
ATOM     25  H1  UNL     1      -2.366  -3.562   0.283  1.00  0.00     0.210 HD
ENDBRANCH   3  24
TORSDOF 1
