REMARK  1 active torsions:
REMARK  status: ('A' for Active; 'I' for Inactive)
REMARK    1  A    between atoms: C15_20  and  O5_21 
ROOT
HETATM    1  C1  UNL     1       1.458   1.429   1.374  1.00  0.00     0.020 C 
HETATM    2  C2  UNL     1       1.618   0.594   0.390  1.00  0.00    -0.016 C 
HETATM    3  C3  UNL     1       0.855   0.235  -0.828  1.00  0.00     0.104 C 
HETATM    4  C4  UNL     1       1.072  -1.241  -0.882  1.00  0.00     0.277 C 
HETATM    5  O1  UNL     1       0.055  -2.029  -0.443  1.00  0.00    -0.330 OA
HETATM    6  C5  UNL     1      -0.847  -1.419   0.397  1.00  0.00     0.274 C 
HETATM    7  O2  UNL     1      -1.979  -2.209   0.579  1.00  0.00    -0.324 OA
HETATM    8  C6  UNL     1      -3.059  -1.366   0.802  1.00  0.00     0.183 C 
HETATM    9  C7  UNL     1      -3.458  -1.439   2.236  1.00  0.00     0.081 C 
HETATM   10  O3  UNL     1      -4.154  -1.654  -0.003  1.00  0.00    -0.309 OA
HETATM   11  C8  UNL     1      -4.652  -0.487  -0.544  1.00  0.00     0.127 A 
HETATM   12  C9  UNL     1      -5.737   0.008  -1.228  1.00  0.00     0.092 A 
HETATM   13 CL1  UNL     1      -7.158  -0.857  -1.758  1.00  0.00    -0.079 Cl
HETATM   14  C10 UNL     1      -5.482   1.342  -1.418  1.00  0.00     0.169 A 
HETATM   15  O4  UNL     1      -4.344   1.619  -0.893  1.00  0.00    -0.321 OA
HETATM   16  C11 UNL     1      -3.800   0.573  -0.357  1.00  0.00     0.102 A 
HETATM   17  C12 UNL     1      -2.638   0.039   0.377  1.00  0.00     0.075 C 
HETATM   18  C13 UNL     1      -2.380   0.821   1.601  1.00  0.00     0.029 C 
HETATM   19  C14 UNL     1      -1.479  -0.310  -0.465  1.00  0.00     0.091 C 
HETATM   20  C15 UNL     1      -0.539   0.696  -0.928  1.00  0.00     0.141 C 
HETATM   21  O6  UNL     1       2.207  -1.531  -0.140  1.00  0.00    -0.320 OA
HETATM   22  C16 UNL     1       2.796  -0.354   0.223  1.00  0.00     0.195 C 
HETATM   23  C17 UNL     1       3.733   0.200  -0.800  1.00  0.00     0.111 C 
HETATM   24  C18 UNL     1       4.708  -0.045   0.325  1.00  0.00     0.063 C 
HETATM   25  C19 UNL     1       5.621  -1.237   0.062  1.00  0.00     0.046 C 
HETATM   26  C20 UNL     1       5.463   1.231   0.641  1.00  0.00     0.046 C 
HETATM   27  O7  UNL     1       3.699  -0.345   1.220  1.00  0.00    -0.340 OA
ENDROOT
BRANCH  20  28
HETATM   28  O5  UNL     1      -0.668   1.968  -0.436  1.00  0.00    -0.394 OA
ATOM     29  H5  UNL     1      -1.568   2.266  -0.501  1.00  0.00     0.210 HD
ENDBRANCH  20  28
TORSDOF 1
