REMARK  1 active torsions:
REMARK  status: ('A' for Active; 'I' for Inactive)
REMARK    1  A    between atoms: C13_17  and  O4_18 
ROOT
HETATM    1  C1  UNL     1      -4.887  -2.547  -0.099  1.00  0.00     0.025 C 
HETATM    2  C2  UNL     1      -4.067  -1.602  -0.529  1.00  0.00     0.014 C 
HETATM    3  C3  UNL     1      -4.116  -0.886  -1.796  1.00  0.00     0.289 C 
HETATM    4  O1  UNL     1      -5.009  -1.013  -2.692  1.00  0.00    -0.260 OA
HETATM    5  O2  UNL     1      -2.993  -0.035  -1.831  1.00  0.00    -0.311 OA
HETATM    6  C4  UNL     1      -2.724   0.281  -0.492  1.00  0.00     0.145 C 
HETATM    7  C5  UNL     1      -2.893  -1.054   0.198  1.00  0.00     0.054 C 
HETATM    8  C6  UNL     1      -1.749  -1.988  -0.011  1.00  0.00     0.012 C 
HETATM    9  C7  UNL     1      -0.483  -1.311  -0.423  1.00  0.00     0.006 C 
HETATM   10  C8  UNL     1      -0.411   0.007   0.359  1.00  0.00     0.005 C 
HETATM   11  C9  UNL     1      -1.408   0.932  -0.254  1.00  0.00     0.026 C 
HETATM   12  C10 UNL     1      -1.648   2.181   0.559  1.00  0.00     0.081 C 
HETATM   13  C11 UNL     1      -0.638   3.247   0.358  1.00  0.00     0.205 C 
HETATM   14  C12 UNL     1      -1.093   4.313  -0.648  1.00  0.00     0.084 C 
HETATM   15  F1  UNL     1      -0.508   3.937   1.571  1.00  0.00    -0.212 F 
HETATM   16  O3  UNL     1       0.605   2.827  -0.035  1.00  0.00    -0.305 OA
HETATM   17  C13 UNL     1       1.117   1.855   0.761  1.00  0.00     0.226 C 
HETATM   18  S1  UNL     1       2.937   2.000   0.973  1.00  0.00    -0.067 SA
HETATM   19  C14 UNL     1       3.135   0.237   1.374  1.00  0.00     0.221 C 
HETATM   20  O5  UNL     1       4.336  -0.270   0.918  1.00  0.00    -0.338 OA
HETATM   21  C15 UNL     1       3.931  -1.322   0.111  1.00  0.00     0.159 C 
HETATM   22  C16 UNL     1       3.747  -2.612   0.866  1.00  0.00     0.078 C 
HETATM   23  C17 UNL     1       5.010  -1.466  -0.971  1.00  0.00     0.078 C 
HETATM   24  O6  UNL     1       2.728  -0.983  -0.462  1.00  0.00    -0.347 OA
HETATM   25  C18 UNL     1       2.037  -0.404   0.630  1.00  0.00     0.175 C 
HETATM   26  C19 UNL     1       1.025   0.510   0.146  1.00  0.00     0.097 C 
ENDROOT
BRANCH  17  27
HETATM   27  O4  UNL     1       0.604   1.821   2.052  1.00  0.00    -0.356 OA
ATOM     28  H4  UNL     1       0.963   1.140   2.609  1.00  0.00     0.214 HD
ENDBRANCH  17  27
TORSDOF 1
