REMARK  3 active torsions:
REMARK  status: ('A' for Active; 'I' for Inactive)
REMARK       I    between atoms: C1_2  and  N3_7 
REMARK    1  A    between atoms: N2_3  and  O1_5 
REMARK    2  A    between atoms: N3_7  and  N4_8 
REMARK    3  A    between atoms: N3_7  and  C2_11 
ROOT
HETATM    1  N1  UNL     1       2.735  -0.929   0.537  1.00  0.00    -0.060 NA
HETATM    2  C1  UNL     1       2.122   0.094  -0.228  1.00  0.00     0.229 C 
HETATM    3  N2  UNL     1       2.556   1.296  -0.096  1.00  0.00    -0.240 N 
ATOM      4  H2  UNL     1       2.128   2.047  -0.638  1.00  0.00     0.197 HD
HETATM    5  N3  UNL     1       1.059  -0.235  -1.107  1.00  0.00    -0.265 N 
ENDROOT
BRANCH   5   6
HETATM    6  N4  UNL     1       1.431  -0.764  -2.350  1.00  0.00    -0.340 N 
ATOM      7  H42 UNL     1       2.423  -0.883  -2.555  1.00  0.00     0.177 HD
ATOM      8  H41 UNL     1       0.666  -1.001  -2.982  1.00  0.00     0.177 HD
ENDBRANCH   5   6
BRANCH   5   9
HETATM    9  C2  UNL     1      -0.322  -0.069  -0.821  1.00  0.00     0.110 C 
HETATM   10  C3  UNL     1      -0.731   1.351  -0.535  1.00  0.00     0.027 C 
HETATM   11  C4  UNL     1      -1.972   1.273   0.355  1.00  0.00     0.002 C 
HETATM   12  C5  UNL     1      -2.818   0.083  -0.083  1.00  0.00     0.000 C 
HETATM   13  C6  UNL     1      -2.157  -1.162   0.481  1.00  0.00     0.002 C 
HETATM   14  C7  UNL     1      -0.666  -0.989   0.358  1.00  0.00     0.027 C 
ENDBRANCH   5   9
BRANCH   3  15
HETATM   15  O1  UNL     1       3.583   1.585   0.761  1.00  0.00    -0.287 OA
ATOM     16  H1  UNL     1       3.904   2.474   0.859  1.00  0.00     0.244 HD
ENDBRANCH   3  15
TORSDOF 3
