REMARK  3 active torsions:
REMARK  status: ('A' for Active; 'I' for Inactive)
REMARK    1  A    between atoms: O1_1  and  C1_3 
REMARK    2  A    between atoms: C7_9  and  O2_10 
REMARK    3  A    between atoms: C8_12  and  O3_13 
ROOT
HETATM    1  C1  UNL     1       1.824   0.370  -0.627  1.00  0.00     0.150 C 
HETATM    2  C2  UNL     1       0.841  -0.669  -1.172  1.00  0.00     0.042 C 
HETATM    3  C3  UNL     1      -0.009  -0.931   0.045  1.00  0.00     0.025 C 
HETATM    4  C4  UNL     1      -1.356  -1.488  -0.273  1.00  0.00     0.008 C 
HETATM    5  C5  UNL     1      -2.336  -0.324  -0.211  1.00  0.00     0.004 C 
HETATM    6  C6  UNL     1      -1.496   0.930  -0.166  1.00  0.00     0.041 C 
HETATM    7  C7  UNL     1      -0.258   0.474   0.556  1.00  0.00     0.090 C 
HETATM    8  C8  UNL     1       0.946   1.292   0.178  1.00  0.00     0.181 C 
ENDROOT
BRANCH   1   9
HETATM    9  O1  UNL     1       2.828  -0.219   0.110  1.00  0.00    -0.393 OA
ATOM     10  H1  UNL     1       3.438   0.426   0.448  1.00  0.00     0.210 HD
ENDBRANCH   1   9
BRANCH   8  11
HETATM   11  O3  UNL     1       1.631   1.787   1.278  1.00  0.00    -0.390 OA
ATOM     12  H3  UNL     1       1.077   2.368   1.786  1.00  0.00     0.210 HD
ENDBRANCH   8  11
BRANCH   7  13
HETATM   13  O2  UNL     1      -0.515   0.460   1.910  1.00  0.00    -0.387 OA
ATOM     14  H2  UNL     1      -0.671   1.341   2.230  1.00  0.00     0.210 HD
ENDBRANCH   7  13
TORSDOF 3
