REMARK  3 active torsions:
REMARK  status: ('A' for Active; 'I' for Inactive)
REMARK    1  A    between atoms: C3_3  and  O1_4 
REMARK    2  A    between atoms: C6_8  and  O2_9 
REMARK    3  A    between atoms: C7_11  and  O3_13 
ROOT
HETATM    1  C1  UNL     1       1.180  -1.541  -1.449  1.00  0.00     0.016 C 
HETATM    2  C2  UNL     1       0.504  -0.991  -0.183  1.00  0.00     0.047 C 
HETATM    3  C3  UNL     1      -0.942  -1.250  -0.285  1.00  0.00     0.124 C 
HETATM    4  C4  UNL     1      -1.878  -0.267   0.299  1.00  0.00     0.035 C 
HETATM    5  C5  UNL     1      -1.367   1.114   0.489  1.00  0.00     0.037 C 
HETATM    6  C6  UNL     1      -0.103   1.413  -0.285  1.00  0.00     0.152 C 
HETATM    7  C7  UNL     1       0.928   0.405   0.087  1.00  0.00     0.086 C 
HETATM    8  C8  UNL     1       1.416   0.587   1.527  1.00  0.00     0.049 C 
ENDROOT
BRANCH   7   9
HETATM    9  O3  UNL     1       2.076   0.680  -0.694  1.00  0.00    -0.387 OA
ATOM     10  H3  UNL     1       2.347   1.574  -0.521  1.00  0.00     0.210 HD
ENDBRANCH   7   9
BRANCH   6  11
HETATM   11  O2  UNL     1       0.294   2.696   0.046  1.00  0.00    -0.393 OA
ATOM     12  H2  UNL     1       1.088   2.884  -0.440  1.00  0.00     0.210 HD
ENDBRANCH   6  11
BRANCH   3  13
HETATM   13  O1  UNL     1      -1.213  -2.497   0.314  1.00  0.00    -0.395 OA
ATOM     14  H1  UNL     1      -2.146  -2.664   0.248  1.00  0.00     0.210 HD
ENDBRANCH   3  13
TORSDOF 3
