REMARK  2 active torsions:
REMARK  status: ('A' for Active; 'I' for Inactive)
REMARK    1  A    between atoms: O1_2  and  C2_3 
REMARK    2  A    between atoms: C9_15  and  N3_16 
ROOT
HETATM    1  C2  UNL     1       0.909  -0.385  -0.278  1.00  0.00     0.249 C 
HETATM    2  C3  UNL     1       0.100  -1.280   0.642  1.00  0.00     0.085 C 
HETATM    3  C4  UNL     1      -1.358  -0.889   0.563  1.00  0.00     0.028 C 
HETATM    4  C5  UNL     1      -2.149  -1.805   1.467  1.00  0.00     0.038 C 
HETATM    5  C6  UNL     1      -1.914  -1.029  -0.839  1.00  0.00     0.038 C 
HETATM    6  N1  UNL     1      -1.500   0.466   1.033  1.00  0.00    -0.364 N 
ATOM      7  H1  UNL     1      -2.268   0.741   1.645  1.00  0.00     0.162 HD
HETATM    8  C7  UNL     1      -0.507   1.412   0.597  1.00  0.00     0.162 A 
HETATM    9  C8  UNL     1      -0.448   2.788   0.679  1.00  0.00     0.163 A 
HETATM   10 CL1  UNL     1      -1.698   3.796   1.404  1.00  0.00    -0.060 Cl
HETATM   11  N2  UNL     1       0.697   3.210   0.123  1.00  0.00    -0.177 N 
ATOM     12  H2  UNL     1       1.013   4.176   0.039  1.00  0.00     0.185 HD
HETATM   13  C9  UNL     1       1.349   2.112  -0.302  1.00  0.00     0.683 A 
HETATM   14  N4  UNL     1       0.623   1.017  -0.017  1.00  0.00    -0.138 N 
ENDROOT
BRANCH  13  15
HETATM   15  N3  UNL     1       2.516   2.147  -0.899  1.00  0.00    -0.234 N 
ATOM     16  H32 UNL     1       3.067   2.978  -1.115  1.00  0.00     0.174 HD
ATOM     17  H31 UNL     1       3.010   1.315  -1.221  1.00  0.00     0.174 HD
ENDBRANCH  13  15
BRANCH   1  18
HETATM   18  O1  UNL     1       2.234  -0.710  -0.278  1.00  0.00    -0.370 OA
HETATM   19  C1  UNL     1       2.728  -1.206  -1.456  1.00  0.00     0.204 C 
ENDBRANCH   1  18
TORSDOF 2
