REMARK  2 active torsions:
REMARK  status: ('A' for Active; 'I' for Inactive)
REMARK    1  A    between atoms: C6_9  and  C7_10 
REMARK    2  A    between atoms: C7_10  and  O1_11 
ROOT
HETATM    1  C1  UNL     1       3.187   0.867  -0.124  1.00  0.00     0.051 C 
HETATM    2  C2  UNL     1       2.372  -0.411  -0.221  1.00  0.00    -0.028 A 
HETATM    3  C3  UNL     1       3.060  -1.596  -0.327  1.00  0.00     0.059 A 
HETATM    4  S1  UNL     1       1.807  -2.763  -0.411  1.00  0.00    -0.103 SA
HETATM    5  C4  UNL     1       0.464  -1.717  -0.309  1.00  0.00     0.011 A 
HETATM    6  C5  UNL     1       1.029  -0.483  -0.212  1.00  0.00     0.049 A 
HETATM    7  N1  UNL     1       0.234   0.723  -0.104  1.00  0.00    -0.358 N 
ATOM      8  H1  UNL     1       0.698   1.592  -0.370  1.00  0.00     0.162 HD
HETATM    9  C6  UNL     1      -1.148   0.845   0.338  1.00  0.00     0.328 C 
HETATM   10  N2  UNL     1      -1.931  -0.041  -0.491  1.00  0.00    -0.050 N 
ATOM     11  H21 UNL     1      -1.596  -0.084  -1.453  1.00  0.00     0.279 HD
ATOM     12  H22 UNL     1      -2.863   0.322  -0.690  1.00  0.00     0.279 HD
HETATM   13  C8  UNL     1      -1.957  -1.329   0.150  1.00  0.00     0.240 C 
HETATM   14  C9  UNL     1      -0.912  -2.269  -0.341  1.00  0.00     0.076 C 
ENDROOT
BRANCH   9  15
HETATM   15  C7  UNL     1      -1.607   2.261   0.263  1.00  0.00     0.264 C 
HETATM   16 CL1  UNL     1      -1.595   2.804  -1.446  1.00  0.00    -0.091 Cl
BRANCH  15  17
HETATM   17  O1  UNL     1      -2.933   2.329   0.696  1.00  0.00    -0.377 OA
ATOM     18  H1  UNL     1      -3.226   3.232   0.648  1.00  0.00     0.211 HD
ENDBRANCH  15  17
ENDBRANCH   9  15
TORSDOF 2
