REMARK  4 active torsions:
REMARK  status: ('A' for Active; 'I' for Inactive)
REMARK    1  A    between atoms: C3_4  and  C4_5 
REMARK    2  A    between atoms: C5_7  and  N2_8 
REMARK    3  A    between atoms: N3_10  and  C6_12 
REMARK    4  A    between atoms: C7_15  and  O1_16 
ROOT
HETATM    1  C1  UNL     1      -1.105   2.674  -0.924  1.00  0.00     0.158 C 
HETATM    2  N1  UNL     1      -0.923   1.308  -0.454  1.00  0.00    -0.340 N 
HETATM    3  C2  UNL     1      -1.415   0.723   0.642  1.00  0.00     0.103 A 
HETATM    4  C3  UNL     1      -1.020  -0.578   0.743  1.00  0.00     0.004 A 
HETATM    5  C5  UNL     1      -0.228  -0.830  -0.359  1.00  0.00     0.107 A 
HETATM    6  C7  UNL     1      -0.187   0.347  -1.075  1.00  0.00     0.171 A 
ENDROOT
BRANCH   5   7
HETATM    7  N2  UNL     1       0.409  -2.059  -0.680  1.00  0.00    -0.294 N 
HETATM    8  N3  UNL     1       1.667  -2.176  -0.631  1.00  0.00    -0.278 N 
ATOM      9  H3  UNL     1       2.060  -3.086  -0.873  1.00  0.00     0.189 HD
ATOM     10  H2  UNL     1      -0.159  -2.861  -0.955  1.00  0.00     0.187 HD
BRANCH   8  11
HETATM   11  C6  UNL     1       2.572  -1.161  -0.272  1.00  0.00     0.199 C 
HETATM   12  N4  UNL     1       2.435  -0.467   0.962  1.00  0.00    -0.068 NA
HETATM   13  S1  UNL     1       3.825  -0.721  -1.246  1.00  0.00    -0.043 SA
ENDBRANCH   8  11
ENDBRANCH   5   7
BRANCH   4  14
HETATM   14  C4  UNL     1      -1.324  -1.610   1.796  1.00  0.00     0.157 C 
HETATM   15 CL1  UNL     1      -2.545  -2.725   1.128  1.00  0.00    -0.125 Cl
ENDBRANCH   4  14
BRANCH   6  16
HETATM   16  O1  UNL     1       0.503   0.560  -2.277  1.00  0.00    -0.344 OA
ATOM     17  H1  UNL     1       1.017  -0.111  -2.711  1.00  0.00     0.219 HD
ENDBRANCH   6  16
TORSDOF 4
