REMARK  5 active torsions:
REMARK  status: ('A' for Active; 'I' for Inactive)
REMARK    1  A    between atoms: C2_2  and  C4_4 
REMARK    2  A    between atoms: C4_4  and  O1_6 
REMARK    3  A    between atoms: C4_4  and  C6_8 
REMARK    4  A    between atoms: C15_17  and  O2_18 
REMARK    5  A    between atoms: C18_22  and  O3_24 
ROOT
HETATM    1  C6  UNL     1       0.929   0.362   0.337  1.00  0.00    -0.034 C 
HETATM    2  C7  UNL     1       0.212  -0.835  -0.152  1.00  0.00     0.013 C 
HETATM    3  C8  UNL     1      -1.221  -0.796  -0.521  1.00  0.00    -0.039 C 
HETATM    4  C9  UNL     1      -1.742   0.501  -1.024  1.00  0.00     0.046 C 
HETATM    5  C10 UNL     1      -1.507   1.674  -0.151  1.00  0.00     0.013 C 
HETATM    6  C11 UNL     1      -0.267   2.366  -0.563  1.00  0.00     0.014 C 
HETATM    7  C12 UNL     1       1.018   1.546  -0.526  1.00  0.00    -0.021 C 
HETATM    8  C13 UNL     1       2.049   2.585  -0.090  1.00  0.00     0.019 C 
HETATM    9  C14 UNL     1       1.347   1.297  -1.989  1.00  0.00     0.019 C 
HETATM   10  C15 UNL     1      -3.169   0.349  -1.505  1.00  0.00     0.126 C 
HETATM   11  C16 UNL     1      -3.977  -0.032  -0.304  1.00  0.00     0.035 C 
HETATM   12  C17 UNL     1      -3.587  -1.460  -0.006  1.00  0.00     0.045 C 
HETATM   13  C18 UNL     1      -2.136  -1.605   0.354  1.00  0.00     0.078 C 
HETATM   14  C19 UNL     1      -2.038  -1.424   1.822  1.00  0.00     0.051 C 
ENDROOT
BRANCH   1  15
HETATM   15  C4  UNL     1       2.113  -0.082   1.137  1.00  0.00     0.101 C 
HETATM   16  C5  UNL     1       1.678  -0.778   2.446  1.00  0.00     0.056 C 
BRANCH  15  17
HETATM   17  C2  UNL     1       3.111  -0.958   0.488  1.00  0.00    -0.055 C 
HETATM   18  C1  UNL     1       3.448  -2.147   1.052  1.00  0.00     0.017 C 
HETATM   19  C3  UNL     1       3.846  -0.707  -0.769  1.00  0.00     0.046 C 
ENDBRANCH  15  17
BRANCH  15  20
HETATM   20  O1  UNL     1       2.896   0.984   1.627  1.00  0.00    -0.381 OA
ATOM     21  H1  UNL     1       2.255   1.547   2.044  1.00  0.00     0.211 HD
ENDBRANCH  15  20
ENDBRANCH   1  15
BRANCH  13  22
HETATM   22  O3  UNL     1      -1.851  -2.981   0.143  1.00  0.00    -0.386 OA
ATOM     23  H3  UNL     1      -2.430  -3.493   0.696  1.00  0.00     0.211 HD
ENDBRANCH  13  22
BRANCH  10  24
HETATM   24  O2  UNL     1      -3.633   1.490  -2.142  1.00  0.00    -0.395 OA
ATOM     25  H2  UNL     1      -4.529   1.395  -2.444  1.00  0.00     0.210 HD
ENDBRANCH  10  24
TORSDOF 5
