REMARK  3 active torsions:
REMARK  status: ('A' for Active; 'I' for Inactive)
REMARK    1  A    between atoms: C9_9  and  C10_10 
REMARK    2  A    between atoms: C12_15  and  O1_16 
REMARK    3  A    between atoms: C19_24  and  O2_25 
ROOT
HETATM    1  C1  UNL     1      -4.689   1.850   0.406  1.00  0.00     0.017 C 
HETATM    2  C2  UNL     1      -3.558   1.490  -0.168  1.00  0.00    -0.060 C 
HETATM    3  C3  UNL     1      -2.455   2.448  -0.320  1.00  0.00     0.036 C 
HETATM    4  C4  UNL     1      -1.111   1.818   0.080  1.00  0.00     0.010 C 
HETATM    5  C5  UNL     1      -1.018   0.520  -0.697  1.00  0.00     0.005 C 
HETATM    6  C6  UNL     1       0.374  -0.049  -0.725  1.00  0.00    -0.035 C 
HETATM    7  C7  UNL     1       0.839  -0.019  -2.170  1.00  0.00     0.016 C 
HETATM    8  C8  UNL     1       1.362   0.801   0.048  1.00  0.00     0.023 C 
HETATM    9  C9  UNL     1       2.578   0.112   0.498  1.00  0.00     0.060 C 
HETATM   10  C12 UNL     1       2.929  -1.180  -0.147  1.00  0.00     0.128 C 
HETATM   11  C13 UNL     1       1.804  -2.008  -0.626  1.00  0.00     0.037 C 
HETATM   12  C14 UNL     1       0.480  -1.419  -0.118  1.00  0.00    -0.004 C 
HETATM   13  C15 UNL     1      -0.595  -2.365  -0.492  1.00  0.00     0.006 C 
HETATM   14  C16 UNL     1      -1.875  -1.759  -0.930  1.00  0.00     0.013 C 
HETATM   15  C17 UNL     1      -2.055  -0.442  -0.195  1.00  0.00    -0.010 C 
HETATM   16  C18 UNL     1      -2.130  -0.582   1.277  1.00  0.00     0.018 C 
HETATM   17  C19 UNL     1      -3.419   0.093  -0.660  1.00  0.00     0.155 C 
ENDROOT
BRANCH   9  18
HETATM   18  C10 UNL     1       3.740   1.035   0.330  1.00  0.00    -0.018 C 
HETATM   19  C11 UNL     1       5.119   0.618   0.703  1.00  0.00     0.063 C 
HETATM   20  N1  UNL     1       3.606   2.219  -0.138  1.00  0.00    -0.405 N 
ATOM     21  H12 UNL     1       2.661   2.505  -0.394  1.00  0.00     0.155 HD
ATOM     22  H11 UNL     1       4.400   2.849  -0.253  1.00  0.00     0.155 HD
ENDBRANCH   9  18
BRANCH  10  23
HETATM   23  O1  UNL     1       3.681  -1.968   0.760  1.00  0.00    -0.395 OA
ATOM     24  H1  UNL     1       3.905  -2.794   0.348  1.00  0.00     0.210 HD
ENDBRANCH  10  23
BRANCH  17  25
HETATM   25  O2  UNL     1      -4.453  -0.722  -0.265  1.00  0.00    -0.390 OA
ATOM     26  H2  UNL     1      -4.364  -1.614  -0.579  1.00  0.00     0.210 HD
ENDBRANCH  17  25
TORSDOF 3
