REMARK  5 active torsions:
REMARK  status: ('A' for Active; 'I' for Inactive)
REMARK    1  A    between atoms: C2_2  and  C3_3 
REMARK    2  A    between atoms: C3_3  and  C4_4 
REMARK    3  A    between atoms: C5_5  and  O1_6 
REMARK    4  A    between atoms: C11_13  and  O2_14 
REMARK    5  A    between atoms: C14_18  and  O3_19 
ROOT
HETATM    1  C4  UNL     1       1.324  -0.103   0.083  1.00  0.00     0.055 C 
HETATM    2  C5  UNL     1       0.691   1.034   0.751  1.00  0.00     0.069 C 
HETATM    3  C6  UNL     1       1.332   2.355   0.404  1.00  0.00     0.039 C 
HETATM    4  C7  UNL     1       0.754   2.641  -0.986  1.00  0.00     0.008 C 
HETATM    5  C8  UNL     1      -0.541   1.870  -1.060  1.00  0.00    -0.007 C 
HETATM    6  C9  UNL     1      -0.446   0.687  -1.987  1.00  0.00     0.013 C 
HETATM    7  C10 UNL     1      -0.732  -0.612  -1.320  1.00  0.00     0.032 C 
HETATM    8  C11 UNL     1       0.432  -1.133  -0.570  1.00  0.00     0.069 C 
HETATM    9  C12 UNL     1       0.021  -2.256   0.379  1.00  0.00     0.041 C 
HETATM   10  C13 UNL     1      -1.240  -2.884  -0.244  1.00  0.00     0.035 C 
HETATM   11  C14 UNL     1      -2.349  -1.911   0.045  1.00  0.00     0.127 C 
HETATM   12  C15 UNL     1      -2.008  -0.574  -0.500  1.00  0.00    -0.008 C 
HETATM   13  C16 UNL     1      -3.119  -0.156  -1.449  1.00  0.00     0.019 C 
HETATM   14  C17 UNL     1      -1.777   0.428   0.593  1.00  0.00    -0.000 C 
HETATM   15  C18 UNL     1      -3.093   1.223   0.691  1.00  0.00     0.011 C 
HETATM   16  C19 UNL     1      -0.709   1.393   0.344  1.00  0.00     0.029 C 
ENDROOT
BRANCH   1  17
HETATM   17  C3  UNL     1       2.224  -0.887   0.972  1.00  0.00     0.010 C 
BRANCH  17  18
HETATM   18  C2  UNL     1       3.406  -0.271   1.579  1.00  0.00    -0.004 C 
HETATM   19  C1  UNL     1       4.481   0.236   0.692  1.00  0.00     0.005 C 
ENDBRANCH  17  18
ENDBRANCH   1  17
BRANCH   2  20
HETATM   20  O1  UNL     1       0.623   0.872   2.158  1.00  0.00    -0.389 OA
ATOM     21  H1  UNL     1       0.212   1.610   2.592  1.00  0.00     0.210 HD
ENDBRANCH   2  20
BRANCH   8  22
HETATM   22  O2  UNL     1       1.264  -1.788  -1.519  1.00  0.00    -0.389 OA
ATOM     23  H2  UNL     1       0.703  -2.436  -1.930  1.00  0.00     0.210 HD
ENDBRANCH   8  22
BRANCH  11  24
HETATM   24  O3  UNL     1      -2.533  -1.915   1.439  1.00  0.00    -0.395 OA
ATOM     25  H3  UNL     1      -3.234  -1.300   1.622  1.00  0.00     0.210 HD
ENDBRANCH  11  24
TORSDOF 5
