REMARK  5 active torsions:
REMARK  status: ('A' for Active; 'I' for Inactive)
REMARK    1  A    between atoms: C2_2  and  C3_3 
REMARK    2  A    between atoms: C9_9  and  O1_10 
REMARK    3  A    between atoms: C9_9  and  C10_12 
REMARK    4  A    between atoms: C13_15  and  O2_16 
REMARK    5  A    between atoms: C19_23  and  O3_24 
ROOT
HETATM    1  C3  UNL     1      -3.626   0.682   0.182  1.00  0.00     0.014 C 
HETATM    2  C4  UNL     1      -3.070   0.238   1.502  1.00  0.00     0.008 C 
HETATM    3  C5  UNL     1      -1.589   0.232   1.583  1.00  0.00     0.010 C 
HETATM    4  C6  UNL     1      -0.999  -0.433   0.361  1.00  0.00    -0.035 C 
HETATM    5  C7  UNL     1      -1.549  -1.842   0.205  1.00  0.00     0.016 C 
HETATM    6  C8  UNL     1       0.472  -0.530   0.541  1.00  0.00     0.048 C 
HETATM    7  C9  UNL     1       1.269   0.260  -0.471  1.00  0.00     0.062 C 
HETATM    8  C16 UNL     1       0.801  -0.154  -1.844  1.00  0.00     0.038 C 
HETATM    9  C17 UNL     1      -0.658  -0.004  -2.048  1.00  0.00     0.011 C 
HETATM   10  C18 UNL     1      -1.421   0.397  -0.826  1.00  0.00     0.023 C 
HETATM   11  C19 UNL     1      -2.908   0.146  -1.006  1.00  0.00     0.127 C 
ENDROOT
BRANCH   7  12
HETATM   12  O1  UNL     1       1.107   1.634  -0.324  1.00  0.00    -0.389 OA
ATOM     13  H1  UNL     1       1.608   2.131  -0.960  1.00  0.00     0.210 HD
ENDBRANCH   7  12
BRANCH   7  14
HETATM   14  C10 UNL     1       2.706  -0.065  -0.246  1.00  0.00     0.020 C 
HETATM   15  C11 UNL     1       3.120   0.311   1.142  1.00  0.00     0.010 C 
HETATM   16  C12 UNL     1       4.497   0.928   1.201  1.00  0.00     0.032 C 
HETATM   17  C13 UNL     1       5.506   0.203   0.361  1.00  0.00     0.118 C 
HETATM   18  C14 UNL     1       5.003  -0.091  -1.032  1.00  0.00     0.032 C 
HETATM   19  C15 UNL     1       3.638   0.580  -1.234  1.00  0.00     0.010 C 
BRANCH  17  20
HETATM   20  O2  UNL     1       5.914  -0.967   1.022  1.00  0.00    -0.396 OA
ATOM     21  H2  UNL     1       6.553  -1.426   0.490  1.00  0.00     0.210 HD
ENDBRANCH  17  20
ENDBRANCH   7  14
BRANCH  11  22
HETATM   22  O3  UNL     1      -3.292   0.935  -2.116  1.00  0.00    -0.395 OA
ATOM     23  H3  UNL     1      -2.834   0.593  -2.874  1.00  0.00     0.210 HD
ENDBRANCH  11  22
BRANCH   1  24
HETATM   24  C2  UNL     1      -5.072   0.183   0.134  1.00  0.00     0.002 C 
HETATM   25  C1  UNL     1      -5.866   0.787   1.290  1.00  0.00     0.005 C 
ENDBRANCH   1  24
TORSDOF 5
