REMARK  8 active torsions:
REMARK  status: ('A' for Active; 'I' for Inactive)
REMARK    1  A    between atoms: O1_1  and  N1_3 
REMARK    2  A    between atoms: C1_5  and  N2_6 
REMARK    3  A    between atoms: C1_5  and  C14_26 
REMARK    4  A    between atoms: N2_6  and  C2_8 
REMARK    5  A    between atoms: N3_11  and  C5_12 
REMARK    6  A    between atoms: C5_12  and  C6_13 
REMARK    7  A    between atoms: C6_13  and  N4_14 
REMARK    8  A    between atoms: C8_20  and  C9_21 
ROOT
HETATM    1  C2  UNL     1       1.825  -0.620  -0.230  1.00  0.00     0.086 C 
HETATM    2  C3  UNL     1       0.773   0.431  -0.334  1.00  0.00     0.045 C 
HETATM    3  C4  UNL     1      -0.450  -0.004   0.476  1.00  0.00     0.124 C 
HETATM    4  N3  UNL     1      -1.010  -1.149  -0.084  1.00  0.00    -0.388 N 
HETATM    5  C12 UNL     1      -0.121  -2.144  -0.580  1.00  0.00     0.124 C 
HETATM    6  C13 UNL     1       1.279  -2.020  -0.020  1.00  0.00     0.045 C 
ENDROOT
BRANCH   1   7
HETATM    7  N2  UNL     1       2.759  -0.352   0.817  1.00  0.00    -0.369 N 
ATOM      8  H2  UNL     1       2.774  -0.972   1.627  1.00  0.00     0.161 HD
BRANCH   7   9
HETATM    9  C1  UNL     1       3.651   0.718   0.781  1.00  0.00     0.138 C 
HETATM   10  N1  UNL     1       3.338   1.884   1.174  1.00  0.00    -0.252 N 
ATOM     11  H1  UNL     1       2.396   2.046   1.531  1.00  0.00     0.196 HD
BRANCH  10  12
HETATM   12  O1  UNL     1       4.224   2.938   1.136  1.00  0.00    -0.288 OA
ATOM     13  H1  UNL     1       3.990   3.810   1.430  1.00  0.00     0.244 HD
ENDBRANCH  10  12
BRANCH   9  14
HETATM   14  C14 UNL     1       5.025   0.473   0.280  1.00  0.00     0.052 A 
HETATM   15  C15 UNL     1       5.647  -0.740   0.148  1.00  0.00     0.025 A 
HETATM   16  C16 UNL     1       6.910  -0.727  -0.322  1.00  0.00     0.033 A 
HETATM   17  C17 UNL     1       7.457   0.489  -0.624  1.00  0.00     0.075 A 
HETATM   18 CL1  UNL     1       9.088   0.797  -1.251  1.00  0.00    -0.076 Cl
HETATM   19  S1  UNL     1       6.202   1.577  -0.249  1.00  0.00    -0.074 SA
ENDBRANCH   9  14
ENDBRANCH   7   9
ENDBRANCH   1   7
BRANCH   4  20
HETATM   20  C5  UNL     1      -2.363  -1.379  -0.237  1.00  0.00     0.103 C 
BRANCH  20  21
HETATM   21  C6  UNL     1      -3.182  -0.698  -1.268  1.00  0.00     0.116 C 
BRANCH  21  22
HETATM   22  N4  UNL     1      -3.339   0.700  -1.292  1.00  0.00    -0.304 N 
HETATM   23  C7  UNL     1      -2.505   1.580  -1.951  1.00  0.00     0.206 A 
HETATM   24  N5  UNL     1      -2.966   2.810  -1.787  1.00  0.00    -0.294 N 
HETATM   25  N6  UNL     1      -4.040   2.740  -1.062  1.00  0.00    -0.287 N 
ATOM     26  H5  UNL     1      -2.551   3.662  -2.164  1.00  0.00     0.187 HD
HETATM   27  C8  UNL     1      -4.299   1.426  -0.737  1.00  0.00     0.107 A 
ATOM     28  H6  UNL     1      -4.607   3.538  -0.776  1.00  0.00     0.188 HD
BRANCH  27  29
HETATM   29  C9  UNL     1      -5.455   1.075   0.053  1.00  0.00     0.055 A 
HETATM   30  C10 UNL     1      -5.144   0.981   1.581  1.00  0.00     0.013 A 
HETATM   31  C11 UNL     1      -5.803  -0.138   0.730  1.00  0.00     0.013 A 
ENDBRANCH  27  29
ENDBRANCH  21  22
ENDBRANCH  20  21
ENDBRANCH   4  20
TORSDOF 8
