REMARK  7 active torsions:
REMARK  status: ('A' for Active; 'I' for Inactive)
REMARK    1  A    between atoms: O1_1  and  C1_3 
REMARK    2  A    between atoms: C1_3  and  C2_4 
REMARK    3  A    between atoms: N1_6  and  C4_7 
REMARK    4  A    between atoms: C4_7  and  C5_8 
REMARK    5  A    between atoms: C9_15  and  C10_16 
REMARK    6  A    between atoms: N3_21  and  C15_22 
REMARK    7  A    between atoms: C15_22  and  C16_23 
ROOT
HETATM    1  C5  UNL     1      -0.812  -0.892   1.198  1.00  0.00     0.104 A 
HETATM    2  N2  UNL     1      -1.605  -0.059   1.897  1.00  0.00    -0.342 N 
ATOM      3  H2  UNL     1      -2.205  -0.334   2.675  1.00  0.00     0.167 HD
HETATM    4  C6  UNL     1      -1.488   1.181   1.419  1.00  0.00     0.062 A 
HETATM    5  C7  UNL     1      -2.103   2.383   1.785  1.00  0.00     0.056 A 
HETATM    6  C8  UNL     1      -1.785   3.511   1.081  1.00  0.00     0.043 A 
HETATM    7 CL1  UNL     1      -2.556   5.029   1.540  1.00  0.00    -0.084 Cl
HETATM    8  C9  UNL     1      -0.873   3.467   0.025  1.00  0.00    -0.030 A 
HETATM    9  C13 UNL     1      -0.282   2.311  -0.327  1.00  0.00     0.041 A 
HETATM   10  C14 UNL     1      -0.590   1.143   0.380  1.00  0.00     0.063 A 
HETATM   11  N3  UNL     1      -0.189  -0.155   0.272  1.00  0.00    -0.333 N 
ENDROOT
BRANCH   1  12
HETATM   12  C4  UNL     1      -0.727  -2.386   1.460  1.00  0.00     0.222 C 
BRANCH  12  13
HETATM   13  N1  UNL     1      -2.045  -2.956   1.149  1.00  0.00    -0.278 N 
HETATM   14  C3  UNL     1      -2.400  -3.395  -0.057  1.00  0.00     0.136 A 
HETATM   15  C2  UNL     1      -3.692  -3.875  -0.014  1.00  0.00     0.064 A 
HETATM   16  N6  UNL     1      -4.077  -3.699   1.264  1.00  0.00    -0.285 N 
HETATM   17  N5  UNL     1      -3.079  -3.147   1.952  1.00  0.00    -0.020 NA
ATOM     18  H6  UNL     1      -4.989  -3.949   1.645  1.00  0.00     0.184 HD
BRANCH  15  19
HETATM   19  C1  UNL     1      -4.492  -4.460  -1.119  1.00  0.00     0.223 C 
BRANCH  19  20
HETATM   20  O1  UNL     1      -5.798  -4.737  -0.707  1.00  0.00    -0.395 OA
ATOM     21  H1  UNL     1      -6.310  -5.111  -1.414  1.00  0.00     0.209 HD
ENDBRANCH  19  20
ENDBRANCH  15  19
ENDBRANCH  12  13
ENDBRANCH   1  12
BRANCH  11  22
HETATM   22  C15 UNL     1       0.776  -0.631  -0.675  1.00  0.00     0.137 C 
BRANCH  22  23
HETATM   23  C16 UNL     1       2.209  -0.593  -0.294  1.00  0.00     0.030 C 
HETATM   24  C17 UNL     1       2.609  -1.366   0.916  1.00  0.00     0.009 C 
HETATM   25  C18 UNL     1       4.113  -1.382   1.035  1.00  0.00     0.028 C 
HETATM   26  C19 UNL     1       4.794  -0.667  -0.107  1.00  0.00     0.232 C 
HETATM   27  N4  UNL     1       4.291   0.666  -0.260  1.00  0.00    -0.075 N 
HETATM   28  C20 UNL     1       2.856   0.755  -0.253  1.00  0.00     0.238 C 
ATOM     29  H42 UNL     1       4.691   1.283   0.447  1.00  0.00     0.277 HD
ATOM     30  H41 UNL     1       4.672   1.098  -1.102  1.00  0.00     0.277 HD
ENDBRANCH  22  23
ENDBRANCH  11  22
BRANCH   8  31
HETATM   31  C10 UNL     1      -0.582   4.723  -0.698  1.00  0.00     0.020 A 
HETATM   32  C11 UNL     1       0.612   4.759  -1.591  1.00  0.00     0.010 A 
HETATM   33  C12 UNL     1      -0.723   4.737  -2.185  1.00  0.00     0.010 A 
ENDBRANCH   8  31
TORSDOF 7
