REMARK  7 active torsions:
REMARK  status: ('A' for Active; 'I' for Inactive)
REMARK    1  A    between atoms: C2_2  and  C3_3 
REMARK    2  A    between atoms: C3_3  and  N1_4 
REMARK    3  A    between atoms: N1_4  and  C4_6 
REMARK    4  A    between atoms: C6_11  and  C7_12 
REMARK    5  A    between atoms: C7_12  and  S2_13 
REMARK    6  A    between atoms: S2_13  and  C8_14 
REMARK    7  A    between atoms: C13_20  and  N4_21 
ROOT
HETATM    1  C4  UNL     1      -0.962   1.866   0.101  1.00  0.00     0.680 A 
HETATM    2  N2  UNL     1       0.316   2.056  -0.263  1.00  0.00    -0.184 N 
ATOM      3  H2  UNL     1       0.684   3.005  -0.329  1.00  0.00     0.185 HD
HETATM    4  C5  UNL     1       1.135   0.993  -0.547  1.00  0.00     0.106 A 
HETATM    5  S1  UNL     1       2.767   0.871  -1.028  1.00  0.00    -0.073 SA
HETATM    6  C6  UNL     1       2.889  -0.812  -1.137  1.00  0.00     0.016 A 
HETATM    7  C10 UNL     1       1.638  -1.258  -0.791  1.00  0.00     0.075 A 
HETATM    8  C11 UNL     1       1.421  -2.720  -0.791  1.00  0.00     0.101 C 
HETATM    9  N3  UNL     1       1.284  -3.895  -0.799  1.00  0.00    -0.191 NA
HETATM   10  C12 UNL     1       0.714  -0.311  -0.480  1.00  0.00     0.065 A 
HETATM   11  C13 UNL     1      -0.619  -0.467  -0.099  1.00  0.00     0.134 A 
HETATM   12  N6  UNL     1      -1.389   0.615   0.172  1.00  0.00    -0.176 N 
ATOM     13  H6  UNL     1      -2.358   0.455   0.448  1.00  0.00     0.186 HD
ENDROOT
BRANCH   6  14
HETATM   14  C7  UNL     1       4.113  -1.604  -1.538  1.00  0.00     0.121 C 
BRANCH  14  15
HETATM   15  S2  UNL     1       5.490  -0.505  -1.872  1.00  0.00    -0.164 SA
BRANCH  15  16
HETATM   16  C8  UNL     1       6.031   0.284  -0.353  1.00  0.00     0.069 C 
HETATM   17  C9  UNL     1       7.175   1.246  -0.536  1.00  0.00     0.016 C 
ENDBRANCH  15  16
ENDBRANCH  14  15
ENDBRANCH   6  14
BRANCH  11  18
HETATM   18  N4  UNL     1      -1.302  -1.691   0.042  1.00  0.00    -0.363 N 
HETATM   19  C14 UNL     1      -2.029  -2.255  -1.067  1.00  0.00     0.152 C 
HETATM   20  C15 UNL     1      -3.444  -2.524  -0.556  1.00  0.00     0.252 C 
HETATM   21  N5  UNL     1      -3.419  -3.454   0.544  1.00  0.00    -0.072 N 
HETATM   22  C16 UNL     1      -2.101  -3.684   1.076  1.00  0.00     0.252 C 
ATOM     23  H52 UNL     1      -4.058  -3.157   1.281  1.00  0.00     0.277 HD
ATOM     24  H51 UNL     1      -3.860  -4.335   0.281  1.00  0.00     0.277 HD
HETATM   25  C17 UNL     1      -1.339  -2.372   1.310  1.00  0.00     0.152 C 
ENDBRANCH  11  18
BRANCH   1  26
HETATM   26  N1  UNL     1      -1.748   2.845   0.369  1.00  0.00    -0.226 N 
ATOM     27  H1  UNL     1      -1.349   3.781   0.291  1.00  0.00     0.177 HD
BRANCH  26  28
HETATM   28  C3  UNL     1      -3.115   2.771   0.763  1.00  0.00     0.137 C 
BRANCH  28  29
HETATM   29  C2  UNL     1      -3.804   4.115   0.556  1.00  0.00     0.016 C 
HETATM   30  C1  UNL     1      -3.171   5.213   1.349  1.00  0.00     0.006 C 
ENDBRANCH  28  29
ENDBRANCH  26  28
ENDBRANCH   1  26
TORSDOF 7
