REMARK  11 active torsions:
REMARK  status: ('A' for Active; 'I' for Inactive)
REMARK    1  A    between atoms: C2_2  and  C16_26 
REMARK    2  A    between atoms: N1_3  and  O1_5 
REMARK    3  A    between atoms: O1_5  and  C3_6 
REMARK    4  A    between atoms: C3_6  and  C4_8 
REMARK    5  A    between atoms: C4_8  and  C5_9 
REMARK    6  A    between atoms: C4_8  and  N2_17 
REMARK    7  A    between atoms: C5_9  and  O2_10 
REMARK    8  A    between atoms: O2_10  and  C6_11 
REMARK    9  A    between atoms: C6_11  and  C7_13 
REMARK       I    between atoms: N2_17  and  C11_19 
REMARK   10  A    between atoms: C11_19  and  O5_21 
REMARK   11  A    between atoms: O5_21  and  C12_22 
ROOT
HETATM    1  C4  UNL     1       0.605   0.840   0.141  1.00  0.00     0.061 C 
ENDROOT
BRANCH   1   2
HETATM    2  C3  UNL     1       0.750   1.164  -1.284  1.00  0.00     0.295 C 
HETATM    3 CL1  UNL     1       2.556   1.339  -1.581  1.00  0.00    -0.086 Cl
BRANCH   2   4
HETATM    4  O1  UNL     1       0.230   2.461  -1.568  1.00  0.00    -0.253 OA
BRANCH   4   5
HETATM    5  N1  UNL     1      -0.251   2.685  -2.802  1.00  0.00    -0.263 N 
HETATM    6  C2  UNL     1      -1.082   3.586  -3.165  1.00  0.00     0.104 C 
HETATM    7  C1  UNL     1      -1.450   3.608  -4.620  1.00  0.00     0.078 C 
ATOM      8  H1  UNL     1       0.087   2.063  -3.536  1.00  0.00     0.194 HD
BRANCH   6   9
HETATM    9  C16 UNL     1      -1.638   4.541  -2.229  1.00  0.00     0.224 C 
HETATM   10  O6  UNL     1      -1.315   4.507  -1.030  1.00  0.00    -0.643 OA
HETATM   11  O7  UNL     1      -2.539   5.494  -2.710  1.00  0.00    -0.643 OA
ENDBRANCH   6   9
ENDBRANCH   4   5
ENDBRANCH   2   4
ENDBRANCH   1   2
BRANCH   1  12
HETATM   12  C5  UNL     1      -0.676   1.094   0.848  1.00  0.00     0.235 C 
BRANCH  12  13
HETATM   13  O2  UNL     1      -1.713   0.240   0.759  1.00  0.00    -0.315 OA
BRANCH  13  14
HETATM   14  C6  UNL     1      -2.493  -0.200  -0.245  1.00  0.00     0.266 C 
HETATM   15  O3  UNL     1      -2.271   0.243  -1.396  1.00  0.00    -0.264 OA
BRANCH  14  16
HETATM   16  C7  UNL     1      -3.611  -1.191  -0.049  1.00  0.00     0.037 C 
HETATM   17  C8  UNL     1      -4.298  -1.401  -1.381  1.00  0.00     0.025 C 
HETATM   18  C9  UNL     1      -4.620  -0.724   0.950  1.00  0.00     0.025 C 
HETATM   19  C10 UNL     1      -3.046  -2.536   0.373  1.00  0.00     0.025 C 
ENDBRANCH  14  16
ENDBRANCH  13  14
ENDBRANCH  12  13
ENDBRANCH   1  12
BRANCH   1  20
HETATM   20  N2  UNL     1       1.162  -0.470   0.491  1.00  0.00    -0.304 N 
HETATM   21  C11 UNL     1       2.379  -0.648   1.191  1.00  0.00     0.365 C 
HETATM   22  O4  UNL     1       3.020   0.378   1.532  1.00  0.00    -0.238 OA
ATOM     23  H2  UNL     1       0.642  -1.302   0.214  1.00  0.00     0.171 HD
BRANCH  21  24
HETATM   24  O5  UNL     1       2.908  -1.863   1.523  1.00  0.00    -0.294 OA
BRANCH  24  25
HETATM   25  C12 UNL     1       4.096  -2.104   2.204  1.00  0.00     0.061 C 
HETATM   26  C13 UNL     1       4.267  -3.622   2.344  1.00  0.00     0.046 C 
HETATM   27  C14 UNL     1       5.323  -1.613   1.467  1.00  0.00     0.046 C 
HETATM   28  C15 UNL     1       4.122  -1.519   3.580  1.00  0.00     0.046 C 
ENDBRANCH  24  25
ENDBRANCH  21  24
ENDBRANCH   1  20
TORSDOF 11
