REMARK  12 active torsions:
REMARK  status: ('A' for Active; 'I' for Inactive)
REMARK       I    between atoms: C1_2  and  N3_4 
REMARK    1  A    between atoms: N3_4  and  N4_6 
REMARK    2  A    between atoms: N4_6  and  C2_8 
REMARK    3  A    between atoms: C2_8  and  C11_33 
REMARK    4  A    between atoms: C3_9  and  O1_10 
REMARK    5  A    between atoms: C3_9  and  N5_12 
REMARK    6  A    between atoms: N5_12  and  N6_14 
REMARK    7  A    between atoms: C4_16  and  C5_17 
REMARK    8  A    between atoms: C4_16  and  C7_22 
REMARK    9  A    between atoms: C5_17  and  C6_19 
REMARK   10  A    between atoms: C9_27  and  C10_28 
REMARK   11  A    between atoms: C10_28  and  O7_29 
REMARK   12  A    between atoms: C10_28  and  O8_31 
ROOT
HETATM    1  C2  UNL     1       0.569   1.121  -1.049  1.00  0.00     0.117 C 
HETATM    2  C3  UNL     1      -0.685   0.491  -1.356  1.00  0.00     0.185 C 
ENDROOT
BRANCH   2   3
HETATM    3  O1  UNL     1      -1.608   1.325  -1.806  1.00  0.00    -0.343 OA
ATOM      4  H1  UNL     1      -2.437   0.908  -2.009  1.00  0.00     0.219 HD
ENDBRANCH   2   3
BRANCH   2   5
HETATM    5  N5  UNL     1      -1.071  -0.855  -1.253  1.00  0.00    -0.278 N 
ATOM      6  H5  UNL     1      -0.412  -1.553  -0.908  1.00  0.00     0.189 HD
BRANCH   5   7
HETATM    7  N6  UNL     1      -2.343  -1.226  -1.620  1.00  0.00    -0.293 N 
HETATM    8  C4  UNL     1      -3.441  -1.238  -0.885  1.00  0.00     0.125 C 
ATOM      9  H6  UNL     1      -2.454  -1.532  -2.587  1.00  0.00     0.187 HD
BRANCH   8  10
HETATM   10  C5  UNL     1      -4.586  -1.687  -1.625  1.00  0.00     0.277 C 
HETATM   11  O2  UNL     1      -5.716  -1.820  -1.155  1.00  0.00    -0.278 OA
BRANCH  10  12
HETATM   12  C6  UNL     1      -4.418  -2.023  -3.069  1.00  0.00     0.253 C 
HETATM   13  O3  UNL     1      -3.347  -1.940  -3.683  1.00  0.00    -0.642 OA
HETATM   14  O4  UNL     1      -5.566  -2.458  -3.744  1.00  0.00    -0.642 OA
ENDBRANCH  10  12
ENDBRANCH   8  10
BRANCH   8  15
HETATM   15  C7  UNL     1      -3.262  -0.910   0.514  1.00  0.00     0.077 A 
HETATM   16  S1  UNL     1      -1.691  -1.039   1.344  1.00  0.00    -0.016 SA
HETATM   17  C8  UNL     1      -2.231  -0.725   2.916  1.00  0.00     0.332 A 
HETATM   18  O5  UNL     1      -1.558  -0.674   4.019  1.00  0.00    -0.251 OA
HETATM   19  O6  UNL     1      -3.474  -0.551   2.740  1.00  0.00    -0.268 OA
HETATM   20  C9  UNL     1      -4.024  -0.627   1.594  1.00  0.00     0.131 A 
BRANCH  20  21
HETATM   21  C10 UNL     1      -5.527  -0.373   1.528  1.00  0.00     0.314 C 
BRANCH  21  22
HETATM   22  O7  UNL     1      -5.802   0.735   2.406  1.00  0.00    -0.365 OA
ATOM     23  H7  UNL     1      -6.738   0.893   2.365  1.00  0.00     0.213 HD
ENDBRANCH  21  22
BRANCH  21  24
HETATM   24  O8  UNL     1      -6.229  -1.422   2.056  1.00  0.00    -0.365 OA
ATOM     25  H8  UNL     1      -7.165  -1.264   2.015  1.00  0.00     0.213 HD
ENDBRANCH  21  24
ENDBRANCH  20  21
ENDBRANCH   8  15
ENDBRANCH   5   7
ENDBRANCH   2   5
BRANCH   1  26
HETATM   26  N4  UNL     1       0.601   2.431  -1.276  1.00  0.00    -0.293 N 
ATOM     27  H4  UNL     1      -0.242   2.876  -1.639  1.00  0.00     0.187 HD
BRANCH  26  28
HETATM   28  N3  UNL     1       1.683   3.206  -1.054  1.00  0.00    -0.275 N 
HETATM   29  C1  UNL     1       1.593   4.363  -0.461  1.00  0.00     0.215 C 
HETATM   30  N1  UNL     1       0.350   4.895  -0.001  1.00  0.00    -0.065 NA
HETATM   31  N2  UNL     1       2.773   5.113  -0.289  1.00  0.00    -0.065 NA
ATOM     32  H3  UNL     1       2.599   2.876  -1.359  1.00  0.00     0.189 HD
ENDBRANCH  26  28
ENDBRANCH   1  26
BRANCH   1  33
HETATM   33  C11 UNL     1       1.805   0.530  -0.539  1.00  0.00     0.040 A 
HETATM   34  C12 UNL     1       2.146  -0.709  -0.113  1.00  0.00     0.031 A 
HETATM   35  C13 UNL     1       3.426  -0.936   0.283  1.00  0.00    -0.023 A 
HETATM   36  C14 UNL     1       4.295   0.110   0.226  1.00  0.00     0.077 A 
HETATM   37  C17 UNL     1       4.024  -2.255   0.786  1.00  0.00     0.043 C 
HETATM   38  S2  UNL     1       3.329   1.366  -0.369  1.00  0.00    -0.070 SA
HETATM   39  N7  UNL     1       5.681  -0.030   0.632  1.00  0.00    -0.384 N 
HETATM   40  C15 UNL     1       6.338  -1.305   0.705  1.00  0.00     0.120 C 
ATOM     41  H7  UNL     1       6.208   0.809   0.875  1.00  0.00     0.160 HD
HETATM   42  C16 UNL     1       5.413  -2.354   0.196  1.00  0.00     0.024 C 
ENDBRANCH   1  33
TORSDOF 12
