REMARK  10 active torsions:
REMARK  status: ('A' for Active; 'I' for Inactive)
REMARK    1  A    between atoms: O1_2  and  N1_3 
REMARK    2  A    between atoms: C2_5  and  C3_6 
REMARK    3  A    between atoms: C2_5  and  C6_15 
REMARK    4  A    between atoms: C5_9  and  N2_10 
REMARK    5  A    between atoms: C6_15  and  N4_16 
REMARK    6  A    between atoms: C6_15  and  C17_39 
REMARK    7  A    between atoms: N4_16  and  C7_18 
REMARK    8  A    between atoms: C7_18  and  C9_20 
REMARK       I    between atoms: C9_20  and  N5_22 
REMARK    9  A    between atoms: N8_29  and  N9_30 
REMARK   10  A    between atoms: C13_33  and  C14_34 
ROOT
HETATM    1  N4  UNL     1      -1.646  -0.226  -0.003  1.00  0.00    -0.395 N 
ATOM      2  H4  UNL     1      -1.621   0.480   0.733  1.00  0.00     0.155 HD
ENDROOT
BRANCH   1   3
HETATM    3  C6  UNL     1      -2.854  -0.532  -0.661  1.00  0.00     0.184 C 
BRANCH   3   4
HETATM    4  C2  UNL     1      -3.931   0.382  -0.183  1.00  0.00     0.087 C 
HETATM    5  N1  UNL     1      -4.923  -0.171   0.372  1.00  0.00    -0.267 N 
ATOM      6  H1  UNL     1      -4.859  -1.188   0.411  1.00  0.00     0.194 HD
BRANCH   5   7
HETATM    7  O1  UNL     1      -6.030   0.317   0.913  1.00  0.00    -0.285 OA
HETATM    8  C1  UNL     1      -6.511  -0.052   2.205  1.00  0.00     0.237 C 
ENDBRANCH   5   7
BRANCH   4   9
HETATM    9  C3  UNL     1      -3.786   1.867  -0.363  1.00  0.00     0.068 A 
HETATM   10  C4  UNL     1      -2.691   2.348  -1.050  1.00  0.00     0.085 A 
HETATM   11  S1  UNL     1      -2.919   4.042  -1.001  1.00  0.00    -0.064 SA
HETATM   12  C5  UNL     1      -4.370   4.059  -0.127  1.00  0.00     0.142 A 
HETATM   13  N3  UNL     1      -4.624   2.779   0.095  1.00  0.00    -0.335 N 
ATOM     14  H3  UNL     1      -5.457   2.500   0.614  1.00  0.00     0.168 HD
BRANCH  12  15
HETATM   15  N2  UNL     1      -5.094   5.100   0.254  1.00  0.00    -0.380 N 
ATOM     16  H22 UNL     1      -4.898   6.086   0.083  1.00  0.00     0.158 HD
ATOM     17  H21 UNL     1      -5.968   5.110   0.780  1.00  0.00     0.158 HD
ENDBRANCH  12  15
ENDBRANCH   4   9
ENDBRANCH   3   4
BRANCH   3  18
HETATM   18  C17 UNL     1      -3.324  -1.937  -0.346  1.00  0.00     0.056 A 
HETATM   19  C18 UNL     1      -3.909  -2.772  -1.275  1.00  0.00     0.116 A 
HETATM   20  N11 UNL     1      -4.181  -3.921  -0.646  1.00  0.00    -0.360 N 
HETATM   21  C19 UNL     1      -3.786  -3.819   0.627  1.00  0.00     0.182 A 
ATOM     22  H11 UNL     1      -4.618  -4.740  -1.068  1.00  0.00     0.166 HD
HETATM   23  N12 UNL     1      -3.255  -2.584   0.803  1.00  0.00    -0.348 N 
HETATM   24  C20 UNL     1      -2.699  -2.089   2.056  1.00  0.00     0.157 C 
ENDBRANCH   3  18
ENDBRANCH   1   3
BRANCH   1  25
HETATM   25  C7  UNL     1      -0.472  -0.911  -0.377  1.00  0.00     0.166 C 
HETATM   26  C8  UNL     1       0.016  -0.715  -1.770  1.00  0.00     0.042 C 
BRANCH  25  27
HETATM   27  C9  UNL     1       0.641  -0.599   0.575  1.00  0.00     0.244 C 
HETATM   28  O2  UNL     1       0.371   0.190   1.546  1.00  0.00    -0.271 OA
HETATM   29  N5  UNL     1       1.920  -1.102   0.476  1.00  0.00    -0.322 N 
HETATM   30  C10 UNL     1       3.046  -0.617   0.234  1.00  0.00     0.089 A 
ATOM     31  H5  UNL     1       1.956  -2.108   0.639  1.00  0.00     0.169 HD
HETATM   32  C11 UNL     1       4.135  -1.510   0.227  1.00  0.00     0.118 A 
HETATM   33  C16 UNL     1       3.382   0.690  -0.031  1.00  0.00     0.107 A 
HETATM   34  N6  UNL     1       3.888  -2.886   0.490  1.00  0.00    -0.096 NA
HETATM   35  C12 UNL     1       5.411  -1.124  -0.020  1.00  0.00     0.164 A 
HETATM   36  N7  UNL     1       6.495  -2.060  -0.020  1.00  0.00    -0.079 NA
HETATM   37  N8  UNL     1       5.696   0.187  -0.279  1.00  0.00    -0.241 N 
HETATM   38  C13 UNL     1       4.690   1.080  -0.283  1.00  0.00     0.129 A 
HETATM   39  N10 UNL     1       2.374   1.679  -0.049  1.00  0.00    -0.097 NA
BRANCH  37  40
HETATM   40  N9  UNL     1       7.032   0.510  -0.524  1.00  0.00    -0.337 N 
ATOM     41  H92 UNL     1       7.795  -0.167  -0.521  1.00  0.00     0.177 HD
ATOM     42  H91 UNL     1       7.245   1.489  -0.717  1.00  0.00     0.177 HD
ENDBRANCH  37  40
BRANCH  38  43
HETATM   43  C14 UNL     1       4.939   2.485  -0.555  1.00  0.00     0.176 C 
HETATM   44  C15 UNL     1       6.266   3.076  -0.840  1.00  0.00     0.098 C 
HETATM   45  O3  UNL     1       3.963   3.316  -0.559  1.00  0.00    -0.291 OA
ENDBRANCH  38  43
ENDBRANCH  25  27
ENDBRANCH   1  25
TORSDOF 10
