REMARK  11 active torsions:
REMARK  status: ('A' for Active; 'I' for Inactive)
REMARK    1  A    between atoms: C1_2  and  C2_4 
REMARK    2  A    between atoms: C3_6  and  C4_7 
REMARK    3  A    between atoms: C4_7  and  C5_8 
REMARK    4  A    between atoms: C5_8  and  C6_9 
REMARK    5  A    between atoms: C6_9  and  C7_10 
REMARK    6  A    between atoms: C7_10  and  N2_11 
REMARK    7  A    between atoms: N2_11  and  C8_13 
REMARK    8  A    between atoms: C12_22  and  S2_23 
REMARK    9  A    between atoms: S2_23  and  C13_24 
REMARK   10  A    between atoms: C15_29  and  N7_30 
REMARK   11  A    between atoms: N7_30  and  C16_32 
ROOT
HETATM    1  C2  UNL     1      -1.160   1.798   0.513  1.00  0.00     0.089 A 
HETATM    2  S1  UNL     1       0.208   1.562  -0.471  1.00  0.00    -0.086 SA
HETATM    3  C3  UNL     1       0.316  -0.126  -0.399  1.00  0.00     0.009 A 
HETATM    4  C11 UNL     1      -0.735  -0.481   0.405  1.00  0.00     0.078 A 
HETATM    5  N5  UNL     1      -0.937  -1.902   0.677  1.00  0.00    -0.100 NA
HETATM    6  C12 UNL     1      -1.511   0.520   0.885  1.00  0.00     0.053 A 
ENDROOT
BRANCH   6   7
HETATM    7  S2  UNL     1      -2.968   0.331   1.965  1.00  0.00    -0.081 SA
BRANCH   7   8
HETATM    8  C13 UNL     1      -3.327  -1.324   2.385  1.00  0.00     0.076 A 
HETATM    9  C14 UNL     1      -2.849  -2.030   3.468  1.00  0.00     0.137 A 
HETATM   10  N6  UNL     1      -3.394  -3.259   3.406  1.00  0.00    -0.269 N 
HETATM   11  O2  UNL     1      -4.153  -3.333   2.376  1.00  0.00    -0.219 OA
ATOM     12  H6  UNL     1      -3.229  -4.013   4.073  1.00  0.00     0.194 HD
HETATM   13  C15 UNL     1      -4.157  -2.181   1.706  1.00  0.00     0.191 A 
BRANCH  13  14
HETATM   14  N7  UNL     1      -4.921  -2.002   0.524  1.00  0.00    -0.305 N 
ATOM     15  H7  UNL     1      -5.474  -2.792   0.191  1.00  0.00     0.171 HD
BRANCH  14  16
HETATM   16  C16 UNL     1      -4.967  -0.803  -0.224  1.00  0.00     0.194 C 
HETATM   17  N8  UNL     1      -5.619   0.258   0.056  1.00  0.00    -0.346 N 
HETATM   18  C17 UNL     1      -5.430   1.286  -0.940  1.00  0.00     0.259 C 
ATOM     19  H8  UNL     1      -6.204   0.367   0.885  1.00  0.00     0.163 HD
HETATM   20  N9  UNL     1      -4.295   0.828  -1.698  1.00  0.00    -0.119 NA
HETATM   21  N10 UNL     1      -4.286  -0.559  -1.444  1.00  0.00    -0.274 N 
ATOM     22  H10 UNL     1      -3.860  -1.269  -2.039  1.00  0.00     0.185 HD
ENDBRANCH  14  16
ENDBRANCH  13  14
ENDBRANCH   7   8
ENDBRANCH   6   7
BRANCH   1  23
HETATM   23  C1  UNL     1      -1.809   3.077   0.875  1.00  0.00     0.273 C 
HETATM   24  N1  UNL     1      -1.244   4.260   0.353  1.00  0.00    -0.057 NA
HETATM   25  O1  UNL     1      -2.802   3.125   1.601  1.00  0.00    -0.270 OA
ENDBRANCH   1  23
BRANCH   3  26
HETATM   26  C4  UNL     1       1.326  -0.995  -1.072  1.00  0.00     0.048 C 
BRANCH  26  27
HETATM   27  C5  UNL     1       2.363  -1.508  -0.077  1.00  0.00     0.007 C 
BRANCH  27  28
HETATM   28  C6  UNL     1       3.364  -2.384  -0.754  1.00  0.00     0.020 C 
BRANCH  28  29
HETATM   29  C7  UNL     1       4.165  -1.672  -1.786  1.00  0.00     0.122 C 
BRANCH  29  30
HETATM   30  N2  UNL     1       5.048  -0.673  -1.298  1.00  0.00    -0.362 N 
ATOM     31  H2  UNL     1       6.042  -0.891  -1.367  1.00  0.00     0.162 HD
BRANCH  30  32
HETATM   32  C8  UNL     1       4.736   0.578  -0.731  1.00  0.00     0.171 C 
HETATM   33  N3  UNL     1       4.041   1.575  -1.181  1.00  0.00    -0.361 N 
HETATM   34  C9  UNL     1       3.981   2.668  -0.257  1.00  0.00     0.142 C 
ATOM     35  H3  UNL     1       3.586   1.581  -2.094  1.00  0.00     0.162 HD
HETATM   36  C10 UNL     1       5.159   2.401   0.649  1.00  0.00     0.142 C 
HETATM   37  N4  UNL     1       5.241   0.957   0.574  1.00  0.00    -0.361 N 
ATOM     38  H4  UNL     1       5.587   0.328   1.299  1.00  0.00     0.162 HD
ENDBRANCH  30  32
ENDBRANCH  29  30
ENDBRANCH  28  29
ENDBRANCH  27  28
ENDBRANCH  26  27
ENDBRANCH   3  26
TORSDOF 11
