REMARK  6 active torsions:
REMARK  status: ('A' for Active; 'I' for Inactive)
REMARK    1  A    between atoms: N3_4  and  C2_6 
REMARK    2  A    between atoms: C2_6  and  C3_7 
REMARK    3  A    between atoms: C3_7  and  C4_8 
REMARK    4  A    between atoms: C4_8  and  N4_9 
REMARK    5  A    between atoms: N5_12  and  C7_13 
REMARK    6  A    between atoms: C7_13  and  C8_14 
ROOT
HETATM    1  N4  UNL     1       0.939  -0.895  -0.371  1.00  0.00     0.091 N 
HETATM    2  C5  UNL     1       0.422  -0.436   0.899  1.00  0.00     0.302 C 
HETATM    3  C6  UNL     1      -1.037  -0.807   1.076  1.00  0.00     0.303 C 
HETATM    4  N5  UNL     1      -1.646  -1.355  -0.091  1.00  0.00     0.096 N 
HETATM    5  C14 UNL     1      -0.888  -2.405  -0.714  1.00  0.00     0.303 C 
HETATM    6  C15 UNL     1       0.579  -2.322  -0.458  1.00  0.00     0.302 C 
ENDROOT
BRANCH   1   7
HETATM    7  C4  UNL     1       2.373  -0.748  -0.400  1.00  0.00     0.274 C 
BRANCH   7   8
HETATM    8  C3  UNL     1       2.780   0.701  -0.428  1.00  0.00     0.050 C 
BRANCH   8   9
HETATM    9  C2  UNL     1       4.294   0.819  -0.471  1.00  0.00     0.123 C 
BRANCH   9  10
HETATM   10  N3  UNL     1       4.757   2.172  -0.497  1.00  0.00    -0.367 N 
HETATM   11  C1  UNL     1       4.719   2.945  -1.524  1.00  0.00     0.196 C 
HETATM   12  N1  UNL     1       4.174   2.415  -2.735  1.00  0.00    -0.067 NA
HETATM   13  N2  UNL     1       5.208   4.296  -1.467  1.00  0.00    -0.067 NA
ATOM     14  H3  UNL     1       5.147   2.553   0.365  1.00  0.00     0.161 HD
ENDBRANCH   9  10
ENDBRANCH   8   9
ENDBRANCH   7   8
ENDBRANCH   1   7
BRANCH   4  15
HETATM   15  C7  UNL     1      -2.938  -1.904   0.269  1.00  0.00     0.311 C 
BRANCH  15  16
HETATM   16  C8  UNL     1      -3.888  -0.922   0.801  1.00  0.00    -0.030 A 
HETATM   17  C9  UNL     1      -4.720  -1.323   1.852  1.00  0.00     0.009 A 
HETATM   18  C10 UNL     1      -5.623  -0.399   2.353  1.00  0.00     0.001 A 
HETATM   19  C11 UNL     1      -5.744   0.869   1.881  1.00  0.00     0.000 A 
HETATM   20  C12 UNL     1      -4.920   1.256   0.846  1.00  0.00     0.001 A 
HETATM   21  C13 UNL     1      -4.004   0.368   0.315  1.00  0.00     0.009 A 
ENDBRANCH  15  16
ENDBRANCH   4  15
TORSDOF 6
