REMARK  8 active torsions:
REMARK  status: ('A' for Active; 'I' for Inactive)
REMARK    1  A    between atoms: N2_7  and  C4_8 
REMARK    2  A    between atoms: C4_8  and  O1_9 
REMARK    3  A    between atoms: O1_9  and  C5_10 
REMARK    4  A    between atoms: C5_10  and  C6_11 
REMARK    5  A    between atoms: C6_11  and  N3_12 
REMARK    6  A    between atoms: N3_12  and  C7_15 
REMARK    7  A    between atoms: C7_15  and  C8_16 
REMARK    8  A    between atoms: C9_17  and  C10_18 
ROOT
HETATM    1  C5  UNL     1       1.303   1.184  -0.209  1.00  0.00     0.197 C 
ENDROOT
BRANCH   1   2
HETATM    2  O1  UNL     1       2.658   1.057  -0.085  1.00  0.00    -0.370 OA
BRANCH   2   3
HETATM    3  C4  UNL     1       3.178  -0.102  -0.634  1.00  0.00     0.298 C 
BRANCH   3   4
HETATM    4  N2  UNL     1       4.611  -0.075  -0.417  1.00  0.00    -0.331 N 
HETATM    5  C3  UNL     1       5.468   0.470  -1.301  1.00  0.00     0.098 A 
HETATM    6  C2  UNL     1       6.815   0.453  -1.016  1.00  0.00     0.065 A 
HETATM    7  C1  UNL     1       7.268  -0.113   0.155  1.00  0.00     0.100 A 
HETATM    8  N1  UNL     1       8.542  -0.117   0.403  1.00  0.00    -0.385 N 
HETATM    9  N4  UNL     1       6.393  -0.650   1.021  1.00  0.00    -0.339 N 
ATOM     10  H12 UNL     1       9.207   0.291  -0.255  1.00  0.00     0.157 HD
ATOM     11  H11 UNL     1       8.877  -0.536   1.270  1.00  0.00     0.157 HD
HETATM   12  C16 UNL     1       5.078  -0.622   0.719  1.00  0.00     0.186 A 
ATOM     13  H4  UNL     1       6.717  -1.072   1.892  1.00  0.00     0.168 HD
ENDBRANCH   3   4
ENDBRANCH   2   3
ENDBRANCH   1   2
BRANCH   1  14
HETATM   14  C6  UNL     1       0.513   0.080   0.447  1.00  0.00     0.259 C 
BRANCH  14  15
HETATM   15  N3  UNL     1      -0.900   0.339   0.240  1.00  0.00    -0.063 N 
ATOM     16  H32 UNL     1      -1.187   1.264   0.560  1.00  0.00     0.278 HD
ATOM     17  H31 UNL     1      -1.144   0.457  -0.743  1.00  0.00     0.278 HD
BRANCH  15  18
HETATM   18  C7  UNL     1      -1.643  -0.747   0.888  1.00  0.00     0.326 C 
BRANCH  18  19
HETATM   19  C8  UNL     1      -3.086  -0.557   0.723  1.00  0.00    -0.073 C 
HETATM   20  C9  UNL     1      -4.272  -0.395   0.569  1.00  0.00    -0.065 C 
BRANCH  20  21
HETATM   21  C10 UNL     1      -5.694  -0.186   0.362  1.00  0.00     0.017 A 
HETATM   22  C11 UNL     1      -6.533   0.117   1.413  1.00  0.00     0.020 A 
HETATM   23  C12 UNL     1      -7.881   0.312   1.199  1.00  0.00     0.001 A 
HETATM   24  C13 UNL     1      -8.405   0.204  -0.087  1.00  0.00     0.000 A 
HETATM   25  C14 UNL     1      -7.588  -0.097  -1.154  1.00  0.00     0.001 A 
HETATM   26  C15 UNL     1      -6.247  -0.285  -0.897  1.00  0.00     0.020 A 
ENDBRANCH  20  21
ENDBRANCH  18  19
ENDBRANCH  15  18
ENDBRANCH  14  15
ENDBRANCH   1  14
TORSDOF 8
