REMARK  9 active torsions:
REMARK  status: ('A' for Active; 'I' for Inactive)
REMARK    1  A    between atoms: C3_6  and  N3_7 
REMARK    2  A    between atoms: N3_7  and  C4_9 
REMARK    3  A    between atoms: C4_9  and  C5_10 
REMARK    4  A    between atoms: C5_10  and  N4_11 
REMARK    5  A    between atoms: C6_17  and  N6_18 
REMARK    6  A    between atoms: N6_18  and  C7_20 
REMARK    7  A    between atoms: C7_20  and  C8_21 
REMARK    8  A    between atoms: C8_21  and  C9_22 
REMARK    9  A    between atoms: C9_22  and  C10_23 
ROOT
HETATM    1  C1  UNL     1       0.320  -2.491   1.049  1.00  0.00     0.176 C 
HETATM    2  N1  UNL     1       1.336  -1.479   0.871  1.00  0.00    -0.183 N 
HETATM    3  C2  UNL     1       2.597  -1.703   1.305  1.00  0.00     0.217 A 
HETATM    4  N2  UNL     1       3.556  -0.748   1.137  1.00  0.00    -0.187 N 
ATOM      5  H2  UNL     1       4.509  -0.911   1.462  1.00  0.00     0.185 HD
HETATM    6  C3  UNL     1       3.231   0.407   0.539  1.00  0.00     0.693 A 
HETATM    7  N5  UNL     1       1.940   0.592   0.114  1.00  0.00    -0.022 N 
ATOM      8  H5  UNL     1       1.698   1.473  -0.341  1.00  0.00     0.203 HD
HETATM    9  C6  UNL     1       0.983  -0.331   0.269  1.00  0.00     0.695 A 
ENDROOT
BRANCH   9  10
HETATM   10  N6  UNL     1      -0.225  -0.171  -0.124  1.00  0.00    -0.225 N 
ATOM     11  H6  UNL     1      -0.875  -0.939   0.042  1.00  0.00     0.177 HD
BRANCH  10  12
HETATM   12  C7  UNL     1      -0.739   0.991  -0.775  1.00  0.00     0.138 C 
BRANCH  12  13
HETATM   13  C8  UNL     1      -2.204   1.132  -0.352  1.00  0.00     0.025 C 
BRANCH  13  14
HETATM   14  C9  UNL     1      -2.963  -0.126  -0.789  1.00  0.00     0.040 C 
BRANCH  14  15
HETATM   15  C10 UNL     1      -4.372  -0.007  -0.390  1.00  0.00    -0.058 A 
HETATM   16  C11 UNL     1      -5.295   0.565  -1.247  1.00  0.00     0.007 A 
HETATM   17  C12 UNL     1      -6.623   0.679  -0.877  1.00  0.00     0.001 A 
HETATM   18  C13 UNL     1      -7.081   0.232   0.347  1.00  0.00     0.000 A 
HETATM   19  C14 UNL     1      -6.167  -0.342   1.212  1.00  0.00     0.001 A 
HETATM   20  C15 UNL     1      -4.844  -0.452   0.836  1.00  0.00     0.007 A 
ENDBRANCH  14  15
ENDBRANCH  13  14
ENDBRANCH  12  13
ENDBRANCH  10  12
ENDBRANCH   9  10
BRANCH   6  21
HETATM   21  N3  UNL     1       4.104   1.314   0.369  1.00  0.00    -0.224 N 
ATOM     22  H3  UNL     1       3.779   2.163  -0.094  1.00  0.00     0.177 HD
BRANCH  21  23
HETATM   23  C4  UNL     1       5.476   1.299   0.741  1.00  0.00     0.165 C 
BRANCH  23  24
HETATM   24  C5  UNL     1       6.366   0.995  -0.473  1.00  0.00     0.249 C 
BRANCH  24  25
HETATM   25  N4  UNL     1       6.048  -0.294  -1.052  1.00  0.00    -0.078 N 
ATOM     26  H43 UNL     1       6.097  -1.039  -0.357  1.00  0.00     0.274 HD
ATOM     27  H42 UNL     1       5.058  -0.364  -1.287  1.00  0.00     0.274 HD
ATOM     28  H41 UNL     1       6.639  -0.496  -1.858  1.00  0.00     0.274 HD
ENDBRANCH  24  25
ENDBRANCH  23  24
ENDBRANCH  21  23
ENDBRANCH   6  21
TORSDOF 9
