REMARK  9 active torsions:
REMARK  status: ('A' for Active; 'I' for Inactive)
REMARK    1  A    between atoms: C2_2  and  C3_3 
REMARK    2  A    between atoms: C3_3  and  N1_4 
REMARK    3  A    between atoms: N1_4  and  C4_6 
REMARK    4  A    between atoms: C7_9  and  C8_10 
REMARK    5  A    between atoms: C8_10  and  C9_11 
REMARK    6  A    between atoms: C9_11  and  N2_12 
REMARK    7  A    between atoms: N2_12  and  C10_14 
REMARK    8  A    between atoms: C13_19  and  N4_20 
REMARK    9  A    between atoms: N4_20  and  C14_22 
ROOT
HETATM    1  C9  UNL     1      -1.449  -2.379   0.159  1.00  0.00     0.142 C 
ENDROOT
BRANCH   1   2
HETATM    2  C8  UNL     1      -0.153  -2.925  -0.389  1.00  0.00     0.060 C 
BRANCH   2   3
HETATM    3  C7  UNL     1       1.018  -2.112  -0.018  1.00  0.00    -0.041 A 
HETATM    4  C6  UNL     1       1.761  -2.321   1.125  1.00  0.00     0.012 A 
HETATM    5  C5  UNL     1       2.845  -1.516   1.403  1.00  0.00     0.049 A 
HETATM    6  C4  UNL     1       3.208  -0.493   0.555  1.00  0.00     0.101 A 
HETATM    7  N6  UNL     1       2.478  -0.297  -0.554  1.00  0.00    -0.352 N 
HETATM    8  C15 UNL     1       1.421  -1.078  -0.832  1.00  0.00     0.096 A 
ATOM      9  H6  UNL     1       2.729   0.456  -1.195  1.00  0.00     0.166 HD
BRANCH   6  10
HETATM   10  N1  UNL     1       4.231   0.236   0.858  1.00  0.00    -0.373 N 
ATOM     11  H1  UNL     1       4.742   0.035   1.717  1.00  0.00     0.161 HD
BRANCH  10  12
HETATM   12  C3  UNL     1       4.677   1.332   0.016  1.00  0.00     0.147 C 
BRANCH  12  13
HETATM   13  C2  UNL     1       6.004   1.751   0.509  1.00  0.00    -0.018 C 
HETATM   14  C1  UNL     1       6.198   2.969   0.934  1.00  0.00     0.008 C 
ENDBRANCH  12  13
ENDBRANCH  10  12
ENDBRANCH   6  10
ENDBRANCH   2   3
ENDBRANCH   1   2
BRANCH   1  15
HETATM   15  N2  UNL     1      -1.649  -1.047  -0.357  1.00  0.00    -0.226 N 
ATOM     16  H2  UNL     1      -0.900  -0.599  -0.885  1.00  0.00     0.177 HD
BRANCH  15  17
HETATM   17  C10 UNL     1      -2.759  -0.407  -0.165  1.00  0.00     0.679 A 
HETATM   18  N3  UNL     1      -3.735  -1.011   0.533  1.00  0.00    -0.202 N 
HETATM   19  C11 UNL     1      -4.935  -0.410   0.781  1.00  0.00     0.110 A 
ATOM     20  H3  UNL     1      -3.573  -1.953   0.890  1.00  0.00     0.183 HD
HETATM   21  C12 UNL     1      -5.142   0.860   0.295  1.00  0.00     0.067 A 
HETATM   22  C13 UNL     1      -4.138   1.465  -0.415  1.00  0.00     0.124 A 
HETATM   23  N5  UNL     1      -2.965   0.827  -0.634  1.00  0.00    -0.177 N 
ATOM     24  H5  UNL     1      -2.229   1.294  -1.164  1.00  0.00     0.186 HD
BRANCH  22  25
HETATM   25  N4  UNL     1      -4.306   2.643  -0.875  1.00  0.00    -0.320 N 
ATOM     26  H4  UNL     1      -3.561   3.097  -1.404  1.00  0.00     0.169 HD
BRANCH  25  27
HETATM   27  C14 UNL     1      -5.531   3.318  -0.649  1.00  0.00     0.354 C 
HETATM   28  O1  UNL     1      -5.728   3.971   0.413  1.00  0.00    -0.283 OA
ENDBRANCH  25  27
ENDBRANCH  22  25
ENDBRANCH  15  17
ENDBRANCH   1  15
TORSDOF 9
