REMARK  7 active torsions:
REMARK  status: ('A' for Active; 'I' for Inactive)
REMARK       I    between atoms: C1_2  and  N3_4 
REMARK    1  A    between atoms: N3_4  and  C2_6 
REMARK    2  A    between atoms: C2_6  and  C3_7 
REMARK    3  A    between atoms: C3_7  and  N4_8 
REMARK       I    between atoms: N4_8  and  C4_10 
REMARK       I    between atoms: C4_10  and  N6_14 
REMARK    4  A    between atoms: C6_17  and  C7_18 
REMARK    5  A    between atoms: N7_19  and  N8_21 
REMARK       I    between atoms: N8_21  and  C8_22 
REMARK    6  A    between atoms: C9_28  and  C10_29 
REMARK    7  A    between atoms: N12_31  and  N13_32 
ROOT
HETATM    1  N4  UNL     1       1.677   0.876   0.066  1.00  0.00    -0.222 N 
ATOM      2  H4  UNL     1       1.632   1.629  -0.620  1.00  0.00     0.178 HD
HETATM    3  C4  UNL     1       0.854   0.740   0.995  1.00  0.00     0.673 C 
HETATM    4  N5  UNL     1       0.014   0.545   1.998  1.00  0.00    -0.235 N 
ATOM      5  H51 UNL     1      -0.658   0.434   2.757  1.00  0.00     0.174 HD
ATOM      6  H52 UNL     1       0.035   1.534   2.246  1.00  0.00     0.174 HD
HETATM    7  N6  UNL     1       0.818  -0.994   0.560  1.00  0.00    -0.177 N 
ATOM      8  H6  UNL     1       1.534  -1.711   0.676  1.00  0.00     0.185 HD
HETATM    9  C5  UNL     1      -0.394  -1.086   0.047  1.00  0.00     0.152 C 
HETATM   10  C6  UNL     1      -1.489  -0.194  -0.194  1.00  0.00     0.298 C 
HETATM   11  N11 UNL     1      -2.692  -1.102  -0.028  1.00  0.00    -0.030 N 
ATOM     12 1H11 UNL     1      -3.574  -0.739  -0.389  1.00  0.00     0.281 HD
ATOM     13 2H11 UNL     1      -3.032  -1.216   0.927  1.00  0.00     0.281 HD
HETATM   14  C9  UNL     1      -2.187  -2.334  -0.683  1.00  0.00     0.370 C 
HETATM   15  N12 UNL     1      -0.850  -2.428  -0.259  1.00  0.00    -0.246 N 
ENDROOT
BRANCH  10  16
HETATM   16  C7  UNL     1      -1.562   0.411  -1.561  1.00  0.00     0.135 C 
HETATM   17  N7  UNL     1      -2.386   1.264  -1.789  1.00  0.00    -0.246 N 
ATOM     18  H7  UNL     1      -2.336   1.599  -2.751  1.00  0.00     0.200 HD
BRANCH  17  19
HETATM   19  N8  UNL     1      -3.335   1.869  -1.101  1.00  0.00    -0.295 NA
HETATM   20  C8  UNL     1      -4.415   2.296  -0.708  1.00  0.00     0.298 C 
HETATM   21  N9  UNL     1      -5.659   2.036  -1.315  1.00  0.00    -0.051 NA
HETATM   22  N10 UNL     1      -4.464   3.204   0.406  1.00  0.00    -0.051 NA
ENDBRANCH  17  19
ENDBRANCH  10  16
BRANCH  15  23
HETATM   23  N13 UNL     1      -0.013  -3.639  -0.128  1.00  0.00    -0.339 N 
ATOM     24 2H13 UNL     1       0.957  -3.707   0.180  1.00  0.00     0.177 HD
ATOM     25 1H13 UNL     1      -0.334  -4.583  -0.343  1.00  0.00     0.177 HD
ENDBRANCH  15  23
BRANCH  14  26
HETATM   26  C10 UNL     1      -3.017  -3.426  -0.315  1.00  0.00     0.287 C 
HETATM   27  O1  UNL     1      -4.256  -3.179  -0.441  1.00  0.00    -0.303 OA
ENDBRANCH  14  26
BRANCH   1  28
HETATM   28  C3  UNL     1       2.759  -0.205   0.065  1.00  0.00     0.182 C 
BRANCH  28  29
HETATM   29  C2  UNL     1       3.729  -0.033  -0.984  1.00  0.00     0.083 C 
BRANCH  29  30
HETATM   30  N3  UNL     1       4.523   1.163  -0.949  1.00  0.00    -0.345 N 
HETATM   31  C1  UNL     1       5.371   1.290   0.011  1.00  0.00     0.200 C 
HETATM   32  N1  UNL     1       6.147   2.511  -0.023  1.00  0.00    -0.067 NA
HETATM   33  N2  UNL     1       5.618   0.410   1.085  1.00  0.00    -0.067 NA
ATOM     34  H3  UNL     1       4.419   1.887  -1.660  1.00  0.00     0.167 HD
ENDBRANCH  29  30
ENDBRANCH  28  29
ENDBRANCH   1  28
TORSDOF 7
