REMARK  6 active torsions:
REMARK  status: ('A' for Active; 'I' for Inactive)
REMARK       I    between atoms: C1_2  and  N5_14 
REMARK       I    between atoms: N2_3  and  C2_5 
REMARK       I    between atoms: C2_5  and  N3_6 
REMARK       I    between atoms: C2_5  and  N4_10 
REMARK    1  A    between atoms: N5_14  and  C3_16 
REMARK    2  A    between atoms: C3_16  and  C4_17 
REMARK    3  A    between atoms: C4_17  and  N6_18 
REMARK    4  A    between atoms: N6_18  and  C5_19 
REMARK    5  A    between atoms: N6_18  and  S1_29 
REMARK    6  A    between atoms: S1_29  and  N9_30 
ROOT
HETATM    1  C4  UNL     1      -0.368   0.949   0.255  1.00  0.00     0.129 C 
ENDROOT
BRANCH   1   2
HETATM    2  C3  UNL     1       0.726   1.707  -0.465  1.00  0.00     0.138 C 
BRANCH   2   3
HETATM    3  N5  UNL     1       1.993   1.376   0.111  1.00  0.00    -0.363 N 
HETATM    4  C1  UNL     1       2.691   0.153   0.027  1.00  0.00     0.186 C 
HETATM    5  N1  UNL     1       2.093  -1.137   0.007  1.00  0.00    -0.064 NA
HETATM    6  N2  UNL     1       3.974   0.231  -0.037  1.00  0.00    -0.315 N 
HETATM    7  C2  UNL     1       4.911  -0.832  -0.128  1.00  0.00     0.482 C 
ATOM      8  H2  UNL     1       4.366   1.172  -0.020  1.00  0.00     0.165 HD
HETATM    9  N3  UNL     1       4.350  -1.951  -0.809  1.00  0.00    -0.033 N 
HETATM   10  N4  UNL     1       6.082  -0.299  -0.835  1.00  0.00    -0.033 N 
ATOM     11  H33 UNL     1       3.477  -2.255  -0.377  1.00  0.00     0.278 HD
ATOM     12  H32 UNL     1       3.987  -1.690  -1.726  1.00  0.00     0.278 HD
ATOM     13  H31 UNL     1       5.023  -2.715  -0.874  1.00  0.00     0.278 HD
ATOM     14  H43 UNL     1       5.853   0.116  -1.738  1.00  0.00     0.278 HD
ATOM     15  H42 UNL     1       6.466   0.541  -0.403  1.00  0.00     0.278 HD
ATOM     16  H41 UNL     1       6.755  -1.063  -0.900  1.00  0.00     0.278 HD
ATOM     17  H5  UNL     1       2.447   2.115   0.648  1.00  0.00     0.162 HD
ENDBRANCH   2   3
ENDBRANCH   1   2
BRANCH   1  18
HETATM   18  N6  UNL     1      -1.662   1.229  -0.256  1.00  0.00    -0.177 NA
BRANCH  18  19
HETATM   19  C5  UNL     1      -2.514   0.106  -0.287  1.00  0.00     0.186 C 
HETATM   20  C6  UNL     1      -2.054  -1.144   0.404  1.00  0.00     0.154 C 
HETATM   21  N7  UNL     1      -3.236  -2.029   0.459  1.00  0.00    -0.341 N 
HETATM   22  C7  UNL     1      -4.071  -2.200  -0.669  1.00  0.00     0.322 C 
ATOM     23  H7  UNL     1      -3.453  -2.524   1.324  1.00  0.00     0.164 HD
HETATM   24  O1  UNL     1      -4.964  -3.084  -0.743  1.00  0.00    -0.247 OA
HETATM   25  N8  UNL     1      -3.888  -1.323  -1.783  1.00  0.00    -0.278 N 
HETATM   26  C8  UNL     1      -2.874  -0.328  -1.686  1.00  0.00     0.246 C 
ATOM     27  H8  UNL     1      -4.465  -1.407  -2.620  1.00  0.00     0.173 HD
HETATM   28  O2  UNL     1      -2.303   0.167  -2.678  1.00  0.00    -0.271 OA
ENDBRANCH  18  19
BRANCH  18  29
HETATM   29  S1  UNL     1      -2.427   2.558   0.534  1.00  0.00     0.297 S 
HETATM   30  O3  UNL     1      -1.415   3.490   1.145  1.00  0.00    -0.189 OA
HETATM   31  O4  UNL     1      -3.353   3.263  -0.407  1.00  0.00    -0.189 OA
BRANCH  29  32
HETATM   32  N9  UNL     1      -3.361   1.942   1.849  1.00  0.00    -0.316 N 
ATOM     33  H92 UNL     1      -3.437   0.957   2.103  1.00  0.00     0.170 HD
ATOM     34  H91 UNL     1      -3.813   2.728   2.316  1.00  0.00     0.170 HD
ENDBRANCH  29  32
ENDBRANCH  18  29
ENDBRANCH   1  18
TORSDOF 6
