REMARK  10 active torsions:
REMARK  status: ('A' for Active; 'I' for Inactive)
REMARK       I    between atoms: C1_4  and  N3_6 
REMARK    1  A    between atoms: N3_6  and  C2_8 
REMARK    2  A    between atoms: C2_8  and  C3_9 
REMARK    3  A    between atoms: C4_10  and  O1_11 
REMARK    4  A    between atoms: C6_15  and  C7_16 
REMARK    5  A    between atoms: C7_16  and  N5_18 
REMARK    6  A    between atoms: N5_18  and  C8_20 
REMARK    7  A    between atoms: C8_20  and  C9_21 
REMARK    8  A    between atoms: C9_21  and  C10_22 
REMARK    9  A    between atoms: C10_22  and  C11_23 
REMARK   10  A    between atoms: N6_24  and  N7_26 
ROOT
HETATM    1  C3  UNL     1       4.017   1.332  -0.523  1.00  0.00     0.034 A 
HETATM    2  C4  UNL     1       3.644   1.578  -1.776  1.00  0.00     0.129 A 
HETATM    3  C5  UNL     1       2.397   1.852  -1.662  1.00  0.00     0.220 A 
HETATM    4  O2  UNL     1       1.503   2.181  -2.515  1.00  0.00    -0.284 OA
HETATM    5  C6  UNL     1       2.430   1.669  -0.357  1.00  0.00     0.072 A 
ENDROOT
BRANCH   5   6
HETATM    6  C7  UNL     1       1.595   1.581   0.608  1.00  0.00     0.131 C 
HETATM    7  N4  UNL     1       1.903   1.081   1.950  1.00  0.00    -0.082 NA
BRANCH   6   8
HETATM    8  N5  UNL     1       0.204   1.939   0.547  1.00  0.00    -0.357 N 
ATOM      9  H5  UNL     1      -0.055   2.741   1.121  1.00  0.00     0.166 HD
BRANCH   8  10
HETATM   10  C8  UNL     1      -0.851   1.368  -0.170  1.00  0.00     0.062 C 
BRANCH  10  11
HETATM   11  C9  UNL     1      -1.251  -0.054   0.239  1.00  0.00     0.049 C 
BRANCH  11  12
HETATM   12  C10 UNL     1      -2.449  -0.454  -0.617  1.00  0.00     0.051 C 
BRANCH  12  13
HETATM   13  C11 UNL     1      -2.939  -1.798  -0.312  1.00  0.00     0.080 C 
HETATM   14  N6  UNL     1      -4.096  -2.002   0.152  1.00  0.00    -0.314 N 
ATOM     15  H6  UNL     1      -4.417  -2.950   0.348  1.00  0.00     0.185 HD
BRANCH  14  16
HETATM   16  N7  UNL     1      -4.937  -0.895   0.394  1.00  0.00    -0.277 N 
HETATM   17  C12 UNL     1      -6.195  -0.887   0.111  1.00  0.00     0.215 C 
HETATM   18  N8  UNL     1      -7.059   0.219   0.346  1.00  0.00    -0.065 NA
HETATM   19  N9  UNL     1      -6.798  -2.001  -0.452  1.00  0.00    -0.065 NA
ATOM     20  H7  UNL     1      -4.529  -0.059   0.814  1.00  0.00     0.189 HD
ENDBRANCH  14  16
ENDBRANCH  12  13
ENDBRANCH  11  12
ENDBRANCH  10  11
ENDBRANCH   8  10
ENDBRANCH   6   8
ENDBRANCH   5   6
BRANCH   1  21
HETATM   21  C2  UNL     1       4.375   1.107   0.720  1.00  0.00     0.106 C 
BRANCH  21  22
HETATM   22  N3  UNL     1       5.116   0.027   1.194  1.00  0.00    -0.340 N 
HETATM   23  C1  UNL     1       5.121  -1.327   0.798  1.00  0.00     0.185 C 
HETATM   24  N1  UNL     1       4.560  -2.189   1.539  1.00  0.00    -0.374 N 
HETATM   25  N2  UNL     1       5.772  -1.693  -0.403  1.00  0.00    -0.064 NA
ATOM     26  H12 UNL     1       4.564  -3.168   1.253  1.00  0.00     0.158 HD
ATOM     27  H11 UNL     1       4.090  -1.925   2.405  1.00  0.00     0.158 HD
ATOM     28  H3  UNL     1       5.761   0.252   1.952  1.00  0.00     0.167 HD
ENDBRANCH  21  22
ENDBRANCH   1  21
BRANCH   2  29
HETATM   29  O1  UNL     1       4.478   1.519  -2.837  1.00  0.00    -0.356 OA
ATOM     30  H1  UNL     1       4.212   1.695  -3.732  1.00  0.00     0.218 HD
ENDBRANCH   2  29
TORSDOF 10
