REMARK  7 active torsions:
REMARK  status: ('A' for Active; 'I' for Inactive)
REMARK    1  A    between atoms: N3_4  and  C2_6 
REMARK    2  A    between atoms: C2_6  and  C3_7 
REMARK    3  A    between atoms: C3_7  and  C4_8 
REMARK    4  A    between atoms: C4_8  and  N4_9 
REMARK    5  A    between atoms: C4_8  and  C5_13 
REMARK    6  A    between atoms: C5_13  and  N5_14 
REMARK    7  A    between atoms: C8_23  and  C9_24 
REMARK       I    between atoms: C9_24  and  N8_26 
ROOT
HETATM    1  N5  UNL     1      -0.994  -0.926  -1.503  1.00  0.00    -0.276 N 
HETATM    2  N6  UNL     1      -0.429  -1.364  -2.644  1.00  0.00    -0.248 N 
ATOM      3  H6  UNL     1       0.543  -1.138  -2.854  1.00  0.00     0.192 HD
HETATM    4  C6  UNL     1      -1.147  -2.094  -3.497  1.00  0.00     0.341 A 
HETATM    5  O1  UNL     1      -0.595  -2.501  -4.573  1.00  0.00    -0.245 OA
HETATM    6  N7  UNL     1      -2.434  -2.395  -3.226  1.00  0.00    -0.272 N 
ATOM      7  H7  UNL     1      -2.980  -2.954  -3.882  1.00  0.00     0.174 HD
HETATM    8  C7  UNL     1      -2.989  -1.956  -2.093  1.00  0.00     0.283 A 
HETATM    9  O2  UNL     1      -4.187  -2.258  -1.879  1.00  0.00    -0.265 OA
HETATM   10  C8  UNL     1      -2.259  -1.179  -1.165  1.00  0.00     0.187 A 
ENDROOT
BRANCH   1  11
HETATM   11  C5  UNL     1      -0.101  -0.236  -0.620  1.00  0.00     0.182 C 
BRANCH  11  12
HETATM   12  C4  UNL     1       0.786  -1.171   0.177  1.00  0.00     0.204 C 
BRANCH  12  13
HETATM   13  C3  UNL     1       1.692  -0.425   1.114  1.00  0.00     0.054 C 
BRANCH  13  14
HETATM   14  C2  UNL     1       2.522   0.620   0.416  1.00  0.00     0.124 C 
BRANCH  14  15
HETATM   15  N3  UNL     1       3.351   1.272   1.406  1.00  0.00    -0.367 N 
HETATM   16  C1  UNL     1       4.404   1.950   1.104  1.00  0.00     0.196 C 
HETATM   17  N1  UNL     1       4.823   2.102  -0.253  1.00  0.00    -0.067 NA
HETATM   18  N2  UNL     1       5.144   2.548   2.155  1.00  0.00    -0.067 NA
ATOM     19  H3  UNL     1       3.090   1.191   2.389  1.00  0.00     0.161 HD
ENDBRANCH  14  15
ENDBRANCH  13  14
ENDBRANCH  12  13
BRANCH  12  20
HETATM   20  N4  UNL     1       0.021  -2.144   0.861  1.00  0.00    -0.073 N 
ATOM     21  H43 UNL     1       0.615  -2.781   1.391  1.00  0.00     0.274 HD
ATOM     22  H42 UNL     1      -0.500  -1.732   1.635  1.00  0.00     0.274 HD
ATOM     23  H41 UNL     1      -0.594  -2.651   0.225  1.00  0.00     0.274 HD
ENDBRANCH  12  20
ENDBRANCH  11  12
ENDBRANCH   1  11
BRANCH  10  24
HETATM   24  C9  UNL     1      -2.981  -0.690  -0.014  1.00  0.00     0.281 C 
HETATM   25  O3  UNL     1      -4.191  -1.123   0.140  1.00  0.00    -0.265 OA
HETATM   26  N8  UNL     1      -2.588   0.198   0.985  1.00  0.00    -0.298 N 
HETATM   27  C10 UNL     1      -3.332   1.121   1.489  1.00  0.00     0.203 C 
ATOM     28  H8  UNL     1      -1.638   0.111   1.345  1.00  0.00     0.171 HD
HETATM   29  N9  UNL     1      -2.835   1.968   2.499  1.00  0.00    -0.066 NA
HETATM   30  N10 UNL     1      -4.678   1.334   1.058  1.00  0.00    -0.066 NA
ENDBRANCH  10  24
TORSDOF 7
