REMARK  1 active torsions:
REMARK  status: ('A' for Active; 'I' for Inactive)
REMARK    1  A    between atoms: C2_2  and  O1_3 
ROOT
HETATM    1  C1  UNL     1      -2.462   0.284  -0.711  1.00  0.00     0.050 C 
HETATM    2  C2  UNL     1      -1.285  -0.308  -0.012  1.00  0.00     0.094 C 
HETATM    3  C3  UNL     1      -0.289  -0.864  -0.982  1.00  0.00     0.024 C 
HETATM    4  C4  UNL     1       0.697  -1.718  -0.231  1.00  0.00     0.012 C 
HETATM    5  C5  UNL     1       1.359  -0.872   0.821  1.00  0.00    -0.010 C 
HETATM    6  C6  UNL     1       2.158   0.222   0.165  1.00  0.00     0.009 C 
HETATM    7  C7  UNL     1       1.233   1.061  -0.686  1.00  0.00    -0.010 C 
HETATM    8  C8  UNL     1       0.465   0.239  -1.686  1.00  0.00     0.012 C 
HETATM    9  C9  UNL     1       0.203   1.699   0.242  1.00  0.00     0.051 C 
HETATM   10  C10 UNL     1      -0.593   0.625   0.932  1.00  0.00     0.135 C 
HETATM   11  F1  UNL     1      -1.454   1.244   1.811  1.00  0.00    -0.240 F 
HETATM   12  C11 UNL     1       0.376  -0.223   1.761  1.00  0.00     0.051 C 
ENDROOT
BRANCH   2  13
HETATM   13  O1  UNL     1      -1.753  -1.397   0.763  1.00  0.00    -0.386 OA
ATOM     14  H1  UNL     1      -1.003  -1.774   1.208  1.00  0.00     0.210 HD
ENDBRANCH   2  13
TORSDOF 1
