REMARK  2 active torsions:
REMARK  status: ('A' for Active; 'I' for Inactive)
REMARK    1  A    between atoms: N1_1  and  C1_5 
REMARK    2  A    between atoms: C1_5  and  C2_6 
ROOT
HETATM    1  C2  UNL     1       0.907   0.158  -0.107  1.00  0.00    -0.013 C 
HETATM    2  C3  UNL     1       0.263   1.024  -1.184  1.00  0.00     0.016 C 
HETATM    3  C4  UNL     1      -1.241   0.819  -1.140  1.00  0.00    -0.010 C 
HETATM    4  C5  UNL     1      -1.696   1.277   0.236  1.00  0.00     0.009 C 
HETATM    5  C6  UNL     1      -1.095   0.397   1.297  1.00  0.00    -0.010 C 
HETATM    6  C7  UNL     1      -1.472  -1.038   1.009  1.00  0.00     0.048 C 
HETATM    7  C8  UNL     1      -0.892  -1.469  -0.298  1.00  0.00     0.105 C 
HETATM    8  F1  UNL     1      -1.201  -2.798  -0.542  1.00  0.00    -0.243 F 
HETATM    9  C9  UNL     1      -1.554  -0.630  -1.393  1.00  0.00     0.048 C 
HETATM   10  C10 UNL     1       0.587  -1.269  -0.406  1.00  0.00     0.054 C 
HETATM   11  C11 UNL     1       0.392   0.538   1.266  1.00  0.00     0.016 C 
ENDROOT
BRANCH   1  12
HETATM   12  C1  UNL     1       2.383   0.464  -0.129  1.00  0.00     0.239 C 
BRANCH  12  13
HETATM   13  N1  UNL     1       3.134  -0.286   0.844  1.00  0.00    -0.079 N 
ATOM     14  H13 UNL     1       2.750  -0.153   1.780  1.00  0.00     0.274 HD
ATOM     15  H12 UNL     1       2.970  -1.287   0.736  1.00  0.00     0.274 HD
ATOM     16  H11 UNL     1       4.133  -0.079   0.829  1.00  0.00     0.274 HD
ENDBRANCH  12  13
ENDBRANCH   1  12
TORSDOF 2
