REMARK  0 active torsions:
REMARK  status: ('A' for Active; 'I' for Inactive)
ROOT
HETATM    1  N1  UNL     1       3.793   0.558  -1.161  1.00  0.00    -0.379 N 
ATOM      2  H11 UNL     1       4.235   0.163  -1.991  1.00  0.00     0.158 HD
ATOM      3  H12 UNL     1       4.253   1.351  -0.714  1.00  0.00     0.158 HD
HETATM    4  C1  UNL     1       2.699   0.119  -0.646  1.00  0.00     0.158 C 
HETATM    5  N2  UNL     1       2.084   0.669   0.509  1.00  0.00    -0.244 N 
ATOM      6  H2  UNL     1       2.543   1.467   0.948  1.00  0.00     0.196 HD
HETATM    7  O1  UNL     1       0.965   0.232   1.063  1.00  0.00    -0.266 OA
HETATM    8  C2  UNL     1       0.021  -0.271   0.233  1.00  0.00     0.098 C 
HETATM    9  C3  UNL     1      -0.439   0.660  -0.853  1.00  0.00     0.041 C 
HETATM   10  C4  UNL     1      -1.885   0.989  -0.556  1.00  0.00     0.003 C 
HETATM   11  C5  UNL     1      -2.356  -0.303   0.119  1.00  0.00     0.003 C 
HETATM   12  C6  UNL     1      -1.230  -0.568   1.072  1.00  0.00     0.041 C 
HETATM   13  C7  UNL     1       0.389  -1.592  -0.428  1.00  0.00     0.123 C 
HETATM   14  S1  UNL     1       1.894  -1.270  -1.428  1.00  0.00    -0.090 SA
ENDROOT
TORSDOF 0
