REMARK  1 active torsions:
REMARK  status: ('A' for Active; 'I' for Inactive)
REMARK    1  A    between atoms: O1_1  and  N1_3 
ROOT
HETATM    1  N1  UNL     1      -3.672   0.262  -0.249  1.00  0.00    -0.257 N 
ATOM      2  H1  UNL     1      -4.397  -0.232   0.272  1.00  0.00     0.195 HD
HETATM    3  C1  UNL     1      -2.455  -0.171  -0.161  1.00  0.00     0.098 C 
HETATM    4  C2  UNL     1      -2.026  -1.343   0.648  1.00  0.00     0.080 C 
HETATM    5  C3  UNL     1      -0.648  -0.886   1.118  1.00  0.00     0.038 C 
HETATM    6  C4  UNL     1      -0.096  -0.082  -0.021  1.00  0.00     0.032 C 
HETATM    7  C5  UNL     1       0.534   1.178   0.525  1.00  0.00     0.031 C 
HETATM    8  C6  UNL     1       1.867   0.835   1.097  1.00  0.00     0.002 C 
HETATM    9  C7  UNL     1       2.801   0.450  -0.010  1.00  0.00     0.000 C 
HETATM   10  C8  UNL     1       2.137  -0.229  -1.161  1.00  0.00     0.002 C 
HETATM   11  C9  UNL     1       0.852  -0.920  -0.810  1.00  0.00     0.031 C 
HETATM   12  N2  UNL     1      -1.270   0.324  -0.773  1.00  0.00    -0.369 N 
ATOM     13  H2  UNL     1      -1.248   0.887  -1.623  1.00  0.00     0.161 HD
ENDROOT
BRANCH   1  14
HETATM   14  O1  UNL     1      -4.039   1.334  -0.993  1.00  0.00    -0.288 OA
ATOM     15  H1  UNL     1      -4.932   1.652  -1.058  1.00  0.00     0.244 HD
ENDBRANCH   1  14
TORSDOF 1
