REMARK  9 active torsions:
REMARK  status: ('A' for Active; 'I' for Inactive)
REMARK    1  A    between atoms: C2_2  and  C3_3 
REMARK    2  A    between atoms: C3_3  and  C4_4 
REMARK    3  A    between atoms: C4_4  and  C6_6 
REMARK    4  A    between atoms: C4_4  and  C7_9 
REMARK    5  A    between atoms: C8_10  and  O3_11 
REMARK    6  A    between atoms: C15_19  and  C16_20 
REMARK    7  A    between atoms: C16_20  and  O4_21 
REMARK    8  A    between atoms: O4_21  and  C17_22 
REMARK    9  A    between atoms: C19_24  and  O5_25 
ROOT
HETATM    1  C7  UNL     1       3.094  -0.000   0.025  1.00  0.00     0.042 C 
HETATM    2  C8  UNL     1       3.499  -1.401   0.438  1.00  0.00     0.124 C 
HETATM    3  C9  UNL     1       2.240  -2.302   0.291  1.00  0.00     0.038 C 
HETATM    4  C10 UNL     1       1.221  -1.298   0.128  1.00  0.00     0.006 C 
HETATM    5  C11 UNL     1       1.883  -0.248  -0.762  1.00  0.00    -0.032 C 
HETATM    6  C12 UNL     1       2.469  -0.888  -2.055  1.00  0.00     0.016 C 
HETATM    7  C13 UNL     1       1.068   0.849  -1.258  1.00  0.00     0.011 C 
HETATM    8  C14 UNL     1      -0.238   0.528  -1.941  1.00  0.00     0.013 C 
HETATM    9  C15 UNL     1      -1.445   0.338  -1.056  1.00  0.00    -0.008 C 
HETATM   10  C21 UNL     1      -0.696  -0.056   0.200  1.00  0.00     0.023 C 
HETATM   11  C22 UNL     1      -0.178  -1.442  -0.109  1.00  0.00    -0.021 C 
HETATM   12  C23 UNL     1      -0.449  -2.132  -1.388  1.00  0.00     0.012 C 
HETATM   13  C24 UNL     1      -1.686  -1.778  -2.134  1.00  0.00     0.014 C 
HETATM   14  C25 UNL     1      -2.333  -0.793  -1.142  1.00  0.00     0.067 C 
HETATM   15  C26 UNL     1      -2.409  -1.763   0.047  1.00  0.00     0.140 C 
HETATM   16  O6  UNL     1      -3.434  -2.222   0.433  1.00  0.00    -0.297 OA
HETATM   17  C27 UNL     1      -1.126  -2.180   0.788  1.00  0.00     0.021 C 
HETATM   18  C28 UNL     1      -0.987  -3.645   0.890  1.00  0.00     0.024 C 
HETATM   19  C29 UNL     1      -1.147  -1.662   2.216  1.00  0.00     0.024 C 
ENDROOT
BRANCH   9  20
HETATM   20  C16 UNL     1      -2.072   1.662  -0.727  1.00  0.00     0.180 C 
BRANCH  20  21
HETATM   21  O4  UNL     1      -3.143   1.860  -0.009  1.00  0.00    -0.358 OA
BRANCH  21  22
HETATM   22  C17 UNL     1      -4.392   1.618  -0.494  1.00  0.00     0.323 C 
HETATM   23  C18 UNL     1      -5.295   0.810   0.366  1.00  0.00     0.094 C 
HETATM   24  C19 UNL     1      -6.402   1.679   0.836  1.00  0.00     0.148 C 
HETATM   25  C20 UNL     1      -5.833   3.066   0.606  1.00  0.00     0.267 C 
HETATM   26  N1  UNL     1      -5.058   2.951  -0.617  1.00  0.00    -0.046 N 
ATOM     27  H12 UNL     1      -4.418   3.727  -0.784  1.00  0.00     0.280 HD
ATOM     28  H11 UNL     1      -5.601   3.072  -1.472  1.00  0.00     0.280 HD
BRANCH  24  29
HETATM   29  O5  UNL     1      -7.578   1.481   0.104  1.00  0.00    -0.394 OA
ATOM     30  H5  UNL     1      -8.287   2.037   0.405  1.00  0.00     0.210 HD
ENDBRANCH  24  29
ENDBRANCH  21  22
ENDBRANCH  20  21
ENDBRANCH   9  20
BRANCH   1  31
HETATM   31  C4  UNL     1       3.374   0.978   1.019  1.00  0.00     0.054 C 
HETATM   32  C5  UNL     1       3.122   2.442   0.728  1.00  0.00     0.027 C 
BRANCH  31  33
HETATM   33  C3  UNL     1       4.923   0.982   1.241  1.00  0.00     0.047 C 
BRANCH  33  34
HETATM   34  C2  UNL     1       5.626   1.510   0.041  1.00  0.00    -0.036 C 
HETATM   35  C1  UNL     1       6.566   0.895  -0.643  1.00  0.00     0.007 C 
ENDBRANCH  33  34
ENDBRANCH  31  33
BRANCH  31  36
HETATM   36  C6  UNL     1       2.928   0.824   2.438  1.00  0.00     0.182 C 
HETATM   37  O1  UNL     1       3.591   0.253   3.341  1.00  0.00    -0.647 OA
HETATM   38  O2  UNL     1       1.702   1.329   2.845  1.00  0.00    -0.647 OA
ENDBRANCH  31  36
ENDBRANCH   1  31
BRANCH   2  39
HETATM   39  O3  UNL     1       4.522  -1.951  -0.340  1.00  0.00    -0.395 OA
ATOM     40  H3  UNL     1       4.776  -2.829  -0.081  1.00  0.00     0.210 HD
ENDBRANCH   2  39
TORSDOF 9
