REMARK  10 active torsions:
REMARK  status: ('A' for Active; 'I' for Inactive)
REMARK    1  A    between atoms: C2_2  and  O1_4 
REMARK    2  A    between atoms: C2_2  and  N1_6 
REMARK       I    between atoms: N1_6  and  C4_8 
REMARK    3  A    between atoms: C4_8  and  C5_10 
REMARK    4  A    between atoms: C5_10  and  C6_11 
REMARK    5  A    between atoms: C6_11  and  C7_12 
REMARK    6  A    between atoms: C7_12  and  O3_13 
REMARK    7  A    between atoms: C7_12  and  C8_15 
REMARK    8  A    between atoms: C22_29  and  C23_30 
REMARK    9  A    between atoms: C23_30  and  O4_33 
REMARK   10  A    between atoms: C28_38  and  O6_39 
ROOT
HETATM    1  C8  UNL     1      -2.318   0.836  -0.201  1.00  0.00     0.019 C 
HETATM    2  C9  UNL     1      -2.488   1.851  -1.304  1.00  0.00     0.008 C 
HETATM    3  C10 UNL     1      -1.133   2.554  -1.272  1.00  0.00     0.006 C 
HETATM    4  C11 UNL     1      -0.131   1.419  -1.062  1.00  0.00    -0.003 C 
HETATM    5  C12 UNL     1      -0.930   0.285  -0.500  1.00  0.00    -0.003 C 
HETATM    6  C13 UNL     1      -0.313  -0.097   0.812  1.00  0.00     0.015 C 
HETATM    7  C14 UNL     1       1.027   0.603   0.900  1.00  0.00    -0.033 C 
HETATM    8  C15 UNL     1       1.214   1.123   2.336  1.00  0.00     0.016 C 
HETATM    9  C16 UNL     1       2.145  -0.313   0.645  1.00  0.00     0.001 C 
HETATM   10  C17 UNL     1       2.121  -1.081  -0.628  1.00  0.00     0.009 C 
HETATM   11  C18 UNL     1       3.563  -1.555  -0.749  1.00  0.00     0.039 C 
HETATM   12  C19 UNL     1       4.383  -0.643   0.140  1.00  0.00     0.066 C 
HETATM   13  C20 UNL     1       4.820  -1.422   1.330  1.00  0.00     0.041 C 
HETATM   14  C21 UNL     1       6.324  -1.273   1.313  1.00  0.00     0.038 C 
HETATM   15  C22 UNL     1       6.579  -0.935  -0.134  1.00  0.00     0.156 C 
HETATM   16  O5  UNL     1       5.501  -0.150  -0.506  1.00  0.00    -0.371 OA
HETATM   17  C26 UNL     1       3.429   0.471   0.547  1.00  0.00     0.027 C 
HETATM   18  C27 UNL     1       3.313   1.439  -0.592  1.00  0.00     0.040 C 
HETATM   19  C28 UNL     1       2.145   2.333  -0.548  1.00  0.00     0.123 C 
HETATM   20  C29 UNL     1       0.886   1.770   0.008  1.00  0.00     0.027 C 
ENDROOT
BRANCH   1  21
HETATM   21  C7  UNL     1      -3.298  -0.301  -0.294  1.00  0.00     0.123 C 
BRANCH  21  22
HETATM   22  C6  UNL     1      -4.731   0.200  -0.211  1.00  0.00     0.041 C 
BRANCH  22  23
HETATM   23  C5  UNL     1      -5.617  -1.021  -0.166  1.00  0.00     0.105 C 
BRANCH  23  24
HETATM   24  C4  UNL     1      -7.025  -0.586  -0.085  1.00  0.00     0.220 C 
HETATM   25  N1  UNL     1      -8.109  -1.510  -0.027  1.00  0.00    -0.330 N 
ATOM     26  H1  UNL     1      -7.903  -2.509  -0.042  1.00  0.00     0.165 HD
HETATM   27  O2  UNL     1      -7.293   0.635  -0.066  1.00  0.00    -0.274 OA
BRANCH  25  28
HETATM   28  C2  UNL     1      -9.478  -1.091   0.052  1.00  0.00     0.126 C 
HETATM   29  C1  UNL     1      -9.762  -0.257   1.281  1.00  0.00     0.070 C 
HETATM   30  C3  UNL     1     -10.376  -2.293   0.095  1.00  0.00     0.070 C 
BRANCH  28  31
HETATM   31  O1  UNL     1      -9.783  -0.330  -1.072  1.00  0.00    -0.372 OA
ATOM     32  H1  UNL     1      -9.605  -0.854  -1.844  1.00  0.00     0.212 HD
ENDBRANCH  28  31
ENDBRANCH  25  28
ENDBRANCH  23  24
ENDBRANCH  22  23
ENDBRANCH  21  22
BRANCH  21  33
HETATM   33  O3  UNL     1      -3.090  -1.069  -1.422  1.00  0.00    -0.395 OA
ATOM     34  H3  UNL     1      -2.195  -1.382  -1.474  1.00  0.00     0.210 HD
ENDBRANCH  21  33
ENDBRANCH   1  21
BRANCH  19  35
HETATM   35  O6  UNL     1       1.855   2.756  -1.861  1.00  0.00    -0.395 OA
ATOM     36  H6  UNL     1       1.101   3.333  -1.833  1.00  0.00     0.210 HD
ENDBRANCH  19  35
BRANCH  15  37
HETATM   37  C23 UNL     1       7.890  -0.168  -0.255  1.00  0.00     0.076 C 
HETATM   38  C24 UNL     1       9.006  -1.061   0.257  1.00  0.00     0.048 C 
HETATM   39  C25 UNL     1       7.853   1.044   0.653  1.00  0.00     0.048 C 
BRANCH  37  40
HETATM   40  O4  UNL     1       8.117   0.256  -1.541  1.00  0.00    -0.388 OA
ATOM     41  H4  UNL     1       8.934   0.734  -1.616  1.00  0.00     0.210 HD
ENDBRANCH  37  40
ENDBRANCH  15  37
TORSDOF 10
