REMARK  11 active torsions:
REMARK  status: ('A' for Active; 'I' for Inactive)
REMARK    1  A    between atoms: C12_12  and  C13_13 
REMARK    2  A    between atoms: C19_21  and  C20_22 
REMARK    3  A    between atoms: C20_22  and  O3_23 
REMARK    4  A    between atoms: C20_22  and  C21_25 
REMARK    5  A    between atoms: C21_25  and  O4_27 
REMARK    6  A    between atoms: C21_25  and  C23_29 
REMARK    7  A    between atoms: C23_29  and  C25_31 
REMARK    8  A    between atoms: C25_31  and  C26_32 
REMARK    9  A    between atoms: C25_31  and  C27_35 
REMARK   10  A    between atoms: C26_32  and  O5_33 
REMARK   11  A    between atoms: C27_35  and  O6_36 
ROOT
HETATM    1  C1  UNL     1      -0.866  -3.215   2.786  1.00  0.00     0.012 C 
HETATM    2  C2  UNL     1      -1.640  -3.083   1.503  1.00  0.00     0.011 C 
HETATM    3  C3  UNL     1      -3.012  -2.554   1.659  1.00  0.00     0.010 C 
HETATM    4  C4  UNL     1      -3.495  -1.636   0.550  1.00  0.00     0.039 C 
HETATM    5  C5  UNL     1      -2.668  -1.603  -0.642  1.00  0.00     0.069 C 
HETATM    6  C6  UNL     1      -3.591  -1.620  -1.846  1.00  0.00     0.040 C 
HETATM    7  C7  UNL     1      -3.607  -0.107  -1.603  1.00  0.00     0.016 C 
HETATM    8  C8  UNL     1      -2.122  -0.338  -1.244  1.00  0.00    -0.008 C 
HETATM    9  C9  UNL     1      -1.450  -0.500  -2.571  1.00  0.00     0.019 C 
HETATM   10  C10 UNL     1      -1.548   0.668  -0.328  1.00  0.00     0.009 C 
HETATM   11  C11 UNL     1      -1.658   1.998  -0.997  1.00  0.00     0.027 C 
HETATM   12  C12 UNL     1      -1.962   3.171  -0.175  1.00  0.00     0.049 C 
HETATM   13  C14 UNL     1      -2.825   3.052   1.002  1.00  0.00     0.021 C 
HETATM   14  C15 UNL     1      -1.938   3.110   2.235  1.00  0.00     0.006 C 
HETATM   15  C16 UNL     1      -0.585   2.716   1.604  1.00  0.00    -0.012 C 
HETATM   16  C17 UNL     1      -0.669   3.619   0.456  1.00  0.00     0.025 C 
HETATM   17  C18 UNL     1      -0.363   1.329   1.628  1.00  0.00     0.017 C 
HETATM   18  C19 UNL     1      -0.310   0.367   0.444  1.00  0.00    -0.004 C 
HETATM   19  C28 UNL     1      -0.627  -0.956   1.162  1.00  0.00     0.044 C 
HETATM   20  C29 UNL     1      -0.865  -2.183   0.507  1.00  0.00     0.127 C 
HETATM   21  O7  UNL     1      -1.544  -2.377  -0.652  1.00  0.00    -0.374 OA
ENDROOT
BRANCH  18  22
HETATM   22  C20 UNL     1       0.927   0.205  -0.272  1.00  0.00     0.161 C 
BRANCH  22  23
HETATM   23  O3  UNL     1       1.346   1.330  -1.039  1.00  0.00    -0.392 OA
ATOM     24  H3  UNL     1       2.163   1.223  -1.512  1.00  0.00     0.210 HD
ENDBRANCH  22  23
BRANCH  22  25
HETATM   25  C21 UNL     1       2.227  -0.237   0.246  1.00  0.00     0.084 C 
HETATM   26  C22 UNL     1       2.945   0.980   0.889  1.00  0.00     0.049 C 
BRANCH  25  27
HETATM   27  O4  UNL     1       2.387  -1.278   1.066  1.00  0.00    -0.387 OA
ATOM     28  H4  UNL     1       3.229  -1.564   1.401  1.00  0.00     0.210 HD
ENDBRANCH  25  27
BRANCH  25  29
HETATM   29  C23 UNL     1       3.182  -0.560  -0.933  1.00  0.00     0.026 C 
HETATM   30  C24 UNL     1       2.537  -1.640  -1.806  1.00  0.00     0.014 C 
BRANCH  29  31
HETATM   31  C25 UNL     1       4.475  -1.159  -0.571  1.00  0.00     0.039 C 
BRANCH  31  32
HETATM   32  C26 UNL     1       5.430  -0.515   0.337  1.00  0.00     0.171 C 
BRANCH  32  33
HETATM   33  O5  UNL     1       6.541  -1.389   0.451  1.00  0.00    -0.400 OA
ATOM     34  H5  UNL     1       7.160  -0.972   1.039  1.00  0.00     0.209 HD
ENDBRANCH  32  33
ENDBRANCH  31  32
BRANCH  31  35
HETATM   35  C27 UNL     1       5.270  -1.139  -1.920  1.00  0.00     0.171 C 
BRANCH  35  36
HETATM   36  O6  UNL     1       6.512  -1.680  -1.793  1.00  0.00    -0.400 OA
ATOM     37  H6  UNL     1       6.994  -1.668  -2.611  1.00  0.00     0.209 HD
ENDBRANCH  35  36
ENDBRANCH  31  35
ENDBRANCH  29  31
ENDBRANCH  25  29
ENDBRANCH  22  25
ENDBRANCH  18  22
BRANCH  12  38
HETATM   38  C13 UNL     1      -2.413   4.279  -1.073  1.00  0.00     0.181 C 
HETATM   39  O1  UNL     1      -1.831   5.371  -1.156  1.00  0.00    -0.647 OA
HETATM   40  O2  UNL     1      -3.554   4.019  -1.838  1.00  0.00    -0.647 OA
ENDBRANCH  12  38
TORSDOF 11
