REMARK  10 active torsions:
REMARK  status: ('A' for Active; 'I' for Inactive)
REMARK    1  A    between atoms: C2_2  and  N1_3 
REMARK    2  A    between atoms: C5_6  and  C6_7 
REMARK    3  A    between atoms: C6_7  and  C7_8 
REMARK    4  A    between atoms: C7_8  and  C8_9 
REMARK    5  A    between atoms: C7_8  and  O4_16 
REMARK    6  A    between atoms: C8_9  and  C9_10 
REMARK    7  A    between atoms: C9_10  and  O1_11 
REMARK    8  A    between atoms: C9_10  and  C10_13 
REMARK    9  A    between atoms: O4_16  and  C11_17 
REMARK   10  A    between atoms: C27_38  and  O5_39 
ROOT
HETATM    1  C11 UNL     1       0.080   0.654   0.588  1.00  0.00     0.151 C 
HETATM    2  C12 UNL     1      -0.518   1.187   1.889  1.00  0.00     0.035 C 
HETATM    3  C13 UNL     1      -1.793   0.457   2.236  1.00  0.00     0.014 C 
HETATM    4  C14 UNL     1      -2.925   0.845   1.315  1.00  0.00    -0.013 C 
HETATM    5  C15 UNL     1      -3.511   2.109   1.943  1.00  0.00     0.018 C 
HETATM    6  C16 UNL     1      -4.012  -0.195   1.363  1.00  0.00     0.101 C 
HETATM    7  N2  UNL     1      -3.574  -1.546   1.215  1.00  0.00    -0.373 N 
ATOM      8  H2  UNL     1      -2.784  -1.963   1.708  1.00  0.00     0.161 HD
HETATM    9  C17 UNL     1      -4.415  -2.235   0.265  1.00  0.00     0.080 C 
HETATM   10  N3  UNL     1      -4.207  -3.364  -0.292  1.00  0.00    -0.388 N 
ATOM     11  H31 UNL     1      -4.801  -3.851  -0.963  1.00  0.00     0.157 HD
ATOM     12  H32 UNL     1      -3.396  -3.966  -0.147  1.00  0.00     0.157 HD
HETATM   13  C18 UNL     1      -5.581  -1.369   0.056  1.00  0.00     0.019 C 
HETATM   14  C19 UNL     1      -6.066  -1.530  -1.346  1.00  0.00     0.024 C 
HETATM   15  C20 UNL     1      -6.668  -1.851   0.997  1.00  0.00     0.024 C 
HETATM   16  C21 UNL     1      -5.121   0.030   0.401  1.00  0.00    -0.009 C 
HETATM   17  C22 UNL     1      -6.312   0.737   1.020  1.00  0.00     0.018 C 
HETATM   18  C23 UNL     1      -4.713   0.819  -0.818  1.00  0.00     0.013 C 
HETATM   19  C24 UNL     1      -3.284   0.573  -1.147  1.00  0.00     0.013 C 
HETATM   20  C25 UNL     1      -2.344   1.082  -0.038  1.00  0.00    -0.006 C 
HETATM   21  C26 UNL     1      -2.079   2.521  -0.377  1.00  0.00     0.019 C 
HETATM   22  C27 UNL     1      -1.080   0.240  -0.262  1.00  0.00     0.156 C 
ENDROOT
BRANCH   1  23
HETATM   23  O4  UNL     1       0.997   1.484   0.005  1.00  0.00    -0.378 OA
BRANCH  23  24
HETATM   24  C7  UNL     1       2.297   1.081  -0.030  1.00  0.00     0.125 C 
BRANCH  24  25
HETATM   25  C6  UNL     1       2.651   0.551  -1.435  1.00  0.00     0.037 C 
BRANCH  25  26
HETATM   26  C5  UNL     1       3.982  -0.165  -1.450  1.00  0.00    -0.009 C 
HETATM   27  C4  UNL     1       4.158  -0.613  -2.913  1.00  0.00     0.035 C 
HETATM   28  C3  UNL     1       5.127  -1.752  -2.931  1.00  0.00     0.272 C 
HETATM   29  N1  UNL     1       6.120  -1.554  -1.905  1.00  0.00     0.088 N 
HETATM   30  C29 UNL     1       5.488  -1.885  -0.641  1.00  0.00     0.272 C 
HETATM   31  C28 UNL     1       4.032  -1.400  -0.621  1.00  0.00     0.035 C 
BRANCH  29  32
HETATM   32  C2  UNL     1       7.247  -2.446  -2.105  1.00  0.00     0.268 C 
HETATM   33  C1  UNL     1       8.283  -2.241  -1.040  1.00  0.00     0.037 C 
ENDBRANCH  29  32
ENDBRANCH  25  26
ENDBRANCH  24  25
BRANCH  24  34
HETATM   34  C8  UNL     1       3.349   2.017   0.419  1.00  0.00     0.074 C 
BRANCH  34  35
HETATM   35  C9  UNL     1       3.242   2.682   1.727  1.00  0.00     0.221 C 
BRANCH  35  36
HETATM   36  O1  UNL     1       2.130   3.475   1.829  1.00  0.00    -0.385 OA
ATOM     37  H1  UNL     1       2.061   3.904   2.674  1.00  0.00     0.210 HD
ENDBRANCH  35  36
BRANCH  35  38
HETATM   38  C10 UNL     1       3.447   1.793   2.903  1.00  0.00     0.203 C 
HETATM   39  O2  UNL     1       2.632   1.892   3.853  1.00  0.00    -0.646 OA
HETATM   40  O3  UNL     1       4.463   0.886   3.003  1.00  0.00    -0.646 OA
ENDBRANCH  35  38
ENDBRANCH  34  35
ENDBRANCH  24  34
ENDBRANCH  23  24
ENDBRANCH   1  23
BRANCH  22  41
HETATM   41  O5  UNL     1      -0.828   0.133  -1.612  1.00  0.00    -0.392 OA
ATOM     42  H5  UNL     1      -1.564  -0.130  -2.152  1.00  0.00     0.210 HD
ENDBRANCH  22  41
TORSDOF 10
