REMARK  10 active torsions:
REMARK  status: ('A' for Active; 'I' for Inactive)
REMARK    1  A    between atoms: C2_2  and  C3_3 
REMARK    2  A    between atoms: C2_2  and  C9_13 
REMARK    3  A    between atoms: C3_3  and  O1_4 
REMARK    4  A    between atoms: C3_3  and  C4_6 
REMARK    5  A    between atoms: C4_6  and  C5_7 
REMARK    6  A    between atoms: C5_7  and  C6_8 
REMARK    7  A    between atoms: C6_8  and  O2_11 
REMARK    8  A    between atoms: C12_16  and  O3_17 
REMARK    9  A    between atoms: C18_24  and  N1_25 
REMARK   10  A    between atoms: N1_25  and  S1_27 
ROOT
HETATM    1  C9  UNL     1       1.651  -0.465   0.567  1.00  0.00     0.028 C 
HETATM    2  C10 UNL     1       1.173  -1.157  -0.739  1.00  0.00     0.013 C 
HETATM    3  C11 UNL     1      -0.184  -1.643  -0.218  1.00  0.00     0.040 C 
HETATM    4  C12 UNL     1      -0.592  -0.710   0.853  1.00  0.00     0.070 C 
HETATM    5  C13 UNL     1      -1.980  -0.255   0.904  1.00  0.00     0.025 C 
HETATM    6  C14 UNL     1      -2.862  -1.390   0.439  1.00  0.00     0.009 C 
HETATM    7  C15 UNL     1      -3.622  -1.115  -0.812  1.00  0.00     0.012 C 
HETATM    8  C16 UNL     1      -4.419   0.164  -0.743  1.00  0.00    -0.019 C 
HETATM    9  C17 UNL     1      -4.935   0.437  -2.151  1.00  0.00     0.018 C 
HETATM   10  C18 UNL     1      -5.640  -0.039   0.154  1.00  0.00     0.104 C 
HETATM   11  C19 UNL     1      -5.362   0.707   1.427  1.00  0.00     0.027 C 
HETATM   12  C20 UNL     1      -4.530   1.870   0.956  1.00  0.00     0.008 C 
HETATM   13  C21 UNL     1      -3.669   1.295  -0.177  1.00  0.00     0.000 C 
HETATM   14  C22 UNL     1      -2.275   1.059   0.244  1.00  0.00    -0.003 C 
HETATM   15  C23 UNL     1      -1.252   1.248  -0.836  1.00  0.00     0.006 C 
HETATM   16  C24 UNL     1       0.130   1.393  -0.222  1.00  0.00     0.013 C 
HETATM   17  C25 UNL     1       0.493   0.396   0.809  1.00  0.00    -0.005 C 
HETATM   18  C26 UNL     1       0.436   0.988   2.210  1.00  0.00     0.019 C 
ENDROOT
BRANCH   1  19
HETATM   19  C2  UNL     1       3.040  -0.102   0.554  1.00  0.00    -0.050 C 
HETATM   20  C1  UNL     1       3.479   0.551   1.840  1.00  0.00     0.046 C 
BRANCH  19  21
HETATM   21  C3  UNL     1       3.694   0.391  -0.676  1.00  0.00     0.045 C 
BRANCH  21  22
HETATM   22  O1  UNL     1       3.598   1.741  -0.944  1.00  0.00    -0.365 OA
ATOM     23  H1  UNL     1       4.018   2.058  -1.735  1.00  0.00     0.217 HD
ENDBRANCH  21  22
BRANCH  21  24
HETATM   24  C4  UNL     1       5.043  -0.111  -1.031  1.00  0.00     0.067 C 
BRANCH  24  25
HETATM   25  C5  UNL     1       6.163   0.097  -0.086  1.00  0.00     0.043 C 
BRANCH  25  26
HETATM   26  C6  UNL     1       7.492  -0.440  -0.649  1.00  0.00     0.051 C 
HETATM   27  C7  UNL     1       7.809   0.285  -1.939  1.00  0.00     0.045 C 
HETATM   28  C8  UNL     1       7.464  -1.922  -0.815  1.00  0.00     0.045 C 
BRANCH  26  29
HETATM   29  O2  UNL     1       8.512  -0.127   0.252  1.00  0.00    -0.391 OA
ATOM     30  H2  UNL     1       9.332  -0.458  -0.095  1.00  0.00     0.210 HD
ENDBRANCH  26  29
ENDBRANCH  25  26
ENDBRANCH  24  25
ENDBRANCH  21  24
ENDBRANCH  19  21
ENDBRANCH   1  19
BRANCH   4  31
HETATM   31  O3  UNL     1      -0.315  -1.380   2.078  1.00  0.00    -0.389 OA
ATOM     32  H3  UNL     1      -0.577  -0.780   2.766  1.00  0.00     0.210 HD
ENDBRANCH   4  31
BRANCH  10  33
HETATM   33  N1  UNL     1      -6.792   0.541  -0.469  1.00  0.00    -0.295 N 
ATOM     34  H1  UNL     1      -6.848   1.519  -0.754  1.00  0.00     0.175 HD
BRANCH  33  35
HETATM   35  S1  UNL     1      -8.073  -0.592  -0.684  1.00  0.00     0.204 S 
HETATM   36  O4  UNL     1      -7.450  -1.945  -0.919  1.00  0.00    -0.578 OA
HETATM   37  O5  UNL     1      -8.825  -0.201  -1.938  1.00  0.00    -0.578 OA
HETATM   38  O6  UNL     1      -9.049  -0.566   0.667  1.00  0.00    -0.578 OA
ENDBRANCH  33  35
ENDBRANCH  10  33
TORSDOF 10
