REMARK  13 active torsions:
REMARK  status: ('A' for Active; 'I' for Inactive)
REMARK    1  A    between atoms: C2_2  and  C3_3 
REMARK    2  A    between atoms: C3_3  and  C4_4 
REMARK    3  A    between atoms: C4_4  and  C5_5 
REMARK    4  A    between atoms: C6_6  and  C7_7 
REMARK    5  A    between atoms: C7_7  and  C8_8 
REMARK    6  A    between atoms: C8_8  and  C9_9 
REMARK    7  A    between atoms: C10_11  and  O2_12 
REMARK    8  A    between atoms: C12_15  and  O3_17 
REMARK    9  A    between atoms: C14_19  and  O4_20 
REMARK   10  A    between atoms: C17_26  and  N1_27 
REMARK   11  A    between atoms: C24_34  and  O6_36 
REMARK   12  A    between atoms: O6_36  and  C26_37 
REMARK       I    between atoms: C26_37  and  N2_39 
REMARK   13  A    between atoms: N2_39  and  C27_41 
ROOT
HETATM    1  C9  UNL     1       0.877   0.704  -0.390  1.00  0.00     0.163 C 
HETATM    2  O1  UNL     1       1.303   0.681   0.918  1.00  0.00    -0.352 OA
HETATM    3  C10 UNL     1       0.607  -0.334   1.577  1.00  0.00     0.267 C 
HETATM    4  C11 UNL     1      -0.866   0.066   1.585  1.00  0.00     0.117 C 
HETATM    5  C12 UNL     1      -1.553  -0.206   2.842  1.00  0.00     0.096 C 
HETATM    6  C13 UNL     1      -1.460  -1.571   3.455  1.00  0.00     0.049 C 
HETATM    7  C14 UNL     1      -2.896   0.449   2.972  1.00  0.00     0.201 C 
HETATM    8  C15 UNL     1      -3.426   1.058   1.736  1.00  0.00     0.091 C 
HETATM    9 CL1  UNL     1      -3.910   2.779   2.031  1.00  0.00    -0.082 Cl
HETATM   10  C16 UNL     1      -2.760   0.838   0.478  1.00  0.00     0.201 C 
HETATM   11  O5  UNL     1      -3.261   1.343  -0.521  1.00  0.00    -0.289 OA
HETATM   12  C17 UNL     1      -1.463   0.022   0.232  1.00  0.00     0.140 C 
HETATM   13  C24 UNL     1      -0.598   0.948  -0.611  1.00  0.00     0.128 C 
HETATM   14  C25 UNL     1      -0.742   0.473  -2.124  1.00  0.00     0.052 C 
ENDROOT
BRANCH   1  15
HETATM   15  C8  UNL     1       1.755   1.505  -1.310  1.00  0.00     0.039 C 
BRANCH  15  16
HETATM   16  C7  UNL     1       3.179   0.911  -1.334  1.00  0.00     0.029 C 
BRANCH  16  17
HETATM   17  C6  UNL     1       3.164  -0.474  -1.808  1.00  0.00    -0.031 C 
HETATM   18  C5  UNL     1       3.600  -1.471  -1.084  1.00  0.00    -0.031 C 
BRANCH  18  19
HETATM   19  C4  UNL     1       4.168  -1.450   0.273  1.00  0.00     0.027 C 
BRANCH  19  20
HETATM   20  C3  UNL     1       5.574  -2.017   0.178  1.00  0.00     0.003 C 
BRANCH  20  21
HETATM   21  C2  UNL     1       6.367  -1.149  -0.761  1.00  0.00    -0.004 C 
HETATM   22  C1  UNL     1       7.768  -1.720  -0.858  1.00  0.00     0.005 C 
ENDBRANCH  20  21
ENDBRANCH  19  20
ENDBRANCH  18  19
ENDBRANCH  16  17
ENDBRANCH  15  16
ENDBRANCH   1  15
BRANCH  13  23
HETATM   23  O6  UNL     1      -0.997   2.199  -0.744  1.00  0.00    -0.287 OA
BRANCH  23  24
HETATM   24  C26 UNL     1      -1.123   3.437  -0.390  1.00  0.00     0.361 C 
HETATM   25  O7  UNL     1      -0.558   3.671   0.702  1.00  0.00    -0.238 OA
HETATM   26  N2  UNL     1      -1.787   4.521  -1.043  1.00  0.00    -0.337 N 
ATOM     27  H2  UNL     1      -2.252   4.350  -1.935  1.00  0.00     0.164 HD
BRANCH  26  28
HETATM   28  C27 UNL     1      -1.821   5.849  -0.481  1.00  0.00     0.120 C 
HETATM   29  C28 UNL     1      -2.590   6.772  -1.402  1.00  0.00     0.026 C 
ENDBRANCH  26  28
ENDBRANCH  23  24
ENDBRANCH  13  23
BRANCH   3  30
HETATM   30  O2  UNL     1       1.133  -0.450   2.832  1.00  0.00    -0.371 OA
ATOM     31  H2  UNL     1       0.659  -1.141   3.280  1.00  0.00     0.212 HD
ENDBRANCH   3  30
BRANCH  12  32
HETATM   32  N1  UNL     1      -2.003  -1.110  -0.359  1.00  0.00    -0.390 N 
HETATM   33  C18 UNL     1      -3.256  -1.646   0.112  1.00  0.00     0.118 C 
HETATM   34  C19 UNL     1      -3.817  -2.786  -0.746  1.00  0.00     0.020 C 
HETATM   35  C20 UNL     1      -3.383  -2.667  -2.161  1.00  0.00     0.004 C 
HETATM   36  C21 UNL     1      -1.889  -2.847  -2.122  1.00  0.00     0.024 C 
HETATM   37  C22 UNL     1      -1.288  -2.216  -0.855  1.00  0.00     0.076 C 
HETATM   38  C23 UNL     1      -1.157  -3.415   0.085  1.00  0.00     0.032 C 
ENDBRANCH  12  32
BRANCH   5  39
HETATM   39  O3  UNL     1      -0.775   0.556   3.822  1.00  0.00    -0.387 OA
ATOM     40  H3  UNL     1      -1.223   0.379   4.641  1.00  0.00     0.210 HD
ENDBRANCH   5  39
BRANCH   7  41
HETATM   41  O4  UNL     1      -3.750  -0.535   3.536  1.00  0.00    -0.387 OA
ATOM     42  H4  UNL     1      -4.601  -0.120   3.618  1.00  0.00     0.210 HD
ENDBRANCH   7  41
TORSDOF 13
