REMARK  15 active torsions:
REMARK  status: ('A' for Active; 'I' for Inactive)
REMARK    1  A    between atoms: C3_4  and  C4_5 
REMARK    2  A    between atoms: C5_6  and  C6_7 
REMARK    3  A    between atoms: C6_7  and  S1_8 
REMARK    4  A    between atoms: S1_8  and  C7_9 
REMARK    5  A    between atoms: C7_9  and  C8_10 
REMARK    6  A    between atoms: C10_13  and  O2_14 
REMARK    7  A    between atoms: C12_18  and  O3_19 
REMARK    8  A    between atoms: C13_21  and  N2_22 
REMARK    9  A    between atoms: N2_22  and  C15_24 
REMARK   10  A    between atoms: C15_24  and  O4_25 
REMARK   11  A    between atoms: C15_24  and  C16_27 
REMARK   12  A    between atoms: C19_30  and  C20_31 
REMARK   13  A    between atoms: C21_32  and  C22_33 
REMARK   14  A    between atoms: C22_33  and  O5_34 
REMARK   15  A    between atoms: N3_36  and  O6_38 
ROOT
HETATM    1  C1  UNL     1      -1.278  -4.916   2.726  1.00  0.00     0.143 C 
HETATM    2  N1  UNL     1      -0.312  -4.048   2.137  1.00  0.00    -0.411 N 
HETATM    3  C2  UNL     1      -0.698  -2.682   2.023  1.00  0.00     0.157 C 
HETATM    4  C3  UNL     1      -0.435  -2.159   0.637  1.00  0.00    -0.017 C 
HETATM    5  C13 UNL     1       0.860  -2.366   0.028  1.00  0.00     0.030 C 
HETATM    6  C25 UNL     1       1.467  -3.650   0.566  1.00  0.00     0.011 C 
HETATM    7  C26 UNL     1       2.166  -4.451  -0.557  1.00  0.00     0.023 C 
HETATM    8  C27 UNL     1       2.368  -3.535   1.740  1.00  0.00     0.023 C 
HETATM    9  C28 UNL     1       0.337  -4.608   1.001  1.00  0.00     0.131 C 
ENDROOT
BRANCH   5  10
HETATM   10  N2  UNL     1       1.855  -1.340  -0.118  1.00  0.00    -0.334 N 
HETATM   11  C14 UNL     1       2.257  -1.162  -1.512  1.00  0.00     0.158 C 
BRANCH  10  12
HETATM   12  C15 UNL     1       2.356  -0.510   0.869  1.00  0.00     0.152 C 
BRANCH  12  13
HETATM   13  O4  UNL     1       1.814  -0.537   2.067  1.00  0.00    -0.345 OA
ATOM     14  H4  UNL     1       2.158   0.033   2.745  1.00  0.00     0.219 HD
ENDBRANCH  12  13
BRANCH  12  15
HETATM   15  C16 UNL     1       3.425   0.455   0.877  1.00  0.00     0.015 A 
HETATM   16  C17 UNL     1       4.411   0.424  -0.082  1.00  0.00     0.016 A 
HETATM   17  C18 UNL     1       5.419   1.398  -0.108  1.00  0.00     0.012 A 
HETATM   18  C19 UNL     1       5.460   2.395   0.803  1.00  0.00    -0.036 A 
HETATM   19  C23 UNL     1       4.456   2.414   1.768  1.00  0.00     0.012 A 
HETATM   20  C24 UNL     1       3.464   1.486   1.822  1.00  0.00     0.016 A 
BRANCH  18  21
HETATM   21  C20 UNL     1       6.519   3.401   0.813  1.00  0.00     0.015 C 
HETATM   22  C21 UNL     1       7.524   3.469  -0.005  1.00  0.00     0.058 C 
BRANCH  22  23
HETATM   23  C22 UNL     1       8.590   4.434  -0.034  1.00  0.00     0.159 C 
HETATM   24  N3  UNL     1       8.768   5.430   0.742  1.00  0.00    -0.248 N 
ATOM     25  H3  UNL     1       9.600   5.981   0.532  1.00  0.00     0.196 HD
BRANCH  23  26
HETATM   26  O5  UNL     1       9.594   4.306  -1.033  1.00  0.00    -0.345 OA
ATOM     27  H5  UNL     1      10.298   4.943  -1.052  1.00  0.00     0.219 HD
ENDBRANCH  23  26
BRANCH  24  28
HETATM   28  O6  UNL     1       8.061   5.879   1.777  1.00  0.00    -0.288 OA
ATOM     29  H6  UNL     1       8.194   6.621   2.355  1.00  0.00     0.244 HD
ENDBRANCH  24  28
ENDBRANCH  22  23
ENDBRANCH  18  21
ENDBRANCH  12  15
ENDBRANCH  10  12
ENDBRANCH   5  10
BRANCH   4  30
HETATM   30  C4  UNL     1      -1.129  -0.873   0.371  1.00  0.00     0.007 C 
HETATM   31  C5  UNL     1      -2.321  -0.765  -0.195  1.00  0.00    -0.016 C 
BRANCH  31  32
HETATM   32  C6  UNL     1      -3.030   0.480  -0.472  1.00  0.00     0.101 C 
BRANCH  32  33
HETATM   33  S1  UNL     1      -3.341   0.583  -2.262  1.00  0.00    -0.163 SA
BRANCH  33  34
HETATM   34  C7  UNL     1      -4.251   2.114  -2.602  1.00  0.00     0.108 C 
BRANCH  34  35
HETATM   35  C8  UNL     1      -5.601   1.973  -1.934  1.00  0.00     0.162 C 
HETATM   36  O1  UNL     1      -6.245   0.863  -2.480  1.00  0.00    -0.380 OA
HETATM   37  C9  UNL     1      -7.161   0.426  -1.520  1.00  0.00     0.203 C 
HETATM   38  C10 UNL     1      -8.008   1.589  -1.095  1.00  0.00     0.178 C 
HETATM   39  C11 UNL     1      -7.914   2.710  -2.102  1.00  0.00     0.232 C 
HETATM   40  F1  UNL     1      -8.779   3.718  -1.739  1.00  0.00    -0.244 F 
HETATM   41  C12 UNL     1      -6.477   3.183  -2.172  1.00  0.00     0.184 C 
BRANCH  38  42
HETATM   42  O2  UNL     1      -7.625   2.005   0.174  1.00  0.00    -0.390 OA
ATOM     43  H2  UNL     1      -8.161   2.741   0.443  1.00  0.00     0.210 HD
ENDBRANCH  38  42
BRANCH  41  44
HETATM   44  O3  UNL     1      -6.214   4.165  -1.240  1.00  0.00    -0.390 OA
ATOM     45  H3  UNL     1      -6.764   4.925  -1.389  1.00  0.00     0.210 HD
ENDBRANCH  41  44
ENDBRANCH  34  35
ENDBRANCH  33  34
ENDBRANCH  32  33
ENDBRANCH  31  32
ENDBRANCH   4  30
TORSDOF 15
