REMARK  14 active torsions:
REMARK  status: ('A' for Active; 'I' for Inactive)
REMARK    1  A    between atoms: C2_2  and  C4_4 
REMARK    2  A    between atoms: C9_9  and  C10_10 
REMARK    3  A    between atoms: C10_10  and  O1_11 
REMARK    4  A    between atoms: C10_10  and  C11_13 
REMARK    5  A    between atoms: C11_13  and  C12_14 
REMARK    6  A    between atoms: C12_14  and  O2_15 
REMARK    7  A    between atoms: C12_14  and  O3_17 
REMARK    8  A    between atoms: C12_14  and  C13_20 
REMARK    9  A    between atoms: O3_17  and  O4_18 
REMARK   10  A    between atoms: C21_30  and  O6_31 
REMARK   11  A    between atoms: C22_33  and  O7_34 
REMARK   12  A    between atoms: O7_34  and  C23_35 
REMARK   13  A    between atoms: C23_35  and  C24_36 
REMARK   14  A    between atoms: C24_36  and  C25_37 
ROOT
HETATM    1  C4  UNL     1      -2.030   2.228   0.845  1.00  0.00     0.110 C 
HETATM    2  C5  UNL     1      -1.194   2.665  -0.296  1.00  0.00     0.030 C 
HETATM    3  C6  UNL     1      -0.670   1.704  -1.272  1.00  0.00     0.037 C 
HETATM    4  C7  UNL     1      -0.295   0.309  -0.899  1.00  0.00     0.013 C 
HETATM    5  C8  UNL     1      -0.361  -0.572  -2.117  1.00  0.00     0.020 C 
HETATM    6  C9  UNL     1       1.133   0.186  -0.422  1.00  0.00     0.098 C 
HETATM    7  C16 UNL     1       1.945   0.622  -1.627  1.00  0.00     0.161 C 
HETATM    8  O5  UNL     1       2.893  -0.024  -2.021  1.00  0.00    -0.295 OA
HETATM    9  C17 UNL     1       1.613   1.859  -2.379  1.00  0.00     0.139 A 
HETATM   10 CL1  UNL     1       2.260   1.912  -4.030  1.00  0.00    -0.106 Cl
HETATM   11  C18 UNL     1       1.515   3.186  -1.588  1.00  0.00     0.018 A 
HETATM   12  C19 UNL     1       2.304   3.111  -0.349  1.00  0.00     0.020 C 
HETATM   13  C20 UNL     1       1.966   4.389  -2.460  1.00  0.00     0.020 C 
HETATM   14  C21 UNL     1       0.350   2.477  -2.055  1.00  0.00     0.101 A 
HETATM   15  C22 UNL     1      -1.286  -0.270   0.068  1.00  0.00     0.224 C 
HETATM   16  S1  UNL     1      -1.171   0.834   1.528  1.00  0.00     0.053 S 
HETATM   17  O8  UNL     1      -1.905   0.167   2.833  1.00  0.00    -0.255 OA
ENDROOT
BRANCH   6  18
HETATM   18  C10 UNL     1       1.601  -1.205  -0.145  1.00  0.00     0.136 C 
BRANCH  18  19
HETATM   19  O1  UNL     1       1.610  -2.058  -1.241  1.00  0.00    -0.395 OA
ATOM     20  H1  UNL     1       1.908  -2.943  -1.065  1.00  0.00     0.210 HD
ENDBRANCH  18  19
BRANCH  18  21
HETATM   21  C11 UNL     1       2.905  -1.174   0.592  1.00  0.00     0.108 C 
BRANCH  21  22
HETATM   22  C12 UNL     1       3.454  -2.540   0.907  1.00  0.00     0.221 C 
BRANCH  22  23
HETATM   23  O2  UNL     1       3.687  -3.295  -0.245  1.00  0.00    -0.360 OA
ATOM     24  H2  UNL     1       4.033  -4.157  -0.046  1.00  0.00     0.213 HD
ENDBRANCH  22  23
BRANCH  22  25
HETATM   25  O3  UNL     1       2.515  -3.162   1.725  1.00  0.00    -0.198 OA
BRANCH  25  26
HETATM   26  O4  UNL     1       2.338  -2.420   2.798  1.00  0.00    -0.247 OA
ATOM     27  H4  UNL     1       1.697  -2.844   3.356  1.00  0.00     0.253 HD
ENDBRANCH  25  26
ENDBRANCH  22  25
BRANCH  22  28
HETATM   28  C13 UNL     1       4.755  -2.410   1.581  1.00  0.00    -0.029 C 
HETATM   29  C14 UNL     1       4.986  -2.996   2.728  1.00  0.00     0.019 C 
HETATM   30  C15 UNL     1       5.854  -1.630   0.946  1.00  0.00     0.048 C 
ENDBRANCH  22  28
ENDBRANCH  21  22
ENDBRANCH  18  21
ENDBRANCH   6  18
BRANCH  15  31
HETATM   31  O7  UNL     1      -2.538  -0.177  -0.451  1.00  0.00    -0.372 OA
BRANCH  31  32
HETATM   32  C23 UNL     1      -3.457  -1.133  -0.283  1.00  0.00     0.169 C 
BRANCH  32  33
HETATM   33  C24 UNL     1      -3.217  -2.513  -0.764  1.00  0.00     0.030 C 
BRANCH  33  34
HETATM   34  C25 UNL     1      -4.456  -3.344  -0.415  1.00  0.00    -0.021 C 
HETATM   35  C26 UNL     1      -4.309  -4.763  -0.863  1.00  0.00     0.009 C 
HETATM   36  C27 UNL     1      -5.696  -2.730  -1.010  1.00  0.00     0.009 C 
ENDBRANCH  33  34
ENDBRANCH  32  33
ENDBRANCH  31  32
ENDBRANCH  15  31
BRANCH  14  37
HETATM   37  O6  UNL     1      -0.265   3.088  -3.201  1.00  0.00    -0.386 OA
ATOM     38  H6  UNL     1       0.381   3.577  -3.697  1.00  0.00     0.210 HD
ENDBRANCH  14  37
BRANCH   1  39
HETATM   39  C2  UNL     1      -2.136   3.342   1.827  1.00  0.00    -0.077 C 
HETATM   40  C1  UNL     1      -3.339   3.806   2.098  1.00  0.00     0.015 C 
HETATM   41  C3  UNL     1      -0.947   3.932   2.495  1.00  0.00     0.044 C 
ENDBRANCH   1  39
TORSDOF 14
