REMARK  11 active torsions:
REMARK  status: ('A' for Active; 'I' for Inactive)
REMARK    1  A    between atoms: C4_4  and  C5_5 
REMARK    2  A    between atoms: C5_5  and  C6_6 
REMARK    3  A    between atoms: N2_10  and  C8_11 
REMARK    4  A    between atoms: C12_16  and  O2_17 
REMARK    5  A    between atoms: C13_19  and  O3_20 
REMARK    6  A    between atoms: C17_26  and  O4_27 
REMARK    7  A    between atoms: O4_27  and  C18_28 
REMARK    8  A    between atoms: C18_28  and  C19_29 
REMARK    9  A    between atoms: C19_29  and  C20_30 
REMARK   10  A    between atoms: C20_30  and  O5_31 
REMARK   11  A    between atoms: O5_31  and  N3_32 
ROOT
HETATM    1  C1  UNL     1       1.720  -1.103   2.375  1.00  0.00     0.051 C 
HETATM    2  C2  UNL     1       1.116  -1.180   1.047  1.00  0.00    -0.028 A 
HETATM    3  C3  UNL     1      -0.269  -1.225   0.808  1.00  0.00     0.018 A 
HETATM    4  C4  UNL     1      -0.675  -1.149  -0.482  1.00  0.00    -0.036 A 
HETATM    5  C15 UNL     1       0.211  -1.034  -1.541  1.00  0.00     0.020 A 
HETATM    6 BR1  UNL     1      -0.452  -0.913  -3.366  1.00  0.00    -0.050 Br
HETATM    7  C16 UNL     1       1.553  -0.983  -1.331  1.00  0.00     0.057 A 
HETATM    8  C17 UNL     1       1.991  -1.069  -0.039  1.00  0.00     0.076 A 
ENDROOT
BRANCH   4   9
HETATM    9  C5  UNL     1      -2.089  -1.258  -0.833  1.00  0.00     0.081 C 
BRANCH   9  10
HETATM   10  C6  UNL     1      -3.030  -0.628   0.115  1.00  0.00    -0.020 A 
HETATM   11  C7  UNL     1      -2.883   0.264   1.113  1.00  0.00     0.116 A 
HETATM   12  N1  UNL     1      -4.107   0.530   1.630  1.00  0.00    -0.307 N 
HETATM   13  N2  UNL     1      -5.000  -0.189   0.951  1.00  0.00    -0.271 N 
ATOM     14  H1  UNL     1      -4.309   1.167   2.401  1.00  0.00     0.186 HD
HETATM   15  C14 UNL     1      -4.388  -0.919   0.020  1.00  0.00     0.122 A 
BRANCH  13  16
HETATM   16  C8  UNL     1      -6.453  -0.036   1.089  1.00  0.00     0.275 C 
HETATM   17  O1  UNL     1      -7.057  -0.797   0.100  1.00  0.00    -0.349 OA
HETATM   18  C9  UNL     1      -8.184  -0.106  -0.271  1.00  0.00     0.085 C 
HETATM   19  C10 UNL     1      -9.130  -0.117   0.926  1.00  0.00     0.048 C 
HETATM   20  C11 UNL     1      -8.839  -0.625  -1.496  1.00  0.00     0.048 C 
HETATM   21  C12 UNL     1      -7.672   1.291  -0.535  1.00  0.00     0.185 C 
HETATM   22  C13 UNL     1      -6.571   1.398   0.466  1.00  0.00     0.200 C 
BRANCH  21  23
HETATM   23  O2  UNL     1      -8.666   2.253  -0.315  1.00  0.00    -0.390 OA
ATOM     24  H2  UNL     1      -8.344   3.131  -0.481  1.00  0.00     0.210 HD
ENDBRANCH  21  23
BRANCH  22  25
HETATM   25  O3  UNL     1      -5.378   1.597  -0.310  1.00  0.00    -0.388 OA
ATOM     26  H3  UNL     1      -5.449   2.466  -0.687  1.00  0.00     0.210 HD
ENDBRANCH  22  25
ENDBRANCH  13  16
ENDBRANCH   9  10
ENDBRANCH   4   9
BRANCH   8  27
HETATM   27  O4  UNL     1       3.308  -1.068   0.236  1.00  0.00    -0.350 OA
BRANCH  27  28
HETATM   28  C18 UNL     1       4.483  -0.927  -0.398  1.00  0.00     0.178 C 
BRANCH  28  29
HETATM   29  C19 UNL     1       5.476  -1.467   0.701  1.00  0.00     0.055 C 
BRANCH  29  30
HETATM   30  C20 UNL     1       6.880  -1.245   0.091  1.00  0.00     0.196 C 
BRANCH  30  31
HETATM   31  O5  UNL     1       7.039   0.088   0.476  1.00  0.00    -0.303 OA
BRANCH  31  32
HETATM   32  N3  UNL     1       7.189   1.030  -0.361  1.00  0.00    -0.193 NA
HETATM   33  C21 UNL     1       8.108   1.116  -1.331  1.00  0.00     0.146 C 
HETATM   34  C22 UNL     1       9.510   1.074  -0.684  1.00  0.00     0.184 C 
HETATM   35  O6  UNL     1       9.551   2.084   0.229  1.00  0.00    -0.389 OA
HETATM   36  C23 UNL     1       8.566   2.100   1.180  1.00  0.00     0.184 C 
HETATM   37  C24 UNL     1       7.193   2.252   0.520  1.00  0.00     0.146 C 
ENDBRANCH  31  32
ENDBRANCH  30  31
ENDBRANCH  29  30
ENDBRANCH  28  29
ENDBRANCH  27  28
ENDBRANCH   8  27
TORSDOF 11
