REMARK  12 active torsions:
REMARK  status: ('A' for Active; 'I' for Inactive)
REMARK    1  A    between atoms: C2_2  and  O1_3 
REMARK    2  A    between atoms: O1_3  and  C3_4 
REMARK       I    between atoms: C3_4  and  N1_6 
REMARK    3  A    between atoms: C4_8  and  C5_9 
REMARK    4  A    between atoms: C5_9  and  N2_10 
REMARK    5  A    between atoms: N2_10  and  C6_13 
REMARK    6  A    between atoms: C9_16  and  N3_17 
REMARK    7  A    between atoms: N3_17  and  C10_19 
REMARK    8  A    between atoms: C11_22  and  O3_23 
REMARK    9  A    between atoms: O3_23  and  C12_24 
REMARK   10  A    between atoms: C12_24  and  C13_25 
REMARK   11  A    between atoms: C17_32  and  C18_33 
REMARK   12  A    between atoms: C19_37  and  C20_38 
ROOT
HETATM    1  C10 UNL     1       1.216  -0.128  -1.974  1.00  0.00     0.680 A 
HETATM    2  N4  UNL     1       0.020  -0.425  -1.400  1.00  0.00    -0.171 N 
ATOM      3  H4  UNL     1      -0.012  -0.478  -0.382  1.00  0.00     0.186 HD
HETATM    4  C11 UNL     1      -1.109  -0.652  -2.060  1.00  0.00     0.158 A 
HETATM    5  C25 UNL     1      -1.019  -0.568  -3.463  1.00  0.00     0.074 A 
HETATM    6  C26 UNL     1       0.161  -0.271  -4.094  1.00  0.00     0.110 A 
HETATM    7  N7  UNL     1       1.261  -0.057  -3.306  1.00  0.00    -0.202 N 
ATOM      8  H7  UNL     1       2.149   0.165  -3.755  1.00  0.00     0.183 HD
ENDROOT
BRANCH   4   9
HETATM    9  O3  UNL     1      -2.336  -0.956  -1.532  1.00  0.00    -0.335 OA
BRANCH   9  10
HETATM   10  C12 UNL     1      -2.539  -1.060  -0.172  1.00  0.00     0.184 C 
BRANCH  10  11
HETATM   11  C13 UNL     1      -3.955  -1.423   0.227  1.00  0.00     0.046 C 
HETATM   12  C14 UNL     1      -4.412  -2.724  -0.303  1.00  0.00     0.239 C 
HETATM   13  N5  UNL     1      -4.881  -2.636  -1.646  1.00  0.00    -0.075 N 
HETATM   14  C15 UNL     1      -5.990  -1.731  -1.698  1.00  0.00     0.233 C 
ATOM     15  H52 UNL     1      -4.141  -2.380  -2.299  1.00  0.00     0.277 HD
ATOM     16  H51 UNL     1      -5.108  -3.550  -2.038  1.00  0.00     0.277 HD
HETATM   17  C16 UNL     1      -5.639  -0.325  -1.277  1.00  0.00     0.039 C 
HETATM   18  C17 UNL     1      -4.911  -0.283   0.036  1.00  0.00     0.058 C 
BRANCH  18  19
HETATM   19  C18 UNL     1      -5.907  -0.245   1.145  1.00  0.00     0.121 A 
HETATM   20  O4  UNL     1      -6.027  -1.137   2.130  1.00  0.00    -0.238 OA
HETATM   21  N6  UNL     1      -6.997  -0.809   2.929  1.00  0.00    -0.261 N 
HETATM   22  C19 UNL     1      -7.570   0.312   2.521  1.00  0.00     0.081 A 
ATOM     23  H6  UNL     1      -7.277  -1.340   3.754  1.00  0.00     0.194 HD
HETATM   24  C24 UNL     1      -6.883   0.700   1.367  1.00  0.00     0.173 A 
HETATM   25  F1  UNL     1      -7.141   1.791   0.634  1.00  0.00    -0.201 F 
BRANCH  22  26
HETATM   26  C20 UNL     1      -8.714   1.085   3.099  1.00  0.00    -0.004 C 
HETATM   27  C21 UNL     1      -8.283   2.470   3.472  1.00  0.00     0.021 C 
HETATM   28  C22 UNL     1      -9.802   1.207   2.052  1.00  0.00     0.021 C 
HETATM   29  C23 UNL     1      -9.261   0.349   4.276  1.00  0.00     0.021 C 
ENDBRANCH  22  26
ENDBRANCH  18  19
ENDBRANCH  10  11
ENDBRANCH   9  10
ENDBRANCH   4   9
BRANCH   1  30
HETATM   30  N3  UNL     1       2.258   0.069  -1.264  1.00  0.00    -0.221 N 
ATOM     31  H3  UNL     1       2.108  -0.016  -0.259  1.00  0.00     0.178 HD
BRANCH  30  32
HETATM   32  C9  UNL     1       3.573   0.382  -1.631  1.00  0.00     0.101 C 
HETATM   33  C8  UNL     1       3.984   1.831  -1.355  1.00  0.00     0.027 C 
HETATM   34  C7  UNL     1       5.476   1.762  -1.485  1.00  0.00     0.035 C 
HETATM   35  C6  UNL     1       5.886   0.435  -0.976  1.00  0.00     0.188 C 
HETATM   36  C27 UNL     1       4.625  -0.369  -0.810  1.00  0.00     0.058 C 
BRANCH  35  37
HETATM   37  N2  UNL     1       6.712  -0.306  -1.918  1.00  0.00    -0.067 N 
ATOM     38  H22 UNL     1       6.190  -0.500  -2.772  1.00  0.00     0.278 HD
ATOM     39  H21 UNL     1       6.864  -1.258  -1.585  1.00  0.00     0.278 HD
BRANCH  37  40
HETATM   40  C5  UNL     1       7.957   0.316  -2.228  1.00  0.00     0.277 C 
BRANCH  40  41
HETATM   41  C4  UNL     1       8.920   0.350  -1.119  1.00  0.00     0.093 C 
HETATM   42  N1  UNL     1      10.033  -0.292  -1.180  1.00  0.00    -0.315 N 
HETATM   43  C3  UNL     1      11.018  -0.318  -0.164  1.00  0.00     0.364 C 
ATOM     44  H1  UNL     1      10.221  -0.825  -2.029  1.00  0.00     0.170 HD
HETATM   45  O2  UNL     1      12.245  -0.401  -0.513  1.00  0.00    -0.238 OA
BRANCH  43  46
HETATM   46  O1  UNL     1      10.776  -0.261   1.191  1.00  0.00    -0.304 OA
BRANCH  46  47
HETATM   47  C2  UNL     1      11.808  -0.293   2.162  1.00  0.00     0.176 C 
HETATM   48  C1  UNL     1      11.176  -0.210   3.517  1.00  0.00     0.034 C 
ENDBRANCH  46  47
ENDBRANCH  43  46
ENDBRANCH  40  41
ENDBRANCH  37  40
ENDBRANCH  35  37
ENDBRANCH  30  32
ENDBRANCH   1  30
TORSDOF 12
