REMARK  9 active torsions:
REMARK  status: ('A' for Active; 'I' for Inactive)
REMARK    1  A    between atoms: C2_2  and  C3_3 
REMARK    2  A    between atoms: C2_2  and  N1_6 
REMARK    3  A    between atoms: C3_3  and  O1_4 
REMARK       I    between atoms: N1_6  and  C4_8 
REMARK       I    between atoms: C4_8  and  N2_10 
REMARK    4  A    between atoms: N2_10  and  C6_12 
REMARK    5  A    between atoms: C17_26  and  C18_27 
REMARK    6  A    between atoms: C23_35  and  O3_36 
REMARK    7  A    between atoms: N5_38  and  C24_39 
REMARK    8  A    between atoms: C24_39  and  C26_41 
REMARK    9  A    between atoms: C26_41  and  O4_42 
ROOT
HETATM    1  C6  UNL     1      -3.436  -0.891  -0.696  1.00  0.00     0.098 C 
HETATM    2  C7  UNL     1      -2.027  -0.784  -0.391  1.00  0.00    -0.056 C 
HETATM    3  C8  UNL     1      -1.328   0.513  -0.334  1.00  0.00     0.037 C 
HETATM    4  C9  UNL     1      -0.414   0.896  -1.472  1.00  0.00     0.013 C 
HETATM    5  C10 UNL     1       0.949   1.364  -1.051  1.00  0.00     0.090 C 
HETATM    6  C11 UNL     1       2.090   0.502  -1.444  1.00  0.00     0.165 C 
HETATM    7  F1  UNL     1       2.168   0.250  -2.799  1.00  0.00    -0.191 F 
HETATM    8  N3  UNL     1       2.971  -0.026  -0.696  1.00  0.00    -0.335 N 
ATOM      9  H3  UNL     1       3.603  -0.551  -1.301  1.00  0.00     0.168 HD
HETATM   10  C12 UNL     1       3.423  -0.181   0.596  1.00  0.00     0.059 A 
HETATM   11  C13 UNL     1       3.004  -1.303   1.382  1.00  0.00     0.043 A 
HETATM   12  C14 UNL     1       3.448  -1.409   2.695  1.00  0.00     0.018 A 
HETATM   13  C15 UNL     1       4.273  -0.478   3.254  1.00  0.00     0.002 A 
HETATM   14  C16 UNL     1       4.677   0.581   2.517  1.00  0.00     0.014 A 
HETATM   15  C17 UNL     1       4.276   0.769   1.170  1.00  0.00    -0.006 A 
HETATM   16  C23 UNL     1       2.257  -2.468   0.935  1.00  0.00     0.155 C 
HETATM   17  N5  UNL     1       1.028  -2.711   0.299  1.00  0.00    -0.334 N 
HETATM   18  C27 UNL     1      -0.036  -1.823   0.296  1.00  0.00     0.075 C 
HETATM   19  C28 UNL     1      -1.437  -1.857   0.583  1.00  0.00     0.050 C 
HETATM   20  C29 UNL     1      -2.155  -3.144   0.496  1.00  0.00     0.020 C 
ENDROOT
BRANCH   1  21
HETATM   21  N2  UNL     1      -4.476  -0.257   0.007  1.00  0.00    -0.314 N 
HETATM   22  C4  UNL     1      -5.051   0.973  -0.389  1.00  0.00     0.322 C 
HETATM   23  N1  UNL     1      -6.084   1.666   0.291  1.00  0.00    -0.336 N 
HETATM   24  O2  UNL     1      -4.631   1.546  -1.458  1.00  0.00    -0.247 OA
ATOM     25  H1  UNL     1      -6.456   1.273   1.155  1.00  0.00     0.164 HD
HETATM   26  C5  UNL     1      -5.027  -0.837   1.201  1.00  0.00     0.160 C 
BRANCH  23  27
HETATM   27  C2  UNL     1      -6.629   2.918  -0.204  1.00  0.00     0.105 C 
HETATM   28  C1  UNL     1      -6.734   3.996   0.839  1.00  0.00     0.034 C 
BRANCH  27  29
HETATM   29  C3  UNL     1      -8.062   2.686  -0.723  1.00  0.00     0.189 C 
BRANCH  29  30
HETATM   30  O1  UNL     1      -8.879   2.205   0.296  1.00  0.00    -0.399 OA
ATOM     31  H1  UNL     1      -9.762   2.062  -0.024  1.00  0.00     0.209 HD
ENDBRANCH  29  30
ENDBRANCH  27  29
ENDBRANCH  23  27
ENDBRANCH   1  21
BRANCH  17  32
HETATM   32  C24 UNL     1       0.898  -3.952  -0.449  1.00  0.00     0.110 C 
HETATM   33  C25 UNL     1       1.226  -5.195   0.339  1.00  0.00     0.035 C 
BRANCH  32  34
HETATM   34  C26 UNL     1       1.866  -3.965  -1.649  1.00  0.00     0.189 C 
BRANCH  34  35
HETATM   35  O4  UNL     1       1.653  -5.187  -2.282  1.00  0.00    -0.399 OA
ATOM     36  H4  UNL     1       2.249  -5.195  -3.021  1.00  0.00     0.209 HD
ENDBRANCH  34  35
ENDBRANCH  32  34
ENDBRANCH  17  32
BRANCH  16  37
HETATM   37  O3  UNL     1       2.890  -3.604   1.189  1.00  0.00    -0.345 OA
ATOM     38  H3  UNL     1       2.402  -4.365   0.897  1.00  0.00     0.219 HD
ENDBRANCH  16  37
BRANCH  15  39
HETATM   39  C18 UNL     1       4.826   1.994   0.573  1.00  0.00    -0.064 C 
HETATM   40  C19 UNL     1       6.199   2.358   1.101  1.00  0.00     0.062 C 
HETATM   41  C20 UNL     1       7.157   2.019  -0.088  1.00  0.00     0.236 C 
HETATM   42  N4  UNL     1       6.992   3.017  -1.107  1.00  0.00    -0.075 N 
HETATM   43  C21 UNL     1       5.647   3.544  -1.118  1.00  0.00     0.236 C 
ATOM     44  H42 UNL     1       7.684   3.761  -1.016  1.00  0.00     0.277 HD
ATOM     45  H41 UNL     1       7.261   2.662  -2.024  1.00  0.00     0.277 HD
HETATM   46  C22 UNL     1       4.695   2.337  -0.829  1.00  0.00     0.062 C 
ENDBRANCH  15  39
TORSDOF 9
