REMARK  9 active torsions:
REMARK  status: ('A' for Active; 'I' for Inactive)
REMARK    1  A    between atoms: C2_2  and  C4_4 
REMARK    2  A    between atoms: C4_4  and  N1_5 
REMARK    3  A    between atoms: C4_4  and  C20_32 
REMARK    4  A    between atoms: N1_5  and  C5_7 
REMARK    5  A    between atoms: C5_7  and  C6_12 
REMARK    6  A    between atoms: N2_8  and  O1_10 
REMARK    7  A    between atoms: C6_12  and  N3_13 
REMARK    8  A    between atoms: C6_12  and  C16_28 
REMARK       I    between atoms: N3_13  and  C7_15 
REMARK    9  A    between atoms: C7_15  and  C8_17 
REMARK       I    between atoms: C20_32  and  N5_34 
ROOT
HETATM    1  C5  UNL     1      -0.380   0.315   0.765  1.00  0.00     0.149 C 
HETATM    2  N2  UNL     1      -0.943   1.446   0.929  1.00  0.00    -0.251 N 
ATOM      3  H2  UNL     1      -1.963   1.443   0.927  1.00  0.00     0.196 HD
ENDROOT
BRANCH   1   4
HETATM    4  N1  UNL     1       1.006   0.222   0.741  1.00  0.00    -0.338 N 
ATOM      5  H1  UNL     1       1.429  -0.400   1.430  1.00  0.00     0.167 HD
BRANCH   4   6
HETATM    6  C4  UNL     1       1.893   0.887  -0.124  1.00  0.00     0.083 C 
BRANCH   6   7
HETATM    7  C2  UNL     1       2.048   0.657  -1.544  1.00  0.00     0.033 C 
HETATM    8  C1  UNL     1       3.050   1.698  -2.118  1.00  0.00     0.016 C 
HETATM    9  C3  UNL     1       2.374  -0.691  -2.084  1.00  0.00     0.016 C 
ENDBRANCH   6   7
BRANCH   6  10
HETATM   10  C20 UNL     1       3.190   1.221   0.644  1.00  0.00     0.268 C 
HETATM   11  O3  UNL     1       3.029   1.884   1.671  1.00  0.00    -0.266 OA
HETATM   12  N5  UNL     1       4.423   0.777   0.176  1.00  0.00    -0.325 N 
HETATM   13  C21 UNL     1       5.695   1.003   0.600  1.00  0.00     0.027 C 
ATOM     14  H5  UNL     1       4.361   0.167  -0.639  1.00  0.00     0.169 HD
HETATM   15  C22 UNL     1       6.045   1.472   2.005  1.00  0.00     0.084 C 
HETATM   16  C29 UNL     1       6.704  -0.018   0.270  1.00  0.00     0.020 A 
HETATM   17  C23 UNL     1       7.352   2.282   1.827  1.00  0.00     0.181 C 
HETATM   18  O4  UNL     1       8.109   1.807   0.710  1.00  0.00    -0.350 OA
HETATM   19  C24 UNL     1       8.028   0.481   0.322  1.00  0.00     0.083 A 
HETATM   20  C25 UNL     1       9.092  -0.306   0.020  1.00  0.00     0.079 A 
HETATM   21  C26 UNL     1       8.849  -1.621  -0.337  1.00  0.00     0.119 A 
HETATM   22  F1  UNL     1       9.902  -2.448  -0.643  1.00  0.00    -0.206 F 
HETATM   23  C27 UNL     1       7.534  -2.115  -0.385  1.00  0.00     0.043 A 
HETATM   24  C28 UNL     1       6.472  -1.302  -0.081  1.00  0.00     0.019 A 
ENDBRANCH   6  10
ENDBRANCH   4   6
ENDBRANCH   1   4
BRANCH   1  25
HETATM   25  C6  UNL     1      -1.366  -0.816   0.768  1.00  0.00     0.065 C 
BRANCH  25  26
HETATM   26  N3  UNL     1      -2.672  -0.298   0.731  1.00  0.00    -0.325 N 
HETATM   27  C7  UNL     1      -3.418   0.407  -0.252  1.00  0.00     0.253 C 
HETATM   28  O2  UNL     1      -2.924   0.622  -1.379  1.00  0.00    -0.271 OA
ATOM     29  H3  UNL     1      -3.195  -0.463   1.591  1.00  0.00     0.169 HD
BRANCH  27  30
HETATM   30  C8  UNL     1      -4.778   0.885   0.015  1.00  0.00     0.277 C 
HETATM   31  C9  UNL     1      -5.292   1.934  -0.956  1.00  0.00     0.043 C 
HETATM   32  C10 UNL     1      -6.659   1.506  -1.496  1.00  0.00     0.007 C 
HETATM   33  C11 UNL     1      -7.658   1.070  -0.520  1.00  0.00    -0.012 C 
HETATM   34  C12 UNL     1      -8.032  -0.417  -0.758  1.00  0.00     0.007 C 
HETATM   35  C15 UNL     1      -7.262   1.115   0.940  1.00  0.00     0.037 C 
HETATM   36  C13 UNL     1      -7.730  -1.117   0.596  1.00  0.00     0.033 C 
HETATM   37  C14 UNL     1      -6.553  -0.265   1.014  1.00  0.00     0.187 C 
HETATM   38  N4  UNL     1      -5.661  -0.291  -0.191  1.00  0.00    -0.058 N 
ATOM     39  H42 UNL     1      -6.154  -0.300  -1.084  1.00  0.00     0.278 HD
ATOM     40  H41 UNL     1      -5.168  -1.172  -0.335  1.00  0.00     0.278 HD
ENDBRANCH  27  30
ENDBRANCH  25  26
BRANCH  25  41
HETATM   41  C16 UNL     1      -1.123  -2.026   0.050  1.00  0.00    -0.005 C 
HETATM   42  C17 UNL     1      -0.938  -1.965  -1.428  1.00  0.00     0.021 C 
HETATM   43  C18 UNL     1       0.027  -2.867   0.647  1.00  0.00     0.021 C 
HETATM   44  C19 UNL     1      -2.343  -2.972   0.230  1.00  0.00     0.021 C 
ENDBRANCH  25  41
ENDBRANCH   1  25
BRANCH   2  45
HETATM   45  O1  UNL     1      -0.363   2.628   1.102  1.00  0.00    -0.288 OA
ATOM     46  H1  UNL     1      -0.783   3.471   1.224  1.00  0.00     0.244 HD
ENDBRANCH   2  45
TORSDOF 9
