REMARK  3 active torsions:
REMARK  status: ('A' for Active; 'I' for Inactive)
REMARK    1  A    between atoms: C1_2  and  C2_3 
REMARK       I    between atoms: C1_2  and  N3_27 
REMARK    2  A    between atoms: C2_3  and  C3_4 
REMARK    3  A    between atoms: N3_27  and  N4_29 
REMARK       I    between atoms: N4_29  and  C21_31 
REMARK       I    between atoms: C21_31  and  N5_33 
ROOT
HETATM    1  C3  UNL     1       0.607   1.262  -0.488  1.00  0.00     0.066 C 
HETATM    2  C4  UNL     1      -0.414   2.375  -0.457  1.00  0.00     0.013 C 
HETATM    3  C5  UNL     1      -1.166   2.491   0.832  1.00  0.00     0.001 C 
HETATM    4  C6  UNL     1      -2.330   3.457   0.643  1.00  0.00     0.000 C 
HETATM    5  C7  UNL     1      -3.472   3.187   1.580  1.00  0.00     0.000 C 
HETATM    6  C8  UNL     1      -4.753   3.138   0.762  1.00  0.00     0.000 C 
HETATM    7  C9  UNL     1      -5.619   1.948   1.151  1.00  0.00     0.002 C 
HETATM    8  C10 UNL     1      -4.766   0.728   1.427  1.00  0.00     0.020 C 
HETATM    9  C11 UNL     1      -5.458  -0.546   1.020  1.00  0.00     0.127 C 
HETATM   10  N1  UNL     1      -4.554  -1.615   0.713  1.00  0.00    -0.365 N 
HETATM   11  C12 UNL     1      -4.598  -2.109  -0.598  1.00  0.00     0.063 C 
HETATM   12  C13 UNL     1      -4.493  -1.067  -1.699  1.00  0.00     0.044 C 
HETATM   13  C14 UNL     1      -3.456  -1.434  -2.732  1.00  0.00     0.005 C 
HETATM   14  C15 UNL     1      -2.106  -1.709  -2.174  1.00  0.00     0.003 C 
HETATM   15  C16 UNL     1      -1.591  -0.633  -1.249  1.00  0.00     0.033 C 
HETATM   16  C17 UNL     1      -0.554  -1.091  -0.290  1.00  0.00     0.154 C 
HETATM   17  N2  UNL     1      -0.978  -2.022   0.715  1.00  0.00    -0.345 N 
ATOM     18  H2  UNL     1      -0.224  -2.419   1.276  1.00  0.00     0.163 HD
HETATM   19  C18 UNL     1      -2.262  -2.474   1.050  1.00  0.00     0.257 C 
HETATM   20  O2  UNL     1      -2.459  -3.744   0.936  1.00  0.00    -0.267 OA
HETATM   21  C19 UNL     1      -3.421  -1.724   1.516  1.00  0.00     0.164 C 
HETATM   22  C20 UNL     1       0.176   0.073   0.274  1.00  0.00     0.154 C 
HETATM   23  O3  UNL     1       0.443   0.046   1.465  1.00  0.00    -0.295 OA
ENDROOT
BRANCH   1  24
HETATM   24  C2  UNL     1       1.925   1.839  -0.099  1.00  0.00     0.117 C 
BRANCH  24  25
HETATM   25  C1  UNL     1       3.008   0.795  -0.105  1.00  0.00     0.236 C 
HETATM   26  O1  UNL     1       2.665  -0.374  -0.326  1.00  0.00    -0.272 OA
HETATM   27  N3  UNL     1       4.344   1.190   0.135  1.00  0.00    -0.266 N 
ATOM     28  H3  UNL     1       4.464   2.189   0.300  1.00  0.00     0.190 HD
BRANCH  27  29
HETATM   29  N4  UNL     1       5.496   0.472   0.184  1.00  0.00    -0.249 N 
HETATM   30  C21 UNL     1       5.805  -0.855  -0.133  1.00  0.00     0.337 C 
HETATM   31  O4  UNL     1       4.977  -1.684  -0.560  1.00  0.00    -0.245 OA
HETATM   32  N5  UNL     1       7.140  -1.349   0.024  1.00  0.00    -0.333 N 
HETATM   33  C22 UNL     1       7.543  -2.724  -0.250  1.00  0.00     0.127 C 
HETATM   34  C25 UNL     1       8.299  -0.598   0.456  1.00  0.00     0.127 C 
HETATM   35  C23 UNL     1       9.034  -2.748  -0.172  1.00  0.00     0.022 C 
HETATM   36  C24 UNL     1       9.403  -1.293  -0.335  1.00  0.00     0.022 C 
ATOM     37  H4  UNL     1       6.296   1.008   0.519  1.00  0.00     0.192 HD
ENDBRANCH  27  29
ENDBRANCH  24  25
ENDBRANCH   1  24
TORSDOF 3
