REMARK  2 active torsions:
REMARK  status: ('A' for Active; 'I' for Inactive)
REMARK    1  A    between atoms: N1_1  and  C1_4 
REMARK    2  A    between atoms: C2_7  and  N3_8 
ROOT
HETATM    1  C1  UNL     1       3.232   0.045  -0.120  1.00  0.00     0.705 A 
HETATM    2  N2  UNL     1       2.051   0.512  -0.555  1.00  0.00    -0.020 N 
ATOM      3  H2  UNL     1       1.925   1.345  -1.129  1.00  0.00     0.203 HD
HETATM    4  C2  UNL     1       1.045  -0.296  -0.113  1.00  0.00     0.710 A 
HETATM    5  N5  UNL     1       1.656  -1.253   0.593  1.00  0.00    -0.117 N 
ATOM      6  H5  UNL     1       1.180  -2.023   1.062  1.00  0.00     0.206 HD
HETATM    7  N6  UNL     1       2.979  -1.059   0.598  1.00  0.00    -0.118 N 
ATOM      8  H6  UNL     1       3.671  -1.645   1.064  1.00  0.00     0.206 HD
ENDROOT
BRANCH   4   9
HETATM    9  N3  UNL     1      -0.344  -0.120  -0.373  1.00  0.00    -0.206 N 
HETATM   10  C3  UNL     1      -1.283  -1.067   0.168  1.00  0.00     0.161 C 
HETATM   11  C4  UNL     1      -2.375  -0.360   0.980  1.00  0.00     0.143 C 
HETATM   12  N4  UNL     1      -2.837   0.828   0.324  1.00  0.00    -0.358 N 
HETATM   13  C5  UNL     1      -2.043   1.598  -0.573  1.00  0.00     0.236 C 
ATOM     14  H4  UNL     1      -3.790   1.140   0.511  1.00  0.00     0.162 HD
HETATM   15  O1  UNL     1      -2.383   2.777  -0.853  1.00  0.00    -0.272 OA
HETATM   16  C6  UNL     1      -0.815   0.987  -1.167  1.00  0.00     0.244 C 
ENDBRANCH   4   9
BRANCH   1  17
HETATM   17  N1  UNL     1       4.400   0.579  -0.359  1.00  0.00    -0.233 N 
ATOM     18  H12 UNL     1       4.592   1.419  -0.905  1.00  0.00     0.174 HD
ATOM     19  H11 UNL     1       5.297   0.224  -0.028  1.00  0.00     0.174 HD
ENDBRANCH   1  17
TORSDOF 2
