REMARK  3 active torsions:
REMARK  status: ('A' for Active; 'I' for Inactive)
REMARK    1  A    between atoms: O1_1  and  N1_3 
REMARK    2  A    between atoms: N1_3  and  N2_5 
REMARK    3  A    between atoms: N2_5  and  C1_7 
ROOT
HETATM    1  C1  UNL     1       1.052  -0.378  -0.254  1.00  0.00     0.125 C 
HETATM    2  C2  UNL     1       0.660   0.949  -0.413  1.00  0.00     0.055 C 
HETATM    3  C3  UNL     1      -0.614   1.453  -0.153  1.00  0.00     0.078 C 
HETATM    4  C4  UNL     1      -1.735   0.789   0.346  1.00  0.00     0.249 C 
HETATM    5  O2  UNL     1      -2.610   1.500   0.902  1.00  0.00    -0.268 OA
HETATM    6  N3  UNL     1      -1.920  -0.537   0.262  1.00  0.00    -0.275 N 
ATOM      7  H3  UNL     1      -2.865  -0.843   0.492  1.00  0.00     0.173 HD
HETATM    8  C5  UNL     1      -1.081  -1.538  -0.072  1.00  0.00     0.328 C 
HETATM    9  O3  UNL     1      -1.564  -2.695  -0.223  1.00  0.00    -0.247 OA
HETATM   10  N4  UNL     1       0.265  -1.467  -0.276  1.00  0.00    -0.293 N 
ATOM     11  H4  UNL     1       0.734  -2.352  -0.470  1.00  0.00     0.172 HD
ENDROOT
BRANCH   1  12
HETATM   12  N2  UNL     1       2.323  -0.559  -0.066  1.00  0.00    -0.266 N 
ATOM     13  H2  UNL     1       2.683  -1.505   0.058  1.00  0.00     0.190 HD
BRANCH  12  14
HETATM   14  N1  UNL     1       3.204   0.523  -0.031  1.00  0.00    -0.209 N 
ATOM     15  H1  UNL     1       3.615   0.889  -0.890  1.00  0.00     0.215 HD
BRANCH  14  16
HETATM   16  O1  UNL     1       3.482   1.040   1.088  1.00  0.00    -0.274 OA
ATOM     17  H1  UNL     1       4.082   1.776   1.112  1.00  0.00     0.246 HD
ENDBRANCH  14  16
ENDBRANCH  12  14
ENDBRANCH   1  12
TORSDOF 3
