REMARK  7 active torsions:
REMARK  status: ('A' for Active; 'I' for Inactive)
REMARK    1  A    between atoms: C5_9  and  C6_10 
REMARK    2  A    between atoms: C6_10  and  N3_11 
REMARK    3  A    between atoms: N3_11  and  C7_13 
REMARK    4  A    between atoms: C7_13  and  C8_14 
REMARK    5  A    between atoms: N4_17  and  C11_18 
REMARK    6  A    between atoms: C12_21  and  N6_22 
REMARK    7  A    between atoms: C14_29  and  N8_30 
ROOT
HETATM    1  C8  UNL     1      -1.491   0.111  -0.179  1.00  0.00     0.118 C 
HETATM    2  C9  UNL     1      -0.716   1.277   0.565  1.00  0.00     0.040 C 
HETATM    3  C10 UNL     1       0.180   0.347   1.364  1.00  0.00     0.135 C 
HETATM    4  N4  UNL     1       0.626  -0.621   0.316  1.00  0.00    -0.301 N 
HETATM    5  C20 UNL     1      -0.285  -0.509  -0.775  1.00  0.00     0.234 C 
HETATM    6  O2  UNL     1      -0.064  -0.861  -1.929  1.00  0.00    -0.272 OA
ENDROOT
BRANCH   4   7
HETATM    7  C11 UNL     1       1.730  -1.460   0.591  1.00  0.00     0.158 A 
HETATM    8  N5  UNL     1       1.465  -2.751   1.025  1.00  0.00    -0.174 N 
HETATM    9  C12 UNL     1       2.401  -3.606   1.392  1.00  0.00     0.680 A 
ATOM     10  H5  UNL     1       0.492  -3.056   1.062  1.00  0.00     0.186 HD
HETATM   11  N7  UNL     1       3.667  -3.242   1.354  1.00  0.00    -0.154 N 
HETATM   12  C13 UNL     1       3.983  -2.006   0.942  1.00  0.00     0.290 A 
ATOM     13  H7  UNL     1       4.399  -3.894   1.635  1.00  0.00     0.187 HD
HETATM   14  O1  UNL     1       5.179  -1.679   0.921  1.00  0.00    -0.265 OA
HETATM   15  C14 UNL     1       3.010  -1.064   0.539  1.00  0.00     0.145 A 
BRANCH   9  16
HETATM   16  N6  UNL     1       2.000  -4.786   1.772  1.00  0.00    -0.234 N 
ATOM     17  H62 UNL     1       1.020  -5.068   1.801  1.00  0.00     0.174 HD
ATOM     18  H61 UNL     1       2.723  -5.447   2.056  1.00  0.00     0.174 HD
ENDBRANCH   9  16
BRANCH  15  19
HETATM   19  N8  UNL     1       3.478   0.158   0.038  1.00  0.00    -0.370 N 
HETATM   20  C15 UNL     1       3.969   0.145  -1.361  1.00  0.00     0.153 C 
HETATM   21  C16 UNL     1       5.021   1.172  -1.603  1.00  0.00     0.291 C 
HETATM   22  N9  UNL     1       5.754   1.596  -0.455  1.00  0.00     0.087 N 
HETATM   23  C17 UNL     1       6.574   2.753  -0.810  1.00  0.00     0.310 C 
HETATM   24  C18 UNL     1       4.983   1.987   0.686  1.00  0.00     0.291 C 
HETATM   25  C19 UNL     1       3.576   1.438   0.670  1.00  0.00     0.153 C 
ENDBRANCH  15  19
ENDBRANCH   4   7
BRANCH   1  26
HETATM   26  C7  UNL     1      -2.532   0.672  -1.001  1.00  0.00     0.070 C 
BRANCH  26  27
HETATM   27  N3  UNL     1      -3.380  -0.156  -1.706  1.00  0.00    -0.397 N 
ATOM     28  H3  UNL     1      -3.366  -0.178  -2.726  1.00  0.00     0.158 HD
BRANCH  27  29
HETATM   29  C6  UNL     1      -4.294  -0.996  -0.952  1.00  0.00     0.161 C 
BRANCH  29  30
HETATM   30  C5  UNL     1      -5.500  -0.253  -0.573  1.00  0.00     0.007 A 
HETATM   31  C2  UNL     1      -6.414   0.419  -1.314  1.00  0.00     0.032 A 
HETATM   32  C1  UNL     1      -6.338   0.654  -2.770  1.00  0.00     0.070 C 
HETATM   33  N1  UNL     1      -7.410   0.898  -0.502  1.00  0.00    -0.304 N 
HETATM   34  N2  UNL     1      -7.124   0.532   0.713  1.00  0.00    -0.304 N 
ATOM     35  H1  UNL     1      -8.223   1.440  -0.796  1.00  0.00     0.186 HD
HETATM   36  C3  UNL     1      -5.960  -0.181   0.735  1.00  0.00     0.032 A 
ATOM     37  H2  UNL     1      -7.690   0.747   1.534  1.00  0.00     0.186 HD
HETATM   38  C4  UNL     1      -5.442  -0.764   1.978  1.00  0.00     0.070 C 
ENDBRANCH  29  30
ENDBRANCH  27  29
ENDBRANCH  26  27
ENDBRANCH   1  26
TORSDOF 7
