REMARK  11 active torsions:
REMARK  status: ('A' for Active; 'I' for Inactive)
REMARK    1  A    between atoms: N1_1  and  C1_4 
REMARK    2  A    between atoms: N3_8  and  C3_10 
REMARK    3  A    between atoms: C3_10  and  C4_11 
REMARK    4  A    between atoms: C4_11  and  C5_12 
REMARK    5  A    between atoms: C5_12  and  N4_13 
REMARK    6  A    between atoms: C12_23  and  C13_24 
REMARK    7  A    between atoms: C13_24  and  C14_25 
REMARK    8  A    between atoms: C14_25  and  C15_26 
REMARK    9  A    between atoms: C15_26  and  C16_27 
REMARK   10  A    between atoms: C18_31  and  C19_32 
REMARK   11  A    between atoms: C19_32  and  N7_33 
ROOT
HETATM    1  C1  UNL     1      -0.375  -2.328  -2.269  1.00  0.00     0.679 A 
HETATM    2  N2  UNL     1      -1.434  -2.107  -1.452  1.00  0.00    -0.175 N 
ATOM      3  H2  UNL     1      -2.299  -2.618  -1.627  1.00  0.00     0.186 HD
HETATM    4  C2  UNL     1      -1.397  -1.252  -0.430  1.00  0.00     0.147 A 
HETATM    5  N3  UNL     1      -2.395  -1.033   0.354  1.00  0.00    -0.374 N 
ATOM      6  H3  UNL     1      -2.292  -0.363   1.116  1.00  0.00     0.161 HD
HETATM    7  C10 UNL     1      -0.193  -0.575  -0.231  1.00  0.00     0.122 A 
HETATM    8  N5  UNL     1      -0.109   0.288   0.777  1.00  0.00    -0.357 N 
ATOM      9  H5  UNL     1      -0.910   0.447   1.388  1.00  0.00     0.165 HD
HETATM   10  C11 UNL     1       1.045   0.949   0.982  1.00  0.00     0.127 A 
HETATM   11  C12 UNL     1       2.161   0.776   0.193  1.00  0.00     0.103 A 
HETATM   12  N9  UNL     1       2.053  -0.112  -0.831  1.00  0.00    -0.332 N 
ATOM     13  H9  UNL     1       2.849  -0.280  -1.446  1.00  0.00     0.168 HD
HETATM   14  C20 UNL     1       0.888  -0.775  -1.035  1.00  0.00     0.152 A 
HETATM   15  N10 UNL     1       0.772  -1.661  -2.053  1.00  0.00    -0.174 N 
ATOM     16  H10 UNL     1       1.570  -1.825  -2.667  1.00  0.00     0.186 HD
ENDROOT
BRANCH  11  17
HETATM   17  C13 UNL     1       3.382   1.492   0.432  1.00  0.00    -0.047 C 
BRANCH  17  18
HETATM   18  C14 UNL     1       4.426   2.086   0.621  1.00  0.00    -0.093 C 
BRANCH  18  19
HETATM   19  C15 UNL     1       5.701   2.786   0.837  1.00  0.00     0.152 C 
BRANCH  19  20
HETATM   20  C16 UNL     1       6.851   1.854   0.829  1.00  0.00     0.037 A 
HETATM   21  C17 UNL     1       7.343   1.221   1.947  1.00  0.00     0.115 A 
HETATM   22  N6  UNL     1       8.382   0.459   1.566  1.00  0.00    -0.352 N 
HETATM   23  C18 UNL     1       8.515   0.628   0.241  1.00  0.00     0.107 A 
ATOM     24  H6  UNL     1       8.957  -0.132   2.166  1.00  0.00     0.166 HD
HETATM   25  N8  UNL     1       7.585   1.480  -0.224  1.00  0.00    -0.346 N 
ATOM     26  H8  UNL     1       7.463   1.782  -1.191  1.00  0.00     0.167 HD
BRANCH  23  27
HETATM   27  C19 UNL     1       9.566  -0.048  -0.601  1.00  0.00     0.305 C 
BRANCH  27  28
HETATM   28  N7  UNL     1       9.417   0.361  -1.981  1.00  0.00    -0.073 N 
ATOM     29  H73 UNL     1       8.475   0.193  -2.333  1.00  0.00     0.274 HD
ATOM     30  H72 UNL     1       9.433   1.375  -2.086  1.00  0.00     0.274 HD
ATOM     31  H71 UNL     1      10.128  -0.097  -2.551  1.00  0.00     0.274 HD
ENDBRANCH  27  28
ENDBRANCH  23  27
ENDBRANCH  19  20
ENDBRANCH  18  19
ENDBRANCH  17  18
ENDBRANCH  11  17
BRANCH   1  32
HETATM   32  N1  UNL     1      -0.480  -3.169  -3.239  1.00  0.00    -0.234 N 
ATOM     33  H12 UNL     1      -1.350  -3.675  -3.403  1.00  0.00     0.174 HD
ATOM     34  H11 UNL     1       0.317  -3.335  -3.854  1.00  0.00     0.174 HD
ENDBRANCH   1  32
BRANCH   5  35
HETATM   35  C3  UNL     1      -3.641  -1.705   0.183  1.00  0.00     0.123 C 
BRANCH  35  36
HETATM   36  C4  UNL     1      -4.528  -1.039  -0.856  1.00  0.00     0.050 C 
BRANCH  36  37
HETATM   37  C5  UNL     1      -4.843   0.392  -0.459  1.00  0.00     0.274 C 
BRANCH  37  38
HETATM   38  N4  UNL     1      -5.533   0.425   0.814  1.00  0.00     0.092 N 
HETATM   39  C6  UNL     1      -5.797   1.835   1.119  1.00  0.00     0.298 C 
HETATM   40  C7  UNL     1      -7.196   2.139   0.622  1.00  0.00     0.198 C 
HETATM   41  O1  UNL     1      -8.088   1.541   1.509  1.00  0.00    -0.388 OA
HETATM   42  C8  UNL     1      -7.814   0.188   1.686  1.00  0.00     0.198 C 
HETATM   43  C9  UNL     1      -6.765  -0.308   0.717  1.00  0.00     0.298 C 
ENDBRANCH  37  38
ENDBRANCH  36  37
ENDBRANCH  35  36
ENDBRANCH   5  35
TORSDOF 11
