REMARK  9 active torsions:
REMARK  status: ('A' for Active; 'I' for Inactive)
REMARK    1  A    between atoms: C3_3  and  N1_4 
REMARK    2  A    between atoms: C11_19  and  O3_20 
REMARK    3  A    between atoms: C12_24  and  N6_25 
REMARK    4  A    between atoms: N6_25  and  C13_27 
REMARK    5  A    between atoms: C13_27  and  C14_28 
REMARK    6  A    between atoms: C14_28  and  C15_29 
REMARK    7  A    between atoms: C15_29  and  C16_30 
REMARK    8  A    between atoms: C16_30  and  C17_31 
REMARK    9  A    between atoms: C17_31  and  N7_32 
ROOT
HETATM    1  C1  UNL     1      -3.933  -2.536   0.740  1.00  0.00     0.054 C 
HETATM    2  C2  UNL     1      -2.567  -2.003   0.422  1.00  0.00     0.010 A 
HETATM    3  C3  UNL     1      -2.372  -0.675   0.426  1.00  0.00     0.121 A 
HETATM    4  N4  UNL     1      -1.160  -0.179   0.143  1.00  0.00    -0.326 N 
ATOM      5  H4  UNL     1      -1.035   0.833   0.154  1.00  0.00     0.169 HD
HETATM    6  C9  UNL     1      -0.102  -0.952  -0.154  1.00  0.00     0.141 A 
HETATM    7  C10 UNL     1      -0.284  -2.338  -0.164  1.00  0.00     0.087 A 
HETATM    8  C11 UNL     1       0.779  -3.148  -0.478  1.00  0.00     0.171 A 
HETATM    9  N5  UNL     1       1.975  -2.559  -0.771  1.00  0.00    -0.170 N 
ATOM     10  H5  UNL     1       2.775  -3.145  -1.009  1.00  0.00     0.186 HD
HETATM   11  C12 UNL     1       2.120  -1.222  -0.753  1.00  0.00     0.683 A 
HETATM   12  N8  UNL     1       1.099  -0.408  -0.448  1.00  0.00    -0.172 N 
HETATM   13  C18 UNL     1       1.214   1.032  -0.408  1.00  0.00     0.177 C 
HETATM   14  C19 UNL     1      -1.531  -2.897   0.127  1.00  0.00     0.053 A 
HETATM   15  N9  UNL     1      -1.812  -4.106   0.153  1.00  0.00    -0.398 N 
ATOM     16  H91 UNL     1      -1.057  -4.757  -0.062  1.00  0.00     0.156 HD
ATOM     17  H92 UNL     1      -2.722  -4.514   0.365  1.00  0.00     0.156 HD
ENDROOT
BRANCH   3  18
HETATM   18  N1  UNL     1      -3.421   0.281   0.697  1.00  0.00    -0.283 N 
HETATM   19  C4  UNL     1      -4.233   0.488  -0.487  1.00  0.00     0.155 C 
HETATM   20  C5  UNL     1      -5.642   0.905  -0.179  1.00  0.00     0.147 C 
HETATM   21  N2  UNL     1      -5.703   2.259   0.353  1.00  0.00    -0.337 N 
HETATM   22  C6  UNL     1      -6.306   3.288  -0.485  1.00  0.00     0.154 C 
HETATM   23  C7  UNL     1      -5.213   2.650   1.637  1.00  0.00     0.326 C 
HETATM   24  O1  UNL     1      -5.695   3.710   2.083  1.00  0.00    -0.247 OA
HETATM   25  N3  UNL     1      -4.242   1.948   2.436  1.00  0.00    -0.260 N 
HETATM   26  C8  UNL     1      -3.456   0.812   2.013  1.00  0.00     0.332 C 
ATOM     27  H3  UNL     1      -4.096   2.284   3.388  1.00  0.00     0.175 HD
HETATM   28  O2  UNL     1      -2.765   0.270   2.877  1.00  0.00    -0.246 OA
ENDBRANCH   3  18
BRANCH   8  29
HETATM   29  O3  UNL     1       0.665  -4.510  -0.505  1.00  0.00    -0.345 OA
ATOM     30  H3  UNL     1       1.401  -5.071  -0.722  1.00  0.00     0.219 HD
ENDBRANCH   8  29
BRANCH  11  31
HETATM   31  N6  UNL     1       3.268  -0.693  -1.052  1.00  0.00    -0.226 N 
ATOM     32  H6  UNL     1       3.393   0.319  -1.042  1.00  0.00     0.177 HD
BRANCH  31  33
HETATM   33  C13 UNL     1       4.345  -1.552  -1.393  1.00  0.00     0.138 C 
BRANCH  33  34
HETATM   34  C14 UNL     1       5.482  -1.507  -0.444  1.00  0.00     0.020 C 
BRANCH  34  35
HETATM   35  C15 UNL     1       6.205  -0.218  -0.321  1.00  0.00     0.003 C 
BRANCH  35  36
HETATM   36  C16 UNL     1       5.421   0.956   0.132  1.00  0.00     0.027 C 
BRANCH  36  37
HETATM   37  C17 UNL     1       6.408   2.135   0.229  1.00  0.00     0.229 C 
BRANCH  37  38
HETATM   38  N7  UNL     1       5.765   3.338   0.658  1.00  0.00    -0.079 N 
ATOM     39  H73 UNL     1       4.972   3.568   0.059  1.00  0.00     0.274 HD
ATOM     40  H72 UNL     1       5.268   3.198   1.537  1.00  0.00     0.274 HD
ATOM     41  H71 UNL     1       6.418   4.119   0.722  1.00  0.00     0.274 HD
ENDBRANCH  37  38
ENDBRANCH  36  37
ENDBRANCH  35  36
ENDBRANCH  34  35
ENDBRANCH  33  34
ENDBRANCH  31  33
ENDBRANCH  11  31
TORSDOF 9
