REMARK  4 active torsions:
REMARK  status: ('A' for Active; 'I' for Inactive)
REMARK       I    between atoms: N1_2  and  C2_4 
REMARK    1  A    between atoms: C2_4  and  C3_6 
REMARK    2  A    between atoms: C4_7  and  N2_8 
REMARK       I    between atoms: N2_8  and  C5_10 
REMARK    3  A    between atoms: C5_10  and  C6_12 
REMARK    4  A    between atoms: C8_18  and  C9_19 
ROOT
HETATM    1  C6  UNL     1       1.654  -2.614   0.700  1.00  0.00     0.129 A 
HETATM    2  N3  UNL     1       2.277  -3.645   1.344  1.00  0.00    -0.295 N 
ATOM      3  H3  UNL     1       1.794  -4.469   1.703  1.00  0.00     0.187 HD
HETATM    4  N4  UNL     1       3.557  -3.451   1.445  1.00  0.00    -0.310 N 
ATOM      5  H4  UNL     1       4.229  -4.080   1.884  1.00  0.00     0.186 HD
HETATM    6  C7  UNL     1       3.834  -2.272   0.866  1.00  0.00     0.122 A 
HETATM    7  C8  UNL     1       2.621  -1.731   0.385  1.00  0.00     0.027 A 
ENDROOT
BRANCH   1   8
HETATM    8  C5  UNL     1       0.228  -2.567   0.433  1.00  0.00     0.275 C 
HETATM    9  N2  UNL     1      -0.522  -1.377   0.263  1.00  0.00    -0.318 N 
ATOM     10  H2  UNL     1      -0.050  -0.477   0.346  1.00  0.00     0.169 HD
HETATM   11  O2  UNL     1      -0.367  -3.673   0.356  1.00  0.00    -0.266 OA
BRANCH   9  12
HETATM   12  C4  UNL     1      -1.898  -1.403  -0.017  1.00  0.00     0.086 A 
HETATM   13  C3  UNL     1      -2.781  -0.290  -0.021  1.00  0.00     0.146 A 
HETATM   14  N9  UNL     1      -3.998  -0.709  -0.390  1.00  0.00    -0.290 N 
HETATM   15  N8  UNL     1      -3.940  -2.028  -0.620  1.00  0.00    -0.307 N 
HETATM   16  C16 UNL     1      -5.227   0.077  -0.532  1.00  0.00     0.178 C 
HETATM   17  C15 UNL     1      -2.690  -2.458  -0.401  1.00  0.00     0.139 A 
ATOM     18  H8  UNL     1      -4.723  -2.612  -0.915  1.00  0.00     0.186 HD
BRANCH  13  19
HETATM   19  C2  UNL     1      -2.381   1.060   0.365  1.00  0.00     0.271 C 
HETATM   20  N1  UNL     1      -3.152   2.222   0.362  1.00  0.00    -0.360 N 
HETATM   21  C1  UNL     1      -2.535   3.482   0.798  1.00  0.00     0.149 C 
ATOM     22  H1  UNL     1      -4.127   2.198   0.062  1.00  0.00     0.162 HD
HETATM   23  O1  UNL     1      -1.164   1.254   0.768  1.00  0.00    -0.266 OA
ENDBRANCH  13  19
ENDBRANCH   9  12
ENDBRANCH   1   8
BRANCH   7  24
HETATM   24  C9  UNL     1       2.578  -0.507  -0.386  1.00  0.00     0.011 A 
HETATM   25  C10 UNL     1       2.132  -0.533  -1.719  1.00  0.00     0.101 A 
HETATM   26  N5  UNL     1       2.137   0.566  -2.490  1.00  0.00    -0.372 N 
HETATM   27  C11 UNL     1       2.563   1.771  -2.061  1.00  0.00     0.119 A 
ATOM     28  H5  UNL     1       1.801   0.485  -3.450  1.00  0.00     0.164 HD
HETATM   29  C12 UNL     1       3.006   1.824  -0.757  1.00  0.00     0.079 A 
HETATM   30  N6  UNL     1       3.478   2.872  -0.065  1.00  0.00    -0.296 N 
HETATM   31  C14 UNL     1       3.016   0.715   0.070  1.00  0.00     0.063 A 
HETATM   32  N7  UNL     1       3.773   2.456   1.139  1.00  0.00    -0.275 N 
ATOM     33  H6  UNL     1       3.587   3.824  -0.416  1.00  0.00     0.187 HD
HETATM   34  C13 UNL     1       3.509   1.129   1.287  1.00  0.00     0.216 A 
ATOM     35  H7  UNL     1       4.153   3.051   1.875  1.00  0.00     0.189 HD
HETATM   36  F1  UNL     1       3.681   0.378   2.383  1.00  0.00    -0.184 F 
ENDBRANCH   7  24
TORSDOF 4
