REMARK  5 active torsions:
REMARK  status: ('A' for Active; 'I' for Inactive)
REMARK    1  A    between atoms: N1_2  and  C2_4 
REMARK    2  A    between atoms: C2_4  and  C5_7 
REMARK    3  A    between atoms: C8_12  and  N3_13 
REMARK    4  A    between atoms: C9_16  and  C10_17 
REMARK    5  A    between atoms: C11_20  and  N5_21 
ROOT
HETATM    1  C5  UNL     1      -2.699   0.134   0.146  1.00  0.00     0.035 A 
HETATM    2  C6  UNL     1      -2.076   0.664   1.255  1.00  0.00     0.102 A 
HETATM    3  N2  UNL     1      -0.728   0.660   1.406  1.00  0.00    -0.362 N 
ATOM      4  H2  UNL     1      -0.321   1.067   2.248  1.00  0.00     0.165 HD
HETATM    5  C7  UNL     1       0.085   0.134   0.476  1.00  0.00     0.081 A 
HETATM    6  C8  UNL     1       1.478   0.152   0.688  1.00  0.00     0.147 A 
HETATM    7  C9  UNL     1       2.270  -0.394  -0.272  1.00  0.00     0.083 A 
HETATM    8  C14 UNL     1       1.659  -0.950  -1.427  1.00  0.00     0.134 A 
HETATM    9  F1  UNL     1       2.458  -1.482  -2.363  1.00  0.00    -0.205 F 
HETATM   10  C15 UNL     1       0.300  -0.943  -1.586  1.00  0.00     0.061 A 
HETATM   11  C16 UNL     1      -0.513  -0.396  -0.630  1.00  0.00     0.047 A 
HETATM   12  C17 UNL     1      -1.875  -0.409  -0.816  1.00  0.00     0.194 A 
HETATM   13  O3  UNL     1      -2.345  -0.919  -1.864  1.00  0.00    -0.287 OA
ENDROOT
BRANCH   7  14
HETATM   14  C10 UNL     1       3.719  -0.408  -0.225  1.00  0.00     0.138 A 
HETATM   15  N4  UNL     1       4.332  -1.356  -1.033  1.00  0.00    -0.176 N 
HETATM   16  C11 UNL     1       5.653  -1.498  -1.019  1.00  0.00     0.678 A 
ATOM     17  H4  UNL     1       3.765  -1.947  -1.641  1.00  0.00     0.186 HD
HETATM   18  N6  UNL     1       6.462  -0.748  -0.235  1.00  0.00    -0.181 N 
HETATM   19  C12 UNL     1       5.893   0.170   0.550  1.00  0.00     0.095 A 
ATOM     20  H6  UNL     1       7.473  -0.880  -0.244  1.00  0.00     0.185 HD
HETATM   21  C13 UNL     1       6.689   1.036   1.440  1.00  0.00     0.089 C 
HETATM   22  N7  UNL     1       4.527   0.316   0.532  1.00  0.00    -0.331 N 
ATOM     23  H7  UNL     1       4.112   1.024   1.138  1.00  0.00     0.168 HD
BRANCH  16  24
HETATM   24  N5  UNL     1       6.143  -2.407  -1.806  1.00  0.00    -0.234 N 
ATOM     25  H52 UNL     1       5.533  -2.972  -2.397  1.00  0.00     0.174 HD
ATOM     26  H51 UNL     1       7.157  -2.516  -1.795  1.00  0.00     0.174 HD
ENDBRANCH  16  24
ENDBRANCH   7  14
BRANCH   6  27
HETATM   27  N3  UNL     1       1.909   0.717   1.920  1.00  0.00    -0.112 N 
HETATM   28  O1  UNL     1       1.843   1.951   2.093  1.00  0.00    -0.532 OA
HETATM   29  O2  UNL     1       2.358  -0.110   2.909  1.00  0.00    -0.532 OA
ENDBRANCH   6  27
BRANCH   1  30
HETATM   30  C2  UNL     1      -4.185   0.163   0.003  1.00  0.00     0.050 C 
HETATM   31  C3  UNL     1      -4.688  -1.278  -0.192  1.00  0.00     0.043 C 
HETATM   32  C4  UNL     1      -4.806   0.650   1.278  1.00  0.00     0.043 C 
BRANCH  30  33
HETATM   33  N1  UNL     1      -4.536   0.910  -1.144  1.00  0.00    -0.413 N 
HETATM   34  C1  UNL     1      -5.922   1.055  -1.431  1.00  0.00     0.141 C 
ATOM     35  H1  UNL     1      -3.824   1.329  -1.742  1.00  0.00     0.153 HD
ENDBRANCH  30  33
ENDBRANCH   1  30
TORSDOF 5
