REMARK  8 active torsions:
REMARK  status: ('A' for Active; 'I' for Inactive)
REMARK    1  A    between atoms: N1_2  and  C2_4 
REMARK    2  A    between atoms: C3_7  and  N3_8 
REMARK    3  A    between atoms: N3_8  and  C4_10 
REMARK    4  A    between atoms: C10_19  and  O1_20 
REMARK    5  A    between atoms: C12_24  and  N6_25 
REMARK    6  A    between atoms: N8_31  and  C14_32 
REMARK    7  A    between atoms: C14_32  and  C15_33 
REMARK    8  A    between atoms: C15_33  and  C16_34 
ROOT
HETATM    1  C2  UNL     1      -2.994   1.015   0.916  1.00  0.00     0.679 A 
HETATM    2  N2  UNL     1      -1.896   1.782   0.784  1.00  0.00    -0.175 N 
ATOM      3  H2  UNL     1      -1.991   2.795   0.851  1.00  0.00     0.186 HD
HETATM    4  C3  UNL     1      -0.680   1.258   0.567  1.00  0.00     0.149 A 
HETATM    5  C7  UNL     1      -0.600  -0.165   0.481  1.00  0.00     0.109 A 
HETATM    6  C8  UNL     1      -1.755  -0.936   0.621  1.00  0.00     0.098 A 
HETATM    7  N4  UNL     1      -2.921  -0.313   0.836  1.00  0.00    -0.188 N 
ATOM      8  H4  UNL     1      -3.771  -0.867   0.941  1.00  0.00     0.184 HD
HETATM    9  C9  UNL     1      -1.401  -2.268   0.506  1.00  0.00     0.090 A 
HETATM   10  C10 UNL     1      -2.082  -3.426   0.559  1.00  0.00     0.173 A 
HETATM   11  N5  UNL     1      -1.419  -4.607   0.411  1.00  0.00    -0.170 N 
ATOM     12  H5  UNL     1      -1.927  -5.491   0.451  1.00  0.00     0.186 HD
HETATM   13  C12 UNL     1      -0.095  -4.597   0.212  1.00  0.00     0.679 A 
HETATM   14  N7  UNL     1       0.579  -3.438   0.159  1.00  0.00    -0.176 N 
ATOM     15  H7  UNL     1       1.588  -3.450   0.007  1.00  0.00     0.186 HD
HETATM   16  C13 UNL     1      -0.053  -2.264   0.303  1.00  0.00     0.141 A 
HETATM   17  N8  UNL     1       0.424  -0.966   0.289  1.00  0.00    -0.327 N 
ENDROOT
BRANCH   4  18
HETATM   18  N3  UNL     1       0.390   1.855   0.432  1.00  0.00    -0.339 N 
ATOM     19  H3  UNL     1       1.147   1.188   0.279  1.00  0.00     0.164 HD
BRANCH  18  20
HETATM   20  C4  UNL     1       0.879   3.131   0.423  1.00  0.00     0.170 C 
HETATM   21  C5  UNL     1       1.953   3.385   1.503  1.00  0.00     0.076 C 
HETATM   22  C6  UNL     1      -0.040   4.327   0.547  1.00  0.00     0.076 C 
HETATM   23  F1  UNL     1       1.585   3.333  -0.786  1.00  0.00    -0.220 F 
ENDBRANCH  18  20
ENDBRANCH   4  18
BRANCH   1  24
HETATM   24  N1  UNL     1      -4.151   1.606   1.127  1.00  0.00    -0.230 N 
HETATM   25  C1  UNL     1      -4.211   3.067   1.212  1.00  0.00     0.165 C 
ATOM     26  H1  UNL     1      -5.000   1.050   1.231  1.00  0.00     0.177 HD
ENDBRANCH   1  24
BRANCH  17  27
HETATM   27  C14 UNL     1       1.807  -0.689   0.082  1.00  0.00     0.131 C 
BRANCH  27  28
HETATM   28  C15 UNL     1       2.154  -0.559  -1.376  1.00  0.00     0.024 C 
BRANCH  28  29
HETATM   29  C16 UNL     1       3.632  -0.393  -1.542  1.00  0.00    -0.021 C 
HETATM   30  C17 UNL     1       4.181   0.798  -0.872  1.00  0.00     0.009 C 
HETATM   31  C18 UNL     1       4.026  -0.373  -3.016  1.00  0.00     0.009 C 
ENDBRANCH  28  29
ENDBRANCH  27  28
ENDBRANCH  17  27
BRANCH  10  32
HETATM   32  O1  UNL     1      -3.446  -3.470   0.758  1.00  0.00    -0.340 OA
HETATM   33  C11 UNL     1      -4.338  -3.593  -0.359  1.00  0.00     0.211 C 
ENDBRANCH  10  32
BRANCH  13  34
HETATM   34  N6  UNL     1       0.579  -5.686   0.066  1.00  0.00    -0.234 N 
ATOM     35  H62 UNL     1       0.067  -6.567   0.106  1.00  0.00     0.174 HD
ATOM     36  H61 UNL     1       1.588  -5.678  -0.086  1.00  0.00     0.174 HD
ENDBRANCH  13  34
TORSDOF 8
