REMARK  8 active torsions:
REMARK  status: ('A' for Active; 'I' for Inactive)
REMARK    1  A    between atoms: O1_2  and  C2_3 
REMARK    2  A    between atoms: C3_4  and  C5_6 
REMARK    3  A    between atoms: C6_7  and  O2_8 
REMARK    4  A    between atoms: C7_10  and  O3_11 
REMARK    5  A    between atoms: C8_13  and  O4_15 
REMARK    6  A    between atoms: C10_17  and  O5_18 
REMARK    7  A    between atoms: C10_17  and  N1_20 
REMARK    8  A    between atoms: N1_20  and  O6_21 
ROOT
HETATM    1  C5  UNL     1      -0.023  -0.661  -0.557  1.00  0.00     0.104 C 
HETATM    2  C6  UNL     1      -0.399  -1.677   0.497  1.00  0.00     0.162 C 
HETATM    3  C7  UNL     1      -1.805  -1.297   0.861  1.00  0.00     0.186 C 
HETATM    4  C8  UNL     1      -2.112  -0.011   0.157  1.00  0.00     0.131 C 
HETATM    5  C9  UNL     1      -3.017   0.905   0.885  1.00  0.00     0.053 C 
HETATM    6  C10 UNL     1      -0.710   0.575  -0.054  1.00  0.00     0.197 C 
ENDROOT
BRANCH   1   7
HETATM    7  C3  UNL     1       1.440  -0.552  -0.709  1.00  0.00    -0.051 C 
HETATM    8  C2  UNL     1       2.212   0.448  -0.433  1.00  0.00     0.137 C 
HETATM    9  C4  UNL     1       2.110  -1.783  -1.281  1.00  0.00     0.046 C 
BRANCH   8  10
HETATM   10  O1  UNL     1       3.567   0.357  -0.666  1.00  0.00    -0.368 OA
HETATM   11  C1  UNL     1       4.457   1.087   0.178  1.00  0.00     0.208 C 
ENDBRANCH   8  10
ENDBRANCH   1   7
BRANCH   2  12
HETATM   12  O2  UNL     1       0.485  -1.549   1.555  1.00  0.00    -0.392 OA
ATOM     13  H2  UNL     1       0.249  -2.188   2.217  1.00  0.00     0.210 HD
ENDBRANCH   2  12
BRANCH   6  14
HETATM   14  O5  UNL     1      -0.291   1.031   1.167  1.00  0.00    -0.369 OA
ATOM     15  H5  UNL     1      -0.726   1.813   1.485  1.00  0.00     0.212 HD
ENDBRANCH   6  14
BRANCH   6  16
HETATM   16  N1  UNL     1      -0.765   1.581  -1.095  1.00  0.00    -0.060 NA
BRANCH  16  17
HETATM   17  O6  UNL     1      -1.298   2.716  -0.697  1.00  0.00    -0.293 OA
ATOM     18  H6  UNL     1      -1.334   3.376  -1.380  1.00  0.00     0.238 HD
ENDBRANCH  16  17
ENDBRANCH   6  16
BRANCH   3  19
HETATM   19  O3  UNL     1      -2.686  -2.329   0.469  1.00  0.00    -0.390 OA
ATOM     20  H3  UNL     1      -3.576  -2.089   0.699  1.00  0.00     0.210 HD
ENDBRANCH   3  19
BRANCH   4  21
HETATM   21  O4  UNL     1      -2.639  -0.308  -1.095  1.00  0.00    -0.383 OA
ATOM     22  H4  UNL     1      -2.834   0.508  -1.541  1.00  0.00     0.210 HD
ENDBRANCH   4  21
TORSDOF 8
