REMARK  7 active torsions:
REMARK  status: ('A' for Active; 'I' for Inactive)
REMARK    1  A    between atoms: C2_2  and  N2_6 
REMARK    2  A    between atoms: C3_7  and  C4_8 
REMARK    3  A    between atoms: C4_8  and  O1_9 
REMARK    4  A    between atoms: C5_11  and  O2_12 
REMARK    5  A    between atoms: C6_14  and  C7_15 
REMARK    6  A    between atoms: C7_15  and  O3_16 
REMARK    7  A    between atoms: N3_18  and  O4_19 
ROOT
HETATM    1  N2  UNL     1       0.549   0.017   0.032  1.00  0.00    -0.266 N 
HETATM    2  C3  UNL     1      -0.299   0.955  -0.666  1.00  0.00     0.160 C 
HETATM    3  C5  UNL     1      -1.652   0.239  -0.624  1.00  0.00     0.168 C 
HETATM    4  C6  UNL     1      -1.142  -1.181  -0.707  1.00  0.00     0.164 C 
HETATM    5  N3  UNL     1      -0.140  -1.159   0.342  1.00  0.00    -0.094 NA
ENDROOT
BRANCH   1   6
HETATM    6  C2  UNL     1       1.906   0.226   0.375  1.00  0.00     0.099 C 
HETATM    7  C1  UNL     1       2.909   0.720  -0.606  1.00  0.00     0.091 C 
HETATM    8  N1  UNL     1       2.326  -0.011   1.582  1.00  0.00    -0.308 N 
HETATM    9  S1  UNL     1       3.995   0.230   2.062  1.00  0.00     0.043 SA
ATOM     10  H1  UNL     1       1.660  -0.350   2.276  1.00  0.00     0.176 HD
ENDBRANCH   1   6
BRANCH   2  11
HETATM   11  C4  UNL     1      -0.346   2.311  -0.049  1.00  0.00     0.193 C 
BRANCH  11  12
HETATM   12  O1  UNL     1      -0.809   2.338   1.240  1.00  0.00    -0.399 OA
ATOM     13  H1  UNL     1      -0.839   3.202   1.633  1.00  0.00     0.209 HD
ENDBRANCH  11  12
ENDBRANCH   2  11
BRANCH   5  14
HETATM   14  O4  UNL     1      -0.681  -1.098   1.567  1.00  0.00    -0.293 OA
ATOM     15  H4  UNL     1      -1.149  -1.897   1.778  1.00  0.00     0.239 HD
ENDBRANCH   5  14
BRANCH   3  16
HETATM   16  O2  UNL     1      -2.277   0.477   0.600  1.00  0.00    -0.392 OA
ATOM     17  H2  UNL     1      -3.116   0.033   0.626  1.00  0.00     0.210 HD
ENDBRANCH   3  16
BRANCH   4  18
HETATM   18  C7  UNL     1      -2.203  -2.211  -0.485  1.00  0.00     0.190 C 
BRANCH  18  19
HETATM   19  O3  UNL     1      -1.557  -3.455  -0.443  1.00  0.00    -0.399 OA
ATOM     20  H3  UNL     1      -2.231  -4.109  -0.302  1.00  0.00     0.209 HD
ENDBRANCH  18  19
ENDBRANCH   4  18
TORSDOF 7
