REMARK  6 active torsions:
REMARK  status: ('A' for Active; 'I' for Inactive)
REMARK    1  A    between atoms: O1_1  and  C1_3 
REMARK    2  A    between atoms: C2_5  and  O3_6 
REMARK    3  A    between atoms: C3_8  and  O4_9 
REMARK    4  A    between atoms: C4_11  and  N1_12 
REMARK    5  A    between atoms: N1_12  and  C5_14 
REMARK    6  A    between atoms: C9_19  and  O5_20 
ROOT
HETATM    1  C1  UNL     1      -2.061   1.460  -0.012  1.00  0.00     0.294 C 
HETATM    2  O2  UNL     1      -2.453   0.558   0.979  1.00  0.00    -0.326 OA
HETATM    3  C2  UNL     1      -2.253  -0.758   0.664  1.00  0.00     0.294 C 
HETATM    4  C3  UNL     1      -0.826  -1.123   0.318  1.00  0.00     0.221 C 
HETATM    5  C4  UNL     1      -0.295  -0.077  -0.611  1.00  0.00     0.054 C 
HETATM    6  C9  UNL     1      -0.519   1.315  -0.051  1.00  0.00     0.221 C 
ENDROOT
BRANCH   5   7
HETATM    7  N1  UNL     1       0.944  -0.314  -1.229  1.00  0.00    -0.358 N 
ATOM      8  H1  UNL     1       0.917  -0.402  -2.245  1.00  0.00     0.165 HD
BRANCH   7   9
HETATM    9  C5  UNL     1       2.250  -0.450  -0.629  1.00  0.00     0.039 A 
HETATM   10  C6  UNL     1       2.593  -0.004   0.589  1.00  0.00     0.037 A 
HETATM   11  C7  UNL     1       3.855  -0.231   1.036  1.00  0.00     0.052 A 
HETATM   12  S1  UNL     1       4.582  -1.076  -0.254  1.00  0.00    -0.111 SA
HETATM   13  C8  UNL     1       3.257  -1.115  -1.323  1.00  0.00     0.079 A 
ENDBRANCH   7   9
ENDBRANCH   5   7
BRANCH   4  14
HETATM   14  O4  UNL     1      -0.148  -1.371   1.461  1.00  0.00    -0.385 OA
ATOM     15  H4  UNL     1       0.748  -1.600   1.244  1.00  0.00     0.210 HD
ENDBRANCH   4  14
BRANCH   6  16
HETATM   16  O5  UNL     1       0.049   2.270  -0.865  1.00  0.00    -0.385 OA
ATOM     17  H5  UNL     1       0.995   2.181  -0.889  1.00  0.00     0.210 HD
ENDBRANCH   6  16
BRANCH   3  18
HETATM   18  O3  UNL     1      -3.062  -1.210  -0.374  1.00  0.00    -0.368 OA
ATOM     19  H3  UNL     1      -2.923  -2.124  -0.593  1.00  0.00     0.212 HD
ENDBRANCH   3  18
BRANCH   1  20
HETATM   20  O1  UNL     1      -2.395   2.735   0.361  1.00  0.00    -0.368 OA
ATOM     21  H1  UNL     1      -2.128   3.349  -0.313  1.00  0.00     0.212 HD
ENDBRANCH   1  20
TORSDOF 6
