REMARK  1 active torsions:
REMARK  status: ('A' for Active; 'I' for Inactive)
REMARK    1  A    between atoms: N3_4  and  N4_6 
ROOT
HETATM    1  N4  UNL     1       0.579   0.495  -0.236  1.00  0.00    -0.136 N 
HETATM    2  N5  UNL     1       1.067  -0.698  -0.532  1.00  0.00    -0.225 N 
ATOM      3  H5  UNL     1       0.519  -1.464  -0.925  1.00  0.00     0.194 HD
HETATM    4  C2  UNL     1       2.377  -0.770  -0.248  1.00  0.00     0.344 A 
HETATM    5  O1  UNL     1       3.155  -1.756  -0.404  1.00  0.00    -0.245 OA
HETATM    6  N6  UNL     1       2.733   0.426   0.249  1.00  0.00    -0.257 N 
ATOM      7  H6  UNL     1       3.663   0.703   0.565  1.00  0.00     0.175 HD
HETATM    8  C3  UNL     1       1.628   1.184   0.249  1.00  0.00     0.365 A 
HETATM    9  O2  UNL     1       1.586   2.370   0.648  1.00  0.00    -0.243 OA
ENDROOT
BRANCH   1  10
HETATM   10  N3  UNL     1      -0.739   0.898  -0.408  1.00  0.00    -0.250 N 
HETATM   11  C1  UNL     1      -1.750   0.216  -0.060  1.00  0.00     0.217 C 
HETATM   12  N1  UNL     1      -1.580  -1.048   0.550  1.00  0.00    -0.065 NA
HETATM   13  N2  UNL     1      -3.068   0.694  -0.268  1.00  0.00    -0.065 NA
ATOM     14  H3  UNL     1      -0.905   1.805  -0.844  1.00  0.00     0.191 HD
ENDBRANCH   1  10
TORSDOF 1
