REMARK  1 active torsions:
REMARK  status: ('A' for Active; 'I' for Inactive)
REMARK    1  A    between atoms: N2_4  and  N3_6 
ROOT
HETATM    1  N3  UNL     1       0.697  -1.471  -0.162  1.00  0.00    -0.267 N 
ATOM      2  H3  UNL     1       0.420  -2.451  -0.226  1.00  0.00     0.190 HD
HETATM    3  C1  UNL     1      -0.209  -0.532  -0.126  1.00  0.00     0.194 A 
HETATM    4  N4  UNL     1       0.013   0.872  -0.037  1.00  0.00    -0.289 N 
ATOM      5  H4  UNL     1       0.923   1.331   0.011  1.00  0.00     0.172 HD
HETATM    6  C2  UNL     1      -1.266   1.532  -0.026  1.00  0.00     0.328 A 
HETATM    7  O1  UNL     1      -1.434   2.784   0.045  1.00  0.00    -0.247 OA
HETATM    8  N5  UNL     1      -2.307   0.560  -0.107  1.00  0.00    -0.272 N 
ATOM      9  H5  UNL     1      -3.312   0.736  -0.118  1.00  0.00     0.174 HD
HETATM   10  C3  UNL     1      -1.655  -0.713  -0.169  1.00  0.00     0.295 A 
HETATM   11  O2  UNL     1      -2.197  -1.857  -0.250  1.00  0.00    -0.264 OA
ENDROOT
BRANCH   1  12
HETATM   12  N2  UNL     1       2.050  -1.122  -0.112  1.00  0.00    -0.248 N 
HETATM   13  N1  UNL     1       2.485  -0.549   0.912  1.00  0.00    -0.331 N 
ATOM     14  H12 UNL     1       1.852  -0.348   1.686  1.00  0.00     0.178 HD
ATOM     15  H11 UNL     1       3.472  -0.294   0.948  1.00  0.00     0.178 HD
ATOM     16  H2  UNL     1       2.670  -1.330  -0.895  1.00  0.00     0.207 HD
ENDBRANCH   1  12
TORSDOF 1
