REMARK  1 active torsions:
REMARK  status: ('A' for Active; 'I' for Inactive)
REMARK       I    between atoms: C1_2  and  N2_4 
REMARK    1  A    between atoms: N2_4  and  C2_6 
ROOT
HETATM    1  C2  UNL     1       0.046  -0.419  -0.371  1.00  0.00     0.703 A 
HETATM    2  N3  UNL     1       1.076  -1.279  -0.256  1.00  0.00    -0.129 N 
ATOM      3  H3  UNL     1       0.903  -2.268  -0.435  1.00  0.00     0.205 HD
HETATM    4  N4  UNL     1       2.301  -0.907   0.077  1.00  0.00    -0.247 N 
ATOM      5  H4  UNL     1       3.054  -1.591   0.153  1.00  0.00     0.191 HD
HETATM    6  C3  UNL     1       2.528   0.403   0.313  1.00  0.00     0.329 A 
HETATM    7  O2  UNL     1       3.683   0.793   0.633  1.00  0.00    -0.261 OA
HETATM    8  C4  UNL     1       1.495   1.313   0.204  1.00  0.00     0.329 A 
HETATM    9  O3  UNL     1       1.635   2.534   0.407  1.00  0.00    -0.261 OA
HETATM   10  N5  UNL     1       0.274   0.863  -0.140  1.00  0.00    -0.150 N 
ATOM     11  H5  UNL     1      -0.495   1.528  -0.225  1.00  0.00     0.188 HD
ENDROOT
BRANCH   1  12
HETATM   12  N2  UNL     1      -1.108  -0.909  -0.705  1.00  0.00    -0.142 N 
HETATM   13  C1  UNL     1      -2.251  -0.079  -0.851  1.00  0.00     0.347 C 
HETATM   14  N1  UNL     1      -3.344  -0.197   0.047  1.00  0.00    -0.039 NA
HETATM   15  O1  UNL     1      -2.254   0.751  -1.794  1.00  0.00    -0.250 OA
ATOM     16  H2  UNL     1      -1.196  -1.912  -0.866  1.00  0.00     0.189 HD
ENDBRANCH   1  12
TORSDOF 1
