REMARK  1 active torsions:
REMARK  status: ('A' for Active; 'I' for Inactive)
REMARK       I    between atoms: C1_4  and  N3_6 
REMARK    1  A    between atoms: N3_6  and  C2_8 
ROOT
HETATM    1  C2  UNL     1      -0.086   0.253   0.628  1.00  0.00     0.692 A 
HETATM    2  N4  UNL     1      -0.436  -0.381  -0.507  1.00  0.00    -0.141 N 
ATOM      3  H4  UNL     1       0.281  -0.854  -1.057  1.00  0.00     0.189 HD
HETATM    4  C3  UNL     1      -1.710  -0.403  -0.928  1.00  0.00     0.342 A 
HETATM    5  O1  UNL     1      -2.054  -0.988  -1.981  1.00  0.00    -0.246 OA
HETATM    6  N5  UNL     1      -2.665   0.212  -0.217  1.00  0.00    -0.260 N 
ATOM      7  H5  UNL     1      -3.638   0.204  -0.523  1.00  0.00     0.175 HD
HETATM    8  C4  UNL     1      -2.299   0.837   0.908  1.00  0.00     0.342 A 
HETATM    9  O2  UNL     1      -3.169   1.436   1.617  1.00  0.00    -0.246 OA
HETATM   10  N6  UNL     1      -1.038   0.876   1.352  1.00  0.00    -0.141 N 
ATOM     11  H6  UNL     1      -0.802   1.364   2.216  1.00  0.00     0.189 HD
ENDROOT
BRANCH   1  12
HETATM   12  N3  UNL     1       1.143   0.257   1.005  1.00  0.00    -0.163 N 
HETATM   13  C1  UNL     1       2.107  -0.413   0.210  1.00  0.00     0.200 C 
HETATM   14  N1  UNL     1       2.246  -1.674   0.348  1.00  0.00    -0.373 N 
HETATM   15  N2  UNL     1       2.877   0.336  -0.704  1.00  0.00    -0.063 NA
ATOM     16  H12 UNL     1       2.940  -2.156  -0.224  1.00  0.00     0.158 HD
ATOM     17  H11 UNL     1       1.689  -2.216   1.009  1.00  0.00     0.158 HD
ATOM     18  H3  UNL     1       1.420   0.735   1.863  1.00  0.00     0.187 HD
ENDBRANCH   1  12
TORSDOF 1
