REMARK  1 active torsions:
REMARK  status: ('A' for Active; 'I' for Inactive)
REMARK    1  A    between atoms: N1_2  and  C2_4 
ROOT
HETATM    1  C2  UNL     1       0.569   0.300  -0.127  1.00  0.00     0.149 C 
HETATM    2  N2  UNL     1       0.180  -0.977  -0.292  1.00  0.00    -0.291 N 
ATOM      3  H2  UNL     1       0.865  -1.613  -0.701  1.00  0.00     0.172 HD
HETATM    4  C3  UNL     1      -1.035  -1.514   0.030  1.00  0.00     0.329 C 
HETATM    5  O1  UNL     1      -1.050  -2.756   0.078  1.00  0.00    -0.246 OA
HETATM    6  N3  UNL     1      -2.172  -0.843   0.289  1.00  0.00    -0.260 N 
ATOM      7  H3  UNL     1      -2.975  -1.417   0.547  1.00  0.00     0.175 HD
HETATM    8  C4  UNL     1      -2.393   0.491   0.253  1.00  0.00     0.329 C 
HETATM    9  O2  UNL     1      -3.565   0.874   0.553  1.00  0.00    -0.246 OA
HETATM   10  N4  UNL     1      -1.588   1.527  -0.048  1.00  0.00    -0.292 N 
ATOM     11  H4  UNL     1      -2.016   2.431  -0.247  1.00  0.00     0.172 HD
HETATM   12  C5  UNL     1      -0.225   1.428  -0.100  1.00  0.00     0.147 C 
HETATM   13  N5  UNL     1       0.410   2.541  -0.129  1.00  0.00    -0.382 N 
ATOM     14  H51 UNL     1      -0.177   3.375  -0.109  1.00  0.00     0.157 HD
ATOM     15  H52 UNL     1       1.427   2.467  -0.168  1.00  0.00     0.157 HD
ENDROOT
BRANCH   1  16
HETATM   16  N1  UNL     1       1.834   0.481   0.025  1.00  0.00    -0.378 N 
HETATM   17  C1  UNL     1       2.730  -0.654   0.009  1.00  0.00     0.148 C 
ATOM     18  H1  UNL     1       2.204   1.423   0.156  1.00  0.00     0.160 HD
ENDBRANCH   1  16
TORSDOF 1
