REMARK  3 active torsions:
REMARK  status: ('A' for Active; 'I' for Inactive)
REMARK    1  A    between atoms: C1_2  and  C2_4 
REMARK    2  A    between atoms: C3_5  and  C4_6 
REMARK    3  A    between atoms: C4_6  and  O3_7 
ROOT
HETATM    1  C4  UNL     1       1.161  -0.482   0.047  1.00  0.00     0.079 C 
HETATM    2  C5  UNL     1       1.033   0.893   0.634  1.00  0.00     0.072 C 
HETATM    3  C6  UNL     1      -0.426   1.217   0.890  1.00  0.00     0.276 C 
HETATM    4  N1  UNL     1      -1.167   0.004   0.833  1.00  0.00     0.093 N 
HETATM    5  C7  UNL     1      -2.442   0.031   1.477  1.00  0.00     0.273 C 
HETATM    6  C8  UNL     1      -3.561  -0.362   0.570  1.00  0.00     0.030 C 
HETATM    7  C9  UNL     1      -3.473   0.274  -0.793  1.00  0.00     0.004 C 
HETATM    8  C10 UNL     1      -2.104   0.209  -1.384  1.00  0.00     0.036 C 
HETATM    9  C11 UNL     1      -1.221  -0.604  -0.455  1.00  0.00     0.226 C 
HETATM   10  C12 UNL     1       0.149  -0.745  -1.055  1.00  0.00     0.077 C 
ENDROOT
BRANCH   1  11
HETATM   11  C3  UNL     1       2.504  -0.715  -0.496  1.00  0.00     0.017 C 
HETATM   12  C2  UNL     1       3.504   0.036  -0.082  1.00  0.00     0.083 C 
BRANCH  12  13
HETATM   13  C1  UNL     1       4.869  -0.168  -0.606  1.00  0.00     0.198 C 
HETATM   14  O1  UNL     1       5.036  -1.067  -1.445  1.00  0.00    -0.645 OA
HETATM   15  O2  UNL     1       5.848   0.656  -0.122  1.00  0.00    -0.645 OA
ENDBRANCH  12  13
ENDBRANCH   1  11
BRANCH   1  16
HETATM   16  O3  UNL     1       0.865  -1.406   1.068  1.00  0.00    -0.386 OA
ATOM     17  H3  UNL     1      -0.005  -1.255   1.420  1.00  0.00     0.211 HD
ENDBRANCH   1  16
TORSDOF 3
