REMARK  4 active torsions:
REMARK  status: ('A' for Active; 'I' for Inactive)
REMARK    1  A    between atoms: C2_2  and  C4_4 
REMARK       I    between atoms: C4_4  and  N1_6 
REMARK    2  A    between atoms: C10_12  and  C11_13 
REMARK    3  A    between atoms: C11_13  and  O2_14 
REMARK    4  A    between atoms: N2_16  and  O3_18 
ROOT
HETATM    1  C4  UNL     1       1.191   0.960   0.308  1.00  0.00     0.223 C 
HETATM    2  O1  UNL     1       1.386   1.861   1.190  1.00  0.00    -0.273 OA
HETATM    3  N1  UNL     1       0.106   0.062   0.380  1.00  0.00    -0.346 N 
HETATM    4  C5  UNL     1      -0.184  -0.983  -0.576  1.00  0.00     0.131 C 
HETATM    5  C6  UNL     1      -1.436  -1.645  -0.037  1.00  0.00     0.018 C 
HETATM    6  C7  UNL     1      -1.045  -2.395   1.199  1.00  0.00     0.009 C 
HETATM    7  C8  UNL     1      -0.652  -1.282   2.177  1.00  0.00     0.027 C 
HETATM    8  C9  UNL     1      -0.894   0.016   1.391  1.00  0.00     0.099 C 
HETATM    9  C10 UNL     1      -2.117  -0.415   0.590  1.00  0.00     0.090 C 
ENDROOT
BRANCH   9  10
HETATM   10  C11 UNL     1      -2.459   0.539  -0.482  1.00  0.00     0.141 C 
HETATM   11  N2  UNL     1      -2.024   1.731  -0.562  1.00  0.00    -0.251 N 
ATOM     12  H2  UNL     1      -1.389   2.083   0.155  1.00  0.00     0.196 HD
BRANCH  10  13
HETATM   13  O2  UNL     1      -3.325   0.071  -1.471  1.00  0.00    -0.348 OA
ATOM     14  H2  UNL     1      -3.545   0.685  -2.161  1.00  0.00     0.219 HD
ENDBRANCH  10  13
BRANCH  11  15
HETATM   15  O3  UNL     1      -2.395   2.550  -1.596  1.00  0.00    -0.288 OA
ATOM     16  H3  UNL     1      -2.070   3.441  -1.656  1.00  0.00     0.244 HD
ENDBRANCH  11  15
ENDBRANCH   9  10
BRANCH   1  17
HETATM   17  C2  UNL     1       2.180   0.917  -0.801  1.00  0.00     0.070 C 
HETATM   18  C1  UNL     1       2.918  -0.420  -0.842  1.00  0.00     0.019 C 
HETATM   19  C3  UNL     1       3.232   1.993  -0.669  1.00  0.00     0.019 C 
ENDBRANCH   1  17
TORSDOF 4
