REMARK  3 active torsions:
REMARK  status: ('A' for Active; 'I' for Inactive)
REMARK    1  A    between atoms: C1_2  and  C2_4 
REMARK    2  A    between atoms: C2_4  and  C3_5 
REMARK    3  A    between atoms: C10_13  and  O4_14 
ROOT
HETATM    1  C3  UNL     1       0.817  -0.039   0.412  1.00  0.00    -0.025 C 
HETATM    2  C4  UNL     1       0.868   0.901  -0.765  1.00  0.00     0.015 C 
HETATM    3  C5  UNL     1      -0.536   1.240  -1.164  1.00  0.00    -0.009 C 
HETATM    4  C6  UNL     1      -1.155   2.016  -0.033  1.00  0.00     0.036 C 
HETATM    5  C7  UNL     1      -1.274   1.141   1.210  1.00  0.00     0.122 C 
HETATM    6  C8  UNL     1       0.008   0.493   1.572  1.00  0.00     0.042 C 
HETATM    7  O3  UNL     1      -2.368   0.318   1.167  1.00  0.00    -0.383 OA
HETATM    8  C9  UNL     1      -2.207  -0.919   0.647  1.00  0.00     0.205 C 
HETATM    9  C10 UNL     1      -1.247  -1.080  -0.468  1.00  0.00     0.080 C 
HETATM   10  C11 UNL     1      -1.279  -0.004  -1.505  1.00  0.00     0.044 C 
HETATM   11  C12 UNL     1       0.185  -1.317  -0.032  1.00  0.00     0.050 C 
ENDROOT
BRANCH   1  12
HETATM   12  C2  UNL     1       2.230  -0.266   0.883  1.00  0.00     0.122 C 
BRANCH  12  13
HETATM   13  C1  UNL     1       3.103  -0.855  -0.142  1.00  0.00     0.173 C 
HETATM   14  O1  UNL     1       3.099  -2.113  -0.362  1.00  0.00    -0.648 OA
HETATM   15  O2  UNL     1       3.974  -0.125  -0.929  1.00  0.00    -0.648 OA
ENDBRANCH  12  13
ENDBRANCH   1  12
BRANCH   9  16
HETATM   16  O4  UNL     1      -1.613  -2.270  -1.152  1.00  0.00    -0.388 OA
ATOM     17  H4  UNL     1      -0.997  -2.373  -1.868  1.00  0.00     0.210 HD
ENDBRANCH   9  16
TORSDOF 3
