REMARK  2 active torsions:
REMARK  status: ('A' for Active; 'I' for Inactive)
REMARK    1  A    between atoms: C2_3  and  C3_4 
REMARK       I    between atoms: C3_4  and  N2_6 
REMARK    2  A    between atoms: N2_6  and  C4_8 
ROOT
HETATM    1  N1  UNL     1      -3.262   3.429  -0.204  1.00  0.00    -0.196 NA
HETATM    2  C1  UNL     1      -2.750   2.393  -0.168  1.00  0.00     0.079 C 
HETATM    3  C2  UNL     1      -2.112   1.076  -0.138  1.00  0.00     0.132 C 
HETATM    4  C10 UNL     1      -2.577   0.370   1.094  1.00  0.00     0.062 C 
HETATM    5  C11 UNL     1      -3.572  -0.709   0.867  1.00  0.00     0.234 C 
HETATM    6  N3  UNL     1      -4.430  -0.356  -0.230  1.00  0.00    -0.075 N 
ATOM      7  H31 UNL     1      -4.881   0.550  -0.101  1.00  0.00     0.277 HD
ATOM      8  H32 UNL     1      -5.275  -0.927  -0.268  1.00  0.00     0.277 HD
HETATM    9  C12 UNL     1      -3.658  -0.424  -1.447  1.00  0.00     0.234 C 
HETATM   10  C13 UNL     1      -2.411   0.387  -1.423  1.00  0.00     0.062 C 
ENDROOT
BRANCH   3  11
HETATM   11  C3  UNL     1      -0.652   1.313  -0.016  1.00  0.00     0.240 C 
HETATM   12  O1  UNL     1      -0.164   2.469   0.043  1.00  0.00    -0.272 OA
HETATM   13  N2  UNL     1       0.276   0.214   0.041  1.00  0.00    -0.355 N 
ATOM     14  H2  UNL     1      -0.082  -0.740  -0.004  1.00  0.00     0.162 HD
BRANCH  13  15
HETATM   15  C4  UNL     1       1.702   0.426   0.160  1.00  0.00     0.084 C 
HETATM   16  C5  UNL     1       2.230  -0.159   1.440  1.00  0.00     0.025 C 
HETATM   17  C6  UNL     1       3.585  -0.805   1.281  1.00  0.00     0.002 C 
HETATM   18  C7  UNL     1       4.422   0.082   0.384  1.00  0.00     0.000 C 
HETATM   19  C8  UNL     1       3.874   0.065  -1.024  1.00  0.00     0.002 C 
HETATM   20  C9  UNL     1       2.387  -0.161  -1.055  1.00  0.00     0.025 C 
ENDBRANCH  13  15
ENDBRANCH   3  11
TORSDOF 2
