REMARK  5 active torsions:
REMARK  status: ('A' for Active; 'I' for Inactive)
REMARK    1  A    between atoms: C2_2  and  C4_4 
REMARK    2  A    between atoms: C4_4  and  C5_5 
REMARK       I    between atoms: C5_5  and  N1_7 
REMARK    3  A    between atoms: N1_7  and  C6_9 
REMARK    4  A    between atoms: C6_9  and  C7_10 
REMARK    5  A    between atoms: C7_10  and  O2_11 
ROOT
HETATM    1  C7  UNL     1      -0.615   0.860  -0.788  1.00  0.00     0.074 C 
HETATM    2  C8  UNL     1       0.466   0.833  -1.852  1.00  0.00     0.042 C 
HETATM    3  C9  UNL     1       1.759   1.393  -1.364  1.00  0.00     0.044 C 
HETATM    4  C10 UNL     1       2.247   0.520  -0.231  1.00  0.00     0.101 C 
HETATM    5  C11 UNL     1       1.228   0.347   0.846  1.00  0.00     0.044 C 
HETATM    6  C12 UNL     1      -0.145  -0.022   0.332  1.00  0.00     0.042 C 
HETATM    7  C13 UNL     1       3.503   1.085   0.408  1.00  0.00     0.116 C 
HETATM    8  C14 UNL     1       4.522   0.038  -0.028  1.00  0.00     0.295 C 
HETATM    9  C15 UNL     1       5.884   0.641  -0.238  1.00  0.00     0.077 C 
HETATM   10  C16 UNL     1       6.778  -0.598  -0.116  1.00  0.00     0.042 C 
HETATM   11  C17 UNL     1       6.040  -1.508   0.812  1.00  0.00     0.255 A 
HETATM   12  C18 UNL     1       5.532  -0.879   2.068  1.00  0.00     0.313 A 
HETATM   13  N2  UNL     1       4.682  -1.013   0.924  1.00  0.00     0.135 N 
HETATM   14  O3  UNL     1       3.946  -0.445  -1.176  1.00  0.00    -0.196 OA
HETATM   15  O4  UNL     1       2.691  -0.678  -0.781  1.00  0.00    -0.227 OA
ENDROOT
BRANCH   1  16
HETATM   16  C6  UNL     1      -1.889   0.315  -1.336  1.00  0.00     0.160 C 
BRANCH  16  17
HETATM   17  N1  UNL     1      -2.910   0.362  -0.312  1.00  0.00    -0.358 N 
HETATM   18  C5  UNL     1      -4.237  -0.093  -0.533  1.00  0.00     0.217 C 
HETATM   19  O1  UNL     1      -4.546  -0.554  -1.648  1.00  0.00    -0.274 OA
ATOM     20  H1  UNL     1      -2.667   0.737   0.605  1.00  0.00     0.162 HD
BRANCH  18  21
HETATM   21  C4  UNL     1      -5.215  -0.010   0.560  1.00  0.00     0.106 C 
BRANCH  21  22
HETATM   22  C2  UNL     1      -6.558  -0.536   0.140  1.00  0.00    -0.014 C 
HETATM   23  C1  UNL     1      -7.501  -0.408   1.337  1.00  0.00     0.010 C 
HETATM   24  C3  UNL     1      -6.463  -1.998  -0.272  1.00  0.00     0.010 C 
ENDBRANCH  21  22
ENDBRANCH  18  21
ENDBRANCH  16  17
ENDBRANCH   1  16
BRANCH   1  25
HETATM   25  O2  UNL     1      -0.789   2.173  -0.375  1.00  0.00    -0.388 OA
ATOM     26  H2  UNL     1       0.023   2.520  -0.026  1.00  0.00     0.210 HD
ENDBRANCH   1  25
TORSDOF 5
