REMARK  4 active torsions:
REMARK  status: ('A' for Active; 'I' for Inactive)
REMARK    1  A    between atoms: C2_3  and  C3_4 
REMARK    2  A    between atoms: C3_4  and  N2_5 
REMARK       I    between atoms: N2_5  and  C4_7 
REMARK    3  A    between atoms: C4_7  and  C5_9 
REMARK    4  A    between atoms: C5_9  and  N3_10 
ROOT
HETATM    1  N1  UNL     1       9.328  -0.640   1.461  1.00  0.00    -0.197 NA
HETATM    2  C1  UNL     1       8.334  -0.199   1.032  1.00  0.00     0.060 C 
HETATM    3  C2  UNL     1       7.106   0.367   0.493  1.00  0.00     0.143 C 
ENDROOT
BRANCH   3   4
HETATM    4  C3  UNL     1       5.998  -0.665   0.442  1.00  0.00     0.136 C 
BRANCH   4   5
HETATM    5  N2  UNL     1       4.813   0.002  -0.111  1.00  0.00    -0.359 N 
HETATM    6  C4  UNL     1       3.645  -0.788  -0.249  1.00  0.00     0.235 C 
HETATM    7  O1  UNL     1       3.616  -1.988   0.080  1.00  0.00    -0.272 OA
ATOM      8  H2  UNL     1       4.830   0.985  -0.382  1.00  0.00     0.162 HD
BRANCH   6   9
HETATM    9  C5  UNL     1       2.420  -0.120  -0.816  1.00  0.00     0.222 C 
BRANCH   9  10
HETATM   10  N3  UNL     1       1.364  -1.079  -0.871  1.00  0.00    -0.379 N 
HETATM   11  C6  UNL     1       0.157  -0.743  -1.115  1.00  0.00     0.042 C 
HETATM   12  C7  UNL     1      -0.134   0.709  -1.346  1.00  0.00     0.064 C 
HETATM   13  S1  UNL     1      -1.174  -1.929  -1.188  1.00  0.00    -0.117 SA
HETATM   14  C8  UNL     1      -1.578   0.865  -1.813  1.00  0.00     0.006 C 
HETATM   15  C9  UNL     1      -1.944   2.313  -1.744  1.00  0.00     0.000 C 
HETATM   16  C10 UNL     1      -3.249   2.554  -1.019  1.00  0.00     0.002 C 
HETATM   17  C11 UNL     1      -3.263   1.995   0.365  1.00  0.00     0.020 C 
HETATM   18  C12 UNL     1      -4.376   0.971   0.505  1.00  0.00     0.122 C 
HETATM   19  N4  UNL     1      -4.291   0.283   1.776  1.00  0.00    -0.361 N 
HETATM   20  C13 UNL     1      -4.236  -1.132   1.905  1.00  0.00     0.217 C 
ATOM     21  H4  UNL     1      -4.269   0.845   2.627  1.00  0.00     0.162 HD
HETATM   22  O2  UNL     1      -4.861  -1.693   2.844  1.00  0.00    -0.274 OA
HETATM   23  C14 UNL     1      -3.449  -1.971   0.945  1.00  0.00     0.103 C 
HETATM   24  C15 UNL     1      -2.007  -2.076   1.387  1.00  0.00     0.020 C 
HETATM   25  C16 UNL     1      -1.274  -2.896   0.349  1.00  0.00     0.081 C 
ATOM     26  H3  UNL     1       1.581  -2.063  -0.710  1.00  0.00     0.160 HD
ENDBRANCH   9  10
ENDBRANCH   6   9
ENDBRANCH   4   5
ENDBRANCH   3   4
TORSDOF 4
