REMARK  6 active torsions:
REMARK  status: ('A' for Active; 'I' for Inactive)
REMARK    1  A    between atoms: N1_1  and  O1_4 
REMARK    2  A    between atoms: O1_4  and  C1_5 
REMARK    3  A    between atoms: C2_7  and  C3_8 
REMARK    4  A    between atoms: C3_8  and  C4_9 
REMARK    5  A    between atoms: C16_22  and  C17_23 
REMARK    6  A    between atoms: C17_23  and  C18_24 
ROOT
HETATM    1  C4  UNL     1       0.040  -1.053  -0.260  1.00  0.00     0.024 C 
HETATM    2  C5  UNL     1       1.463  -0.586  -0.433  1.00  0.00    -0.004 C 
HETATM    3  C6  UNL     1       1.647   0.854  -0.774  1.00  0.00     0.005 C 
HETATM    4  C7  UNL     1       2.744   0.987  -1.842  1.00  0.00     0.000 C 
HETATM    5  C8  UNL     1       3.945   1.610  -1.220  1.00  0.00     0.000 C 
HETATM    6  C9  UNL     1       5.017   0.608  -0.932  1.00  0.00     0.000 C 
HETATM    7  C10 UNL     1       4.485  -0.676  -0.321  1.00  0.00     0.000 C 
HETATM    8  C11 UNL     1       3.636  -0.400   0.858  1.00  0.00     0.005 C 
HETATM    9  C12 UNL     1       2.236  -0.837   0.831  1.00  0.00    -0.007 C 
HETATM   10  C13 UNL     1       2.135  -2.317   1.111  1.00  0.00     0.039 C 
HETATM   11  C14 UNL     1       0.774  -2.628   1.587  1.00  0.00     0.151 A 
HETATM   12  O3  UNL     1      -0.016  -1.556   2.196  1.00  0.00    -0.375 OA
HETATM   13  C15 UNL     1      -0.257  -1.895   0.903  1.00  0.00     0.155 A 
ENDROOT
BRANCH   1  14
HETATM   14  C3  UNL     1      -0.949   0.070  -0.410  1.00  0.00     0.040 C 
BRANCH  14  15
HETATM   15  C2  UNL     1      -2.370  -0.317  -0.222  1.00  0.00     0.134 C 
HETATM   16  O2  UNL     1      -2.755  -0.821   1.009  1.00  0.00    -0.353 OA
HETATM   17  C1  UNL     1      -2.916   0.487   1.457  1.00  0.00     0.295 C 
HETATM   18  C16 UNL     1      -3.280   0.876   0.053  1.00  0.00     0.081 C 
BRANCH  17  19
HETATM   19  O1  UNL     1      -4.026   0.627   2.310  1.00  0.00    -0.254 OA
BRANCH  19  20
HETATM   20  N1  UNL     1      -3.660   1.297   3.406  1.00  0.00    -0.308 N 
ATOM     21  H12 UNL     1      -2.718   1.646   3.582  1.00  0.00     0.184 HD
ATOM     22  H11 UNL     1      -4.465   1.399   4.024  1.00  0.00     0.184 HD
ENDBRANCH  19  20
ENDBRANCH  17  19
BRANCH  18  23
HETATM   23  C17 UNL     1      -4.724   0.609  -0.221  1.00  0.00     0.111 C 
BRANCH  23  24
HETATM   24  C18 UNL     1      -5.138   0.971  -1.582  1.00  0.00     0.231 C 
HETATM   25  N2  UNL     1      -6.468   0.792  -2.026  1.00  0.00    -0.062 NA
HETATM   26  O4  UNL     1      -4.295   1.450  -2.371  1.00  0.00    -0.277 OA
ENDBRANCH  23  24
ENDBRANCH  18  23
ENDBRANCH  14  15
ENDBRANCH   1  14
TORSDOF 6
