REMARK  4 active torsions:
REMARK  status: ('A' for Active; 'I' for Inactive)
REMARK    1  A    between atoms: C7_7  and  N1_9 
REMARK    2  A    between atoms: N1_9  and  C9_11 
REMARK    3  A    between atoms: C10_14  and  N3_15 
REMARK    4  A    between atoms: C16_23  and  N5_24 
ROOT
HETATM    1  C9  UNL     1      -0.589  -0.959  -0.917  1.00  0.00     0.707 A 
HETATM    2  N2  UNL     1       0.524  -0.480  -0.363  1.00  0.00    -0.021 N 
ATOM      3  H2  UNL     1       0.436   0.084   0.483  1.00  0.00     0.203 HD
HETATM    4  C10 UNL     1       1.753  -0.696  -0.853  1.00  0.00     0.709 A 
HETATM    5  N4  UNL     1       1.879  -1.436  -1.965  1.00  0.00    -0.022 N 
ATOM      6  H4  UNL     1       2.802  -1.616  -2.359  1.00  0.00     0.203 HD
HETATM    7  C16 UNL     1       0.776  -1.942  -2.560  1.00  0.00     0.705 A 
HETATM    8  N6  UNL     1      -0.431  -1.704  -2.041  1.00  0.00    -0.022 N 
ATOM      9  H6  UNL     1      -1.255  -2.092  -2.500  1.00  0.00     0.203 HD
ENDROOT
BRANCH   1  10
HETATM   10  N1  UNL     1      -1.784  -0.795  -0.508  1.00  0.00    -0.216 N 
ATOM     11  H1  UNL     1      -2.506  -1.244  -1.071  1.00  0.00     0.178 HD
BRANCH  10  12
HETATM   12  C7  UNL     1      -2.252  -0.073   0.624  1.00  0.00     0.047 C 
HETATM   13  C2  UNL     1      -3.761  -0.071   0.735  1.00  0.00     0.010 C 
HETATM   14  C1  UNL     1      -4.307  -1.423   1.114  1.00  0.00     0.012 C 
HETATM   15  C3  UNL     1      -4.413   0.361  -0.543  1.00  0.00     0.007 C 
HETATM   16  C4  UNL     1      -3.953   1.780  -0.824  1.00  0.00     0.001 C 
HETATM   17  C5  UNL     1      -3.033   2.291   0.253  1.00  0.00     0.002 C 
HETATM   18  C6  UNL     1      -1.854   1.397   0.448  1.00  0.00     0.031 C 
HETATM   19  C8  UNL     1      -1.675  -0.656   1.877  1.00  0.00     0.039 C 
ENDBRANCH  10  12
ENDBRANCH   1  10
BRANCH   4  20
HETATM   20  N3  UNL     1       2.938  -0.183  -0.258  1.00  0.00    -0.217 N 
HETATM   21  C11 UNL     1       3.588  -1.002   0.734  1.00  0.00     0.141 C 
HETATM   22  C12 UNL     1       5.058  -0.662   0.896  1.00  0.00     0.020 C 
HETATM   23  C13 UNL     1       5.149   0.829   1.095  1.00  0.00     0.003 C 
HETATM   24  C14 UNL     1       4.743   1.491  -0.192  1.00  0.00     0.020 C 
HETATM   25  C15 UNL     1       3.400   1.107  -0.686  1.00  0.00     0.141 C 
ENDBRANCH   4  20
BRANCH   7  26
HETATM   26  N5  UNL     1       0.911  -2.649  -3.625  1.00  0.00    -0.234 N 
ATOM     27  H52 UNL     1       1.833  -2.831  -4.021  1.00  0.00     0.174 HD
ATOM     28  H51 UNL     1       0.079  -3.031  -4.074  1.00  0.00     0.174 HD
ENDBRANCH   7  26
TORSDOF 4
