REMARK  5 active torsions:
REMARK  status: ('A' for Active; 'I' for Inactive)
REMARK    1  A    between atoms: C1_2  and  O2_3 
REMARK    2  A    between atoms: C1_2  and  C13_20 
REMARK    3  A    between atoms: O2_3  and  C2_4 
REMARK    4  A    between atoms: C3_5  and  O3_6 
REMARK    5  A    between atoms: C12_17  and  O5_18 
ROOT
HETATM    1  C2  UNL     1      -0.611   1.106  -0.507  1.00  0.00     0.173 C 
HETATM    2  C3  UNL     1      -1.403   1.405  -1.725  1.00  0.00     0.218 C 
HETATM    3  C4  UNL     1      -2.728   1.805  -1.123  1.00  0.00     0.169 C 
HETATM    4  O4  UNL     1      -3.390   2.724  -1.529  1.00  0.00    -0.294 OA
HETATM    5  C5  UNL     1      -2.973   0.878  -0.031  1.00  0.00     0.055 C 
HETATM    6  C6  UNL     1      -3.649   1.476   1.170  1.00  0.00     0.020 C 
HETATM    7  C7  UNL     1      -4.205   0.342   1.996  1.00  0.00     0.002 C 
HETATM    8  C8  UNL     1      -3.368  -0.903   1.920  1.00  0.00     0.007 C 
HETATM    9  C9  UNL     1      -3.098  -1.371   0.527  1.00  0.00     0.016 C 
HETATM   10  C10 UNL     1      -1.625  -1.077   0.211  1.00  0.00     0.015 C 
HETATM   11  C11 UNL     1      -1.602   0.413   0.396  1.00  0.00     0.037 C 
HETATM   12  C12 UNL     1      -3.758  -0.352  -0.413  1.00  0.00     0.138 C 
ENDROOT
BRANCH   1  13
HETATM   13  O2  UNL     1       0.587   0.442  -0.665  1.00  0.00    -0.312 OA
BRANCH  13  14
HETATM   14  C1  UNL     1       1.833   0.831  -0.321  1.00  0.00     0.263 C 
HETATM   15  O1  UNL     1       1.970   1.942   0.219  1.00  0.00    -0.265 OA
BRANCH  14  16
HETATM   16  C13 UNL     1       3.021   0.002  -0.558  1.00  0.00     0.085 C 
HETATM   17  C14 UNL     1       2.950  -1.336   0.151  1.00  0.00     0.014 C 
HETATM   18  C15 UNL     1       4.139  -2.135  -0.299  1.00  0.00     0.001 C 
HETATM   19  C16 UNL     1       5.451  -1.495  -0.025  1.00  0.00     0.000 C 
HETATM   20  C17 UNL     1       5.516  -0.036  -0.371  1.00  0.00     0.001 C 
HETATM   21  C18 UNL     1       4.240   0.703  -0.054  1.00  0.00     0.014 C 
ENDBRANCH  14  16
ENDBRANCH  13  14
ENDBRANCH   1  13
BRANCH   2  22
HETATM   22  O3  UNL     1      -0.844   2.488  -2.428  1.00  0.00    -0.385 OA
ATOM     23  H3  UNL     1      -1.351   2.679  -3.208  1.00  0.00     0.210 HD
ENDBRANCH   2  22
BRANCH  12  24
HETATM   24  O5  UNL     1      -3.636  -0.702  -1.729  1.00  0.00    -0.394 OA
ATOM     25  H5  UNL     1      -4.130  -1.477  -1.970  1.00  0.00     0.210 HD
ENDBRANCH  12  24
TORSDOF 5
