REMARK  5 active torsions:
REMARK  status: ('A' for Active; 'I' for Inactive)
REMARK    1  A    between atoms: C2_2  and  O2_4 
REMARK    2  A    between atoms: O2_4  and  C3_5 
REMARK    3  A    between atoms: C3_5  and  C4_6 
REMARK    4  A    between atoms: C6_8  and  O3_9 
REMARK    5  A    between atoms: C16_21  and  O5_22 
ROOT
HETATM    1  C4  UNL     1       1.210  -0.756  -0.338  1.00  0.00     0.008 C 
HETATM    2  C5  UNL     1       1.851  -0.669  -1.709  1.00  0.00     0.020 C 
HETATM    3  C6  UNL     1       0.572  -2.120  -0.289  1.00  0.00     0.128 C 
HETATM    4  C7  UNL     1      -0.127  -2.415   0.982  1.00  0.00     0.033 C 
HETATM    5  C8  UNL     1      -0.657  -1.227   1.704  1.00  0.00     0.012 C 
HETATM    6  C9  UNL     1      -0.911  -0.014   0.837  1.00  0.00    -0.035 C 
HETATM    7  C10 UNL     1      -1.186   1.123   1.843  1.00  0.00     0.016 C 
HETATM    8  C11 UNL     1      -2.175  -0.280   0.074  1.00  0.00     0.008 C 
HETATM    9  C12 UNL     1      -3.421  -0.281   0.867  1.00  0.00     0.013 C 
HETATM   10  C13 UNL     1      -4.144   1.050   0.620  1.00  0.00     0.079 C 
HETATM   11  C14 UNL     1      -3.215   1.777  -0.287  1.00  0.00     0.134 C 
HETATM   12  O4  UNL     1      -3.078   2.990  -0.417  1.00  0.00    -0.297 OA
HETATM   13  C15 UNL     1      -2.482   0.701  -1.006  1.00  0.00     0.089 C 
HETATM   14  C16 UNL     1      -1.342   1.172  -1.808  1.00  0.00     0.130 C 
HETATM   15  C17 UNL     1      -0.043   1.291  -1.128  1.00  0.00     0.039 C 
HETATM   16  C18 UNL     1       0.274   0.366   0.000  1.00  0.00     0.009 C 
ENDROOT
BRANCH   1  17
HETATM   17  C3  UNL     1       2.414  -0.831   0.620  1.00  0.00     0.191 C 
BRANCH  17  18
HETATM   18  O2  UNL     1       3.203   0.358   0.445  1.00  0.00    -0.321 OA
BRANCH  18  19
HETATM   19  C2  UNL     1       4.336   0.587   1.150  1.00  0.00     0.254 C 
HETATM   20  C1  UNL     1       5.095   1.844   0.909  1.00  0.00     0.126 C 
HETATM   21  O1  UNL     1       4.749  -0.228   1.989  1.00  0.00    -0.266 OA
ENDBRANCH  18  19
ENDBRANCH  17  18
ENDBRANCH   1  17
BRANCH   3  22
HETATM   22  O3  UNL     1       1.639  -3.044  -0.400  1.00  0.00    -0.395 OA
ATOM     23  H3  UNL     1       1.237  -3.904  -0.369  1.00  0.00     0.210 HD
ENDBRANCH   3  22
BRANCH  14  24
HETATM   24  O5  UNL     1      -1.318   0.400  -2.997  1.00  0.00    -0.395 OA
ATOM     25  H5  UNL     1      -0.582   0.704  -3.515  1.00  0.00     0.210 HD
ENDBRANCH  14  24
TORSDOF 5
