REMARK  5 active torsions:
REMARK  status: ('A' for Active; 'I' for Inactive)
REMARK    1  A    between atoms: C2_2  and  O1_3 
REMARK    2  A    between atoms: C7_9  and  O2_10 
REMARK    3  A    between atoms: O2_10  and  C8_11 
REMARK    4  A    between atoms: C8_11  and  C9_13 
REMARK    5  A    between atoms: C18_23  and  O5_24 
ROOT
HETATM    1  C1  UNL     1      -3.361  -2.176  -0.354  1.00  0.00     0.049 C 
HETATM    2  C2  UNL     1      -3.230  -0.658  -0.337  1.00  0.00     0.089 C 
HETATM    3  C3  UNL     1      -2.834  -0.261  -1.759  1.00  0.00     0.041 C 
HETATM    4  C4  UNL     1      -1.358   0.150  -1.651  1.00  0.00     0.018 C 
HETATM    5  C5  UNL     1      -1.395   0.798  -0.265  1.00  0.00     0.020 C 
HETATM    6  C6  UNL     1      -2.163   2.063  -0.384  1.00  0.00     0.021 C 
HETATM    7  C7  UNL     1      -0.010   1.021   0.290  1.00  0.00     0.143 C 
HETATM    8  C14 UNL     1      -0.102   1.167   1.791  1.00  0.00     0.043 C 
HETATM    9  C15 UNL     1      -0.948   0.121   2.439  1.00  0.00     0.044 C 
HETATM   10  C16 UNL     1      -0.544  -1.231   1.844  1.00  0.00     0.176 C 
HETATM   11  O4  UNL     1      -1.192  -1.343   0.641  1.00  0.00    -0.373 OA
HETATM   12  C17 UNL     1      -2.085  -0.291   0.505  1.00  0.00     0.127 C 
HETATM   13  C18 UNL     1      -2.390   0.155   1.901  1.00  0.00     0.162 C 
ENDROOT
BRANCH   7  14
HETATM   14  O2  UNL     1       0.909   0.059  -0.113  1.00  0.00    -0.315 OA
BRANCH  14  15
HETATM   15  C8  UNL     1       2.013   0.417  -0.869  1.00  0.00     0.263 C 
HETATM   16  O3  UNL     1       2.158   1.648  -1.180  1.00  0.00    -0.265 OA
BRANCH  15  17
HETATM   17  C9  UNL     1       3.008  -0.578  -1.314  1.00  0.00     0.085 C 
HETATM   18  C10 UNL     1       4.082   0.092  -2.107  1.00  0.00     0.014 C 
HETATM   19  C11 UNL     1       5.237   0.359  -1.178  1.00  0.00     0.001 C 
HETATM   20  C12 UNL     1       4.885  -0.256   0.155  1.00  0.00     0.001 C 
HETATM   21  C13 UNL     1       3.747  -1.207  -0.149  1.00  0.00     0.014 C 
ENDBRANCH  15  17
ENDBRANCH  14  15
ENDBRANCH   7  14
BRANCH   2  22
HETATM   22  O1  UNL     1      -4.451  -0.147   0.033  1.00  0.00    -0.387 OA
ATOM     23  H1  UNL     1      -4.369   0.799   0.044  1.00  0.00     0.210 HD
ENDBRANCH   2  22
BRANCH  13  24
HETATM   24  O5  UNL     1      -2.956   1.394   2.006  1.00  0.00    -0.392 OA
ATOM     25  H5  UNL     1      -3.846   1.415   1.674  1.00  0.00     0.210 HD
ENDBRANCH  13  24
TORSDOF 5
