REMARK  5 active torsions:
REMARK  status: ('A' for Active; 'I' for Inactive)
REMARK    1  A    between atoms: C2_2  and  C4_4 
REMARK    2  A    between atoms: C10_10  and  O1_11 
REMARK    3  A    between atoms: O1_11  and  C11_12 
REMARK    4  A    between atoms: C15_17  and  O3_18 
REMARK    5  A    between atoms: C17_21  and  O4_22 
ROOT
HETATM    1  C4  UNL     1       2.383   0.766   0.726  1.00  0.00     0.086 C 
HETATM    2  C5  UNL     1       1.746  -0.524   1.180  1.00  0.00     0.018 C 
HETATM    3  C6  UNL     1       0.299  -0.665   0.914  1.00  0.00     0.019 C 
HETATM    4  C7  UNL     1      -0.261   0.023  -0.269  1.00  0.00     0.029 C 
HETATM    5  C8  UNL     1      -1.433   0.820   0.043  1.00  0.00    -0.048 C 
HETATM    6  C9  UNL     1      -1.464   2.054   0.492  1.00  0.00     0.018 C 
HETATM    7  C10 UNL     1      -2.643  -0.003  -0.228  1.00  0.00     0.161 C 
HETATM    8  C13 UNL     1      -2.079  -1.386  -0.628  1.00  0.00     0.045 C 
HETATM    9  C14 UNL     1      -0.894  -0.934  -1.306  1.00  0.00     0.033 C 
HETATM   10  C15 UNL     1       0.246  -1.748  -1.637  1.00  0.00     0.126 C 
HETATM   11  C16 UNL     1       1.303  -0.647  -1.867  1.00  0.00     0.079 C 
HETATM   12  C17 UNL     1       0.759   0.597  -1.205  1.00  0.00     0.133 C 
HETATM   13  C18 UNL     1       1.721   1.369  -0.423  1.00  0.00     0.170 C 
HETATM   14  O5  UNL     1       1.960   2.536  -0.747  1.00  0.00    -0.294 OA
ENDROOT
BRANCH   7  15
HETATM   15  O1  UNL     1      -3.513  -0.098   0.853  1.00  0.00    -0.312 OA
BRANCH  15  16
HETATM   16  C11 UNL     1      -4.834   0.303   0.679  1.00  0.00     0.255 C 
HETATM   17  C12 UNL     1      -5.833   0.234   1.787  1.00  0.00     0.126 C 
HETATM   18  O2  UNL     1      -5.228   0.741  -0.439  1.00  0.00    -0.266 OA
ENDBRANCH  15  16
ENDBRANCH   7  15
BRANCH  12  19
HETATM   19  O4  UNL     1       0.102   1.417  -2.123  1.00  0.00    -0.381 OA
ATOM     20  H4  UNL     1       0.749   1.781  -2.716  1.00  0.00     0.211 HD
ENDBRANCH  12  19
BRANCH  10  21
HETATM   21  O3  UNL     1       0.061  -2.359  -2.887  1.00  0.00    -0.395 OA
ATOM     22  H3  UNL     1       0.813  -2.896  -3.105  1.00  0.00     0.210 HD
ENDBRANCH  10  21
BRANCH   1  23
HETATM   23  C2  UNL     1       3.835   0.641   0.526  1.00  0.00    -0.082 C 
HETATM   24  C1  UNL     1       4.451   1.023  -0.578  1.00  0.00     0.015 C 
HETATM   25  C3  UNL     1       4.700   0.062   1.625  1.00  0.00     0.043 C 
ENDBRANCH   1  23
TORSDOF 5
