REMARK  5 active torsions:
REMARK  status: ('A' for Active; 'I' for Inactive)
REMARK    1  A    between atoms: C2_2  and  O1_3 
REMARK    2  A    between atoms: O1_3  and  C3_4 
REMARK       I    between atoms: N3_12  and  C8_13 
REMARK    3  A    between atoms: C8_13  and  C9_15 
REMARK    4  A    between atoms: C18_25  and  O4_26 
REMARK    5  A    between atoms: C19_28  and  O5_29 
ROOT
HETATM    1  C3  UNL     1       3.348   1.478   0.803  1.00  0.00     0.134 A 
HETATM    2  N1  UNL     1       3.669   1.027  -0.330  1.00  0.00    -0.285 N 
ATOM      3  H1  UNL     1       4.537   1.292  -0.796  1.00  0.00     0.188 HD
HETATM    4  N2  UNL     1       2.763   0.147  -0.898  1.00  0.00    -0.317 N 
HETATM    5  C4  UNL     1       3.004  -0.459  -2.216  1.00  0.00     0.172 C 
HETATM    6  C5  UNL     1       1.674  -0.014  -0.012  1.00  0.00     0.085 A 
HETATM    7  C6  UNL     1       0.344   0.483  -0.556  1.00  0.00     0.056 C 
HETATM    8  C7  UNL     1      -0.640   0.527   0.563  1.00  0.00     0.129 C 
HETATM    9  N3  UNL     1      -1.625  -0.575   0.408  1.00  0.00    -0.344 N 
HETATM   10  C8  UNL     1      -2.828  -0.077  -0.115  1.00  0.00     0.224 C 
HETATM   11  O2  UNL     1      -3.773  -0.870  -0.329  1.00  0.00    -0.273 OA
HETATM   12  C14 UNL     1      -1.461  -1.927   0.724  1.00  0.00     0.120 C 
HETATM   13  C15 UNL     1      -2.662  -2.835   0.651  1.00  0.00     0.054 C 
HETATM   14  C16 UNL     1      -1.922  -4.164   0.986  1.00  0.00     0.170 C 
HETATM   15  O3  UNL     1      -0.620  -3.990   0.598  1.00  0.00    -0.381 OA
HETATM   16  C17 UNL     1      -0.555  -2.770  -0.123  1.00  0.00     0.175 C 
HETATM   17  C18 UNL     1       0.808  -2.337  -0.393  1.00  0.00     0.180 C 
HETATM   18  C19 UNL     1       1.497  -1.416   0.529  1.00  0.00     0.179 C 
HETATM   19  C20 UNL     1       2.039   0.878   1.156  1.00  0.00     0.121 A 
ENDROOT
BRANCH  18  20
HETATM   20  O5  UNL     1       2.801  -1.854   0.866  1.00  0.00    -0.390 OA
ATOM     21  H5  UNL     1       2.690  -2.734   1.206  1.00  0.00     0.210 HD
ENDBRANCH  18  20
BRANCH  17  22
HETATM   22  O4  UNL     1       1.604  -3.516  -0.453  1.00  0.00    -0.390 OA
ATOM     23  H4  UNL     1       2.494  -3.233  -0.629  1.00  0.00     0.210 HD
ENDBRANCH  17  22
BRANCH   1  24
HETATM   24  O1  UNL     1       4.106   2.365   1.543  1.00  0.00    -0.338 OA
BRANCH  24  25
HETATM   25  C2  UNL     1       5.398   2.776   1.121  1.00  0.00     0.172 C 
HETATM   26  C1  UNL     1       6.257   1.539   1.025  1.00  0.00     0.034 C 
ENDBRANCH  24  25
ENDBRANCH   1  24
BRANCH  10  27
HETATM   27  C9  UNL     1      -3.139   1.330  -0.459  1.00  0.00     0.078 C 
HETATM   28  C10 UNL     1      -3.562   2.205   0.652  1.00  0.00     0.014 C 
HETATM   29  C11 UNL     1      -4.929   2.768   0.234  1.00  0.00     0.001 C 
HETATM   30  C12 UNL     1      -4.901   2.671  -1.290  1.00  0.00     0.001 C 
HETATM   31  C13 UNL     1      -4.253   1.334  -1.480  1.00  0.00     0.014 C 
ENDBRANCH  10  27
TORSDOF 5
