REMARK  5 active torsions:
REMARK  status: ('A' for Active; 'I' for Inactive)
REMARK    1  A    between atoms: C7_8  and  O2_9 
REMARK    2  A    between atoms: C7_8  and  C8_11 
REMARK    3  A    between atoms: C8_11  and  O3_12 
REMARK    4  A    between atoms: O3_12  and  C9_13 
REMARK    5  A    between atoms: C18_26  and  O6_27 
ROOT
HETATM    1  C1  UNL     1      -2.908  -0.139   3.403  1.00  0.00     0.017 C 
HETATM    2  C2  UNL     1      -2.452   0.385   2.275  1.00  0.00    -0.053 C 
HETATM    3  C3  UNL     1      -3.214   0.112   1.021  1.00  0.00     0.024 C 
HETATM    4  C4  UNL     1      -2.420   0.828  -0.049  1.00  0.00     0.020 C 
HETATM    5  C5  UNL     1      -1.021   0.222   0.124  1.00  0.00     0.068 C 
HETATM    6  C6  UNL     1      -1.104  -1.278   0.119  1.00  0.00     0.132 C 
HETATM    7  O1  UNL     1       0.098  -1.677  -0.509  1.00  0.00    -0.333 OA
HETATM    8  C7  UNL     1       1.074  -1.449   0.471  1.00  0.00     0.222 C 
HETATM    9  C14 UNL     1       0.334  -0.828   1.636  1.00  0.00     0.182 A 
HETATM   10  O4  UNL     1      -0.296  -1.438   2.607  1.00  0.00    -0.356 OA
HETATM   11  C15 UNL     1      -0.830  -1.832   1.490  1.00  0.00     0.204 A 
HETATM   12  C16 UNL     1      -0.307   0.513   1.286  1.00  0.00     0.137 A 
HETATM   13  O5  UNL     1      -0.017   1.262   2.314  1.00  0.00    -0.360 OA
HETATM   14  C17 UNL     1      -1.297   1.208   2.208  1.00  0.00     0.190 A 
HETATM   15  C18 UNL     1      -2.347  -1.901  -0.263  1.00  0.00     0.096 C 
HETATM   16  C19 UNL     1      -2.836  -1.903  -1.640  1.00  0.00     0.041 C 
HETATM   17  C20 UNL     1      -4.293  -1.565  -1.567  1.00  0.00     0.004 C 
HETATM   18  C21 UNL     1      -4.665  -1.606  -0.080  1.00  0.00     0.008 C 
HETATM   19  C22 UNL     1      -3.402  -1.317   0.677  1.00  0.00     0.031 C 
ENDROOT
BRANCH   8  20
HETATM   20  O2  UNL     1       1.389  -2.761   0.924  1.00  0.00    -0.361 OA
ATOM     21  H2  UNL     1       2.050  -2.606   1.588  1.00  0.00     0.213 HD
ENDBRANCH   8  20
BRANCH   8  22
HETATM   22  C8  UNL     1       2.320  -0.825   0.072  1.00  0.00     0.240 C 
BRANCH  22  23
HETATM   23  O3  UNL     1       2.322   0.415  -0.484  1.00  0.00    -0.380 OA
BRANCH  23  24
HETATM   24  C9  UNL     1       3.562   0.900  -0.820  1.00  0.00     0.124 C 
HETATM   25  C10 UNL     1       3.706   1.198  -2.281  1.00  0.00     0.051 C 
HETATM   26  C11 UNL     1       4.166   2.620  -2.531  1.00  0.00     0.116 C 
HETATM   27  N1  UNL     1       5.376   2.891  -1.819  1.00  0.00    -0.421 N 
HETATM   28  C12 UNL     1       5.342   2.555  -0.419  1.00  0.00     0.116 C 
ATOM     29  H1  UNL     1       6.200   3.291  -2.268  1.00  0.00     0.153 HD
HETATM   30  C13 UNL     1       3.926   2.160  -0.067  1.00  0.00     0.051 C 
ENDBRANCH  23  24
ENDBRANCH  22  23
ENDBRANCH   8  22
BRANCH  15  31
HETATM   31  O6  UNL     1      -2.280  -3.273   0.121  1.00  0.00    -0.386 OA
ATOM     32  H6  UNL     1      -3.099  -3.683  -0.131  1.00  0.00     0.210 HD
ENDBRANCH  15  31
TORSDOF 5
