REMARK  6 active torsions:
REMARK  status: ('A' for Active; 'I' for Inactive)
REMARK    1  A    between atoms: C2_2  and  O2_4 
REMARK    2  A    between atoms: O2_4  and  C3_5 
REMARK    3  A    between atoms: C4_6  and  O3_7 
REMARK    4  A    between atoms: C15_19  and  O4_20 
REMARK    5  A    between atoms: O4_20  and  C16_21 
REMARK    6  A    between atoms: C19_25  and  O6_26 
ROOT
HETATM    1  C3  UNL     1       2.169  -0.008  -0.063  1.00  0.00     0.191 C 
HETATM    2  C4  UNL     1       1.891  -1.336  -0.654  1.00  0.00     0.158 C 
HETATM    3  C5  UNL     1       0.570  -1.507  -1.310  1.00  0.00    -0.014 C 
HETATM    4  C6  UNL     1       0.276  -2.991  -1.390  1.00  0.00     0.018 C 
HETATM    5  C7  UNL     1       0.751  -1.088  -2.784  1.00  0.00     0.018 C 
HETATM    6  C8  UNL     1      -0.555  -0.723  -0.668  1.00  0.00     0.017 C 
HETATM    7  C9  UNL     1      -1.907  -1.338  -0.852  1.00  0.00     0.042 C 
HETATM    8  C10 UNL     1      -2.425  -2.121   0.269  1.00  0.00    -0.023 C 
HETATM    9  C11 UNL     1      -2.202  -1.982   1.563  1.00  0.00    -0.025 C 
HETATM   10  C12 UNL     1      -1.353  -0.977   2.229  1.00  0.00     0.018 C 
HETATM   11  C13 UNL     1       0.095  -1.213   1.739  1.00  0.00     0.022 C 
HETATM   12  C14 UNL     1      -0.201  -0.241   0.667  1.00  0.00     0.003 C 
HETATM   13  C15 UNL     1       0.985   0.720   0.502  1.00  0.00     0.173 C 
HETATM   14  C18 UNL     1      -1.252   0.346   1.510  1.00  0.00     0.064 C 
HETATM   15  C19 UNL     1      -2.425   0.962   0.914  1.00  0.00     0.361 C 
HETATM   16  N1  UNL     1      -2.462   1.035  -0.527  1.00  0.00     0.113 N 
HETATM   17  C20 UNL     1      -3.487   2.024  -0.863  1.00  0.00     0.313 C 
HETATM   18  C21 UNL     1      -2.938  -0.217  -1.078  1.00  0.00     0.284 C 
ENDROOT
BRANCH   1  19
HETATM   19  O2  UNL     1       3.109  -0.169   0.995  1.00  0.00    -0.311 OA
BRANCH  19  20
HETATM   20  C2  UNL     1       4.355   0.384   1.007  1.00  0.00     0.255 C 
HETATM   21  C1  UNL     1       5.262   0.162   2.149  1.00  0.00     0.126 C 
HETATM   22  O1  UNL     1       4.732   1.080   0.050  1.00  0.00    -0.266 OA
ENDBRANCH  19  20
ENDBRANCH   1  19
BRANCH   2  23
HETATM   23  O3  UNL     1       2.889  -1.566  -1.637  1.00  0.00    -0.392 OA
ATOM     24  H3  UNL     1       2.711  -2.418  -2.016  1.00  0.00     0.210 HD
ENDBRANCH   2  23
BRANCH  13  25
HETATM   25  O4  UNL     1       0.676   1.794  -0.324  1.00  0.00    -0.313 OA
BRANCH  25  26
HETATM   26  C16 UNL     1       0.657   3.078   0.197  1.00  0.00     0.255 C 
HETATM   27  C17 UNL     1       0.324   4.215  -0.701  1.00  0.00     0.126 C 
HETATM   28  O5  UNL     1       0.922   3.271   1.430  1.00  0.00    -0.266 OA
ENDBRANCH  25  26
ENDBRANCH  13  25
BRANCH  15  29
HETATM   29  O6  UNL     1      -3.670   0.465   1.321  1.00  0.00    -0.367 OA
ATOM     30  H6  UNL     1      -4.437   0.868   0.931  1.00  0.00     0.212 HD
ENDBRANCH  15  29
TORSDOF 6
