REMARK  6 active torsions:
REMARK  status: ('A' for Active; 'I' for Inactive)
REMARK    1  A    between atoms: N1_2  and  C3_4 
REMARK    2  A    between atoms: C4_5  and  O1_6 
REMARK    3  A    between atoms: C6_9  and  O2_10 
REMARK    4  A    between atoms: O2_10  and  C7_11 
REMARK    5  A    between atoms: C8_13  and  O4_14 
REMARK    6  A    between atoms: C21_29  and  O6_30 
ROOT
HETATM    1  C7  UNL     1      -0.049  -1.764   0.832  1.00  0.00     0.268 C 
HETATM    2  O3  UNL     1       0.197  -2.317   2.143  1.00  0.00    -0.331 OA
HETATM    3  C8  UNL     1      -0.700  -1.845   3.020  1.00  0.00     0.264 C 
HETATM    4  C9  UNL     1      -1.391  -0.711   2.332  1.00  0.00     0.050 C 
HETATM    5  C10 UNL     1      -2.752  -0.427   2.835  1.00  0.00     0.010 C 
HETATM    6  C11 UNL     1      -3.611   0.165   1.750  1.00  0.00     0.007 C 
HETATM    7  C12 UNL     1      -2.698   0.730   0.684  1.00  0.00     0.005 C 
HETATM    8  C13 UNL     1      -2.129  -0.512  -0.027  1.00  0.00     0.069 C 
HETATM    9  C14 UNL     1      -1.526  -0.086  -1.283  1.00  0.00     0.132 C 
HETATM   10  O5  UNL     1      -1.134  -0.948  -2.051  1.00  0.00    -0.298 OA
HETATM   11  C15 UNL     1      -1.354   1.325  -1.700  1.00  0.00     0.079 C 
HETATM   12  C16 UNL     1      -2.453   2.228  -1.205  1.00  0.00     0.016 C 
HETATM   13  C17 UNL     1      -3.458   1.513  -0.349  1.00  0.00    -0.043 C 
HETATM   14  C18 UNL     1      -4.454   0.725  -1.130  1.00  0.00     0.015 C 
HETATM   15  C19 UNL     1      -4.253   2.576   0.425  1.00  0.00     0.015 C 
HETATM   16  C20 UNL     1      -1.438  -1.333   0.919  1.00  0.00     0.061 C 
ENDROOT
BRANCH   1  17
HETATM   17  O2  UNL     1       0.939  -0.863   0.656  1.00  0.00    -0.353 OA
BRANCH  17  18
HETATM   18  C6  UNL     1       1.975  -1.190  -0.168  1.00  0.00     0.158 C 
HETATM   19  C5  UNL     1       3.288  -1.408   0.564  1.00  0.00     0.068 C 
HETATM   20  C4  UNL     1       4.361  -0.654  -0.190  1.00  0.00     0.145 C 
HETATM   21  C3  UNL     1       3.563   0.496  -0.770  1.00  0.00     0.138 C 
HETATM   22  C21 UNL     1       2.347  -0.294  -1.273  1.00  0.00     0.172 C 
BRANCH  20  23
HETATM   23  O1  UNL     1       5.279  -0.121   0.712  1.00  0.00    -0.393 OA
ATOM     24  H1  UNL     1       5.779  -0.842   1.076  1.00  0.00     0.210 HD
ENDBRANCH  20  23
BRANCH  21  25
HETATM   25  N1  UNL     1       4.198   1.287  -1.712  1.00  0.00    -0.412 N 
HETATM   26  C1  UNL     1       4.630   0.764  -2.926  1.00  0.00     0.143 C 
HETATM   27  C2  UNL     1       4.662   2.571  -1.327  1.00  0.00     0.143 C 
ENDBRANCH  21  25
BRANCH  22  28
HETATM   28  O6  UNL     1       2.862  -1.041  -2.369  1.00  0.00    -0.391 OA
ATOM     29  H6  UNL     1       2.109  -1.530  -2.680  1.00  0.00     0.210 HD
ENDBRANCH  22  28
ENDBRANCH  17  18
ENDBRANCH   1  17
BRANCH   3  30
HETATM   30  O4  UNL     1      -1.592  -2.828   3.454  1.00  0.00    -0.371 OA
ATOM     31  H4  UNL     1      -2.228  -2.493   4.076  1.00  0.00     0.212 HD
ENDBRANCH   3  30
TORSDOF 6
