REMARK  5 active torsions:
REMARK  status: ('A' for Active; 'I' for Inactive)
REMARK    1  A    between atoms: C2_2  and  O1_5 
REMARK    2  A    between atoms: O1_5  and  C5_6 
REMARK       I    between atoms: C5_6  and  N1_8 
REMARK    3  A    between atoms: N1_8  and  C6_10 
REMARK    4  A    between atoms: N2_12  and  C8_13 
REMARK    5  A    between atoms: C12_21  and  O4_22 
ROOT
HETATM    1  C6  UNL     1       0.655  -0.417  -1.443  1.00  0.00     0.135 C 
HETATM    2  C7  UNL     1       1.802  -1.230  -0.835  1.00  0.00     0.154 C 
HETATM    3  N2  UNL     1       2.888  -0.268  -0.886  1.00  0.00    -0.342 N 
HETATM    4  C11 UNL     1       2.809   0.341  -2.190  1.00  0.00     0.160 C 
HETATM    5  C12 UNL     1       1.324   0.584  -2.348  1.00  0.00     0.160 C 
ENDROOT
BRANCH   1   6
HETATM    6  N1  UNL     1       0.026   0.302  -0.362  1.00  0.00    -0.328 N 
HETATM    7  C5  UNL     1      -1.342   0.106  -0.098  1.00  0.00     0.361 C 
HETATM    8  O2  UNL     1      -2.006  -0.692  -0.802  1.00  0.00    -0.238 OA
ATOM      9  H1  UNL     1       0.570   0.949   0.208  1.00  0.00     0.165 HD
BRANCH   7  10
HETATM   10  O1  UNL     1      -2.023   0.757   0.920  1.00  0.00    -0.294 OA
BRANCH  10  11
HETATM   11  C2  UNL     1      -3.375   0.508   1.117  1.00  0.00     0.061 C 
HETATM   12  C1  UNL     1      -3.517  -0.990   1.417  1.00  0.00     0.046 C 
HETATM   13  C3  UNL     1      -3.927   1.261   2.315  1.00  0.00     0.046 C 
HETATM   14  C4  UNL     1      -4.230   0.788  -0.087  1.00  0.00     0.046 C 
ENDBRANCH  10  11
ENDBRANCH   7  10
ENDBRANCH   1   6
BRANCH   5  15
HETATM   15  O4  UNL     1       0.918   0.381  -3.664  1.00  0.00    -0.392 OA
ATOM     16  H4  UNL     1       1.340   1.012  -4.235  1.00  0.00     0.210 HD
ENDBRANCH   5  15
BRANCH   3  17
HETATM   17  C8  UNL     1       3.812  -0.014   0.159  1.00  0.00     0.227 A 
HETATM   18  N3  UNL     1       4.817   0.904   0.058  1.00  0.00    -0.329 N 
HETATM   19  C9  UNL     1       5.454   0.843   1.233  1.00  0.00     0.137 A 
ATOM     20  H3  UNL     1       5.034   1.504  -0.738  1.00  0.00     0.168 HD
HETATM   21  C10 UNL     1       4.838  -0.100   2.027  1.00  0.00     0.140 A 
HETATM   22 BR1  UNL     1       5.285  -0.630   3.792  1.00  0.00    -0.021 Br
HETATM   23  O3  UNL     1       3.851  -0.585   1.324  1.00  0.00    -0.270 OA
ENDBRANCH   3  17
TORSDOF 5
