REMARK  7 active torsions:
REMARK  status: ('A' for Active; 'I' for Inactive)
REMARK    1  A    between atoms: C2_2  and  O2_4 
REMARK    2  A    between atoms: O2_4  and  C3_5 
REMARK    3  A    between atoms: C5_7  and  O3_8 
REMARK    4  A    between atoms: C11_16  and  O4_17 
REMARK    5  A    between atoms: C12_19  and  N1_20 
REMARK    6  A    between atoms: N1_20  and  N2_22 
REMARK    7  A    between atoms: N2_22  and  N3_23 
ROOT
HETATM    1  C3  UNL     1       1.921  -0.545  -0.213  1.00  0.00     0.151 C 
HETATM    2  C4  UNL     1       0.732  -0.103  -0.518  1.00  0.00    -0.024 C 
HETATM    3  C5  UNL     1       0.423   1.337  -0.493  1.00  0.00     0.150 C 
HETATM    4  C6  UNL     1      -0.974   1.688  -0.128  1.00  0.00     0.044 C 
HETATM    5  C7  UNL     1      -1.990   0.620  -0.338  1.00  0.00     0.031 C 
HETATM    6  C8  UNL     1      -1.591  -0.408  -1.365  1.00  0.00     0.072 C 
HETATM    7 BR1  UNL     1      -1.532   0.261  -3.146  1.00  0.00    -0.090 Br
HETATM    8  C9  UNL     1      -0.333  -1.057  -0.899  1.00  0.00     0.036 C 
HETATM    9  C10 UNL     1      -0.677  -1.910   0.287  1.00  0.00     0.044 C 
HETATM   10  C11 UNL     1      -1.845  -1.472   1.068  1.00  0.00     0.144 C 
HETATM   11  C12 UNL     1      -2.307  -0.088   0.936  1.00  0.00     0.148 C 
ENDROOT
BRANCH  11  12
HETATM   12  N1  UNL     1      -3.764  -0.054   1.149  1.00  0.00    -0.245 N 
ATOM     13  H1  UNL     1      -4.244  -0.836   1.596  1.00  0.00     0.197 HD
BRANCH  12  14
HETATM   14  N2  UNL     1      -4.394   0.944   0.774  1.00  0.00    -0.248 NA
BRANCH  14  15
HETATM   15  N3  UNL     1      -5.180   1.775   0.323  1.00  0.00    -0.261 N 
ATOM     16  H32 UNL     1      -5.800   1.022   0.025  1.00  0.00     0.193 HD
ATOM     17  H31 UNL     1      -5.699   2.597   0.014  1.00  0.00     0.193 HD
ENDBRANCH  14  15
ENDBRANCH  12  14
ENDBRANCH  11  12
BRANCH  10  18
HETATM   18  O4  UNL     1      -2.927  -2.342   0.790  1.00  0.00    -0.393 OA
ATOM     19  H4  UNL     1      -3.681  -2.059   1.294  1.00  0.00     0.210 HD
ENDBRANCH  10  18
BRANCH   3  20
HETATM   20  O3  UNL     1       0.819   1.943  -1.709  1.00  0.00    -0.391 OA
ATOM     21  H3  UNL     1       0.620   2.872  -1.693  1.00  0.00     0.210 HD
ENDBRANCH   3  20
BRANCH   1  22
HETATM   22  O2  UNL     1       2.910   0.344   0.140  1.00  0.00    -0.291 OA
BRANCH  22  23
HETATM   23  C2  UNL     1       4.190  -0.094   0.471  1.00  0.00     0.259 C 
HETATM   24  C1  UNL     1       5.290   0.808   0.857  1.00  0.00     0.126 C 
HETATM   25  O1  UNL     1       4.373  -1.346   0.424  1.00  0.00    -0.265 OA
ENDBRANCH  22  23
ENDBRANCH   1  22
TORSDOF 7
