REMARK  11 active torsions:
REMARK  status: ('A' for Active; 'I' for Inactive)
REMARK    1  A    between atoms: C2_2  and  C3_3 
REMARK    2  A    between atoms: C4_4  and  C5_5 
REMARK    3  A    between atoms: C12_12  and  C13_13 
REMARK    4  A    between atoms: C13_13  and  C14_14 
REMARK    5  A    between atoms: C14_14  and  O2_16 
REMARK    6  A    between atoms: O2_16  and  C15_17 
REMARK    7  A    between atoms: C16_18  and  O3_19 
REMARK    8  A    between atoms: C17_21  and  O4_22 
REMARK    9  A    between atoms: C18_25  and  C19_26 
REMARK   10  A    between atoms: C19_26  and  O6_27 
REMARK   11  A    between atoms: C20_29  and  O7_30 
ROOT
HETATM    1  O2  UNL     1      -3.136  -0.733  -0.018  1.00  0.00    -0.310 OA
ENDROOT
BRANCH   1   2
HETATM    2  C14 UNL     1      -1.850  -1.001  -0.352  1.00  0.00     0.262 C 
HETATM    3  O1  UNL     1      -1.444  -0.851  -1.500  1.00  0.00    -0.265 OA
BRANCH   2   4
HETATM    4  C13 UNL     1      -0.915  -1.493   0.728  1.00  0.00     0.138 C 
BRANCH   4   5
HETATM    5  C12 UNL     1       0.413  -1.736   0.232  1.00  0.00    -0.010 C 
HETATM    6  C2  UNL     1       1.528  -1.064   0.608  1.00  0.00    -0.066 C 
HETATM    7  C1  UNL     1       1.414   0.004   1.591  1.00  0.00     0.048 C 
BRANCH   6   8
HETATM    8  C3  UNL     1       2.747  -1.480  -0.020  1.00  0.00     0.003 C 
HETATM    9  C4  UNL     1       3.961  -1.191   0.002  1.00  0.00    -0.021 C 
BRANCH   9  10
HETATM   10  C5  UNL     1       4.902  -0.327   0.608  1.00  0.00     0.016 C 
HETATM   11  C6  UNL     1       4.667   0.644   1.666  1.00  0.00     0.009 C 
HETATM   12  C7  UNL     1       6.100   1.202   1.875  1.00  0.00     0.001 C 
HETATM   13  C8  UNL     1       6.536   1.393   0.419  1.00  0.00     0.009 C 
HETATM   14  C9  UNL     1       5.634   0.566  -0.437  1.00  0.00    -0.041 C 
HETATM   15  C10 UNL     1       4.669   1.425  -1.183  1.00  0.00     0.015 C 
HETATM   16  C11 UNL     1       6.364  -0.352  -1.374  1.00  0.00     0.015 C 
ENDBRANCH   9  10
ENDBRANCH   6   8
ENDBRANCH   4   5
ENDBRANCH   2   4
ENDBRANCH   1   2
BRANCH   1  17
HETATM   17  C15 UNL     1      -4.131  -0.268  -0.903  1.00  0.00     0.196 C 
HETATM   18  C16 UNL     1      -5.185  -1.360  -0.961  1.00  0.00     0.205 C 
HETATM   19  C17 UNL     1      -5.921  -1.349   0.335  1.00  0.00     0.288 C 
HETATM   20  O5  UNL     1      -6.637  -0.199   0.543  1.00  0.00    -0.349 OA
HETATM   21  C18 UNL     1      -6.282   0.763  -0.370  1.00  0.00     0.179 C 
HETATM   22  C20 UNL     1      -4.787   0.995  -0.460  1.00  0.00     0.181 C 
BRANCH  18  23
HETATM   23  O3  UNL     1      -4.513  -2.600  -1.039  1.00  0.00    -0.388 OA
ATOM     24  H3  UNL     1      -5.172  -3.283  -1.075  1.00  0.00     0.210 HD
ENDBRANCH  18  23
BRANCH  19  25
HETATM   25  O4  UNL     1      -6.769  -2.442   0.491  1.00  0.00    -0.369 OA
ATOM     26  H4  UNL     1      -7.238  -2.435   1.317  1.00  0.00     0.212 HD
ENDBRANCH  19  25
BRANCH  21  27
HETATM   27  C19 UNL     1      -7.018   2.053  -0.036  1.00  0.00     0.198 C 
BRANCH  27  28
HETATM   28  O6  UNL     1      -6.705   2.511   1.233  1.00  0.00    -0.398 OA
ATOM     29  H6  UNL     1      -7.164   3.316   1.441  1.00  0.00     0.209 HD
ENDBRANCH  27  28
ENDBRANCH  21  27
BRANCH  22  30
HETATM   30  O7  UNL     1      -4.631   2.003  -1.442  1.00  0.00    -0.390 OA
ATOM     31  H7  UNL     1      -5.049   2.808  -1.160  1.00  0.00     0.210 HD
ENDBRANCH  22  30
ENDBRANCH   1  17
TORSDOF 11
