REMARK  8 active torsions:
REMARK  status: ('A' for Active; 'I' for Inactive)
REMARK    1  A    between atoms: C2_2  and  C3_3 
REMARK    2  A    between atoms: C3_3  and  C4_4 
REMARK    3  A    between atoms: C13_14  and  O1_15 
REMARK    4  A    between atoms: C14_17  and  C15_18 
REMARK    5  A    between atoms: C15_18  and  O3_20 
REMARK    6  A    between atoms: O3_20  and  C16_21 
REMARK    7  A    between atoms: C18_23  and  O4_24 
REMARK    8  A    between atoms: C18_23  and  C19_26 
ROOT
HETATM    1  C4  UNL     1      -2.172   0.833   0.108  1.00  0.00    -0.046 C 
HETATM    2  C5  UNL     1      -2.713   0.322   1.201  1.00  0.00    -0.062 C 
HETATM    3  C6  UNL     1      -3.982   0.938   1.778  1.00  0.00     0.045 C 
HETATM    4  C7  UNL     1      -2.205  -0.819   1.977  1.00  0.00     0.088 C 
HETATM    5  S1  UNL     1      -3.422  -2.171   1.797  1.00  0.00    -0.088 SA
HETATM    6  C8  UNL     1      -0.826  -1.263   1.600  1.00  0.00     0.029 C 
HETATM    7  C9  UNL     1      -0.434  -0.999   0.205  1.00  0.00     0.046 C 
HETATM    8  C10 UNL     1      -0.910   0.236  -0.442  1.00  0.00    -0.007 C 
HETATM    9  C11 UNL     1      -1.242  -0.140  -1.903  1.00  0.00     0.021 C 
HETATM   10  C12 UNL     1       0.050   1.405  -0.414  1.00  0.00     0.047 C 
HETATM   11  C13 UNL     1       1.490   1.091  -0.389  1.00  0.00     0.136 C 
HETATM   12  C14 UNL     1       1.841   0.005   0.622  1.00  0.00     0.160 C 
HETATM   13  C18 UNL     1       1.066  -1.195   0.116  1.00  0.00     0.165 C 
ENDROOT
BRANCH  12  14
HETATM   14  C15 UNL     1       3.283  -0.297   0.466  1.00  0.00     0.269 C 
HETATM   15  O2  UNL     1       4.059  -0.132   1.440  1.00  0.00    -0.265 OA
BRANCH  14  16
HETATM   16  O3  UNL     1       3.834  -0.761  -0.716  1.00  0.00    -0.321 OA
BRANCH  16  17
HETATM   17  C16 UNL     1       5.210  -1.054  -0.878  1.00  0.00     0.174 C 
HETATM   18  C17 UNL     1       6.087   0.155  -0.634  1.00  0.00     0.034 C 
ENDBRANCH  16  17
ENDBRANCH  14  16
ENDBRANCH  12  14
BRANCH  11  19
HETATM   19  O1  UNL     1       2.197   2.240  -0.102  1.00  0.00    -0.395 OA
ATOM     20  H1  UNL     1       3.125   2.038  -0.086  1.00  0.00     0.210 HD
ENDBRANCH  11  19
BRANCH  13  21
HETATM   21  O4  UNL     1       1.475  -1.317  -1.224  1.00  0.00    -0.377 OA
ATOM     22  H4  UNL     1       2.415  -1.440  -1.280  1.00  0.00     0.211 HD
ENDBRANCH  13  21
BRANCH  13  23
HETATM   23  C19 UNL     1       1.428  -2.454   0.778  1.00  0.00     0.210 C 
HETATM   24  O5  UNL     1       1.789  -3.443   0.042  1.00  0.00    -0.646 OA
HETATM   25  O6  UNL     1       1.431  -2.707   2.137  1.00  0.00    -0.646 OA
ENDBRANCH  13  23
BRANCH   1  26
HETATM   26  C3  UNL     1      -2.857   1.983  -0.475  1.00  0.00     0.007 C 
BRANCH  26  27
HETATM   27  C2  UNL     1      -3.439   1.963  -1.777  1.00  0.00    -0.010 C 
HETATM   28  C1  UNL     1      -4.741   2.148  -1.943  1.00  0.00     0.011 C 
ENDBRANCH  26  27
ENDBRANCH   1  26
TORSDOF 8
