REMARK  9 active torsions:
REMARK  status: ('A' for Active; 'I' for Inactive)
REMARK    1  A    between atoms: C4_6  and  C5_7 
REMARK       I    between atoms: C5_7  and  N2_9 
REMARK    2  A    between atoms: N2_9  and  N3_11 
REMARK    3  A    between atoms: N3_11  and  C6_13 
REMARK    4  A    between atoms: C6_13  and  N4_15 
REMARK    5  A    between atoms: N4_15  and  C7_17 
REMARK    6  A    between atoms: C7_17  and  C8_18 
REMARK    7  A    between atoms: C8_18  and  O2_19 
REMARK    8  A    between atoms: O2_19  and  C9_20 
REMARK       I    between atoms: C9_20  and  N5_22 
REMARK    9  A    between atoms: N5_22  and  C10_24 
ROOT
HETATM    1  N4  UNL     1      -0.233  -1.408   1.102  1.00  0.00    -0.343 N 
ATOM      2  H4  UNL     1       0.148  -2.334   1.293  1.00  0.00     0.167 HD
ENDROOT
BRANCH   1   3
HETATM    3  C6  UNL     1       0.770  -0.504   0.813  1.00  0.00     0.190 C 
HETATM    4  S1  UNL     1       0.557   1.053   0.522  1.00  0.00    -0.039 SA
BRANCH   3   5
HETATM    5  N3  UNL     1       2.136  -0.983   0.798  1.00  0.00    -0.273 N 
ATOM      6  H3  UNL     1       2.287  -1.974   0.985  1.00  0.00     0.189 HD
BRANCH   5   7
HETATM    7  N2  UNL     1       3.245  -0.211   0.553  1.00  0.00    -0.262 N 
HETATM    8  C5  UNL     1       4.493  -0.829   0.302  1.00  0.00     0.295 C 
HETATM    9  O1  UNL     1       4.600  -2.108   0.278  1.00  0.00    -0.264 OA
ATOM     10  H2  UNL     1       3.169   0.806   0.552  1.00  0.00     0.190 HD
BRANCH   8  11
HETATM   11  C4  UNL     1       5.708  -0.063   0.063  1.00  0.00     0.162 A 
HETATM   12  C3  UNL     1       6.952  -0.545  -0.302  1.00  0.00     0.133 A 
HETATM   13  N1  UNL     1       7.774   0.503  -0.407  1.00  0.00    -0.347 N 
HETATM   14  C2  UNL     1       7.067   1.612  -0.117  1.00  0.00     0.120 A 
ATOM     15  H1  UNL     1       8.761   0.469  -0.661  1.00  0.00     0.167 HD
HETATM   16  C1  UNL     1       7.629   3.001  -0.120  1.00  0.00     0.098 C 
HETATM   17  O4  UNL     1       5.860   1.233   0.152  1.00  0.00    -0.291 OA
ENDBRANCH   8  11
ENDBRANCH   5   7
ENDBRANCH   3   5
ENDBRANCH   1   3
BRANCH   1  18
HETATM   18  C7  UNL     1      -1.632  -1.403   1.205  1.00  0.00     0.102 C 
BRANCH  18  19
HETATM   19  C8  UNL     1      -2.374  -1.352  -0.067  1.00  0.00     0.104 C 
HETATM   20  C13 UNL     1      -1.928  -2.600  -0.897  1.00  0.00     0.044 C 
HETATM   21  C14 UNL     1      -2.553  -3.746  -0.177  1.00  0.00     0.004 C 
HETATM   22  C15 UNL     1      -3.900  -3.237   0.236  1.00  0.00     0.004 C 
HETATM   23  C16 UNL     1      -3.851  -1.749   0.160  1.00  0.00     0.044 C 
BRANCH  19  24
HETATM   24  O2  UNL     1      -2.385  -0.255  -0.881  1.00  0.00    -0.287 OA
BRANCH  24  25
HETATM   25  C9  UNL     1      -2.974   0.950  -0.482  1.00  0.00     0.362 C 
HETATM   26  O3  UNL     1      -3.486   0.991   0.648  1.00  0.00    -0.238 OA
HETATM   27  N5  UNL     1      -2.983   2.052  -1.338  1.00  0.00    -0.332 N 
ATOM     28  H5  UNL     1      -2.537   1.941  -2.249  1.00  0.00     0.165 HD
BRANCH  27  29
HETATM   29  C10 UNL     1      -3.561   3.313  -1.045  1.00  0.00     0.086 A 
HETATM   30  C11 UNL     1      -3.552   3.860   0.361  1.00  0.00     0.027 A 
HETATM   31  C12 UNL     1      -4.843   3.428  -0.233  1.00  0.00     0.027 A 
ENDBRANCH  27  29
ENDBRANCH  24  25
ENDBRANCH  19  24
ENDBRANCH  18  19
ENDBRANCH   1  18
TORSDOF 9
