REMARK  11 active torsions:
REMARK  status: ('A' for Active; 'I' for Inactive)
REMARK    1  A    between atoms: C3_4  and  C4_5 
REMARK    2  A    between atoms: C5_6  and  C6_7 
REMARK    3  A    between atoms: C6_7  and  C7_8 
REMARK    4  A    between atoms: C7_8  and  C8_9 
REMARK    5  A    between atoms: C8_9  and  C9_11 
REMARK    6  A    between atoms: C9_11  and  C10_12 
REMARK    7  A    between atoms: C12_15  and  C14_17 
REMARK    8  A    between atoms: C14_17  and  O3_18 
REMARK    9  A    between atoms: C16_22  and  O5_23 
REMARK   10  A    between atoms: C17_25  and  O6_26 
REMARK   11  A    between atoms: C18_28  and  O7_29 
ROOT
HETATM    1  C4  UNL     1      -2.480  -1.275  -0.477  1.00  0.00    -0.072 C 
HETATM    2  C5  UNL     1      -1.492  -1.951  -0.588  1.00  0.00    -0.104 C 
ENDROOT
BRANCH   2   3
HETATM    3  C6  UNL     1      -0.271  -2.757  -0.718  1.00  0.00     0.095 C 
BRANCH   3   4
HETATM    4  C7  UNL     1       0.615  -2.234  -1.821  1.00  0.00     0.032 C 
BRANCH   4   5
HETATM    5  C8  UNL     1       1.049  -0.828  -1.589  1.00  0.00     0.085 C 
HETATM    6 CL1  UNL     1       2.088  -0.229  -2.920  1.00  0.00    -0.125 Cl
BRANCH   5   7
HETATM    7  C9  UNL     1       1.637  -0.531  -0.254  1.00  0.00     0.054 C 
BRANCH   7   8
HETATM    8  C10 UNL     1       2.863  -1.279   0.128  1.00  0.00     0.146 C 
HETATM    9  C11 UNL     1       4.047  -1.103  -0.759  1.00  0.00     0.200 C 
HETATM   10  O2  UNL     1       4.355   0.256  -0.828  1.00  0.00    -0.374 OA
HETATM   11  C12 UNL     1       4.869   0.644   0.409  1.00  0.00     0.100 C 
HETATM   12  C13 UNL     1       4.379   2.046   0.703  1.00  0.00     0.050 C 
HETATM   13  C15 UNL     1       4.434  -0.243   1.521  1.00  0.00     0.208 C 
HETATM   14  O4  UNL     1       3.231  -0.860   1.402  1.00  0.00    -0.381 OA
BRANCH  11  15
HETATM   15  C14 UNL     1       6.392   0.756   0.318  1.00  0.00     0.203 C 
BRANCH  15  16
HETATM   16  O3  UNL     1       6.714   1.709  -0.647  1.00  0.00    -0.398 OA
ATOM     17  H3  UNL     1       7.660   1.779  -0.704  1.00  0.00     0.209 HD
ENDBRANCH  15  16
ENDBRANCH  11  15
ENDBRANCH   7   8
ENDBRANCH   5   7
ENDBRANCH   4   5
ENDBRANCH   3   4
ENDBRANCH   2   3
BRANCH   1  18
HETATM   18  C3  UNL     1      -3.686  -0.426  -0.325  1.00  0.00     0.231 C 
HETATM   19  O1  UNL     1      -3.289   0.898  -0.372  1.00  0.00    -0.363 OA
HETATM   20  C2  UNL     1      -4.101   1.659   0.425  1.00  0.00     0.150 C 
HETATM   21  C1  UNL     1      -3.873   3.147   0.236  1.00  0.00     0.042 C 
HETATM   22  C18 UNL     1      -5.549   1.294   0.199  1.00  0.00     0.178 C 
HETATM   23  C17 UNL     1      -5.769  -0.021   0.933  1.00  0.00     0.181 C 
HETATM   24  C16 UNL     1      -4.437  -0.787   0.925  1.00  0.00     0.190 C 
BRANCH  22  25
HETATM   25  O7  UNL     1      -5.910   1.242  -1.129  1.00  0.00    -0.390 OA
ATOM     26  H7  UNL     1      -6.821   1.012  -1.271  1.00  0.00     0.210 HD
ENDBRANCH  22  25
BRANCH  23  27
HETATM   27  O6  UNL     1      -6.158   0.177   2.252  1.00  0.00    -0.390 OA
ATOM     28  H6  UNL     1      -6.982   0.651   2.257  1.00  0.00     0.210 HD
ENDBRANCH  23  27
BRANCH  24  29
HETATM   29  O5  UNL     1      -4.763  -2.132   0.959  1.00  0.00    -0.389 OA
ATOM     30  H5  UNL     1      -5.238  -2.360   1.749  1.00  0.00     0.210 HD
ENDBRANCH  24  29
ENDBRANCH   1  18
TORSDOF 11
