REMARK  9 active torsions:
REMARK  status: ('A' for Active; 'I' for Inactive)
REMARK    1  A    between atoms: C2_2  and  O1_3 
REMARK    2  A    between atoms: O1_3  and  C3_4 
REMARK    3  A    between atoms: C3_4  and  C4_6 
REMARK    4  A    between atoms: C5_7  and  O3_8 
REMARK    5  A    between atoms: C6_10  and  O4_11 
REMARK    6  A    between atoms: C7_13  and  O5_14 
REMARK    7  A    between atoms: C8_16  and  S1_17 
REMARK    8  A    between atoms: C10_19  and  N1_20 
REMARK       I    between atoms: N1_20  and  C11_22 
REMARK    9  A    between atoms: C11_22  and  C12_24 
ROOT
HETATM    1  C4  UNL     1      -1.171   0.120  -0.474  1.00  0.00     0.140 C 
HETATM    2  C5  UNL     1      -2.164  -0.922  -0.980  1.00  0.00     0.165 C 
HETATM    3  C6  UNL     1      -2.763  -1.552   0.261  1.00  0.00     0.177 C 
HETATM    4  C7  UNL     1      -1.714  -2.457   0.850  1.00  0.00     0.165 C 
HETATM    5  C8  UNL     1      -0.325  -1.909   0.746  1.00  0.00     0.102 C 
HETATM    6  C10 UNL     1      -0.252  -0.429   0.561  1.00  0.00     0.117 C 
ENDROOT
BRANCH   6   7
HETATM    7  N1  UNL     1       1.124  -0.132   0.109  1.00  0.00    -0.350 N 
HETATM    8  C11 UNL     1       1.972   0.711   0.844  1.00  0.00     0.252 C 
HETATM    9  O6  UNL     1       1.606   1.264   1.930  1.00  0.00    -0.268 OA
ATOM     10  H1  UNL     1       1.465  -0.549  -0.757  1.00  0.00     0.163 HD
BRANCH   8  11
HETATM   11  C12 UNL     1       3.318   0.986   0.380  1.00  0.00     0.032 A 
HETATM   12  C13 UNL     1       3.945   0.315  -0.655  1.00  0.00     0.018 A 
HETATM   13  C14 UNL     1       5.227   0.620  -1.061  1.00  0.00     0.025 A 
HETATM   14  C15 UNL     1       5.926   1.620  -0.430  1.00  0.00     0.034 A 
HETATM   15 CL1  UNL     1       7.562   2.056  -0.900  1.00  0.00    -0.084 Cl
HETATM   16  C16 UNL     1       5.348   2.328   0.616  1.00  0.00     0.025 A 
HETATM   17  C17 UNL     1       4.072   1.991   0.985  1.00  0.00     0.018 A 
ENDBRANCH   8  11
ENDBRANCH   6   7
BRANCH   1  18
HETATM   18  C3  UNL     1      -2.019   1.222   0.107  1.00  0.00     0.267 C 
HETATM   19  O2  UNL     1      -1.916   1.546   1.315  1.00  0.00    -0.265 OA
BRANCH  18  20
HETATM   20  O1  UNL     1      -2.929   1.897  -0.684  1.00  0.00    -0.321 OA
BRANCH  20  21
HETATM   21  C2  UNL     1      -3.749   2.944  -0.175  1.00  0.00     0.174 C 
HETATM   22  C1  UNL     1      -2.902   4.058   0.352  1.00  0.00     0.034 C 
ENDBRANCH  20  21
ENDBRANCH  18  20
ENDBRANCH   1  18
BRANCH   5  23
HETATM   23  S1  UNL     1       0.604  -2.730  -0.593  1.00  0.00    -0.164 SA
HETATM   24  C9  UNL     1       0.867  -4.493  -0.165  1.00  0.00     0.090 C 
ENDBRANCH   5  23
BRANCH   2  25
HETATM   25  O3  UNL     1      -3.130  -0.281  -1.751  1.00  0.00    -0.392 OA
ATOM     26  H3  UNL     1      -3.748  -0.930  -2.066  1.00  0.00     0.210 HD
ENDBRANCH   2  25
BRANCH   4  27
HETATM   27  O5  UNL     1      -2.080  -2.759   2.151  1.00  0.00    -0.392 OA
ATOM     28  H5  UNL     1      -1.418  -3.330   2.523  1.00  0.00     0.210 HD
ENDBRANCH   4  27
BRANCH   3  29
HETATM   29  O4  UNL     1      -3.910  -2.287  -0.080  1.00  0.00    -0.390 OA
ATOM     30  H4  UNL     1      -4.286  -2.682   0.698  1.00  0.00     0.210 HD
ENDBRANCH   3  29
TORSDOF 9
