REMARK  8 active torsions:
REMARK  status: ('A' for Active; 'I' for Inactive)
REMARK    1  A    between atoms: C2_2  and  C3_3 
REMARK    2  A    between atoms: C2_2  and  N1_6 
REMARK    3  A    between atoms: C3_3  and  O1_4 
REMARK    4  A    between atoms: N1_6  and  C4_7 
REMARK    5  A    between atoms: C5_8  and  C6_9 
REMARK    6  A    between atoms: N3_13  and  C8_14 
REMARK    7  A    between atoms: C8_14  and  C9_15 
REMARK    8  A    between atoms: C13_20  and  N5_21 
ROOT
HETATM    1  C9  UNL     1      -2.201  -0.930   1.201  1.00  0.00     0.155 C 
HETATM    2  C10 UNL     1      -1.725  -0.197   2.367  1.00  0.00     0.061 C 
HETATM    3  N4  UNL     1      -1.334   0.387   3.274  1.00  0.00    -0.197 NA
ENDROOT
BRANCH   1   4
HETATM    4  C8  UNL     1      -1.898  -0.103  -0.067  1.00  0.00     0.050 C 
HETATM    5  C11 UNL     1      -2.472  -0.952  -1.182  1.00  0.00     0.034 C 
HETATM    6  C12 UNL     1      -3.849  -0.523  -1.547  1.00  0.00     0.035 C 
HETATM    7  C13 UNL     1      -4.778  -0.157  -0.440  1.00  0.00     0.183 C 
HETATM    8  C14 UNL     1      -4.181   0.704   0.634  1.00  0.00     0.035 C 
HETATM    9  C15 UNL     1      -2.779   1.086   0.109  1.00  0.00     0.034 C 
BRANCH   4  10
HETATM   10  N3  UNL     1      -0.486   0.059  -0.079  1.00  0.00    -0.335 N 
HETATM   11  C7  UNL     1       0.300  -0.858   0.536  1.00  0.00     0.113 A 
HETATM   12  C5  UNL     1       1.688  -0.803   0.610  1.00  0.00     0.086 A 
HETATM   13  C4  UNL     1       2.303   0.284  -0.002  1.00  0.00     0.142 A 
HETATM   14  C18 UNL     1       1.464   1.231  -0.638  1.00  0.00     0.112 A 
HETATM   15  C16 UNL     1       0.096   1.115  -0.673  1.00  0.00     0.142 A 
HETATM   16 CL1  UNL     1       2.138   2.655  -1.406  1.00  0.00    -0.077 Cl
HETATM   17  C17 UNL     1      -0.665   2.132  -1.395  1.00  0.00     0.119 C 
HETATM   18  N6  UNL     1      -1.232   2.959  -1.993  1.00  0.00    -0.190 NA
BRANCH  12  19
HETATM   19  C6  UNL     1       2.391  -1.831   1.373  1.00  0.00     0.269 C 
HETATM   20  N2  UNL     1       1.668  -3.025   1.677  1.00  0.00    -0.057 NA
HETATM   21  O2  UNL     1       3.546  -1.824   1.804  1.00  0.00    -0.271 OA
ENDBRANCH  12  19
BRANCH  13  22
HETATM   22  N1  UNL     1       3.503   0.447  -0.054  1.00  0.00    -0.438 NA
BRANCH  22  23
HETATM   23  C2  UNL     1       4.815   0.356   0.047  1.00  0.00     0.183 C 
HETATM   24  C1  UNL     1       5.470  -0.734  -0.870  1.00  0.00     0.049 C 
BRANCH  23  25
HETATM   25  C3  UNL     1       5.658   1.601  -0.390  1.00  0.00     0.203 C 
BRANCH  25  26
HETATM   26  O1  UNL     1       5.490   1.842  -1.729  1.00  0.00    -0.398 OA
ATOM     27  H1  UNL     1       6.001   2.597  -1.994  1.00  0.00     0.209 HD
ENDBRANCH  25  26
ENDBRANCH  23  25
ENDBRANCH  22  23
ENDBRANCH  13  22
ENDBRANCH   4  10
BRANCH   7  28
HETATM   28  N5  UNL     1      -5.907   0.542  -1.081  1.00  0.00    -0.075 N 
ATOM     29  H53 UNL     1      -5.623   1.335  -1.656  1.00  0.00     0.274 HD
ATOM     30  H52 UNL     1      -6.351   0.005  -1.826  1.00  0.00     0.274 HD
ATOM     31  H51 UNL     1      -6.543   0.792  -0.324  1.00  0.00     0.274 HD
ENDBRANCH   7  28
ENDBRANCH   1   4
TORSDOF 8
