REMARK  3 active torsions:
REMARK  status: ('A' for Active; 'I' for Inactive)
REMARK       I    between atoms: C1_4  and  N3_6 
REMARK    1  A    between atoms: C2_8  and  C3_9 
REMARK    2  A    between atoms: C2_8  and  C4_12 
REMARK       I    between atoms: C4_12  and  N5_14 
REMARK    3  A    between atoms: N5_14  and  N6_16 
ROOT
HETATM    1  N1  UNL     1       2.688  -0.235  -1.278  1.00  0.00    -0.373 N 
ATOM      2  H11 UNL     1       2.405   0.496  -1.930  1.00  0.00     0.158 HD
ATOM      3  H12 UNL     1       3.374  -0.938  -1.555  1.00  0.00     0.158 HD
HETATM    4  C1  UNL     1       2.132  -0.224  -0.108  1.00  0.00     0.186 C 
HETATM    5  N2  UNL     1       2.528  -1.249   0.806  1.00  0.00    -0.064 NA
HETATM    6  N3  UNL     1       1.200   0.731   0.268  1.00  0.00    -0.322 N 
ATOM      7  H3  UNL     1       1.570   1.589   0.677  1.00  0.00     0.169 HD
HETATM    8  C2  UNL     1      -0.105   0.655   0.157  1.00  0.00     0.170 C 
ENDROOT
BRANCH   8   9
HETATM    9  C3  UNL     1      -0.813   1.828   0.644  1.00  0.00     0.287 C 
HETATM   10  N4  UNL     1      -0.061   2.939   1.189  1.00  0.00    -0.056 NA
HETATM   11  O1  UNL     1      -2.045   1.953   0.629  1.00  0.00    -0.269 OA
ENDBRANCH   8   9
BRANCH   8  12
HETATM   12  C4  UNL     1      -0.752  -0.500  -0.401  1.00  0.00     0.291 C 
HETATM   13  O2  UNL     1       0.010  -1.459  -0.789  1.00  0.00    -0.264 OA
HETATM   14  N5  UNL     1      -2.127  -0.719  -0.581  1.00  0.00    -0.271 N 
ATOM     15  H5  UNL     1      -2.798  -0.005  -0.299  1.00  0.00     0.189 HD
BRANCH  14  16
HETATM   16  N6  UNL     1      -2.586  -1.942  -1.159  1.00  0.00    -0.342 N 
ATOM     17  H62 UNL     1      -1.902  -2.646  -1.436  1.00  0.00     0.176 HD
ATOM     18  H61 UNL     1      -3.585  -2.101  -1.290  1.00  0.00     0.176 HD
ENDBRANCH  14  16
ENDBRANCH   8  12
TORSDOF 3
