REMARK  3 active torsions:
REMARK  status: ('A' for Active; 'I' for Inactive)
REMARK    1  A    between atoms: N1_1  and  N2_4 
REMARK    2  A    between atoms: C1_6  and  C2_8 
REMARK       I    between atoms: C2_8  and  N4_10 
REMARK    3  A    between atoms: N4_10  and  C3_12 
ROOT
HETATM    1  C2  UNL     1       0.387   0.848  -0.365  1.00  0.00     0.302 C 
HETATM    2  O1  UNL     1       0.186   2.038  -0.034  1.00  0.00    -0.264 OA
HETATM    3  N4  UNL     1      -0.687   0.117  -0.940  1.00  0.00    -0.151 N 
ATOM      4  H4  UNL     1      -0.493  -0.467  -1.753  1.00  0.00     0.188 HD
ENDROOT
BRANCH   1   5
HETATM    5  C1  UNL     1       1.699   0.279  -0.147  1.00  0.00     0.199 C 
HETATM    6  N2  UNL     1       2.614   1.012   0.379  1.00  0.00    -0.290 N 
ATOM      7  H2  UNL     1       2.425   1.979   0.641  1.00  0.00     0.187 HD
HETATM    8  N3  UNL     1       1.918  -1.071  -0.526  1.00  0.00    -0.075 NA
BRANCH   6   9
HETATM    9  N1  UNL     1       3.873   0.448   0.582  1.00  0.00    -0.344 N 
ATOM     10  H12 UNL     1       4.046  -0.521   0.315  1.00  0.00     0.176 HD
ATOM     11  H11 UNL     1       4.599   1.030   1.000  1.00  0.00     0.176 HD
ENDBRANCH   6   9
ENDBRANCH   1   5
BRANCH   3  12
HETATM   12  C3  UNL     1      -1.887   0.153  -0.490  1.00  0.00     0.710 A 
HETATM   13  N5  UNL     1      -2.367   0.844   0.555  1.00  0.00    -0.117 N 
HETATM   14  N6  UNL     1      -3.681   0.593   0.675  1.00  0.00     0.006 NA
ATOM     15  H5  UNL     1      -1.823   1.459   1.160  1.00  0.00     0.202 HD
HETATM   16  N7  UNL     1      -4.016  -0.248  -0.288  1.00  0.00     0.006 NA
HETATM   17  N8  UNL     1      -2.916  -0.517  -1.002  1.00  0.00    -0.117 N 
ATOM     18  H8  UNL     1      -2.874  -1.137  -1.811  1.00  0.00     0.202 HD
ENDBRANCH   3  12
TORSDOF 3
