REMARK  2 active torsions:
REMARK  status: ('A' for Active; 'I' for Inactive)
REMARK    1  A    between atoms: N1_1  and  N2_4 
REMARK       I    between atoms: N2_4  and  C1_6 
REMARK    2  A    between atoms: N4_8  and  N5_10 
ROOT
HETATM    1  N5  UNL     1       0.280  -0.495  -0.831  1.00  0.00    -0.279 N 
ATOM      2  H5  UNL     1      -0.196  -1.299  -1.241  1.00  0.00     0.189 HD
HETATM    3  C2  UNL     1       1.500  -0.587  -0.435  1.00  0.00     0.190 A 
HETATM    4  N6  UNL     1       2.288   0.437   0.150  1.00  0.00    -0.333 N 
ATOM      5  H6  UNL     1       1.999   1.396   0.342  1.00  0.00     0.168 HD
HETATM    6  C3  UNL     1       3.558  -0.138   0.416  1.00  0.00     0.185 A 
HETATM    7  N7  UNL     1       3.596  -1.374   0.054  1.00  0.00    -0.316 N 
ATOM      8  H7  UNL     1       4.407  -1.984   0.151  1.00  0.00     0.170 HD
HETATM    9  C4  UNL     1       2.350  -1.766  -0.499  1.00  0.00     0.291 A 
HETATM   10  O1  UNL     1       2.027  -2.887  -0.952  1.00  0.00    -0.264 OA
ENDROOT
BRANCH   1  11
HETATM   11  N4  UNL     1      -0.376   0.719  -0.689  1.00  0.00    -0.271 N 
HETATM   12  C1  UNL     1      -1.625   0.817  -0.413  1.00  0.00     0.221 C 
HETATM   13  N2  UNL     1      -2.380  -0.362  -0.242  1.00  0.00    -0.279 N 
HETATM   14  N3  UNL     1      -2.200   2.092  -0.289  1.00  0.00    -0.061 NA
ATOM     15  H2  UNL     1      -2.857  -0.777  -1.042  1.00  0.00     0.189 HD
ATOM     16  H4  UNL     1       0.162   1.577  -0.810  1.00  0.00     0.189 HD
BRANCH  13  17
HETATM   17  N1  UNL     1      -2.480  -0.963   1.005  1.00  0.00    -0.343 N 
ATOM     18  H12 UNL     1      -1.997  -0.535   1.795  1.00  0.00     0.176 HD
ATOM     19  H11 UNL     1      -3.026  -1.816   1.129  1.00  0.00     0.176 HD
ENDBRANCH  13  17
ENDBRANCH   1  11
TORSDOF 2
