REMARK  2 active torsions:
REMARK  status: ('A' for Active; 'I' for Inactive)
REMARK    1  A    between atoms: N1_1  and  C1_4 
REMARK    2  A    between atoms: C3_11  and  N4_12 
REMARK       I    between atoms: N4_12  and  C4_14 
ROOT
HETATM    1  C1  UNL     1      -2.033   0.924   0.055  1.00  0.00     0.694 A 
HETATM    2  N2  UNL     1      -2.427  -0.344  -0.146  1.00  0.00    -0.141 N 
ATOM      3  H2  UNL     1      -3.418  -0.554  -0.270  1.00  0.00     0.189 HD
HETATM    4  C2  UNL     1      -1.524  -1.338  -0.185  1.00  0.00     0.352 A 
HETATM    5  O1  UNL     1      -1.862  -2.528  -0.371  1.00  0.00    -0.246 OA
HETATM    6  N3  UNL     1      -0.211  -1.045  -0.018  1.00  0.00    -0.140 N 
ATOM      7  H3  UNL     1       0.484  -1.791  -0.045  1.00  0.00     0.189 HD
HETATM    8  C3  UNL     1       0.173   0.214   0.181  1.00  0.00     0.704 A 
HETATM    9  N6  UNL     1      -0.732   1.228   0.222  1.00  0.00    -0.022 N 
ATOM     10  H6  UNL     1      -0.434   2.191   0.375  1.00  0.00     0.203 HD
ENDROOT
BRANCH   8  11
HETATM   11  N4  UNL     1       1.406   0.524   0.343  1.00  0.00    -0.143 N 
HETATM   12  C4  UNL     1       2.478  -0.377   0.333  1.00  0.00     0.346 C 
HETATM   13  N5  UNL     1       3.487  -0.210  -0.683  1.00  0.00    -0.039 NA
HETATM   14  O2  UNL     1       2.635  -1.324   1.138  1.00  0.00    -0.250 OA
ATOM     15  H4  UNL     1       1.625   1.509   0.492  1.00  0.00     0.188 HD
ENDBRANCH   8  11
BRANCH   1  16
HETATM   16  N1  UNL     1      -2.932   1.843   0.085  1.00  0.00    -0.234 N 
ATOM     17  H12 UNL     1      -3.918   1.613  -0.042  1.00  0.00     0.174 HD
ATOM     18  H11 UNL     1      -2.633   2.806   0.238  1.00  0.00     0.174 HD
ENDBRANCH   1  16
TORSDOF 2
