REMARK  6 active torsions:
REMARK  status: ('A' for Active; 'I' for Inactive)
REMARK    1  A    between atoms: N1_1  and  N2_4 
REMARK       I    between atoms: N2_4  and  C1_6 
REMARK    2  A    between atoms: C1_6  and  C2_8 
REMARK    3  A    between atoms: C2_8  and  N3_9 
REMARK       I    between atoms: N3_9  and  C3_11 
REMARK    4  A    between atoms: C3_11  and  C4_13 
REMARK    5  A    between atoms: C5_16  and  C6_17 
REMARK       I    between atoms: C6_17  and  N5_19 
REMARK    6  A    between atoms: N5_19  and  N6_21 
REMARK       I    between atoms: N6_21  and  C7_23 
ROOT
HETATM    1  C4  UNL     1       0.796  -0.739   1.848  1.00  0.00     0.172 A 
HETATM    2  N4  UNL     1      -0.033  -0.507   0.830  1.00  0.00    -0.328 N 
ATOM      3  H4  UNL     1       0.341  -0.427  -0.115  1.00  0.00     0.168 HD
HETATM    4  C5  UNL     1      -1.374  -0.375   1.035  1.00  0.00     0.191 A 
HETATM    5  N8  UNL     1      -1.817  -0.488   2.294  1.00  0.00    -0.278 N 
ATOM      6  H8  UNL     1      -2.819  -0.390   2.459  1.00  0.00     0.189 HD
HETATM    7  N9  UNL     1      -1.040  -0.718   3.332  1.00  0.00    -0.263 N 
ATOM      8  H9  UNL     1      -1.430  -0.796   4.271  1.00  0.00     0.190 HD
HETATM    9  C8  UNL     1       0.290  -0.848   3.119  1.00  0.00     0.292 A 
HETATM   10  O5  UNL     1       1.000  -1.071   4.141  1.00  0.00    -0.264 OA
ENDROOT
BRANCH   1  11
HETATM   11  C3  UNL     1       2.219  -0.829   1.624  1.00  0.00     0.274 C 
HETATM   12  N3  UNL     1       2.831  -0.432   0.394  1.00  0.00    -0.347 N 
ATOM     13  H3  UNL     1       2.268  -0.062  -0.372  1.00  0.00     0.163 HD
HETATM   14  O2  UNL     1       2.944  -1.278   2.562  1.00  0.00    -0.266 OA
BRANCH  12  15
HETATM   15  C2  UNL     1       4.251  -0.564   0.260  1.00  0.00     0.227 C 
BRANCH  15  16
HETATM   16  C1  UNL     1       4.825  -0.070  -0.996  1.00  0.00     0.253 C 
HETATM   17  N2  UNL     1       4.164   0.524  -2.060  1.00  0.00    -0.275 N 
ATOM     18  H2  UNL     1       3.153   0.655  -2.025  1.00  0.00     0.189 HD
HETATM   19  O1  UNL     1       6.108  -0.221  -1.087  1.00  0.00    -0.270 OA
BRANCH  17  20
HETATM   20  N1  UNL     1       4.896   0.950  -3.198  1.00  0.00    -0.343 N 
ATOM     21  H12 UNL     1       5.906   0.812  -3.218  1.00  0.00     0.176 HD
ATOM     22  H11 UNL     1       4.410   1.387  -3.981  1.00  0.00     0.176 HD
ENDBRANCH  17  20
ENDBRANCH  15  16
ENDBRANCH  12  15
ENDBRANCH   1  11
BRANCH   4  23
HETATM   23  C6  UNL     1      -2.289  -0.145  -0.096  1.00  0.00     0.305 C 
HETATM   24  O3  UNL     1      -1.778  -0.172  -1.265  1.00  0.00    -0.263 OA
HETATM   25  N5  UNL     1      -3.667   0.095   0.064  1.00  0.00    -0.260 N 
ATOM     26  H5  UNL     1      -4.056   0.113   1.007  1.00  0.00     0.190 HD
BRANCH  25  27
HETATM   27  N6  UNL     1      -4.527   0.310  -1.026  1.00  0.00    -0.251 N 
HETATM   28  C7  UNL     1      -5.829   0.835  -0.841  1.00  0.00     0.347 C 
HETATM   29  N7  UNL     1      -6.676   1.029  -1.957  1.00  0.00    -0.038 NA
HETATM   30  O4  UNL     1      -6.283   1.144   0.289  1.00  0.00    -0.249 OA
ATOM     31  H6  UNL     1      -4.208   0.084  -1.968  1.00  0.00     0.191 HD
ENDBRANCH  25  27
ENDBRANCH   4  23
TORSDOF 6
