REMARK  8 active torsions:
REMARK  status: ('A' for Active; 'I' for Inactive)
REMARK    1  A    between atoms: C3_3  and  N1_4 
REMARK    2  A    between atoms: C6_11  and  N3_12 
REMARK       I    between atoms: N3_12  and  C7_14 
REMARK       I    between atoms: C7_14  and  N8_31 
REMARK    3  A    between atoms: N4_15  and  N5_17 
REMARK       I    between atoms: N5_17  and  C8_19 
REMARK    4  A    between atoms: C8_19  and  C9_21 
REMARK    5  A    between atoms: C9_21  and  N6_22 
REMARK    6  A    between atoms: C9_21  and  C10_26 
REMARK    7  A    between atoms: C10_26  and  N7_27 
REMARK    8  A    between atoms: N8_31  and  N9_33 
ROOT
HETATM    1  C1  UNL     1       5.295  -0.866  -0.042  1.00  0.00     0.014 C 
HETATM    2  C2  UNL     1       4.541  -0.338   0.744  1.00  0.00    -0.097 C 
HETATM    3  C3  UNL     1       3.646   0.303   1.715  1.00  0.00     0.244 C 
ENDROOT
BRANCH   3   4
HETATM    4  N1  UNL     1       2.934   1.409   1.090  1.00  0.00    -0.131 N 
HETATM    5  C4  UNL     1       3.378   2.765   1.041  1.00  0.00     0.331 A 
HETATM    6  O1  UNL     1       4.460   3.227   1.531  1.00  0.00    -0.261 OA
HETATM    7  C5  UNL     1       2.339   3.489   0.320  1.00  0.00     0.328 A 
HETATM    8  O2  UNL     1       2.337   4.709   0.057  1.00  0.00    -0.261 OA
HETATM    9  N2  UNL     1       1.346   2.519  -0.012  1.00  0.00    -0.150 N 
HETATM   10  C6  UNL     1       1.694   1.353   0.428  1.00  0.00     0.706 A 
ATOM     11  H2  UNL     1       0.486   2.717  -0.523  1.00  0.00     0.188 HD
BRANCH  10  12
HETATM   12  N3  UNL     1       0.933   0.155   0.271  1.00  0.00    -0.019 N 
HETATM   13  C7  UNL     1       0.657  -0.278  -1.042  1.00  0.00     0.725 C 
HETATM   14  N4  UNL     1      -0.537  -0.613  -1.367  1.00  0.00    -0.128 N 
HETATM   15  N8  UNL     1       1.685  -0.354  -2.030  1.00  0.00    -0.137 N 
ATOM     16  H4  UNL     1      -0.755  -0.929  -2.312  1.00  0.00     0.205 HD
ATOM     17  H8  UNL     1       2.375   0.394  -2.101  1.00  0.00     0.205 HD
ATOM     18  H3  UNL     1       0.601  -0.369   1.080  1.00  0.00     0.203 HD
BRANCH  14  19
HETATM   19  N5  UNL     1      -1.530  -0.533  -0.389  1.00  0.00    -0.254 N 
HETATM   20  C8  UNL     1      -2.623  -1.421  -0.463  1.00  0.00     0.268 C 
HETATM   21  O3  UNL     1      -2.676  -2.259  -1.394  1.00  0.00    -0.269 OA
ATOM     22  H5  UNL     1      -1.466   0.153   0.363  1.00  0.00     0.190 HD
BRANCH  20  23
HETATM   23  C9  UNL     1      -3.688  -1.359   0.553  1.00  0.00     0.301 C 
BRANCH  23  24
HETATM   24  N6  UNL     1      -4.528  -2.539   0.360  1.00  0.00    -0.065 N 
ATOM     25  H63 UNL     1      -4.885  -2.626  -0.591  1.00  0.00     0.275 HD
ATOM     26  H62 UNL     1      -4.003  -3.413   0.382  1.00  0.00     0.275 HD
ATOM     27  H61 UNL     1      -5.265  -2.496   1.063  1.00  0.00     0.275 HD
ENDBRANCH  23  24
BRANCH  23  28
HETATM   28  C10 UNL     1      -4.540  -0.104   0.468  1.00  0.00     0.272 C 
BRANCH  28  29
HETATM   29  N7  UNL     1      -3.783   1.082   0.643  1.00  0.00    -0.077 N 
ATOM     30  H73 UNL     1      -3.256   1.055   1.516  1.00  0.00     0.274 HD
ATOM     31  H72 UNL     1      -3.006   1.121  -0.017  1.00  0.00     0.274 HD
ATOM     32  H71 UNL     1      -4.355   1.925   0.586  1.00  0.00     0.274 HD
ENDBRANCH  28  29
ENDBRANCH  23  28
ENDBRANCH  20  23
ENDBRANCH  14  19
BRANCH  15  33
HETATM   33  N9  UNL     1       1.753  -1.452  -2.907  1.00  0.00    -0.331 N 
ATOM     34  H92 UNL     1       1.055  -2.191  -2.823  1.00  0.00     0.177 HD
ATOM     35  H91 UNL     1       2.487  -1.506  -3.613  1.00  0.00     0.177 HD
ENDBRANCH  15  33
ENDBRANCH  10  12
ENDBRANCH   3   4
TORSDOF 8
