REMARK  8 active torsions:
REMARK  status: ('A' for Active; 'I' for Inactive)
REMARK    1  A    between atoms: N1_1  and  C1_4 
REMARK    2  A    between atoms: C2_7  and  N3_8 
REMARK    3  A    between atoms: N5_14  and  C4_16 
REMARK    4  A    between atoms: C4_16  and  N6_17 
REMARK    5  A    between atoms: C4_16  and  C5_21 
REMARK    6  A    between atoms: C6_24  and  N7_25 
REMARK       I    between atoms: N7_25  and  C7_27 
REMARK    7  A    between atoms: C7_27  and  C8_29 
REMARK    8  A    between atoms: C8_29  and  N8_30 
ROOT
HETATM    1  C1  UNL     1      -0.934   2.783  -0.128  1.00  0.00     0.692 C 
HETATM    2  N2  UNL     1       0.312   3.218   0.148  1.00  0.00    -0.023 N 
ATOM      3  H2  UNL     1       0.472   4.223   0.080  1.00  0.00     0.203 HD
HETATM    4  C2  UNL     1       1.370   2.458   0.506  1.00  0.00     0.692 C 
HETATM    5  N4  UNL     1       1.562   1.117   0.446  1.00  0.00    -0.173 N 
ATOM      6  H4  UNL     1       2.464   0.779   0.780  1.00  0.00     0.186 HD
HETATM    7  C3  UNL     1       0.705   0.175  -0.002  1.00  0.00     0.164 C 
HETATM    8  N5  UNL     1       1.157  -0.985  -0.309  1.00  0.00    -0.337 N 
ATOM      9  H5  UNL     1       0.483  -1.674  -0.643  1.00  0.00     0.163 HD
HETATM   10  C6  UNL     1      -0.653   0.364  -0.159  1.00  0.00     0.168 C 
HETATM   11  N9  UNL     1      -1.393   1.507  -0.066  1.00  0.00    -0.172 N 
ATOM     12  H9  UNL     1      -2.398   1.390   0.064  1.00  0.00     0.186 HD
ENDROOT
BRANCH   8  13
HETATM   13  C4  UNL     1       2.519  -1.396  -0.224  1.00  0.00     0.385 C 
BRANCH  13  14
HETATM   14  N6  UNL     1       2.935  -1.769   1.116  1.00  0.00    -0.048 N 
ATOM     15  H63 UNL     1       2.746  -1.013   1.775  1.00  0.00     0.277 HD
ATOM     16  H62 UNL     1       2.318  -2.487   1.497  1.00  0.00     0.277 HD
ATOM     17  H61 UNL     1       3.910  -2.063   1.177  1.00  0.00     0.277 HD
ENDBRANCH  13  14
BRANCH  13  18
HETATM   18  C5  UNL     1       2.725  -2.543  -1.163  1.00  0.00     0.225 C 
HETATM   19  O1  UNL     1       1.824  -3.017  -1.875  1.00  0.00    -0.645 OA
HETATM   20  O2  UNL     1       3.992  -3.089  -1.227  1.00  0.00    -0.645 OA
ENDBRANCH  13  18
ENDBRANCH   8  13
BRANCH  10  21
HETATM   21  N7  UNL     1      -1.276  -0.730  -0.435  1.00  0.00    -0.308 N 
HETATM   22  C7  UNL     1      -2.694  -0.783  -0.643  1.00  0.00     0.247 C 
HETATM   23  O3  UNL     1      -3.215  -0.242  -1.638  1.00  0.00    -0.271 OA
ATOM     24  H7  UNL     1      -0.738  -1.594  -0.509  1.00  0.00     0.170 HD
BRANCH  22  25
HETATM   25  C8  UNL     1      -3.479  -1.510   0.385  1.00  0.00     0.304 C 
BRANCH  25  26
HETATM   26  N8  UNL     1      -4.889  -1.512   0.096  1.00  0.00    -0.147 N 
HETATM   27  O4  UNL     1      -5.367  -0.955  -0.916  1.00  0.00    -0.536 OA
HETATM   28  O5  UNL     1      -5.716  -2.157   0.982  1.00  0.00    -0.536 OA
ENDBRANCH  25  26
ENDBRANCH  22  25
ENDBRANCH  10  21
BRANCH   4  29
HETATM   29  N3  UNL     1       2.346   3.155   0.980  1.00  0.00    -0.234 N 
ATOM     30  H32 UNL     1       2.202   4.164   1.025  1.00  0.00     0.174 HD
ATOM     31  H31 UNL     1       3.145   2.581   1.250  1.00  0.00     0.174 HD
ENDBRANCH   4  29
BRANCH   1  32
HETATM   32  N1  UNL     1      -1.826   3.628  -0.495  1.00  0.00    -0.234 N 
ATOM     33  H12 UNL     1      -1.481   4.587  -0.542  1.00  0.00     0.174 HD
ATOM     34  H11 UNL     1      -2.769   3.299  -0.704  1.00  0.00     0.174 HD
ENDBRANCH   1  32
TORSDOF 8
