REMARK  6 active torsions:
REMARK  status: ('A' for Active; 'I' for Inactive)
REMARK    1  A    between atoms: N1_1  and  O1_4 
REMARK    2  A    between atoms: O1_4  and  C1_5 
REMARK    3  A    between atoms: C1_5  and  C2_7 
REMARK    4  A    between atoms: C3_8  and  S1_9 
REMARK    5  A    between atoms: S1_9  and  N2_12 
REMARK    6  A    between atoms: N2_12  and  N3_14 
ROOT
HETATM    1  C2  UNL     1       2.165  -0.350   0.046  1.00  0.00     0.149 A 
HETATM    2  C3  UNL     1       0.854  -0.210  -0.336  1.00  0.00     0.176 A 
HETATM    3  N6  UNL     1       0.144  -1.258  -0.840  1.00  0.00    -0.296 N 
ATOM      4  H6  UNL     1      -0.829  -1.125  -1.116  1.00  0.00     0.171 HD
HETATM    5  C5  UNL     1       0.718  -2.465  -0.976  1.00  0.00     0.328 A 
HETATM    6  O5  UNL     1       0.055  -3.448  -1.448  1.00  0.00    -0.247 OA
HETATM    7  N7  UNL     1       2.000  -2.617  -0.606  1.00  0.00    -0.275 N 
ATOM      8  H7  UNL     1       2.435  -3.534  -0.709  1.00  0.00     0.173 HD
HETATM    9  C6  UNL     1       2.741  -1.593  -0.099  1.00  0.00     0.268 A 
HETATM   10  O6  UNL     1       3.927  -1.730   0.245  1.00  0.00    -0.267 OA
ENDROOT
BRANCH   2  11
HETATM   11  S1  UNL     1       0.076   1.331  -0.177  1.00  0.00     0.293 S 
HETATM   12  O3  UNL     1       0.029   1.665   1.298  1.00  0.00    -0.197 OA
HETATM   13  O4  UNL     1       0.783   2.417  -0.948  1.00  0.00    -0.197 OA
BRANCH  11  14
HETATM   14  N2  UNL     1      -1.576   1.232  -0.726  1.00  0.00    -0.220 N 
ATOM     15  H2  UNL     1      -1.798   1.418  -1.704  1.00  0.00     0.200 HD
BRANCH  14  16
HETATM   16  N3  UNL     1      -2.579   0.905   0.154  1.00  0.00    -0.266 N 
HETATM   17  C4  UNL     1      -3.588   0.145  -0.109  1.00  0.00     0.216 C 
HETATM   18  N4  UNL     1      -3.798  -0.463  -1.368  1.00  0.00    -0.065 NA
HETATM   19  N5  UNL     1      -4.513  -0.052   0.981  1.00  0.00    -0.065 NA
ATOM     20  H3  UNL     1      -2.521   1.296   1.094  1.00  0.00     0.190 HD
ENDBRANCH  14  16
ENDBRANCH  11  14
ENDBRANCH   2  11
BRANCH   1  21
HETATM   21  C1  UNL     1       2.843   0.820   0.572  1.00  0.00     0.323 C 
HETATM   22  O2  UNL     1       3.453   1.568  -0.259  1.00  0.00    -0.257 OA
BRANCH  21  23
HETATM   23  O1  UNL     1       2.877   1.178   1.890  1.00  0.00    -0.202 OA
BRANCH  23  24
HETATM   24  N1  UNL     1       3.551   2.309   2.277  1.00  0.00    -0.302 N 
ATOM     25  H12 UNL     1       4.021   2.871   1.568  1.00  0.00     0.184 HD
ATOM     26  H11 UNL     1       3.576   2.576   3.261  1.00  0.00     0.184 HD
ENDBRANCH  23  24
ENDBRANCH  21  23
ENDBRANCH   1  21
TORSDOF 6
