REMARK  9 active torsions:
REMARK  status: ('A' for Active; 'I' for Inactive)
REMARK    1  A    between atoms: C2_5  and  N2_6 
REMARK    2  A    between atoms: N2_6  and  C3_8 
REMARK    3  A    between atoms: C3_8  and  C4_9 
REMARK    4  A    between atoms: C4_9  and  O2_10 
REMARK    5  A    between atoms: C5_14  and  N4_15 
REMARK    6  A    between atoms: N4_15  and  C6_17 
REMARK    7  A    between atoms: C6_17  and  C7_18 
REMARK    8  A    between atoms: C7_18  and  N5_19 
REMARK    9  A    between atoms: C9_21  and  O3_22 
ROOT
HETATM    1  O1  UNL     1      -1.883   0.304  -3.166  1.00  0.00    -0.246 OA
HETATM    2  C1  UNL     1      -1.849   0.307  -1.906  1.00  0.00     0.352 A 
HETATM    3  N1  UNL     1      -3.019   0.395  -1.252  1.00  0.00    -0.140 N 
ATOM      4  H1  UNL     1      -3.899   0.457  -1.764  1.00  0.00     0.189 HD
HETATM    5  C2  UNL     1      -3.004   0.400   0.094  1.00  0.00     0.696 A 
HETATM    6  N3  UNL     1      -1.839   0.318   0.763  1.00  0.00    -0.022 N 
ATOM      7  H3  UNL     1      -1.852   0.324   1.783  1.00  0.00     0.203 HD
HETATM    8  C5  UNL     1      -0.658   0.229   0.126  1.00  0.00     0.696 A 
HETATM    9  N7  UNL     1      -0.674   0.224  -1.219  1.00  0.00    -0.140 N 
ATOM     10  H7  UNL     1       0.205   0.157  -1.732  1.00  0.00     0.189 HD
ENDROOT
BRANCH   8  11
HETATM   11  N4  UNL     1       0.450   0.151   0.815  1.00  0.00    -0.224 N 
ATOM     12  H4  UNL     1       0.402   0.159   1.834  1.00  0.00     0.177 HD
BRANCH  11  13
HETATM   13  C6  UNL     1       1.734   0.055   0.178  1.00  0.00     0.158 C 
BRANCH  13  14
HETATM   14  C7  UNL     1       2.781   0.346   1.259  1.00  0.00     0.153 C 
BRANCH  14  15
HETATM   15  N5  UNL     1       4.116   0.282   0.750  1.00  0.00    -0.304 N 
HETATM   16  C8  UNL     1       4.878  -0.829   0.725  1.00  0.00     0.151 A 
HETATM   17  C9  UNL     1       6.111  -0.539   0.168  1.00  0.00     0.160 A 
HETATM   18  N6  UNL     1       6.065   0.764  -0.136  1.00  0.00    -0.288 N 
HETATM   19  C10 UNL     1       4.868   1.248   0.215  1.00  0.00     0.328 A 
ATOM     20  H6  UNL     1       6.819   1.300  -0.565  1.00  0.00     0.172 HD
HETATM   21  O4  UNL     1       4.484   2.447   0.071  1.00  0.00    -0.246 OA
BRANCH  17  22
HETATM   22  O3  UNL     1       7.160  -1.421  -0.027  1.00  0.00    -0.345 OA
ATOM     23  H3  UNL     1       8.007  -1.222  -0.409  1.00  0.00     0.219 HD
ENDBRANCH  17  22
ENDBRANCH  14  15
ENDBRANCH  13  14
ENDBRANCH  11  13
ENDBRANCH   8  11
BRANCH   5  24
HETATM   24  N2  UNL     1      -4.079   0.481   0.784  1.00  0.00    -0.223 N 
ATOM     25  H2  UNL     1      -3.983   0.478   1.799  1.00  0.00     0.177 HD
BRANCH  24  26
HETATM   26  C3  UNL     1      -5.404   0.576   0.253  1.00  0.00     0.164 C 
BRANCH  26  27
HETATM   27  C4  UNL     1      -5.973  -0.790  -0.092  1.00  0.00     0.184 C 
BRANCH  27  28
HETATM   28  O2  UNL     1      -6.037  -1.611   1.023  1.00  0.00    -0.399 OA
ATOM     29  H2  UNL     1      -6.393  -2.465   0.807  1.00  0.00     0.209 HD
ENDBRANCH  27  28
ENDBRANCH  26  27
ENDBRANCH  24  26
ENDBRANCH   5  24
TORSDOF 9
