REMARK  9 active torsions:
REMARK  status: ('A' for Active; 'I' for Inactive)
REMARK    1  A    between atoms: C1_2  and  N2_4 
REMARK    2  A    between atoms: N3_6  and  C2_8 
REMARK    3  A    between atoms: C3_11  and  O1_12 
REMARK    4  A    between atoms: C4_14  and  C5_15 
REMARK    5  A    between atoms: C5_15  and  N5_16 
REMARK    6  A    between atoms: N5_16  and  N6_17 
REMARK       I    between atoms: N6_17  and  C6_18 
REMARK    7  A    between atoms: C6_18  and  C7_20 
REMARK    8  A    between atoms: C7_20  and  S2_21 
REMARK    9  A    between atoms: S2_21  and  C8_22 
ROOT
HETATM    1  N6  UNL     1       0.894  -0.807   0.433  1.00  0.00    -0.209 NA
HETATM    2  C6  UNL     1       1.973  -0.046   0.752  1.00  0.00     0.337 C 
HETATM    3  O2  UNL     1       2.765  -0.092   1.587  1.00  0.00    -0.253 OA
ENDROOT
BRANCH   2   4
HETATM    4  C7  UNL     1       1.999   1.144  -0.320  1.00  0.00     0.205 C 
BRANCH   4   5
HETATM    5  S2  UNL     1       3.154   2.400   0.312  1.00  0.00    -0.082 SA
BRANCH   5   6
HETATM    6  C8  UNL     1       4.837   1.745   0.273  1.00  0.00     0.161 A 
HETATM    7  N7  UNL     1       5.662   2.169  -0.674  1.00  0.00    -0.278 N 
HETATM    8  N8  UNL     1       6.808   1.622  -0.938  1.00  0.00    -0.279 N 
ATOM      9  H7  UNL     1       5.378   2.976  -1.230  1.00  0.00     0.189 HD
HETATM   10  C9  UNL     1       7.153   0.568  -0.171  1.00  0.00     0.182 A 
ATOM     11  H8  UNL     1       7.413   1.969  -1.682  1.00  0.00     0.189 HD
HETATM   12  N9  UNL     1       8.239  -0.331  -0.260  1.00  0.00    -0.267 N 
HETATM   13  C10 UNL     1       6.356   0.089   0.805  1.00  0.00     0.171 A 
HETATM   14  N10 UNL     1       8.046  -1.249   0.685  1.00  0.00    -0.239 N 
ATOM     15  H9  UNL     1       9.017  -0.286  -0.918  1.00  0.00     0.190 HD
HETATM   16  N11 UNL     1       6.937  -1.040   1.315  1.00  0.00    -0.268 N 
ATOM     17  H10 UNL     1       8.688  -2.016   0.885  1.00  0.00     0.208 HD
ATOM     18  H11 UNL     1       6.559  -1.619   2.065  1.00  0.00     0.190 HD
HETATM   19  N12 UNL     1       5.208   0.696   0.990  1.00  0.00    -0.318 N 
ATOM     20  H12 UNL     1       4.578   0.347   1.713  1.00  0.00     0.169 HD
ENDBRANCH   5   6
ENDBRANCH   4   5
ENDBRANCH   2   4
BRANCH   1  21
HETATM   21  N5  UNL     1      -0.059  -1.518   0.183  1.00  0.00    -0.257 NA
BRANCH  21  22
HETATM   22  C5  UNL     1      -0.849  -2.341  -0.095  1.00  0.00     0.248 C 
BRANCH  22  23
HETATM   23  C4  UNL     1      -2.231  -1.856  -0.024  1.00  0.00     0.091 A 
HETATM   24  C3  UNL     1      -2.619  -0.568  -0.012  1.00  0.00     0.162 A 
HETATM   25  N4  UNL     1      -3.895  -0.337   0.005  1.00  0.00    -0.315 N 
HETATM   26  C2  UNL     1      -4.779  -1.353   0.016  1.00  0.00     0.166 A 
ATOM     27  H4  UNL     1      -4.233   0.625   0.010  1.00  0.00     0.170 HD
HETATM   28  S3  UNL     1      -3.681  -2.728  -0.002  1.00  0.00    -0.046 SA
BRANCH  24  29
HETATM   29  O1  UNL     1      -1.627   0.507   0.007  1.00  0.00    -0.345 OA
ATOM     30  H1  UNL     1      -0.692   0.338  -0.005  1.00  0.00     0.219 HD
ENDBRANCH  24  29
BRANCH  26  31
HETATM   31  N3  UNL     1      -5.966  -1.417  -0.302  1.00  0.00    -0.278 N 
HETATM   32  N2  UNL     1      -6.847  -0.617  -0.740  1.00  0.00    -0.277 N 
ATOM     33  H2  UNL     1      -7.279  -1.050  -1.556  1.00  0.00     0.189 HD
ATOM     34  H3  UNL     1      -6.338  -2.359  -0.182  1.00  0.00     0.189 HD
BRANCH  32  35
HETATM   35  C1  UNL     1      -7.444   0.592  -0.551  1.00  0.00     0.199 C 
HETATM   36  N1  UNL     1      -7.054   1.620   0.338  1.00  0.00    -0.068 NA
HETATM   37  S1  UNL     1      -8.935   0.844  -1.304  1.00  0.00    -0.043 SA
ENDBRANCH  32  35
ENDBRANCH  26  31
ENDBRANCH  22  23
ENDBRANCH  21  22
ENDBRANCH   1  21
TORSDOF 9
