REMARK  7 active torsions:
REMARK  status: ('A' for Active; 'I' for Inactive)
REMARK    1  A    between atoms: O1_1  and  C1_3 
REMARK    2  A    between atoms: C1_3  and  C2_4 
REMARK    3  A    between atoms: C3_6  and  O3_7 
REMARK    4  A    between atoms: O3_7  and  C4_8 
REMARK    5  A    between atoms: C8_13  and  O4_14 
REMARK    6  A    between atoms: C9_16  and  O5_17 
REMARK    7  A    between atoms: C10_19  and  O6_20 
ROOT
HETATM    1  C2  UNL     1      -1.592   1.030   0.405  1.00  0.00     0.179 C 
HETATM    2  O2  UNL     1      -0.292   1.229   0.090  1.00  0.00    -0.348 OA
HETATM    3  C3  UNL     1       0.503   0.092   0.095  1.00  0.00     0.298 C 
HETATM    4  C8  UNL     1      -0.076  -0.810  -1.006  1.00  0.00     0.205 C 
HETATM    5  C9  UNL     1      -1.359  -1.353  -0.368  1.00  0.00     0.183 C 
HETATM    6  C10 UNL     1      -2.250  -0.185  -0.111  1.00  0.00     0.180 C 
ENDROOT
BRANCH   3   7
HETATM    7  O3  UNL     1       1.812   0.367  -0.246  1.00  0.00    -0.310 OA
BRANCH   7   8
HETATM    8  C4  UNL     1       2.823  -0.049   0.648  1.00  0.00     0.113 A 
HETATM    9  C5  UNL     1       4.178   0.120   0.510  1.00  0.00     0.045 A 
HETATM   10  C6  UNL     1       4.954  -0.359   1.490  1.00  0.00     0.010 A 
HETATM   11  C7  UNL     1       4.340  -0.975   2.544  1.00  0.00     0.052 A 
HETATM   12  S1  UNL     1       2.690  -0.868   2.138  1.00  0.00    -0.077 SA
ENDBRANCH   7   8
ENDBRANCH   3   7
BRANCH   4  13
HETATM   13  O4  UNL     1      -0.470   0.024  -2.034  1.00  0.00    -0.388 OA
ATOM     14  H4  UNL     1      -0.828  -0.534  -2.715  1.00  0.00     0.210 HD
ENDBRANCH   4  13
BRANCH   1  15
HETATM   15  C1  UNL     1      -2.389   2.238  -0.112  1.00  0.00     0.198 C 
BRANCH  15  16
HETATM   16  O1  UNL     1      -3.736   2.118   0.169  1.00  0.00    -0.398 OA
ATOM     17  H1  UNL     1      -4.229   2.865  -0.151  1.00  0.00     0.209 HD
ENDBRANCH  15  16
ENDBRANCH   1  15
BRANCH   5  18
HETATM   18  O5  UNL     1      -1.985  -2.258  -1.225  1.00  0.00    -0.390 OA
ATOM     19  H5  UNL     1      -2.780  -2.595  -0.829  1.00  0.00     0.210 HD
ENDBRANCH   5  18
BRANCH   6  20
HETATM   20  O6  UNL     1      -3.288  -0.631   0.736  1.00  0.00    -0.390 OA
ATOM     21  H6  UNL     1      -3.712  -1.414   0.404  1.00  0.00     0.210 HD
ENDBRANCH   6  20
TORSDOF 7
