REMARK  7 active torsions:
REMARK  status: ('A' for Active; 'I' for Inactive)
REMARK    1  A    between atoms: O1_1  and  C1_3 
REMARK    2  A    between atoms: C1_3  and  C2_4 
REMARK    3  A    between atoms: C3_6  and  O3_7 
REMARK    4  A    between atoms: O3_7  and  C4_8 
REMARK    5  A    between atoms: C8_13  and  O4_14 
REMARK    6  A    between atoms: C9_16  and  O5_17 
REMARK    7  A    between atoms: C10_19  and  O6_20 
ROOT
HETATM    1  C2  UNL     1      -1.564  -0.387  -1.326  1.00  0.00     0.179 C 
HETATM    2  O2  UNL     1      -0.236  -0.601  -1.248  1.00  0.00    -0.348 OA
HETATM    3  C3  UNL     1       0.400  -0.411  -0.062  1.00  0.00     0.298 C 
HETATM    4  C8  UNL     1      -0.346  -0.911   1.147  1.00  0.00     0.205 C 
HETATM    5  C9  UNL     1      -1.744  -0.394   1.182  1.00  0.00     0.183 C 
HETATM    6  C10 UNL     1      -2.396  -0.707  -0.138  1.00  0.00     0.180 C 
ENDROOT
BRANCH   3   7
HETATM    7  O3  UNL     1       1.611  -1.103  -0.102  1.00  0.00    -0.317 OA
BRANCH   7   8
HETATM    8  C4  UNL     1       2.898  -0.515   0.037  1.00  0.00     0.079 A 
HETATM    9  C5  UNL     1       3.140   0.798   0.229  1.00  0.00     0.044 A 
HETATM   10  C6  UNL     1       4.447   1.196   0.343  1.00  0.00     0.052 A 
HETATM   11  S1  UNL     1       5.305  -0.260   0.182  1.00  0.00    -0.111 SA
HETATM   12  C7  UNL     1       4.008  -1.335  -0.025  1.00  0.00     0.086 A 
ENDBRANCH   7   8
ENDBRANCH   3   7
BRANCH   4  13
HETATM   13  O4  UNL     1       0.332  -0.447   2.275  1.00  0.00    -0.388 OA
ATOM     14  H4  UNL     1      -0.139  -0.762   3.038  1.00  0.00     0.210 HD
ENDBRANCH   4  13
BRANCH   1  15
HETATM   15  C1  UNL     1      -1.796   1.080  -1.675  1.00  0.00     0.198 C 
BRANCH  15  16
HETATM   16  O1  UNL     1      -1.169   1.306  -2.914  1.00  0.00    -0.398 OA
ATOM     17  H1  UNL     1      -1.313   2.219  -3.131  1.00  0.00     0.209 HD
ENDBRANCH  15  16
ENDBRANCH   1  15
BRANCH   5  18
HETATM   18  O5  UNL     1      -2.441  -1.143   2.156  1.00  0.00    -0.390 OA
ATOM     19  H5  UNL     1      -3.332  -0.814   2.178  1.00  0.00     0.210 HD
ENDBRANCH   5  18
BRANCH   6  20
HETATM   20  O6  UNL     1      -3.609  -0.017  -0.167  1.00  0.00    -0.390 OA
ATOM     21  H6  UNL     1      -4.141  -0.222   0.593  1.00  0.00     0.210 HD
ENDBRANCH   6  20
TORSDOF 7
