REMARK  3 active torsions:
REMARK  status: ('A' for Active; 'I' for Inactive)
REMARK    1  A    between atoms: N1_3  and  C3_5 
REMARK    2  A    between atoms: C6_12  and  C7_13 
REMARK    3  A    between atoms: C8_14  and  O1_15 
ROOT
HETATM    1  C3  UNL     1       3.284  -0.835   1.209  1.00  0.00     0.124 A 
HETATM    2  N2  UNL     1       2.589  -1.900   1.753  1.00  0.00    -0.349 N 
ATOM      3  H2  UNL     1       3.087  -2.621   2.275  1.00  0.00     0.167 HD
HETATM    4  C4  UNL     1       1.285  -1.984   1.597  1.00  0.00     0.121 A 
HETATM    5  C5  UNL     1       0.512  -1.064   0.910  1.00  0.00     0.077 A 
HETATM    6  N3  UNL     1      -0.773  -0.923   0.619  1.00  0.00    -0.339 N 
ATOM      7  H3  UNL     1      -1.500  -1.578   0.906  1.00  0.00     0.167 HD
HETATM    8  C6  UNL     1      -1.005   0.209  -0.113  1.00  0.00     0.120 A 
HETATM    9  N4  UNL     1       0.194   0.755  -0.256  1.00  0.00    -0.339 N 
ATOM     10  H4  UNL     1       0.375   1.624  -0.759  1.00  0.00     0.167 HD
HETATM   11  C15 UNL     1       1.156   0.003   0.357  1.00  0.00     0.083 A 
HETATM   12  C16 UNL     1       2.531   0.096   0.519  1.00  0.00     0.084 A 
HETATM   13 BR1  UNL     1       3.325   1.647  -0.307  1.00  0.00    -0.044 Br
ENDROOT
BRANCH   8  14
HETATM   14  C7  UNL     1      -2.336   0.562  -0.584  1.00  0.00     0.050 A 
HETATM   15  C8  UNL     1      -3.434  -0.160  -0.066  1.00  0.00     0.082 A 
HETATM   16  C10 UNL     1      -4.699   0.117  -0.480  1.00  0.00     0.041 A 
HETATM   17  C11 UNL     1      -4.943   1.094  -1.403  1.00  0.00     0.045 A 
HETATM   18  C12 UNL     1      -3.911   1.821  -1.935  1.00  0.00     0.123 A 
HETATM   19  F1  UNL     1      -4.155   2.788  -2.847  1.00  0.00    -0.206 F 
HETATM   20  C13 UNL     1      -2.612   1.528  -1.502  1.00  0.00    -0.007 A 
HETATM   21  C14 UNL     1      -1.523   2.334  -2.143  1.00  0.00     0.052 C 
BRANCH  15  22
HETATM   22  O1  UNL     1      -3.173  -1.167   0.887  1.00  0.00    -0.355 OA
HETATM   23  C9  UNL     1      -4.300  -1.863   1.377  1.00  0.00     0.210 C 
ENDBRANCH  15  22
ENDBRANCH   8  14
BRANCH   1  24
HETATM   24  N1  UNL     1       4.502  -0.797   1.380  1.00  0.00    -0.355 N 
HETATM   25  C2  UNL     1       5.566  -0.002   1.061  1.00  0.00     0.058 C 
HETATM   26  C1  UNL     1       6.116  -0.360  -0.320  1.00  0.00     0.054 C 
ATOM     27  H1  UNL     1       4.810  -1.603   1.924  1.00  0.00     0.166 HD
ENDBRANCH   1  24
TORSDOF 3
