REMARK  5 active torsions:
REMARK  status: ('A' for Active; 'I' for Inactive)
REMARK    1  A    between atoms: O1_1  and  N1_3 
REMARK    2  A    between atoms: C3_8  and  O3_9 
REMARK    3  A    between atoms: O3_9  and  C4_10 
REMARK    4  A    between atoms: C10_16  and  O4_17 
REMARK    5  A    between atoms: C11_19  and  O5_20 
ROOT
HETATM    1  N1  UNL     1       3.907   1.120  -0.522  1.00  0.00    -0.273 N 
ATOM      2  H1  UNL     1       4.439   0.802  -1.332  1.00  0.00     0.193 HD
HETATM    3  C1  UNL     1       2.761   0.563  -0.230  1.00  0.00     0.064 C 
HETATM    4  C2  UNL     1       1.995   1.018   0.932  1.00  0.00     0.228 C 
HETATM    5  O2  UNL     1       1.280  -0.049   1.445  1.00  0.00    -0.352 OA
HETATM    6  C3  UNL     1       0.421  -0.622   0.517  1.00  0.00     0.298 C 
HETATM    7  C10 UNL     1       1.148  -1.290  -0.617  1.00  0.00     0.208 C 
HETATM    8  C11 UNL     1       2.315  -0.521  -1.131  1.00  0.00     0.201 C 
ENDROOT
BRANCH   6   9
HETATM    9  O3  UNL     1      -0.519   0.280   0.012  1.00  0.00    -0.318 OA
BRANCH   9  10
HETATM   10  C4  UNL     1      -1.867   0.235   0.131  1.00  0.00     0.072 A 
HETATM   11  C5  UNL     1      -2.607   1.267  -0.469  1.00  0.00     0.037 A 
HETATM   12  C6  UNL     1      -3.981   1.285  -0.389  1.00  0.00     0.003 A 
HETATM   13  C7  UNL     1      -4.681   0.301   0.277  1.00  0.00     0.000 A 
HETATM   14  C8  UNL     1      -3.985  -0.718   0.872  1.00  0.00     0.003 A 
HETATM   15  C9  UNL     1      -2.595  -0.713   0.776  1.00  0.00     0.037 A 
ENDBRANCH   9  10
ENDBRANCH   6   9
BRANCH   7  16
HETATM   16  O4  UNL     1       1.575  -2.559  -0.213  1.00  0.00    -0.388 OA
ATOM     17  H4  UNL     1       2.034  -2.981  -0.929  1.00  0.00     0.210 HD
ENDBRANCH   7  16
BRANCH   8  18
HETATM   18  O5  UNL     1       3.405  -1.365  -1.341  1.00  0.00    -0.387 OA
ATOM     19  H5  UNL     1       3.118  -2.062  -1.920  1.00  0.00     0.210 HD
ENDBRANCH   8  18
BRANCH   1  20
HETATM   20  O1  UNL     1       4.394   2.140   0.269  1.00  0.00    -0.290 OA
ATOM     21  H1  UNL     1       5.227   2.545   0.057  1.00  0.00     0.244 HD
ENDBRANCH   1  20
TORSDOF 5
