REMARK  6 active torsions:
REMARK  status: ('A' for Active; 'I' for Inactive)
REMARK    1  A    between atoms: O1_1  and  C1_3 
REMARK    2  A    between atoms: C1_3  and  C2_4 
REMARK    3  A    between atoms: C3_6  and  C4_7 
REMARK    4  A    between atoms: C7_13  and  O3_14 
REMARK    5  A    between atoms: C8_16  and  O4_17 
REMARK    6  A    between atoms: C9_19  and  O5_20 
ROOT
HETATM    1  C2  UNL     1      -1.371   0.984   0.485  1.00  0.00     0.177 C 
HETATM    2  O2  UNL     1      -0.174   0.984  -0.202  1.00  0.00    -0.366 OA
HETATM    3  C3  UNL     1       0.600  -0.057   0.331  1.00  0.00     0.210 C 
HETATM    4  C7  UNL     1       0.065  -1.321  -0.244  1.00  0.00     0.184 C 
HETATM    5  C8  UNL     1      -1.315  -1.529   0.291  1.00  0.00     0.181 C 
HETATM    6  C9  UNL     1      -2.120  -0.292   0.454  1.00  0.00     0.180 C 
ENDROOT
BRANCH   3   7
HETATM    7  C4  UNL     1       2.053   0.150   0.049  1.00  0.00     0.082 A 
HETATM    8  N1  UNL     1       2.677   0.508  -1.046  1.00  0.00    -0.361 N 
HETATM    9  C5  UNL     1       3.969   0.628  -1.063  1.00  0.00     0.096 A 
ATOM     10  H1  UNL     1       2.142   0.694  -1.894  1.00  0.00     0.165 HD
HETATM   11  C6  UNL     1       4.642   0.365   0.107  1.00  0.00     0.068 A 
HETATM   12  S1  UNL     1       3.354  -0.040   1.158  1.00  0.00    -0.085 SA
ENDBRANCH   3   7
BRANCH   4  13
HETATM   13  O3  UNL     1       0.860  -2.436   0.071  1.00  0.00    -0.390 OA
ATOM     14  H3  UNL     1       0.518  -3.243  -0.296  1.00  0.00     0.210 HD
ENDBRANCH   4  13
BRANCH   1  15
HETATM   15  C1  UNL     1      -2.207   2.137  -0.065  1.00  0.00     0.198 C 
BRANCH  15  16
HETATM   16  O1  UNL     1      -2.462   2.013  -1.408  1.00  0.00    -0.398 OA
ATOM     17  H1  UNL     1      -2.982   2.730  -1.750  1.00  0.00     0.209 HD
ENDBRANCH  15  16
ENDBRANCH   1  15
BRANCH   5  18
HETATM   18  O4  UNL     1      -1.186  -2.234   1.507  1.00  0.00    -0.390 OA
ATOM     19  H4  UNL     1      -2.063  -2.366   1.847  1.00  0.00     0.210 HD
ENDBRANCH   5  18
BRANCH   6  20
HETATM   20  O5  UNL     1      -3.136  -0.296  -0.530  1.00  0.00    -0.390 OA
ATOM     21  H5  UNL     1      -3.617  -1.115  -0.550  1.00  0.00     0.210 HD
ENDBRANCH   6  20
TORSDOF 6
