REMARK  6 active torsions:
REMARK  status: ('A' for Active; 'I' for Inactive)
REMARK    1  A    between atoms: O1_1  and  C1_3 
REMARK    2  A    between atoms: C1_3  and  C2_4 
REMARK    3  A    between atoms: C3_6  and  C4_7 
REMARK    4  A    between atoms: C8_12  and  O3_13 
REMARK    5  A    between atoms: C9_15  and  O4_16 
REMARK    6  A    between atoms: C10_18  and  O5_19 
ROOT
HETATM    1  C2  UNL     1      -1.528   0.740   0.081  1.00  0.00     0.177 C 
HETATM    2  O2  UNL     1      -0.236   0.882  -0.304  1.00  0.00    -0.368 OA
HETATM    3  C3  UNL     1       0.471  -0.249  -0.570  1.00  0.00     0.193 C 
HETATM    4  C8  UNL     1       0.194  -1.416   0.310  1.00  0.00     0.183 C 
HETATM    5  C9  UNL     1      -1.236  -1.590   0.696  1.00  0.00     0.181 C 
HETATM    6  C10 UNL     1      -2.095  -0.642  -0.128  1.00  0.00     0.180 C 
ENDROOT
BRANCH   3   7
HETATM    7  C4  UNL     1       1.937   0.091  -0.422  1.00  0.00     0.014 A 
HETATM    8  C5  UNL     1       2.529   0.808   0.584  1.00  0.00     0.018 A 
HETATM    9  C6  UNL     1       3.846   0.994   0.520  1.00  0.00     0.008 A 
HETATM   10  C7  UNL     1       4.512   0.453  -0.549  1.00  0.00     0.050 A 
HETATM   11  S1  UNL     1       3.259  -0.300  -1.429  1.00  0.00    -0.104 SA
ENDBRANCH   3   7
BRANCH   4  12
HETATM   12  O3  UNL     1       0.609  -2.586  -0.368  1.00  0.00    -0.390 OA
ATOM     13  H3  UNL     1       0.432  -3.331   0.194  1.00  0.00     0.210 HD
ENDBRANCH   4  12
BRANCH   1  14
HETATM   14  C1  UNL     1      -2.462   1.745  -0.602  1.00  0.00     0.198 C 
BRANCH  14  15
HETATM   15  O1  UNL     1      -2.017   3.026  -0.252  1.00  0.00    -0.398 OA
ATOM     16  H1  UNL     1      -2.596   3.649  -0.675  1.00  0.00     0.209 HD
ENDBRANCH  14  15
ENDBRANCH   1  14
BRANCH   5  17
HETATM   17  O4  UNL     1      -1.385  -1.201   2.026  1.00  0.00    -0.390 OA
ATOM     18  H4  UNL     1      -2.296  -1.312   2.272  1.00  0.00     0.210 HD
ENDBRANCH   5  17
BRANCH   6  19
HETATM   19  O5  UNL     1      -2.162  -1.002  -1.452  1.00  0.00    -0.390 OA
ATOM     20  H5  UNL     1      -2.519  -1.872  -1.584  1.00  0.00     0.210 HD
ENDBRANCH   6  19
TORSDOF 6
