REMARK  6 active torsions:
REMARK  status: ('A' for Active; 'I' for Inactive)
REMARK    1  A    between atoms: C5_5  and  C6_6 
REMARK    2  A    between atoms: N1_7  and  N2_9 
REMARK    3  A    between atoms: N2_9  and  C7_11 
REMARK    4  A    between atoms: C9_14  and  O2_15 
REMARK    5  A    between atoms: C10_17  and  O3_18 
REMARK    6  A    between atoms: C11_20  and  O4_21 
ROOT
HETATM    1  C7  UNL     1      -1.217   0.298  -0.029  1.00  0.00     0.154 C 
HETATM    2  C8  UNL     1      -2.179   1.466   0.013  1.00  0.00     0.200 C 
HETATM    3  O1  UNL     1      -3.166   1.170  -0.945  1.00  0.00    -0.357 OA
HETATM    4  C9  UNL     1      -4.050   0.297  -0.327  1.00  0.00     0.288 C 
HETATM    5  C10 UNL     1      -3.410  -0.878   0.309  1.00  0.00     0.204 C 
HETATM    6  C11 UNL     1      -1.940  -0.977   0.177  1.00  0.00     0.177 C 
ENDROOT
BRANCH   1   7
HETATM    7  N2  UNL     1      -0.173   0.556   0.938  1.00  0.00    -0.327 N 
ATOM      8  H2  UNL     1      -0.011  -0.084   1.715  1.00  0.00     0.180 HD
BRANCH   7   9
HETATM    9  N1  UNL     1       0.596   1.685   0.784  1.00  0.00    -0.313 N 
HETATM   10  C6  UNL     1       1.791   1.820   0.418  1.00  0.00     0.143 C 
ATOM     11  H1  UNL     1       0.117   2.559   1.003  1.00  0.00     0.185 HD
BRANCH  10  12
HETATM   12  C5  UNL     1       2.677   0.729   0.054  1.00  0.00     0.092 A 
HETATM   13  C4  UNL     1       2.450  -0.629   0.020  1.00  0.00     0.041 A 
HETATM   14  C3  UNL     1       3.618  -1.265  -0.397  1.00  0.00     0.035 A 
HETATM   15  C2  UNL     1       4.512  -0.238  -0.599  1.00  0.00     0.050 A 
HETATM   16  C1  UNL     1       5.930  -0.421  -1.059  1.00  0.00     0.076 C 
HETATM   17  O5  UNL     1       3.937   0.891  -0.330  1.00  0.00    -0.314 OA
ENDBRANCH  10  12
ENDBRANCH   7   9
ENDBRANCH   1   7
BRANCH   6  18
HETATM   18  O4  UNL     1      -1.596  -1.860  -0.870  1.00  0.00    -0.391 OA
ATOM     19  H4  UNL     1      -2.060  -2.678  -0.738  1.00  0.00     0.210 HD
ENDBRANCH   6  18
BRANCH   5  20
HETATM   20  O3  UNL     1      -3.766  -0.937   1.668  1.00  0.00    -0.388 OA
ATOM     21  H3  UNL     1      -3.356  -1.690   2.076  1.00  0.00     0.210 HD
ENDBRANCH   5  20
BRANCH   4  22
HETATM   22  O2  UNL     1      -4.739   1.060   0.641  1.00  0.00    -0.369 OA
ATOM     23  H2  UNL     1      -5.344   0.462   1.064  1.00  0.00     0.212 HD
ENDBRANCH   4  22
TORSDOF 6
