REMARK  6 active torsions:
REMARK  status: ('A' for Active; 'I' for Inactive)
REMARK    1  A    between atoms: C2_2  and  O1_5 
REMARK    2  A    between atoms: O1_5  and  C4_6 
REMARK    3  A    between atoms: C4_6  and  O2_7 
REMARK    4  A    between atoms: C5_10  and  N2_11 
REMARK    5  A    between atoms: C10_16  and  O4_17 
REMARK    6  A    between atoms: C11_19  and  O5_20 
ROOT
HETATM    1  C1  UNL     1      -4.181  -0.137   0.441  1.00  0.00     0.055 C 
HETATM    2  C2  UNL     1      -2.925   0.745   0.324  1.00  0.00     0.229 C 
HETATM    3  C3  UNL     1      -3.446   2.133   0.280  1.00  0.00     0.091 C 
HETATM    4  N1  UNL     1      -3.839   3.220   0.235  1.00  0.00    -0.195 NA
ENDROOT
BRANCH   2   5
HETATM    5  O1  UNL     1      -2.296   0.412  -0.798  1.00  0.00    -0.311 OA
BRANCH   5   6
HETATM    6  C4  UNL     1      -1.066  -0.056  -0.854  1.00  0.00     0.313 C 
HETATM    7  O3  UNL     1      -0.041   0.802  -0.418  1.00  0.00    -0.302 OA
HETATM    8  C5  UNL     1       1.078   0.069  -0.836  1.00  0.00     0.264 C 
HETATM    9  C10 UNL     1       0.789  -1.378  -0.448  1.00  0.00     0.204 C 
HETATM   10  C11 UNL     1      -0.709  -1.311  -0.138  1.00  0.00     0.244 C 
BRANCH   6  11
HETATM   11  O2  UNL     1      -0.762  -0.288  -2.222  1.00  0.00    -0.341 OA
ATOM     12  H2  UNL     1       0.125  -0.626  -2.262  1.00  0.00     0.215 HD
ENDBRANCH   6  11
BRANCH   8  13
HETATM   13  N2  UNL     1       2.299   0.552  -0.248  1.00  0.00    -0.337 N 
HETATM   14  C6  UNL     1       3.525   0.437  -0.792  1.00  0.00     0.093 A 
HETATM   15  C7  UNL     1       4.464   1.009   0.039  1.00  0.00     0.019 A 
HETATM   16  C8  UNL     1       3.784   1.491   1.130  1.00  0.00     0.019 A 
HETATM   17  C9  UNL     1       2.457   1.201   0.935  1.00  0.00     0.093 A 
ENDBRANCH   8  13
BRANCH   9  18
HETATM   18  O4  UNL     1       1.539  -1.660   0.672  1.00  0.00    -0.388 OA
ATOM     19  H4  UNL     1       1.359  -2.561   0.914  1.00  0.00     0.210 HD
ENDBRANCH   9  18
BRANCH  10  20
HETATM   20  O5  UNL     1      -0.804  -1.247   1.230  1.00  0.00    -0.385 OA
ATOM     21  H5  UNL     1      -0.576  -2.048   1.687  1.00  0.00     0.210 HD
ENDBRANCH  10  20
ENDBRANCH   5   6
ENDBRANCH   2   5
TORSDOF 6
