REMARK  7 active torsions:
REMARK  status: ('A' for Active; 'I' for Inactive)
REMARK    1  A    between atoms: O1_1  and  C1_3 
REMARK    2  A    between atoms: C1_3  and  C2_4 
REMARK    3  A    between atoms: C3_6  and  C4_7 
REMARK    4  A    between atoms: C4_7  and  O3_8 
REMARK    5  A    between atoms: C4_7  and  C5_10 
REMARK    6  A    between atoms: N1_17  and  O5_19 
REMARK    7  A    between atoms: C11_21  and  O6_22 
ROOT
HETATM    1  C2  UNL     1      -1.926  -0.714  -0.434  1.00  0.00     0.180 C 
HETATM    2  O2  UNL     1      -0.622  -0.532  -0.039  1.00  0.00    -0.372 OA
HETATM    3  C3  UNL     1      -0.164   0.766  -0.188  1.00  0.00     0.158 C 
HETATM    4  C9  UNL     1      -0.972   1.647   0.760  1.00  0.00     0.092 C 
HETATM    5  C10 UNL     1      -2.440   1.475   0.482  1.00  0.00     0.043 C 
HETATM    6  N1  UNL     1      -3.208   2.479   0.310  1.00  0.00    -0.275 N 
ATOM      7  H1  UNL     1      -4.201   2.344   0.122  1.00  0.00     0.193 HD
HETATM    8  C11 UNL     1      -2.916   0.067   0.424  1.00  0.00     0.196 C 
ENDROOT
BRANCH   3   9
HETATM    9  C4  UNL     1       1.261   0.804   0.307  1.00  0.00     0.176 C 
BRANCH   9  10
HETATM   10  O3  UNL     1       1.703   2.138   0.144  1.00  0.00    -0.390 OA
ATOM     11  H3  UNL     1       2.600   2.162   0.456  1.00  0.00     0.210 HD
ENDBRANCH   9  10
BRANCH   9  12
HETATM   12  C5  UNL     1       2.184  -0.044  -0.537  1.00  0.00     0.152 C 
HETATM   13  C6  UNL     1       3.578   0.096   0.084  1.00  0.00     0.036 C 
HETATM   14  C7  UNL     1       4.164  -1.249  -0.259  1.00  0.00     0.029 C 
HETATM   15  C8  UNL     1       2.943  -2.131  -0.241  1.00  0.00     0.168 C 
HETATM   16  O4  UNL     1       1.839  -1.358  -0.448  1.00  0.00    -0.383 OA
ENDBRANCH   9  12
ENDBRANCH   3   9
BRANCH   1  17
HETATM   17  C1  UNL     1      -2.258  -2.188  -0.207  1.00  0.00     0.199 C 
BRANCH  17  18
HETATM   18  O1  UNL     1      -3.585  -2.450  -0.592  1.00  0.00    -0.398 OA
ATOM     19  H1  UNL     1      -3.791  -3.366  -0.451  1.00  0.00     0.209 HD
ENDBRANCH  17  18
ENDBRANCH   1  17
BRANCH   8  20
HETATM   20  O6  UNL     1      -4.155   0.028  -0.206  1.00  0.00    -0.387 OA
ATOM     21  H6  UNL     1      -4.772   0.514   0.328  1.00  0.00     0.210 HD
ENDBRANCH   8  20
BRANCH   6  22
HETATM   22  O5  UNL     1      -2.681   3.736   0.381  1.00  0.00    -0.290 OA
ATOM     23  H5  UNL     1      -3.253   4.484   0.253  1.00  0.00     0.244 HD
ENDBRANCH   6  22
TORSDOF 7
