REMARK  8 active torsions:
REMARK  status: ('A' for Active; 'I' for Inactive)
REMARK    1  A    between atoms: O1_2  and  N1_3 
REMARK    2  A    between atoms: N1_3  and  C2_4 
REMARK    3  A    between atoms: C3_7  and  N2_8 
REMARK    4  A    between atoms: C4_12  and  N3_13 
REMARK    5  A    between atoms: N3_13  and  N4_15 
REMARK    6  A    between atoms: N4_15  and  N5_16 
REMARK    7  A    between atoms: C5_19  and  O2_20 
REMARK    8  A    between atoms: C6_22  and  O3_23 
ROOT
HETATM    1  C2  UNL     1       1.494  -0.515  -0.824  1.00  0.00     0.210 C 
HETATM    2  S1  UNL     1       1.489   1.373  -0.985  1.00  0.00    -0.069 SA
HETATM    3  S2  UNL     1      -0.429   2.121  -0.362  1.00  0.00    -0.060 SA
HETATM    4  C3  UNL     1      -1.764   1.035  -0.222  1.00  0.00     0.283 C 
HETATM    5  C4  UNL     1      -1.870  -0.189   0.596  1.00  0.00     0.186 C 
HETATM    6  C5  UNL     1      -0.912  -1.356   0.189  1.00  0.00     0.177 C 
HETATM    7  C6  UNL     1       0.238  -0.700  -0.263  1.00  0.00     0.181 C 
ENDROOT
BRANCH   5   8
HETATM    8  N3  UNL     1      -3.248  -0.636   0.500  1.00  0.00    -0.242 N 
ATOM      9  H3  UNL     1      -3.956   0.053   0.247  1.00  0.00     0.197 HD
BRANCH   8  10
HETATM   10  N4  UNL     1      -3.610  -1.768   0.700  1.00  0.00    -0.248 NA
BRANCH  10  11
HETATM   11  N5  UNL     1      -3.853  -2.889   1.127  1.00  0.00    -0.261 N 
ATOM     12  H52 UNL     1      -3.338  -2.688   1.984  1.00  0.00     0.193 HD
ATOM     13  H51 UNL     1      -4.159  -3.847   1.296  1.00  0.00     0.193 HD
ENDBRANCH  10  11
ENDBRANCH   8  10
ENDBRANCH   5   8
BRANCH   4  14
HETATM   14  N2  UNL     1      -2.890   1.873   0.253  1.00  0.00    -0.063 N 
ATOM     15  H23 UNL     1      -2.688   2.392   1.108  1.00  0.00     0.275 HD
ATOM     16  H22 UNL     1      -3.078   2.685  -0.335  1.00  0.00     0.275 HD
ATOM     17  H21 UNL     1      -3.679   1.231   0.336  1.00  0.00     0.275 HD
ENDBRANCH   4  14
BRANCH   6  18
HETATM   18  O2  UNL     1      -1.610  -2.110  -0.733  1.00  0.00    -0.391 OA
ATOM     19  H2  UNL     1      -1.028  -2.819  -0.980  1.00  0.00     0.210 HD
ENDBRANCH   6  18
BRANCH   7  20
HETATM   20  O3  UNL     1       0.445   0.115   0.906  1.00  0.00    -0.390 OA
ATOM     21  H3  UNL     1      -0.415  -0.012   1.290  1.00  0.00     0.210 HD
ENDBRANCH   7  20
BRANCH   1  22
HETATM   22  N1  UNL     1       2.680  -0.776  -0.028  1.00  0.00    -0.083 NA
BRANCH  22  23
HETATM   23  O1  UNL     1       3.735  -0.306  -0.690  1.00  0.00    -0.290 OA
HETATM   24  C1  UNL     1       4.197   0.914  -0.265  1.00  0.00     0.231 C 
ENDBRANCH  22  23
ENDBRANCH   1  22
TORSDOF 8
