REMARK  6 active torsions:
REMARK  status: ('A' for Active; 'I' for Inactive)
REMARK    1  A    between atoms: C13_15  and  C14_16 
REMARK    2  A    between atoms: C13_15  and  C18_22 
REMARK    3  A    between atoms: C14_16  and  C15_17 
REMARK    4  A    between atoms: C15_17  and  O3_18 
REMARK    5  A    between atoms: O3_18  and  C16_19 
REMARK    6  A    between atoms: C18_22  and  O6_24 
ROOT
HETATM    1  C1  UNL     1       5.762  -0.366   2.389  1.00  0.00     0.025 C 
HETATM    2  C2  UNL     1       4.461  -0.348   2.393  1.00  0.00     0.014 C 
HETATM    3  C3  UNL     1       3.533  -0.741   3.483  1.00  0.00     0.289 C 
HETATM    4  O1  UNL     1       3.848  -0.958   4.681  1.00  0.00    -0.260 OA
HETATM    5  O2  UNL     1       2.234  -0.828   2.934  1.00  0.00    -0.311 OA
HETATM    6  C4  UNL     1       2.430  -0.992   1.572  1.00  0.00     0.146 C 
HETATM    7  C5  UNL     1       3.503   0.068   1.310  1.00  0.00     0.054 C 
HETATM    8  C6  UNL     1       3.988  -0.134  -0.066  1.00  0.00     0.013 C 
HETATM    9  C7  UNL     1       3.283  -1.189  -0.849  1.00  0.00     0.011 C 
HETATM   10  C8  UNL     1       1.816  -1.245  -0.741  1.00  0.00    -0.029 C 
HETATM   11  C9  UNL     1       1.280  -2.581  -1.238  1.00  0.00     0.016 C 
HETATM   12  C10 UNL     1       1.287  -0.908   0.666  1.00  0.00     0.030 C 
HETATM   13  C11 UNL     1       0.873   0.441   0.119  1.00  0.00     0.004 C 
HETATM   14  C12 UNL     1      -0.564   0.728   0.350  1.00  0.00     0.026 C 
HETATM   15  C13 UNL     1      -1.274   0.425  -0.939  1.00  0.00     0.055 C 
HETATM   16  C20 UNL     1      -0.331  -0.284  -1.849  1.00  0.00     0.014 A 
HETATM   17  C21 UNL     1       0.844   0.472  -2.494  1.00  0.00     0.018 A 
HETATM   18  C22 UNL     1       0.980  -0.134  -1.220  1.00  0.00    -0.023 A 
ENDROOT
BRANCH  15  19
HETATM   19  C14 UNL     1      -1.700   1.716  -1.589  1.00  0.00     0.047 C 
BRANCH  19  20
HETATM   20  C15 UNL     1      -2.643   2.543  -0.770  1.00  0.00     0.180 C 
BRANCH  20  21
HETATM   21  O3  UNL     1      -3.841   1.879  -0.466  1.00  0.00    -0.322 OA
BRANCH  21  22
HETATM   22  C16 UNL     1      -4.812   2.507   0.279  1.00  0.00     0.254 C 
HETATM   23  C17 UNL     1      -6.103   1.830   0.624  1.00  0.00     0.126 C 
HETATM   24  O4  UNL     1      -4.604   3.695   0.687  1.00  0.00    -0.266 OA
ENDBRANCH  21  22
ENDBRANCH  20  21
ENDBRANCH  19  20
ENDBRANCH  15  19
BRANCH  15  25
HETATM   25  C18 UNL     1      -2.451  -0.442  -0.641  1.00  0.00     0.267 C 
HETATM   26  O5  UNL     1      -2.688  -0.774   0.544  1.00  0.00    -0.264 OA
BRANCH  25  27
HETATM   27  O6  UNL     1      -3.317  -0.912  -1.617  1.00  0.00    -0.326 OA
HETATM   28  C19 UNL     1      -4.425  -1.742  -1.234  1.00  0.00     0.213 C 
ENDBRANCH  25  27
ENDBRANCH  15  25
TORSDOF 6
