REMARK  6 active torsions:
REMARK  status: ('A' for Active; 'I' for Inactive)
REMARK    1  A    between atoms: O1_2  and  C2_3 
REMARK    2  A    between atoms: C2_3  and  C3_5 
REMARK    3  A    between atoms: C10_13  and  C11_14 
REMARK    4  A    between atoms: C11_14  and  O3_15 
REMARK    5  A    between atoms: O3_15  and  C12_16 
REMARK    6  A    between atoms: C12_16  and  C13_18 
ROOT
HETATM    1  C3  UNL     1      -3.974  -0.133   0.984  1.00  0.00     0.146 C 
HETATM    2  C4  UNL     1      -4.063  -0.601   2.342  1.00  0.00     0.080 C 
HETATM    3  N1  UNL     1      -4.128  -0.958   3.440  1.00  0.00    -0.196 NA
HETATM    4  C5  UNL     1      -4.719  -1.073   0.088  1.00  0.00     0.019 C 
HETATM    5  C6  UNL     1      -4.469  -2.482   0.570  1.00  0.00     0.007 C 
HETATM    6  C7  UNL     1      -2.945  -2.574   0.396  1.00  0.00     0.005 C 
HETATM    7  C8  UNL     1      -2.515  -1.359  -0.358  1.00  0.00    -0.006 C 
HETATM    8  C9  UNL     1      -3.811  -1.088  -1.157  1.00  0.00     0.012 C 
HETATM    9  C10 UNL     1      -2.520  -0.137   0.491  1.00  0.00     0.047 C 
ENDROOT
BRANCH   1  10
HETATM   10  C2  UNL     1      -4.590   1.227   0.819  1.00  0.00     0.282 C 
HETATM   11  O2  UNL     1      -5.104   1.809   1.824  1.00  0.00    -0.263 OA
BRANCH  10  12
HETATM   12  O1  UNL     1      -4.599   1.839  -0.413  1.00  0.00    -0.325 OA
HETATM   13  C1  UNL     1      -5.185   3.118  -0.536  1.00  0.00     0.213 C 
ENDBRANCH  10  12
ENDBRANCH   1  10
BRANCH   9  14
HETATM   14  C11 UNL     1      -1.539  -0.081   1.590  1.00  0.00     0.186 C 
BRANCH  14  15
HETATM   15  O3  UNL     1      -0.217  -0.091   1.121  1.00  0.00    -0.320 OA
BRANCH  15  16
HETATM   16  C12 UNL     1       0.356   0.847   0.317  1.00  0.00     0.269 C 
HETATM   17  O4  UNL     1      -0.340   1.828  -0.052  1.00  0.00    -0.264 OA
BRANCH  16  18
HETATM   18  C13 UNL     1       1.763   0.787  -0.155  1.00  0.00     0.071 C 
HETATM   19  C14 UNL     1       2.053   1.966  -1.009  1.00  0.00     0.028 C 
HETATM   20  C15 UNL     1       2.641   0.672   1.063  1.00  0.00     0.022 C 
HETATM   21  C16 UNL     1       3.982   1.266   0.859  1.00  0.00     0.012 C 
HETATM   22  C17 UNL     1       4.864   0.600  -0.111  1.00  0.00    -0.011 A 
HETATM   23  C18 UNL     1       5.862   1.537  -0.808  1.00  0.00     0.017 C 
HETATM   24  C19 UNL     1       5.497  -0.741   0.227  1.00  0.00     0.048 A 
HETATM   25  C20 UNL     1       4.413  -0.533  -0.853  1.00  0.00     0.231 A 
HETATM   26  N2  UNL     1       3.187  -1.159  -0.554  1.00  0.00     0.090 N 
HETATM   27  C21 UNL     1       3.175  -2.484  -1.159  1.00  0.00     0.310 C 
HETATM   28  C22 UNL     1       2.010  -0.466  -0.992  1.00  0.00     0.291 C 
ENDBRANCH  16  18
ENDBRANCH  15  16
ENDBRANCH  14  15
ENDBRANCH   9  14
TORSDOF 6
