REMARK  12 active torsions:
REMARK  status: ('A' for Active; 'I' for Inactive)
REMARK    1  A    between atoms: N1_1  and  C1_5 
REMARK    2  A    between atoms: C3_7  and  N2_8 
REMARK    3  A    between atoms: C4_12  and  O1_13 
REMARK    4  A    between atoms: C5_15  and  N3_16 
REMARK       I    between atoms: N3_16  and  C6_18 
REMARK    5  A    between atoms: C6_18  and  C7_20 
REMARK    6  A    between atoms: C7_20  and  C8_21 
REMARK    7  A    between atoms: N4_23  and  C10_24 
REMARK    8  A    between atoms: C10_24  and  C11_25 
REMARK    9  A    between atoms: C11_25  and  N5_26 
REMARK   10  A    between atoms: C13_33  and  O4_34 
REMARK   11  A    between atoms: C14_36  and  O5_37 
REMARK   12  A    between atoms: C15_39  and  N6_40 
ROOT
HETATM    1  C8  UNL     1       0.371  -0.848   0.570  1.00  0.00     0.053 A 
HETATM    2  C9  UNL     1       1.226  -0.075  -0.197  1.00  0.00     0.138 A 
HETATM    3  N4  UNL     1       2.230  -0.829  -0.627  1.00  0.00    -0.282 N 
HETATM    4  N7  UNL     1       2.001  -2.041  -0.138  1.00  0.00    -0.241 N 
ATOM      5  H7  UNL     1       2.607  -2.845  -0.299  1.00  0.00     0.208 HD
HETATM    6  N8  UNL     1       0.907  -2.081   0.574  1.00  0.00    -0.289 N 
ATOM      7  H8  UNL     1       0.527  -2.900   1.048  1.00  0.00     0.188 HD
ENDROOT
BRANCH   1   8
HETATM    8  C7  UNL     1      -0.877  -0.399   1.243  1.00  0.00     0.162 C 
BRANCH   8   9
HETATM    9  C6  UNL     1      -2.009  -0.587   0.293  1.00  0.00     0.223 C 
HETATM   10  N3  UNL     1      -3.345  -0.247   0.644  1.00  0.00    -0.354 N 
ATOM     11  H3  UNL     1      -3.539   0.136   1.569  1.00  0.00     0.163 HD
HETATM   12  O2  UNL     1      -1.808  -1.064  -0.875  1.00  0.00    -0.273 OA
BRANCH  10  13
HETATM   13  C5  UNL     1      -4.436  -0.436  -0.292  1.00  0.00     0.117 C 
HETATM   14  C4  UNL     1      -5.036   0.924  -0.582  1.00  0.00     0.171 C 
HETATM   15  C3  UNL     1      -6.107   1.159   0.479  1.00  0.00     0.216 C 
HETATM   16  C2  UNL     1      -7.286   0.287   0.092  1.00  0.00     0.068 C 
HETATM   17  C1  UNL     1      -6.838  -1.131  -0.095  1.00  0.00     0.187 C 
HETATM   18  C16 UNL     1      -5.425  -1.372   0.356  1.00  0.00     0.060 C 
BRANCH  14  19
HETATM   19  O1  UNL     1      -4.025   1.890  -0.484  1.00  0.00    -0.391 OA
ATOM     20  H1  UNL     1      -3.358   1.744  -1.145  1.00  0.00     0.210 HD
ENDBRANCH  14  19
BRANCH  15  21
HETATM   21  N2  UNL     1      -6.490   2.546   0.548  1.00  0.00    -0.072 N 
ATOM     22  H23 UNL     1      -6.921   2.861  -0.321  1.00  0.00     0.274 HD
ATOM     23  H22 UNL     1      -7.283   2.686   1.174  1.00  0.00     0.274 HD
ATOM     24  H21 UNL     1      -5.697   3.132   0.808  1.00  0.00     0.274 HD
ENDBRANCH  15  21
BRANCH  17  25
HETATM   25  N1  UNL     1      -7.706  -1.998   0.681  1.00  0.00    -0.075 N 
ATOM     26  H13 UNL     1      -7.750  -1.729   1.664  1.00  0.00     0.274 HD
ATOM     27  H12 UNL     1      -8.692  -1.867   0.455  1.00  0.00     0.274 HD
ATOM     28  H11 UNL     1      -7.401  -2.963   0.554  1.00  0.00     0.274 HD
ENDBRANCH  17  25
ENDBRANCH  10  13
ENDBRANCH   8   9
ENDBRANCH   1   8
BRANCH   3  29
HETATM   29  C10 UNL     1       3.354  -0.485  -1.425  1.00  0.00     0.220 C 
BRANCH  29  30
HETATM   30  C11 UNL     1       4.637  -0.132  -0.806  1.00  0.00     0.274 C 
HETATM   31  O3  UNL     1       5.272  -1.268  -0.234  1.00  0.00    -0.332 OA
HETATM   32  C12 UNL     1       6.634  -1.128  -0.160  1.00  0.00     0.228 C 
HETATM   33  S1  UNL     1       7.518  -1.732  -1.628  1.00  0.00    -0.060 SA
HETATM   34  C13 UNL     1       7.093   0.244   0.257  1.00  0.00     0.189 C 
HETATM   35  C14 UNL     1       5.964   0.869   1.027  1.00  0.00     0.185 C 
HETATM   36  C15 UNL     1       4.785   1.059   0.045  1.00  0.00     0.279 C 
BRANCH  30  37
HETATM   37  N5  UNL     1       5.527   0.134  -1.994  1.00  0.00    -0.043 N 
ATOM     38  H53 UNL     1       5.576  -0.630  -2.668  1.00  0.00     0.278 HD
ATOM     39  H52 UNL     1       5.166   0.827  -2.649  1.00  0.00     0.278 HD
ATOM     40  H51 UNL     1       6.419   0.379  -1.564  1.00  0.00     0.278 HD
ENDBRANCH  30  37
BRANCH  34  41
HETATM   41  O4  UNL     1       8.219   0.082   1.112  1.00  0.00    -0.389 OA
ATOM     42  H4  UNL     1       8.509   0.948   1.375  1.00  0.00     0.210 HD
ENDBRANCH  34  41
BRANCH  35  43
HETATM   43  O5  UNL     1       6.304   2.062   1.615  1.00  0.00    -0.391 OA
ATOM     44  H5  UNL     1       5.590   2.457   2.102  1.00  0.00     0.210 HD
ENDBRANCH  35  43
BRANCH  36  45
HETATM   45  N6  UNL     1       3.678   1.476   0.839  1.00  0.00    -0.068 N 
ATOM     46  H63 UNL     1       2.867   1.602   0.234  1.00  0.00     0.275 HD
ATOM     47  H62 UNL     1       3.374   0.693   1.418  1.00  0.00     0.275 HD
ATOM     48  H61 UNL     1       3.781   2.302   1.429  1.00  0.00     0.275 HD
ENDBRANCH  36  45
ENDBRANCH  29  30
ENDBRANCH   3  29
TORSDOF 12
