REMARK  15 active torsions:
REMARK  status: ('A' for Active; 'I' for Inactive)
REMARK    1  A    between atoms: N1_7  and  C6_8 
REMARK    2  A    between atoms: C6_8  and  O2_9 
REMARK    3  A    between atoms: C6_8  and  C7_11 
REMARK    4  A    between atoms: N3_14  and  N4_15 
REMARK    5  A    between atoms: C8_18  and  N5_19 
REMARK    6  A    between atoms: C9_22  and  N6_23 
REMARK    7  A    between atoms: C10_27  and  C11_28 
REMARK    8  A    between atoms: C11_28  and  O3_29 
REMARK    9  A    between atoms: C11_28  and  N7_31 
REMARK   10  A    between atoms: N7_31  and  C12_34 
REMARK   11  A    between atoms: C12_34  and  C13_35 
REMARK   12  A    between atoms: C12_34  and  C14_38 
REMARK   13  A    between atoms: C13_35  and  O4_36 
REMARK   14  A    between atoms: C14_38  and  O5_39 
REMARK   15  A    between atoms: C14_38  and  O6_41 
ROOT
HETATM    1  C1  UNL     1      -1.804   4.165  -1.642  1.00  0.00     0.078 C 
HETATM    2  C2  UNL     1      -1.452   3.678  -0.250  1.00  0.00     0.158 C 
HETATM    3  C3  UNL     1      -2.366   4.371   0.738  1.00  0.00     0.078 C 
HETATM    4  O1  UNL     1      -0.166   4.070   0.034  1.00  0.00    -0.346 OA
HETATM    5  C4  UNL     1       0.615   2.937  -0.115  1.00  0.00     0.185 C 
HETATM    6  C5  UNL     1       0.826   2.330   1.235  1.00  0.00     0.311 C 
HETATM    7  N1  UNL     1       1.156   0.936   0.895  1.00  0.00     0.138 N 
HETATM    8  C10 UNL     1       0.193   0.628  -0.151  1.00  0.00     0.314 C 
HETATM    9  C15 UNL     1      -0.329   1.892  -0.729  1.00  0.00     0.194 C 
HETATM   10  O7  UNL     1      -1.540   2.298  -0.156  1.00  0.00    -0.346 OA
ENDROOT
BRANCH   7  11
HETATM   11  C6  UNL     1       2.456   0.970   0.309  1.00  0.00     0.417 C 
BRANCH  11  12
HETATM   12  O2  UNL     1       3.312   1.712   1.173  1.00  0.00    -0.363 OA
ATOM     13  H2  UNL     1       4.178   1.735   0.783  1.00  0.00     0.212 HD
ENDBRANCH  11  12
BRANCH  11  14
HETATM   14  C7  UNL     1       3.068  -0.416   0.330  1.00  0.00     0.129 A 
HETATM   15  N2  UNL     1       3.690  -0.946  -0.713  1.00  0.00    -0.271 N 
HETATM   16  N3  UNL     1       4.265  -2.104  -0.809  1.00  0.00    -0.183 N 
ATOM     17  H2  UNL     1       3.720  -0.366  -1.552  1.00  0.00     0.189 HD
HETATM   18  C8  UNL     1       4.370  -3.058   0.128  1.00  0.00     0.172 A 
HETATM   19  C9  UNL     1       3.835  -2.917   1.424  1.00  0.00     0.117 A 
HETATM   20  S1  UNL     1       3.055  -1.439   1.683  1.00  0.00    -0.050 SA
BRANCH  16  21
HETATM   21  N4  UNL     1       4.852  -2.409  -2.071  1.00  0.00    -0.322 N 
ATOM     22  H42 UNL     1       4.772  -1.684  -2.784  1.00  0.00     0.179 HD
ATOM     23  H41 UNL     1       5.304  -3.320  -2.147  1.00  0.00     0.179 HD
ENDBRANCH  16  21
BRANCH  18  24
HETATM   24  N5  UNL     1       4.991  -4.159  -0.152  1.00  0.00    -0.380 N 
ATOM     25  H52 UNL     1       5.378  -4.261  -1.090  1.00  0.00     0.158 HD
ATOM     26  H51 UNL     1       5.071  -4.884   0.561  1.00  0.00     0.158 HD
ENDBRANCH  18  24
BRANCH  19  27
HETATM   27  N6  UNL     1       3.978  -3.881   2.267  1.00  0.00    -0.390 N 
ATOM     28  H62 UNL     1       4.448  -4.772   2.111  1.00  0.00     0.157 HD
ATOM     29  H61 UNL     1       3.591  -3.779   3.205  1.00  0.00     0.157 HD
ENDBRANCH  19  27
ENDBRANCH  11  14
ENDBRANCH   7  11
BRANCH   8  30
HETATM   30  C11 UNL     1      -0.853  -0.264   0.435  1.00  0.00     0.355 C 
BRANCH  30  31
HETATM   31  O3  UNL     1      -1.500   0.320   1.529  1.00  0.00    -0.368 OA
ATOM     32  H3  UNL     1      -2.165  -0.247   1.902  1.00  0.00     0.212 HD
ENDBRANCH  30  31
BRANCH  30  33
HETATM   33  N7  UNL     1      -1.842  -0.672  -0.576  1.00  0.00    -0.036 N 
ATOM     34  H72 UNL     1      -2.156   0.107  -1.155  1.00  0.00     0.281 HD
ATOM     35  H71 UNL     1      -1.434  -1.240  -1.318  1.00  0.00     0.281 HD
BRANCH  33  36
HETATM   36  C12 UNL     1      -2.941  -1.344   0.105  1.00  0.00     0.266 C 
BRANCH  36  37
HETATM   37  C13 UNL     1      -4.193  -1.221  -0.721  1.00  0.00     0.202 C 
BRANCH  37  38
HETATM   38  O4  UNL     1      -5.250  -1.860  -0.065  1.00  0.00    -0.399 OA
ATOM     39  H4  UNL     1      -6.040  -1.782  -0.586  1.00  0.00     0.209 HD
ENDBRANCH  37  38
ENDBRANCH  36  37
BRANCH  36  40
HETATM   40  C14 UNL     1      -2.646  -2.820   0.285  1.00  0.00     0.286 C 
BRANCH  40  41
HETATM   41  O5  UNL     1      -3.737  -3.385   0.940  1.00  0.00    -0.369 OA
ATOM     42  H5  UNL     1      -3.552  -4.310   1.053  1.00  0.00     0.212 HD
ENDBRANCH  40  41
BRANCH  40  43
HETATM   43  O6  UNL     1      -2.556  -3.444  -0.963  1.00  0.00    -0.369 OA
ATOM     44  H6  UNL     1      -2.371  -4.369  -0.850  1.00  0.00     0.212 HD
ENDBRANCH  40  43
ENDBRANCH  36  40
ENDBRANCH  33  36
ENDBRANCH  30  33
ENDBRANCH   8  30
TORSDOF 15
