REMARK  3 active torsions:
REMARK  status: ('A' for Active; 'I' for Inactive)
REMARK    1  A    between atoms: C2_2  and  C3_3 
REMARK    2  A    between atoms: C3_3  and  C4_4 
REMARK    3  A    between atoms: C4_4  and  C5_5 
ROOT
HETATM    1  C4  UNL     1      -0.060   0.156   0.229  1.00  0.00     0.025 C 
HETATM    2  C6  UNL     1      -0.975  -0.318   1.344  1.00  0.00     0.022 C 
HETATM    3  C7  UNL     1      -1.791  -1.415   0.724  1.00  0.00    -0.013 C 
HETATM    4  C8  UNL     1      -2.986  -0.719   0.055  1.00  0.00     0.005 C 
HETATM    5  C9  UNL     1      -2.236   0.087  -1.029  1.00  0.00     0.006 C 
HETATM    6  C10 UNL     1      -0.792  -0.315  -0.958  1.00  0.00     0.002 C 
HETATM    7  C11 UNL     1      -1.073  -1.797  -0.585  1.00  0.00     0.010 C 
ENDROOT
BRANCH   1   8
HETATM    8  C3  UNL     1       1.269  -0.518   0.436  1.00  0.00     0.017 C 
BRANCH   8   9
HETATM    9  C2  UNL     1       2.313  -0.137  -0.607  1.00  0.00    -0.003 C 
HETATM   10  C1  UNL     1       3.600  -0.891  -0.354  1.00  0.00     0.005 C 
ENDBRANCH   8   9
ENDBRANCH   1   8
BRANCH   1  11
HETATM   11  C5  UNL     1       0.103   1.654   0.311  1.00  0.00     0.119 A 
HETATM   12  N1  UNL     1      -0.773   2.600  -0.190  1.00  0.00    -0.270 N 
HETATM   13  N2  UNL     1      -0.276   3.799   0.099  1.00  0.00    -0.005 NA
ATOM     14  H1  UNL     1      -1.642   2.412  -0.690  1.00  0.00     0.185 HD
HETATM   15  N3  UNL     1       0.893   3.668   0.770  1.00  0.00    -0.225 N 
HETATM   16  N4  UNL     1       1.032   2.367   0.852  1.00  0.00    -0.274 N 
ATOM     17  H3  UNL     1       1.511   4.399   1.123  1.00  0.00     0.205 HD
ATOM     18  H4  UNL     1       1.833   1.941   1.319  1.00  0.00     0.189 HD
ENDBRANCH   1  11
TORSDOF 3
