REMARK  4 active torsions:
REMARK  status: ('A' for Active; 'I' for Inactive)
REMARK    1  A    between atoms: C2_2  and  C3_3 
REMARK    2  A    between atoms: C3_3  and  C4_4 
REMARK    3  A    between atoms: C4_4  and  N1_5 
REMARK    4  A    between atoms: N1_5  and  C6_7 
ROOT
HETATM    1  C6  UNL     1      -0.598  -0.343   0.454  1.00  0.00     0.084 C 
HETATM    2  N2  UNL     1      -0.761   0.868   0.053  1.00  0.00    -0.369 N 
ATOM      3  H2  UNL     1      -0.039   1.449  -0.373  1.00  0.00     0.161 HD
HETATM    4  C7  UNL     1      -2.119   1.276   0.299  1.00  0.00     0.044 C 
HETATM    5  C8  UNL     1      -2.238   2.746   0.597  1.00  0.00     0.040 C 
HETATM    6  C9  UNL     1      -2.911   0.856  -0.907  1.00  0.00     0.149 C 
HETATM    7  N3  UNL     1      -3.134  -0.533  -1.032  1.00  0.00    -0.399 N 
ATOM      8  H3  UNL     1      -3.546  -0.910  -1.886  1.00  0.00     0.158 HD
HETATM    9  C10 UNL     1      -2.789  -1.390   0.017  1.00  0.00     0.068 C 
HETATM   10  C11 UNL     1      -1.859  -0.865   1.046  1.00  0.00     0.093 C 
HETATM   11  C12 UNL     1      -2.468   0.467   1.527  1.00  0.00     0.050 C 
ENDROOT
BRANCH   1  12
HETATM   12  N1  UNL     1       0.657  -0.999   0.330  1.00  0.00    -0.375 N 
HETATM   13  C5  UNL     1       0.706  -2.393  -0.018  1.00  0.00     0.150 C 
BRANCH  12  14
HETATM   14  C4  UNL     1       1.884  -0.246   0.555  1.00  0.00     0.123 C 
BRANCH  14  15
HETATM   15  C3  UNL     1       2.635  -0.091  -0.758  1.00  0.00     0.019 C 
BRANCH  15  16
HETATM   16  C2  UNL     1       3.892   0.696  -0.523  1.00  0.00    -0.003 C 
HETATM   17  C1  UNL     1       4.837   0.058   0.453  1.00  0.00     0.005 C 
ENDBRANCH  15  16
ENDBRANCH  14  15
ENDBRANCH  12  14
ENDBRANCH   1  12
TORSDOF 4
