REMARK  3 active torsions:
REMARK  status: ('A' for Active; 'I' for Inactive)
REMARK    1  A    between atoms: C2_2  and  C3_3 
REMARK    2  A    between atoms: C3_3  and  C4_4 
REMARK    3  A    between atoms: C4_4  and  C5_5 
ROOT
HETATM    1  C5  UNL     1       0.148   0.069  -0.452  1.00  0.00     0.040 C 
HETATM    2  C6  UNL     1      -0.603   0.424  -1.755  1.00  0.00     0.130 C 
HETATM    3  N1  UNL     1      -1.686  -0.505  -1.951  1.00  0.00    -0.364 N 
ATOM      4  H1  UNL     1      -1.817  -1.015  -2.824  1.00  0.00     0.162 HD
HETATM    5  C7  UNL     1      -2.489  -0.647  -0.929  1.00  0.00     0.187 C 
HETATM    6  N2  UNL     1      -3.599  -1.530  -0.983  1.00  0.00    -0.064 NA
HETATM    7  N3  UNL     1      -2.186   0.123   0.228  1.00  0.00    -0.342 N 
HETATM    8  C8  UNL     1      -3.331   0.674   0.968  1.00  0.00     0.154 C 
HETATM    9  C9  UNL     1      -0.819   0.360   0.679  1.00  0.00     0.199 C 
HETATM   10  C10 UNL     1      -0.629  -0.544   1.810  1.00  0.00     0.085 C 
HETATM   11  N4  UNL     1      -0.460  -1.277   2.714  1.00  0.00    -0.195 NA
ENDROOT
BRANCH   1  12
HETATM   12  C4  UNL     1       1.334   0.973  -0.447  1.00  0.00     0.009 C 
BRANCH  12  13
HETATM   13  C3  UNL     1       2.275   0.845   0.693  1.00  0.00     0.000 C 
BRANCH  13  14
HETATM   14  C2  UNL     1       2.915  -0.496   0.775  1.00  0.00    -0.005 C 
HETATM   15  C1  UNL     1       3.717  -0.778  -0.501  1.00  0.00     0.005 C 
ENDBRANCH  13  14
ENDBRANCH  12  13
ENDBRANCH   1  12
TORSDOF 3
