REMARK  2 active torsions:
REMARK  status: ('A' for Active; 'I' for Inactive)
REMARK    1  A    between atoms: C2_2  and  N3_7 
REMARK    2  A    between atoms: N3_7  and  C5_9 
ROOT
HETATM    1  C1  UNL     1      -2.079  -0.928   1.050  1.00  0.00     0.072 C 
HETATM    2  C2  UNL     1      -2.035   0.071  -0.092  1.00  0.00     0.202 C 
HETATM    3  C3  UNL     1      -2.366  -0.696  -1.302  1.00  0.00     0.106 C 
HETATM    4  N1  UNL     1      -2.628  -1.303  -2.251  1.00  0.00    -0.193 NA
HETATM    5  C4  UNL     1      -3.125   1.044   0.194  1.00  0.00     0.106 C 
HETATM    6  N2  UNL     1      -3.962   1.804   0.422  1.00  0.00    -0.193 NA
ENDROOT
BRANCH   2   7
HETATM    7  N3  UNL     1      -0.851   0.813  -0.194  1.00  0.00    -0.386 N 
ATOM      8  H3  UNL     1      -0.888   1.824  -0.065  1.00  0.00     0.156 HD
BRANCH   7   9
HETATM    9  C5  UNL     1       0.384   0.206  -0.468  1.00  0.00     0.079 C 
HETATM   10  C6  UNL     1       1.431   1.324  -0.278  1.00  0.00     0.025 C 
HETATM   11  C7  UNL     1       2.747   0.639  -0.101  1.00  0.00     0.002 C 
HETATM   12  C8  UNL     1       2.419  -0.794   0.222  1.00  0.00     0.002 C 
HETATM   13  C9  UNL     1       0.902  -0.807   0.490  1.00  0.00     0.025 C 
ENDBRANCH   7   9
ENDBRANCH   2   7
TORSDOF 2
