REMARK  2 active torsions:
REMARK  status: ('A' for Active; 'I' for Inactive)
REMARK    1  A    between atoms: C3_5  and  N2_6 
REMARK    2  A    between atoms: N2_6  and  C5_8 
ROOT
HETATM    1  C1  UNL     1       4.474  -0.076  -0.374  1.00  0.00     0.091 C 
HETATM    2  C2  UNL     1       3.039   0.265  -0.151  1.00  0.00     0.108 A 
HETATM    3  N1  UNL     1       2.015  -0.534  -0.496  1.00  0.00    -0.178 N 
ATOM      4  H1  UNL     1       2.106  -1.447  -0.941  1.00  0.00     0.185 HD
HETATM    5  C3  UNL     1       0.853   0.054  -0.165  1.00  0.00     0.696 A 
HETATM    6  N3  UNL     1       1.208   1.223   0.386  1.00  0.00    -0.131 N 
ATOM      7  H3  UNL     1       0.552   1.915   0.747  1.00  0.00     0.205 HD
HETATM    8  N4  UNL     1       2.507   1.356   0.398  1.00  0.00    -0.275 N 
ATOM      9  H4  UNL     1       3.024   2.156   0.764  1.00  0.00     0.189 HD
ENDROOT
BRANCH   5  10
HETATM   10  N2  UNL     1      -0.453  -0.484  -0.373  1.00  0.00    -0.212 N 
HETATM   11  C4  UNL     1      -0.571  -1.793  -1.003  1.00  0.00     0.169 C 
BRANCH  10  12
HETATM   12  C5  UNL     1      -1.668   0.164  -0.011  1.00  0.00     0.038 C 
HETATM   13  C6  UNL     1      -2.492   0.365  -1.278  1.00  0.00     0.038 C 
HETATM   14  C7  UNL     1      -1.543   1.462   0.697  1.00  0.00     0.038 C 
HETATM   15  C8  UNL     1      -2.442  -0.787   0.910  1.00  0.00     0.038 C 
ENDBRANCH  10  12
ENDBRANCH   5  10
TORSDOF 2
