REMARK  2 active torsions:
REMARK  status: ('A' for Active; 'I' for Inactive)
REMARK    1  A    between atoms: C2_2  and  C3_3 
REMARK    2  A    between atoms: N1_11  and  O3_12 
ROOT
HETATM    1  C3  UNL     1      -0.859  -0.064   0.141  1.00  0.00     0.142 C 
HETATM    2  C4  UNL     1      -1.313  -1.229   0.970  1.00  0.00     0.050 C 
HETATM    3  C5  UNL     1      -0.244   1.020   0.925  1.00  0.00     0.290 C 
HETATM    4  O1  UNL     1      -0.766   1.585   1.940  1.00  0.00    -0.262 OA
HETATM    5  O2  UNL     1       0.983   1.260   0.317  1.00  0.00    -0.291 OA
HETATM    6  C6  UNL     1       1.395   0.005  -0.164  1.00  0.00     0.142 C 
HETATM    7  C7  UNL     1       2.439   0.097  -1.241  1.00  0.00     0.066 C 
HETATM    8  C8  UNL     1       1.927  -0.788   0.990  1.00  0.00     0.066 C 
HETATM    9  N1  UNL     1       0.196  -0.526  -0.739  1.00  0.00    -0.142 NA
ENDROOT
BRANCH   1  10
HETATM   10  C2  UNL     1      -1.990   0.524  -0.641  1.00  0.00     0.000 C 
HETATM   11  C1  UNL     1      -3.008   1.132  -0.048  1.00  0.00     0.009 C 
ENDBRANCH   1  10
BRANCH   9  12
HETATM   12  O3  UNL     1       0.018   0.059  -1.942  1.00  0.00    -0.309 OA
ATOM     13  H3  UNL     1       0.709  -0.244  -2.519  1.00  0.00     0.237 HD
ENDBRANCH   9  12
TORSDOF 2
