REMARK  1 active torsions:
REMARK  status: ('A' for Active; 'I' for Inactive)
REMARK    1  A    between atoms: O1_2  and  C2_3 
ROOT
HETATM    1  C2  UNL     1       1.662  -0.219   0.096  1.00  0.00     0.272 C 
HETATM    2  C3  UNL     1       0.510   0.602  -0.420  1.00  0.00     0.100 C 
HETATM    3  C4  UNL     1      -0.797  -0.136  -0.416  1.00  0.00     0.076 C 
HETATM    4  C5  UNL     1      -1.292  -0.418   0.971  1.00  0.00     0.039 C 
HETATM    5  C6  UNL     1      -2.187   0.754   1.259  1.00  0.00     0.003 C 
HETATM    6  C7  UNL     1      -2.929   0.914  -0.064  1.00  0.00     0.003 C 
HETATM    7  C8  UNL     1      -1.827   0.733  -1.094  1.00  0.00     0.039 C 
HETATM    8  O2  UNL     1      -0.657  -1.354  -1.127  1.00  0.00    -0.305 OA
HETATM    9  C9  UNL     1       0.406  -2.177  -0.716  1.00  0.00     0.261 C 
HETATM   10  N1  UNL     1       0.438  -3.426  -1.019  1.00  0.00    -0.359 N 
ATOM     11  H11 UNL     1       1.209  -4.023  -0.721  1.00  0.00     0.160 HD
ATOM     12  H12 UNL     1      -0.313  -3.847  -1.566  1.00  0.00     0.160 HD
HETATM   13  O3  UNL     1       1.413  -1.613   0.018  1.00  0.00    -0.285 OA
ENDROOT
BRANCH   1  14
HETATM   14  O1  UNL     1       2.786   0.162  -0.594  1.00  0.00    -0.365 OA
HETATM   15  C1  UNL     1       3.775   0.715   0.179  1.00  0.00     0.204 C 
ENDBRANCH   1  14
TORSDOF 1
