REMARK  6 active torsions:
REMARK  status: ('A' for Active; 'I' for Inactive)
REMARK    1  A    between atoms: C3_3  and  C4_4 
REMARK    2  A    between atoms: C4_4  and  O2_6 
REMARK    3  A    between atoms: O2_6  and  C5_7 
REMARK    4  A    between atoms: C7_9  and  C8_10 
REMARK    5  A    between atoms: C8_10  and  O3_11 
REMARK    6  A    between atoms: C14_21  and  O4_22 
ROOT
HETATM    1  C5  UNL     1       0.874   0.558  -0.780  1.00  0.00     0.142 C 
HETATM    2  C6  UNL     1       0.879   2.058  -0.733  1.00  0.00     0.046 C 
HETATM    3  C7  UNL     1      -0.076   2.496   0.376  1.00  0.00     0.057 C 
HETATM    4  C9  UNL     1      -1.425   2.079  -0.104  1.00  0.00    -0.009 C 
HETATM    5  N1  UNL     1      -2.399   2.937  -0.170  1.00  0.00    -0.405 N 
ATOM      6  H11 UNL     1      -3.322   2.652  -0.498  1.00  0.00     0.155 HD
ATOM      7  H12 UNL     1      -2.255   3.909   0.105  1.00  0.00     0.155 HD
HETATM    8  C10 UNL     1      -1.630   0.692  -0.497  1.00  0.00     0.042 C 
HETATM    9  C11 UNL     1      -2.204  -0.050   0.720  1.00  0.00     0.018 C 
HETATM   10  C12 UNL     1      -2.837  -1.311   0.116  1.00  0.00     0.011 C 
HETATM   11  C13 UNL     1      -3.734  -1.985   1.093  1.00  0.00     0.012 C 
HETATM   12  C14 UNL     1      -1.702  -2.164  -0.374  1.00  0.00     0.122 C 
HETATM   13  C15 UNL     1      -0.384  -1.468  -0.413  1.00  0.00     0.044 C 
HETATM   14  C16 UNL     1      -0.469  -0.055  -0.992  1.00  0.00    -0.006 C 
HETATM   15  C17 UNL     1      -0.634  -0.254  -2.506  1.00  0.00     0.019 C 
ENDROOT
BRANCH   1  16
HETATM   16  O2  UNL     1       1.511   0.100   0.400  1.00  0.00    -0.312 OA
BRANCH  16  17
HETATM   17  C4  UNL     1       2.727  -0.561   0.407  1.00  0.00     0.282 C 
HETATM   18  O1  UNL     1       3.280  -0.758  -0.695  1.00  0.00    -0.260 OA
BRANCH  17  19
HETATM   19  C3  UNL     1       3.325  -1.007   1.684  1.00  0.00     0.077 C 
HETATM   20  C2  UNL     1       4.464  -1.631   1.728  1.00  0.00    -0.025 C 
HETATM   21  C1  UNL     1       5.285  -1.964   0.538  1.00  0.00     0.036 C 
ENDBRANCH  17  19
ENDBRANCH  16  17
ENDBRANCH   1  16
BRANCH   3  22
HETATM   22  C8  UNL     1      -0.064   4.000   0.527  1.00  0.00     0.174 C 
BRANCH  22  23
HETATM   23  O3  UNL     1      -0.937   4.344   1.534  1.00  0.00    -0.400 OA
ATOM     24  H3  UNL     1      -0.929   5.289   1.629  1.00  0.00     0.209 HD
ENDBRANCH  22  23
ENDBRANCH   3  22
BRANCH  12  25
HETATM   25  O4  UNL     1      -2.067  -2.742  -1.588  1.00  0.00    -0.395 OA
ATOM     26  H4  UNL     1      -1.349  -3.282  -1.898  1.00  0.00     0.210 HD
ENDBRANCH  12  25
TORSDOF 6
