REMARK  6 active torsions:
REMARK  status: ('A' for Active; 'I' for Inactive)
REMARK    1  A    between atoms: C3_3  and  C4_4 
REMARK    2  A    between atoms: C4_4  and  O1_7 
REMARK    3  A    between atoms: C8_10  and  C9_11 
REMARK    4  A    between atoms: C9_11  and  C10_12 
REMARK    5  A    between atoms: C10_12  and  O2_13 
REMARK    6  A    between atoms: N1_15  and  O3_17 
ROOT
HETATM    1  C1  UNL     1      -2.232  -1.589   0.704  1.00  0.00     0.027 C 
HETATM    2  C2  UNL     1      -1.690  -1.126  -0.607  1.00  0.00     0.112 C 
HETATM    3  C3  UNL     1      -1.337   0.321  -0.671  1.00  0.00     0.038 C 
HETATM    4  C7  UNL     1      -0.061   0.673   0.069  1.00  0.00     0.015 C 
HETATM    5  C8  UNL     1       1.109   0.078  -0.649  1.00  0.00     0.016 C 
HETATM    6  C11 UNL     1       1.217  -1.409  -0.399  1.00  0.00     0.061 C 
HETATM    7  C12 UNL     1       1.432  -1.782   1.027  1.00  0.00     0.032 C 
HETATM    8  C13 UNL     1       2.353  -1.938  -1.249  1.00  0.00     0.032 C 
HETATM    9  S1  UNL     1      -0.286  -2.120  -1.045  1.00  0.00     0.157 S 
HETATM   10  O4  UNL     1      -0.146  -2.187  -2.539  1.00  0.00    -0.227 OA
HETATM   11  O5  UNL     1      -0.418  -3.525  -0.541  1.00  0.00    -0.227 OA
ENDROOT
BRANCH   5  12
HETATM   12  C9  UNL     1       2.393   0.790  -0.522  1.00  0.00     0.092 C 
BRANCH  12  13
HETATM   13  C10 UNL     1       2.962   0.967   0.798  1.00  0.00     0.135 C 
HETATM   14  N1  UNL     1       4.103   0.484   1.091  1.00  0.00    -0.251 N 
ATOM     15  H1  UNL     1       4.620  -0.034   0.381  1.00  0.00     0.196 HD
BRANCH  13  16
HETATM   16  O2  UNL     1       2.293   1.661   1.778  1.00  0.00    -0.348 OA
ATOM     17  H2  UNL     1       2.666   1.777   2.644  1.00  0.00     0.219 HD
ENDBRANCH  13  16
BRANCH  14  18
HETATM   18  O3  UNL     1       4.654   0.642   2.335  1.00  0.00    -0.288 OA
ATOM     19  H3  UNL     1       5.505   0.282   2.554  1.00  0.00     0.244 HD
ENDBRANCH  14  18
ENDBRANCH  12  13
ENDBRANCH   5  12
BRANCH   3  20
HETATM   20  C4  UNL     1      -2.426   1.242  -0.232  1.00  0.00     0.055 C 
HETATM   21  C5  UNL     1      -1.949   2.675  -0.344  1.00  0.00     0.045 C 
HETATM   22  C6  UNL     1      -3.670   1.123  -1.082  1.00  0.00     0.045 C 
BRANCH  20  23
HETATM   23  O1  UNL     1      -2.737   1.042   1.127  1.00  0.00    -0.390 OA
ATOM     24  H1  UNL     1      -3.430   1.628   1.406  1.00  0.00     0.210 HD
ENDBRANCH  20  23
ENDBRANCH   3  20
TORSDOF 6
