REMARK  7 active torsions:
REMARK  status: ('A' for Active; 'I' for Inactive)
REMARK    1  A    between atoms: C2_2  and  C3_3 
REMARK    2  A    between atoms: C5_7  and  C6_8 
REMARK    3  A    between atoms: N2_10  and  N3_12 
REMARK    4  A    between atoms: N3_12  and  C8_14 
REMARK    5  A    between atoms: C8_14  and  N4_16 
REMARK    6  A    between atoms: N4_16  and  C9_18 
REMARK    7  A    between atoms: C9_18  and  N5_20 
ROOT
HETATM    1  C6  UNL     1      -0.288   0.779  -2.277  1.00  0.00     0.055 C 
HETATM    2  C7  UNL     1      -0.362   0.317  -3.682  1.00  0.00     0.072 C 
HETATM    3  N2  UNL     1       0.682   1.475  -1.854  1.00  0.00    -0.300 N 
ATOM      4  H2  UNL     1       1.410   1.701  -2.532  1.00  0.00     0.186 HD
ENDROOT
BRANCH   3   5
HETATM    5  N3  UNL     1       0.858   1.956  -0.584  1.00  0.00    -0.276 N 
ATOM      6  H3  UNL     1       0.245   2.679  -0.208  1.00  0.00     0.189 HD
BRANCH   5   7
HETATM    7  C8  UNL     1       1.951   1.404   0.220  1.00  0.00     0.192 C 
HETATM    8  S1  UNL     1       2.165   1.972   1.729  1.00  0.00    -0.039 SA
BRANCH   7   9
HETATM    9  N4  UNL     1       2.755   0.415  -0.352  1.00  0.00    -0.309 N 
ATOM     10  H4  UNL     1       2.485   0.173  -1.306  1.00  0.00     0.170 HD
BRANCH   9  11
HETATM   11  C9  UNL     1       3.851  -0.309   0.115  1.00  0.00     0.173 C 
HETATM   12  S2  UNL     1       4.568  -1.440  -0.897  1.00  0.00    -0.041 SA
BRANCH  11  13
HETATM   13  N5  UNL     1       4.429  -0.182   1.376  1.00  0.00    -0.371 N 
HETATM   14  C10 UNL     1       5.596  -1.040   1.700  1.00  0.00     0.148 C 
ATOM     15  H5  UNL     1       4.061   0.482   2.057  1.00  0.00     0.161 HD
ENDBRANCH  11  13
ENDBRANCH   9  11
ENDBRANCH   7   9
ENDBRANCH   5   7
ENDBRANCH   3   5
BRANCH   1  16
HETATM   16  C5  UNL     1      -1.404   0.391  -1.373  1.00  0.00     0.098 A 
HETATM   17  N1  UNL     1      -2.473  -0.322  -1.656  1.00  0.00    -0.358 N 
HETATM   18  C4  UNL     1      -3.358  -0.565  -0.722  1.00  0.00     0.103 A 
ATOM     19  H1  UNL     1      -2.612  -0.684  -2.599  1.00  0.00     0.166 HD
HETATM   20  C3  UNL     1      -3.102  -0.045   0.525  1.00  0.00    -0.000 A 
HETATM   21  S3  UNL     1      -1.621   0.754   0.280  1.00  0.00    -0.074 SA
BRANCH  20  22
HETATM   22  C2  UNL     1      -3.949  -0.174   1.767  1.00  0.00     0.043 C 
HETATM   23  C1  UNL     1      -5.185  -0.988   1.473  1.00  0.00     0.010 C 
ENDBRANCH  20  22
ENDBRANCH   1  16
TORSDOF 7
