REMARK  7 active torsions:
REMARK  status: ('A' for Active; 'I' for Inactive)
REMARK    1  A    between atoms: N1_1  and  C1_5 
REMARK    2  A    between atoms: C1_5  and  C2_6 
REMARK    3  A    between atoms: C2_6  and  C3_7 
REMARK       I    between atoms: C3_7  and  N2_9 
REMARK    4  A    between atoms: N2_9  and  C4_11 
REMARK    5  A    between atoms: C7_14  and  C8_15 
REMARK       I    between atoms: C8_15  and  N3_17 
REMARK    6  A    between atoms: C16_25  and  C17_26 
REMARK    7  A    between atoms: C17_26  and  O3_27 
ROOT
HETATM    1  C4  UNL     1      -1.900  -0.059   0.208  1.00  0.00     0.090 C 
HETATM    2  C5  UNL     1      -0.816   0.948   0.423  1.00  0.00     0.026 C 
HETATM    3  C6  UNL     1       0.336   0.294   1.188  1.00  0.00     0.016 C 
HETATM    4  C7  UNL     1       0.761  -0.859   0.314  1.00  0.00     0.078 C 
HETATM    5  C15 UNL     1      -0.272  -1.950   0.586  1.00  0.00     0.023 C 
HETATM    6  C16 UNL     1      -1.638  -1.411   0.753  1.00  0.00     0.033 C 
ENDROOT
BRANCH   1   7
HETATM    7  N2  UNL     1      -3.130   0.440   0.815  1.00  0.00    -0.356 N 
HETATM    8  C3  UNL     1      -4.281   0.747   0.044  1.00  0.00     0.219 C 
HETATM    9  O1  UNL     1      -4.253   0.587  -1.208  1.00  0.00    -0.274 OA
ATOM     10  H2  UNL     1      -3.163   0.572   1.826  1.00  0.00     0.162 HD
BRANCH   8  11
HETATM   11  C2  UNL     1      -5.508   1.246   0.662  1.00  0.00     0.130 C 
BRANCH  11  12
HETATM   12  C1  UNL     1      -6.616   1.515  -0.295  1.00  0.00     0.238 C 
BRANCH  12  13
HETATM   13  N1  UNL     1      -7.043   0.374  -1.041  1.00  0.00    -0.079 N 
ATOM     14  H13 UNL     1      -6.252  -0.051  -1.524  1.00  0.00     0.274 HD
ATOM     15  H12 UNL     1      -7.294  -0.388  -0.412  1.00  0.00     0.274 HD
ATOM     16  H11 UNL     1      -7.802   0.558  -1.697  1.00  0.00     0.274 HD
ENDBRANCH  12  13
ENDBRANCH  11  12
ENDBRANCH   8  11
ENDBRANCH   1   7
BRANCH   6  17
HETATM   17  C17 UNL     1      -2.593  -2.369   0.034  1.00  0.00     0.170 C 
BRANCH  17  18
HETATM   18  O3  UNL     1      -2.264  -2.257  -1.332  1.00  0.00    -0.400 OA
ATOM     19  H3  UNL     1      -2.856  -2.851  -1.778  1.00  0.00     0.209 HD
ENDBRANCH  17  18
ENDBRANCH   6  17
BRANCH   4  20
HETATM   20  C8  UNL     1       2.118  -1.324   0.469  1.00  0.00     0.224 C 
HETATM   21  O2  UNL     1       2.298  -2.455   1.030  1.00  0.00    -0.273 OA
HETATM   22  N3  UNL     1       3.275  -0.623   0.047  1.00  0.00    -0.352 N 
HETATM   23  C9  UNL     1       3.138   0.662  -0.606  1.00  0.00     0.125 C 
HETATM   24  C14 UNL     1       4.566  -1.275   0.298  1.00  0.00     0.125 C 
HETATM   25  C10 UNL     1       3.857   1.693   0.221  1.00  0.00     0.020 C 
HETATM   26  C11 UNL     1       5.180   1.965  -0.465  1.00  0.00     0.002 C 
HETATM   27  C12 UNL     1       5.840   0.628  -0.766  1.00  0.00     0.002 C 
HETATM   28  C13 UNL     1       5.712  -0.326   0.385  1.00  0.00     0.020 C 
ENDBRANCH   4  20
TORSDOF 7
