REMARK  9 active torsions:
REMARK  status: ('A' for Active; 'I' for Inactive)
REMARK    1  A    between atoms: O1_1  and  C1_3 
REMARK    2  A    between atoms: C1_3  and  C2_4 
REMARK    3  A    between atoms: C1_3  and  N2_10 
REMARK    4  A    between atoms: C2_4  and  N1_5 
REMARK    5  A    between atoms: N2_10  and  C7_11 
REMARK    6  A    between atoms: N2_10  and  C12_21 
REMARK    7  A    between atoms: C7_11  and  C8_12 
REMARK    8  A    between atoms: C8_12  and  O2_13 
REMARK    9  A    between atoms: C17_26  and  O3_27 
ROOT
HETATM    1  N2  UNL     1      -0.672   0.147  -0.914  1.00  0.00    -0.354 N 
ENDROOT
BRANCH   1   2
HETATM    2  C1  UNL     1       0.716   0.020  -1.068  1.00  0.00     0.142 C 
BRANCH   2   3
HETATM    3  O1  UNL     1       1.074  -0.969  -1.835  1.00  0.00    -0.348 OA
ATOM      4  H1  UNL     1       0.365  -1.486  -2.198  1.00  0.00     0.219 HD
ENDBRANCH   2   3
BRANCH   2   5
HETATM    5  C2  UNL     1       1.801   0.811  -0.513  1.00  0.00     0.355 C 
BRANCH   5   6
HETATM    6  N1  UNL     1       3.080   0.277  -1.033  1.00  0.00     0.096 N 
HETATM    7  C3  UNL     1       4.187   1.071  -0.543  1.00  0.00     0.273 C 
HETATM    8  C4  UNL     1       5.344   0.105  -0.430  1.00  0.00     0.032 C 
HETATM    9  C5  UNL     1       4.640  -1.124   0.100  1.00  0.00     0.032 C 
HETATM   10  C6  UNL     1       3.308  -1.071  -0.568  1.00  0.00     0.273 C 
ENDBRANCH   5   6
ENDBRANCH   2   5
ENDBRANCH   1   2
BRANCH   1  11
HETATM   11  C7  UNL     1      -1.492  -0.880  -1.573  1.00  0.00     0.164 C 
BRANCH  11  12
HETATM   12  C8  UNL     1      -1.817  -2.070  -0.805  1.00  0.00     0.099 C 
HETATM   13  C9  UNL     1      -0.732  -2.925  -0.274  1.00  0.00     0.068 C 
HETATM   14  C10 UNL     1      -1.519  -3.884   0.633  1.00  0.00     0.235 C 
HETATM   15  N3  UNL     1      -2.867  -3.341   0.727  1.00  0.00    -0.072 N 
HETATM   16  C11 UNL     1      -2.677  -1.905   0.423  1.00  0.00     0.271 C 
ATOM     17  H32 UNL     1      -3.555  -3.811   0.139  1.00  0.00     0.277 HD
ATOM     18  H31 UNL     1      -3.339  -3.528   1.612  1.00  0.00     0.277 HD
BRANCH  12  19
HETATM   19  O2  UNL     1      -2.600  -2.897  -1.655  1.00  0.00    -0.386 OA
ATOM     20  H2  UNL     1      -2.812  -3.675  -1.153  1.00  0.00     0.210 HD
ENDBRANCH  12  19
ENDBRANCH  11  12
ENDBRANCH   1  11
BRANCH   1  21
HETATM   21  C12 UNL     1      -1.283   1.207  -0.216  1.00  0.00     0.115 C 
HETATM   22  C13 UNL     1      -1.149   2.596  -0.791  1.00  0.00     0.028 C 
HETATM   23  C14 UNL     1      -2.304   3.417  -0.257  1.00  0.00     0.002 C 
HETATM   24  C15 UNL     1      -2.561   3.321   1.194  1.00  0.00     0.003 C 
HETATM   25  C16 UNL     1      -2.324   1.972   1.830  1.00  0.00     0.034 C 
HETATM   26  C17 UNL     1      -1.011   1.387   1.246  1.00  0.00     0.141 C 
BRANCH  26  27
HETATM   27  O3  UNL     1      -0.036   2.388   1.500  1.00  0.00    -0.394 OA
ATOM     28  H3  UNL     1       0.137   2.502   2.427  1.00  0.00     0.210 HD
ENDBRANCH  26  27
ENDBRANCH   1  21
TORSDOF 9
