REMARK  3 active torsions:
REMARK  status: ('A' for Active; 'I' for Inactive)
REMARK    1  A    between atoms: N1_1  and  N2_4 
REMARK       I    between atoms: N2_4  and  C1_5 
REMARK       I    between atoms: C1_5  and  N3_6 
REMARK       I    between atoms: C1_5  and  N4_10 
REMARK    2  A    between atoms: N4_10  and  N5_12 
REMARK    3  A    between atoms: C2_14  and  C3_15 
ROOT
HETATM    1  N2  UNL     1      -1.708   0.231  -1.211  1.00  0.00    -0.092 NA
HETATM    2  C1  UNL     1      -1.619   1.238  -0.183  1.00  0.00     0.410 C 
HETATM    3  N3  UNL     1      -2.879   1.384   0.516  1.00  0.00    -0.041 N 
ATOM      4  H31 UNL     1      -2.816   2.096   1.243  1.00  0.00     0.278 HD
ATOM      5  H32 UNL     1      -3.206   0.493   0.890  1.00  0.00     0.278 HD
ATOM      6  H33 UNL     1      -3.646   1.573  -0.129  1.00  0.00     0.278 HD
HETATM    7  N4  UNL     1      -0.524   1.034   0.732  1.00  0.00    -0.292 N 
ATOM      8  H4  UNL     1       0.186   1.762   0.809  1.00  0.00     0.184 HD
ENDROOT
BRANCH   7   9
HETATM    9  N5  UNL     1      -0.388  -0.111   1.517  1.00  0.00    -0.310 N 
HETATM   10  C2  UNL     1       0.585  -0.923   1.444  1.00  0.00     0.156 C 
ATOM     11  H5  UNL     1      -1.122  -0.310   2.197  1.00  0.00     0.185 HD
BRANCH  10  12
HETATM   12  C3  UNL     1       1.712  -0.795   0.534  1.00  0.00     0.138 A 
HETATM   13  N6  UNL     1       1.888   0.192  -0.355  1.00  0.00    -0.335 N 
HETATM   14  C4  UNL     1       3.027  -0.063  -0.978  1.00  0.00     0.199 A 
ATOM     15  H6  UNL     1       1.266   0.984  -0.519  1.00  0.00     0.168 HD
HETATM   16  N7  UNL     1       3.572  -1.193  -0.498  1.00  0.00    -0.295 N 
HETATM   17  N8  UNL     1       2.753  -1.637   0.434  1.00  0.00    -0.283 N 
ATOM     18  H7  UNL     1       4.448  -1.623  -0.796  1.00  0.00     0.187 HD
ATOM     19  H8  UNL     1       2.888  -2.482   0.989  1.00  0.00     0.188 HD
ENDBRANCH  10  12
ENDBRANCH   7   9
BRANCH   1  20
HETATM   20  N1  UNL     1      -2.037  -1.022  -0.753  1.00  0.00    -0.345 N 
ATOM     21  H12 UNL     1      -2.202  -1.208   0.236  1.00  0.00     0.172 HD
ATOM     22  H11 UNL     1      -2.100  -1.734  -1.480  1.00  0.00     0.172 HD
ENDBRANCH   1  20
TORSDOF 3
