REMARK  4 active torsions:
REMARK  status: ('A' for Active; 'I' for Inactive)
REMARK    1  A    between atoms: N1_1  and  C1_5 
REMARK    2  A    between atoms: C1_5  and  C2_6 
REMARK    3  A    between atoms: C2_6  and  N2_7 
REMARK    4  A    between atoms: N2_7  and  C3_9 
ROOT
HETATM    1  C3  UNL     1      -0.012  -0.407   0.598  1.00  0.00     0.118 A 
HETATM    2  C4  UNL     1       0.775  -0.812   1.657  1.00  0.00     0.137 A 
HETATM    3  N3  UNL     1       2.106  -1.011   1.464  1.00  0.00    -0.348 N 
ATOM      4  H3  UNL     1       2.694  -1.311   2.241  1.00  0.00     0.166 HD
HETATM    5  C5  UNL     1       2.648  -0.813   0.248  1.00  0.00     0.157 A 
HETATM    6  N4  UNL     1       4.028  -0.999  -0.034  1.00  0.00    -0.079 NA
HETATM    7  C6  UNL     1       1.840  -0.409  -0.792  1.00  0.00     0.159 A 
HETATM    8  N5  UNL     1       2.406  -0.199  -2.073  1.00  0.00    -0.079 NA
HETATM    9  N6  UNL     1       0.501  -0.201  -0.631  1.00  0.00    -0.327 N 
ATOM     10  H6  UNL     1      -0.087   0.098  -1.409  1.00  0.00     0.168 HD
ENDROOT
BRANCH   1  11
HETATM   11  N2  UNL     1      -1.275  -0.219   0.781  1.00  0.00    -0.374 N 
ATOM     12  H2  UNL     1      -1.665  -0.375   1.711  1.00  0.00     0.161 HD
BRANCH  11  13
HETATM   13  C2  UNL     1      -2.162   0.206  -0.284  1.00  0.00     0.148 C 
BRANCH  13  14
HETATM   14  C1  UNL     1      -3.449   0.675   0.408  1.00  0.00     0.249 C 
BRANCH  14  15
HETATM   15  N1  UNL     1      -3.057   1.764   1.284  1.00  0.00    -0.078 N 
ATOM     16  H13 UNL     1      -2.312   1.515   1.935  1.00  0.00     0.274 HD
ATOM     17  H12 UNL     1      -2.557   2.512   0.804  1.00  0.00     0.274 HD
ATOM     18  H11 UNL     1      -3.912   2.076   1.744  1.00  0.00     0.274 HD
ENDBRANCH  14  15
ENDBRANCH  13  14
ENDBRANCH  11  13
ENDBRANCH   1  11
TORSDOF 4
