REMARK  4 active torsions:
REMARK  status: ('A' for Active; 'I' for Inactive)
REMARK    1  A    between atoms: N1_4  and  N2_6 
REMARK    2  A    between atoms: N2_6  and  C4_8 
REMARK    3  A    between atoms: C7_19  and  C8_20 
REMARK    4  A    between atoms: C8_20  and  O2_23 
ROOT
HETATM    1  C4  UNL     1       0.292  -1.066   0.143  1.00  0.00     0.157 A 
HETATM    2  N3  UNL     1       0.714  -2.308  -0.152  1.00  0.00    -0.241 N 
ATOM      3  H3  UNL     1       1.615  -2.712   0.104  1.00  0.00     0.196 HD
HETATM    4  O1  UNL     1      -0.232  -2.907  -0.824  1.00  0.00    -0.217 OA
HETATM    5  C5  UNL     1      -1.267  -2.101  -0.983  1.00  0.00     0.188 A 
HETATM    6  N4  UNL     1      -2.437  -2.263  -1.585  1.00  0.00    -0.311 N 
ATOM      7  H4  UNL     1      -2.666  -3.147  -2.039  1.00  0.00     0.170 HD
HETATM    8  C6  UNL     1      -3.308  -1.257  -1.589  1.00  0.00     0.178 A 
HETATM    9  S1  UNL     1      -4.741  -1.511  -2.348  1.00  0.00    -0.040 SA
HETATM   10  N5  UNL     1      -3.017  -0.090  -0.995  1.00  0.00    -0.333 N 
ATOM     11  H5  UNL     1      -3.718   0.650  -1.025  1.00  0.00     0.168 HD
HETATM   12  C7  UNL     1      -1.846   0.166  -0.356  1.00  0.00     0.064 A 
HETATM   13  C11 UNL     1      -0.956  -0.891  -0.363  1.00  0.00     0.090 A 
ENDROOT
BRANCH   1  14
HETATM   14  N2  UNL     1       0.945  -0.198   0.791  1.00  0.00    -0.283 N 
ATOM     15  H2  UNL     1       0.503   0.709   0.944  1.00  0.00     0.188 HD
BRANCH  14  16
HETATM   16  N1  UNL     1       2.227  -0.390   1.313  1.00  0.00    -0.308 N 
HETATM   17  C2  UNL     1       3.239  -0.083   0.602  1.00  0.00    -0.004 C 
HETATM   18  C1  UNL     1       3.101   0.471  -0.759  1.00  0.00     0.064 C 
HETATM   19  C3  UNL     1       4.600  -0.286   1.155  1.00  0.00     0.064 C 
ATOM     20  H1  UNL     1       2.351  -0.771   2.251  1.00  0.00     0.186 HD
ENDBRANCH  14  16
ENDBRANCH   1  14
BRANCH  12  21
HETATM   21  C8  UNL     1      -1.573   1.470   0.272  1.00  0.00     0.094 C 
HETATM   22  C9  UNL     1      -1.635   1.460   1.757  1.00  0.00     0.052 C 
HETATM   23  C10 UNL     1      -2.719   2.404  -0.171  1.00  0.00     0.052 C 
BRANCH  21  24
HETATM   24  O2  UNL     1      -0.475   2.156  -0.243  1.00  0.00    -0.384 OA
ATOM     25  H2  UNL     1      -0.299   2.997   0.162  1.00  0.00     0.211 HD
ENDBRANCH  21  24
ENDBRANCH  12  21
TORSDOF 4
