REMARK  1 active torsions:
REMARK  status: ('A' for Active; 'I' for Inactive)
REMARK    1  A    between atoms: N1_5  and  N2_7 
ROOT
HETATM    1  C1  UNL     1      -3.230  -1.632  -0.313  1.00  0.00     0.011 C 
HETATM    2  C2  UNL     1      -2.030  -0.923   0.298  1.00  0.00    -0.009 C 
HETATM    3  C3  UNL     1      -0.830  -1.750   0.014  1.00  0.00     0.058 C 
HETATM    4  C4  UNL     1       0.452  -1.039   0.100  1.00  0.00     0.005 C 
HETATM    5  N1  UNL     1       1.540  -1.679  -0.039  1.00  0.00    -0.297 N 
ATOM      6  H1  UNL     1       1.485  -2.683  -0.209  1.00  0.00     0.187 HD
HETATM    7  C7  UNL     1       0.459   0.409   0.346  1.00  0.00     0.063 C 
HETATM    8  C8  UNL     1      -0.648   1.040  -0.465  1.00  0.00    -0.039 C 
HETATM    9  C9  UNL     1      -0.365   0.856  -1.931  1.00  0.00     0.015 C 
HETATM   10  C10 UNL     1      -0.623   2.520  -0.135  1.00  0.00     0.015 C 
HETATM   11  C11 UNL     1      -2.002   0.479  -0.145  1.00  0.00    -0.007 C 
HETATM   12  C12 UNL     1      -2.646   1.399   0.876  1.00  0.00     0.011 C 
ENDROOT
BRANCH   5  13
HETATM   13  N2  UNL     1       2.810  -1.095   0.026  1.00  0.00    -0.198 N 
HETATM   14  C5  UNL     1       3.421  -0.624   1.134  1.00  0.00     0.231 A 
HETATM   15  N3  UNL     1       2.905  -0.620   2.473  1.00  0.00    -0.060 NA
HETATM   16  N4  UNL     1       4.617  -0.154   0.735  1.00  0.00    -0.270 N 
HETATM   17  N5  UNL     1       4.740  -0.328  -0.563  1.00  0.00    -0.272 N 
ATOM     18  H4  UNL     1       5.318   0.270   1.343  1.00  0.00     0.189 HD
HETATM   19  C6  UNL     1       3.624  -0.912  -1.020  1.00  0.00     0.214 A 
ATOM     20  H5  UNL     1       5.548  -0.063  -1.126  1.00  0.00     0.189 HD
HETATM   21  S1  UNL     1       3.381  -1.301  -2.601  1.00  0.00    -0.037 SA
ENDBRANCH   5  13
TORSDOF 1
