REMARK  2 active torsions:
REMARK  status: ('A' for Active; 'I' for Inactive)
REMARK    1  A    between atoms: C2_2  and  C3_3 
REMARK    2  A    between atoms: C13_18  and  O2_19 
ROOT
HETATM    1  C3  UNL     1       2.295  -0.520   0.249  1.00  0.00     0.012 C 
HETATM    2  C4  UNL     1       1.233  -1.160   1.093  1.00  0.00     0.011 C 
HETATM    3  C5  UNL     1      -0.023  -0.994   0.716  1.00  0.00     0.059 C 
HETATM    4  O1  UNL     1      -1.015  -1.572   1.475  1.00  0.00    -0.301 OA
HETATM    5  C6  UNL     1      -2.263  -0.973   1.513  1.00  0.00     0.136 C 
HETATM    6  N1  UNL     1      -3.228  -1.530   2.157  1.00  0.00    -0.382 N 
ATOM      7  H11 UNL     1      -4.147  -1.089   2.185  1.00  0.00     0.158 HD
ATOM      8  H12 UNL     1      -3.099  -2.414   2.649  1.00  0.00     0.158 HD
HETATM    9  C7  UNL     1      -2.448   0.299   0.805  1.00  0.00     0.175 C 
HETATM   10  C8  UNL     1      -3.863   0.606   0.605  1.00  0.00     0.073 C 
HETATM   11  N2  UNL     1      -4.980   0.863   0.453  1.00  0.00    -0.196 NA
HETATM   12  C9  UNL     1      -1.819   0.103  -0.582  1.00  0.00    -0.012 C 
HETATM   13  C10 UNL     1      -2.601  -1.058  -1.212  1.00  0.00     0.017 C 
HETATM   14  C11 UNL     1      -2.140   1.339  -1.370  1.00  0.00     0.017 C 
HETATM   15  C12 UNL     1      -0.366  -0.208  -0.489  1.00  0.00     0.081 C 
HETATM   16  C13 UNL     1       0.514   1.003  -0.681  1.00  0.00     0.130 C 
HETATM   17  C14 UNL     1       1.865   0.880  -0.024  1.00  0.00     0.041 C 
ENDROOT
BRANCH  16  18
HETATM   18  O2  UNL     1       0.754   1.195  -2.062  1.00  0.00    -0.395 OA
ATOM     19  H2  UNL     1       1.308   1.957  -2.183  1.00  0.00     0.210 HD
ENDBRANCH  16  18
BRANCH   1  20
HETATM   20  C2  UNL     1       3.555  -0.476   1.077  1.00  0.00     0.004 C 
HETATM   21  C1  UNL     1       4.706   0.148   0.341  1.00  0.00     0.006 C 
ENDBRANCH   1  20
TORSDOF 2
