REMARK  2 active torsions:
REMARK  status: ('A' for Active; 'I' for Inactive)
REMARK    1  A    between atoms: C3_4  and  N1_5 
REMARK    2  A    between atoms: C9_15  and  N3_16 
ROOT
HETATM    1  C1  UNL     1       4.232   1.345  -1.625  1.00  0.00     0.057 C 
HETATM    2  C2  UNL     1       3.246   0.484  -0.869  1.00  0.00    -0.012 A 
HETATM    3  S1  UNL     1       1.583   0.271  -1.160  1.00  0.00    -0.075 SA
HETATM    4  C3  UNL     1       1.222  -0.820   0.098  1.00  0.00     0.096 A 
HETATM    5  C10 UNL     1       2.431  -0.992   0.724  1.00  0.00     0.085 A 
HETATM    6  C11 UNL     1       2.539  -1.889   1.894  1.00  0.00     0.103 C 
HETATM    7  N4  UNL     1       2.614  -2.598   2.821  1.00  0.00    -0.191 NA
HETATM    8  C12 UNL     1       3.482  -0.310   0.215  1.00  0.00    -0.026 A 
HETATM    9  C13 UNL     1       4.893  -0.385   0.787  1.00  0.00     0.051 C 
ENDROOT
BRANCH   4  10
HETATM   10  N1  UNL     1      -0.045  -1.432   0.449  1.00  0.00    -0.353 N 
HETATM   11  C4  UNL     1      -1.143  -0.796   0.375  1.00  0.00     0.047 C 
HETATM   12  C5  UNL     1      -1.404   0.605  -0.047  1.00  0.00     0.094 C 
HETATM   13  C9  UNL     1      -2.452  -1.401   0.728  1.00  0.00     0.426 C 
HETATM   14  C6  UNL     1      -2.892   0.791   0.086  1.00  0.00     0.126 C 
HETATM   15  C7  UNL     1      -3.564   0.804  -1.259  1.00  0.00     0.046 C 
HETATM   16  C8  UNL     1      -3.130   2.082   0.851  1.00  0.00     0.046 C 
HETATM   17  N2  UNL     1      -3.389  -0.304   0.867  1.00  0.00    -0.033 N 
ATOM     18  H22 UNL     1      -3.563  -0.051   1.840  1.00  0.00     0.281 HD
ATOM     19  H21 UNL     1      -4.345  -0.564   0.623  1.00  0.00     0.281 HD
ATOM     20  H1  UNL     1      -0.055  -2.402   0.765  1.00  0.00     0.166 HD
BRANCH  13  21
HETATM   21  N3  UNL     1      -2.891  -2.393  -0.206  1.00  0.00    -0.045 N 
ATOM     22  H33 UNL     1      -2.911  -2.014  -1.153  1.00  0.00     0.277 HD
ATOM     23  H32 UNL     1      -2.180  -3.115  -0.328  1.00  0.00     0.277 HD
ATOM     24  H31 UNL     1      -3.790  -2.809   0.037  1.00  0.00     0.277 HD
ENDBRANCH  13  21
ENDBRANCH   4  10
TORSDOF 2
