REMARK  1 active torsions:
REMARK  status: ('A' for Active; 'I' for Inactive)
REMARK    1  A    between atoms: N1_2  and  N2_4 
ROOT
HETATM    1  N2  UNL     1      -3.623   0.303   0.430  1.00  0.00    -0.304 N 
ATOM      2  H2  UNL     1      -4.133   0.846   1.127  1.00  0.00     0.186 HD
HETATM    3  C2  UNL     1      -2.340   0.199   0.495  1.00  0.00     0.093 C 
HETATM    4  C3  UNL     1      -1.667  -0.598  -0.544  1.00  0.00     0.064 C 
HETATM    5  C4  UNL     1      -1.506  -2.031  -0.121  1.00  0.00     0.006 C 
HETATM    6  C5  UNL     1      -0.197  -2.298   0.577  1.00  0.00     0.000 C 
HETATM    7  C6  UNL     1       1.003  -2.137  -0.305  1.00  0.00     0.000 C 
HETATM    8  C7  UNL     1       2.174  -1.671   0.553  1.00  0.00     0.000 C 
HETATM    9  C8  UNL     1       3.378  -1.306  -0.229  1.00  0.00     0.000 C 
HETATM   10  C9  UNL     1       3.531   0.137  -0.563  1.00  0.00     0.000 C 
HETATM   11  C10 UNL     1       2.267   0.885  -0.755  1.00  0.00     0.000 C 
HETATM   12  C11 UNL     1       2.362   2.360  -0.583  1.00  0.00     0.002 C 
HETATM   13  C12 UNL     1       1.551   2.799   0.635  1.00  0.00     0.020 C 
HETATM   14  C13 UNL     1       0.096   2.425   0.472  1.00  0.00     0.123 C 
HETATM   15  N3  UNL     1      -0.333   1.461   1.476  1.00  0.00    -0.356 N 
ATOM     16  H3  UNL     1       0.358   1.197   2.178  1.00  0.00     0.162 HD
HETATM   17  C14 UNL     1      -1.582   0.863   1.581  1.00  0.00     0.265 C 
HETATM   18  O1  UNL     1      -2.170   0.859   2.697  1.00  0.00    -0.266 OA
ENDROOT
BRANCH   1  19
HETATM   19  N1  UNL     1      -4.301  -0.333  -0.600  1.00  0.00    -0.341 N 
HETATM   20  C1  UNL     1      -5.280   0.307  -1.457  1.00  0.00     0.167 C 
ATOM     21  H1  UNL     1      -4.097  -1.318  -0.766  1.00  0.00     0.179 HD
ENDBRANCH   1  19
TORSDOF 1
