REMARK  3 active torsions:
REMARK  status: ('A' for Active; 'I' for Inactive)
REMARK    1  A    between atoms: N1_2  and  C3_4 
REMARK    2  A    between atoms: C3_4  and  O1_5 
REMARK    3  A    between atoms: C3_4  and  C4_7 
ROOT
HETATM    1  C4  UNL     1       1.389   0.313  -0.364  1.00  0.00     0.173 C 
HETATM    2  C5  UNL     1       0.664   1.519   0.350  1.00  0.00     0.035 C 
HETATM    3  C6  UNL     1      -0.443   2.124  -0.405  1.00  0.00     0.002 C 
HETATM    4  C7  UNL     1      -1.555   2.597   0.541  1.00  0.00     0.000 C 
HETATM    5  C8  UNL     1      -2.856   2.531  -0.156  1.00  0.00     0.000 C 
HETATM    6  C9  UNL     1      -3.487   1.188  -0.230  1.00  0.00     0.000 C 
HETATM    7  C10 UNL     1      -3.097   0.200   0.799  1.00  0.00     0.000 C 
HETATM    8  C11 UNL     1      -3.386  -1.227   0.318  1.00  0.00     0.000 C 
HETATM    9  C12 UNL     1      -2.148  -2.093   0.393  1.00  0.00     0.005 C 
HETATM   10  C13 UNL     1      -1.432  -1.849  -0.927  1.00  0.00     0.046 C 
HETATM   11  C14 UNL     1      -0.073  -2.457  -0.957  1.00  0.00     0.079 C 
HETATM   12  N2  UNL     1       0.892  -2.004  -0.057  1.00  0.00    -0.319 N 
ATOM     13  H2  UNL     1       1.640  -2.642   0.214  1.00  0.00     0.185 HD
HETATM   14  N3  UNL     1       0.883  -0.769   0.469  1.00  0.00    -0.325 N 
ATOM     15  H3  UNL     1       0.536  -0.596   1.412  1.00  0.00     0.181 HD
ENDROOT
BRANCH   1  16
HETATM   16  C3  UNL     1       2.816   0.626  -0.149  1.00  0.00     0.137 C 
BRANCH  16  17
HETATM   17  N1  UNL     1       3.945  -0.165  -0.142  1.00  0.00    -0.372 N 
HETATM   18  C1  UNL     1       4.039  -1.539  -0.451  1.00  0.00     0.150 C 
HETATM   19  C2  UNL     1       5.175   0.487   0.350  1.00  0.00     0.150 C 
ENDBRANCH  16  17
BRANCH  16  20
HETATM   20  O1  UNL     1       3.040   1.915   0.091  1.00  0.00    -0.348 OA
ATOM     21  H1  UNL     1       2.262   2.460   0.086  1.00  0.00     0.219 HD
ENDBRANCH  16  20
ENDBRANCH   1  16
TORSDOF 3
