REMARK  2 active torsions:
REMARK  status: ('A' for Active; 'I' for Inactive)
REMARK    1  A    between atoms: N2_7  and  O1_9 
REMARK    2  A    between atoms: C5_14  and  C6_15 
ROOT
HETATM    1  N1  UNL     1       0.843   1.925  -0.566  1.00  0.00    -0.400 N 
ATOM      2  H11 UNL     1       0.014   2.086  -1.139  1.00  0.00     0.156 HD
ATOM      3  H12 UNL     1       1.347   2.762  -0.274  1.00  0.00     0.156 HD
HETATM    4  C1  UNL     1       1.222   0.757  -0.221  1.00  0.00     0.037 C 
HETATM    5  C2  UNL     1       2.437   0.521   0.619  1.00  0.00     0.115 C 
HETATM    6  C3  UNL     1       3.132  -0.648   0.027  1.00  0.00     0.033 C 
HETATM    7  N2  UNL     1       4.387  -0.634  -0.230  1.00  0.00    -0.275 N 
ATOM      8  H2  UNL     1       4.817  -1.464  -0.638  1.00  0.00     0.193 HD
HETATM    9  C4  UNL     1       2.332  -1.863  -0.271  1.00  0.00     0.174 C 
HETATM   10  N3  UNL     1       0.916  -1.641   0.065  1.00  0.00    -0.381 N 
ATOM     11  H3  UNL     1       0.344  -2.214   0.685  1.00  0.00     0.160 HD
HETATM   12  C5  UNL     1       0.489  -0.461  -0.646  1.00  0.00     0.079 C 
ENDROOT
BRANCH  12  13
HETATM   13  C6  UNL     1      -0.938  -0.364  -0.877  1.00  0.00     0.077 A 
HETATM   14  N4  UNL     1      -1.468  -0.699  -2.110  1.00  0.00    -0.330 N 
HETATM   15  C7  UNL     1      -2.740  -0.576  -2.437  1.00  0.00     0.177 A 
ATOM     16  H4  UNL     1      -0.830  -1.067  -2.816  1.00  0.00     0.168 HD
HETATM   17  S1  UNL     1      -3.156  -1.035  -3.962  1.00  0.00    -0.040 SA
HETATM   18  N5  UNL     1      -3.645  -0.104  -1.572  1.00  0.00    -0.318 N 
HETATM   19  C8  UNL     1      -3.230   0.247  -0.348  1.00  0.00     0.119 A 
ATOM     20  H5  UNL     1      -4.626  -0.014  -1.838  1.00  0.00     0.170 HD
HETATM   21  N6  UNL     1      -4.089   0.711   0.588  1.00  0.00    -0.351 N 
HETATM   22  C12 UNL     1      -1.889   0.117  -0.002  1.00  0.00     0.037 A 
HETATM   23  C9  UNL     1      -3.702   1.047   1.831  1.00  0.00     0.090 A 
ATOM     24  H6  UNL     1      -5.073   0.810   0.340  1.00  0.00     0.166 HD
HETATM   25  C10 UNL     1      -2.384   0.935   2.229  1.00  0.00     0.018 A 
HETATM   26  C11 UNL     1      -1.498   0.455   1.258  1.00  0.00     0.019 A 
ENDBRANCH  12  13
BRANCH   7  27
HETATM   27  O1  UNL     1       5.171   0.465   0.027  1.00  0.00    -0.290 OA
ATOM     28  H1  UNL     1       6.102   0.475  -0.164  1.00  0.00     0.244 HD
ENDBRANCH   7  27
TORSDOF 2
