REMARK  2 active torsions:
REMARK  status: ('A' for Active; 'I' for Inactive)
REMARK    1  A    between atoms: N1_4  and  N2_6 
REMARK    2  A    between atoms: C4_7  and  N3_8 
ROOT
HETATM    1  N2  UNL     1      -1.128  -0.861  -0.047  1.00  0.00    -0.075 N 
HETATM    2  C4  UNL     1      -1.168  -1.336  -1.297  1.00  0.00     0.699 A 
HETATM    3  N4  UNL     1      -0.035  -1.340  -2.020  1.00  0.00    -0.183 N 
ATOM      4  H4  UNL     1      -0.047  -1.699  -2.974  1.00  0.00     0.185 HD
HETATM    5  C5  UNL     1       1.136  -0.866  -1.488  1.00  0.00     0.106 A 
HETATM    6  S1  UNL     1       2.730  -0.711  -2.078  1.00  0.00    -0.053 SA
HETATM    7  C6  UNL     1       3.475  -0.023  -0.706  1.00  0.00     0.079 A 
HETATM    8  C7  UNL     1       2.455   0.068   0.183  1.00  0.00    -0.007 A 
HETATM    9  C8  UNL     1       1.225  -0.371  -0.217  1.00  0.00     0.048 A 
HETATM   10  C9  UNL     1       0.001  -0.393   0.495  1.00  0.00     0.154 A 
HETATM   11  S2  UNL     1      -0.066   0.168   2.041  1.00  0.00    -0.057 SA
HETATM   12  C10 UNL     1       3.059   0.681   1.449  1.00  0.00     0.062 C 
HETATM   13  C11 UNL     1       4.360   1.271   1.001  1.00  0.00     0.125 C 
HETATM   14  N5  UNL     1       4.721   0.479  -0.153  1.00  0.00    -0.384 N 
ATOM     15  H5  UNL     1       5.662   0.307  -0.508  1.00  0.00     0.160 HD
ENDROOT
BRANCH   1  16
HETATM   16  N1  UNL     1      -2.343  -0.884   0.659  1.00  0.00    -0.287 N 
HETATM   17  C2  UNL     1      -3.260  -0.020   0.511  1.00  0.00    -0.003 C 
HETATM   18  C1  UNL     1      -3.065   1.087  -0.456  1.00  0.00     0.064 C 
HETATM   19  C3  UNL     1      -4.521  -0.095   1.283  1.00  0.00     0.064 C 
ATOM     20  H1  UNL     1      -2.496  -1.638   1.328  1.00  0.00     0.187 HD
ENDBRANCH   1  16
BRANCH   2  21
HETATM   21  N3  UNL     1      -2.249  -1.793  -1.840  1.00  0.00    -0.233 N 
ATOM     22  H32 UNL     1      -3.109  -1.790  -1.291  1.00  0.00     0.174 HD
ATOM     23  H31 UNL     1      -2.279  -2.155  -2.793  1.00  0.00     0.174 HD
ENDBRANCH   2  21
TORSDOF 2
