REMARK  2 active torsions:
REMARK  status: ('A' for Active; 'I' for Inactive)
REMARK    1  A    between atoms: C2_2  and  C5_5 
REMARK    2  A    between atoms: C8_12  and  C9_13 
ROOT
HETATM    1  C5  UNL     1      -2.073  -0.156  -0.022  1.00  0.00     0.091 A 
HETATM    2  N1  UNL     1      -1.537  -1.131  -0.742  1.00  0.00    -0.330 N 
ATOM      3  H1  UNL     1      -2.078  -1.846  -1.229  1.00  0.00     0.168 HD
HETATM    4  C6  UNL     1      -0.185  -1.064  -0.754  1.00  0.00     0.133 A 
HETATM    5  N2  UNL     1       0.801  -1.803  -1.327  1.00  0.00    -0.349 N 
ATOM      6  H2  UNL     1       0.539  -2.612  -1.890  1.00  0.00     0.166 HD
HETATM    7  C7  UNL     1       2.109  -1.514  -1.184  1.00  0.00     0.104 A 
HETATM    8  C8  UNL     1       2.427  -0.432  -0.431  1.00  0.00     0.017 A 
HETATM    9  C11 UNL     1       1.469   0.348   0.171  1.00  0.00     0.049 A 
HETATM   10  C12 UNL     1       0.131   0.024   0.008  1.00  0.00     0.079 A 
HETATM   11  N6  UNL     1      -1.013   0.565   0.446  1.00  0.00    -0.342 N 
ATOM     12  H6  UNL     1      -1.082   1.391   1.040  1.00  0.00     0.167 HD
ENDROOT
BRANCH   8  13
HETATM   13  C9  UNL     1       3.864  -0.107  -0.273  1.00  0.00     0.103 A 
HETATM   14  N3  UNL     1       4.918  -0.781  -0.714  1.00  0.00    -0.291 N 
HETATM   15  N4  UNL     1       6.086  -0.344  -0.472  1.00  0.00    -0.279 N 
ATOM     16  H3  UNL     1       4.792  -1.644  -1.243  1.00  0.00     0.187 HD
HETATM   17  C10 UNL     1       6.247   0.787   0.222  1.00  0.00     0.159 A 
ATOM     18  H4  UNL     1       6.902  -0.857  -0.808  1.00  0.00     0.189 HD
HETATM   19  N5  UNL     1       7.352   1.395   0.556  1.00  0.00    -0.379 N 
HETATM   20  S1  UNL     1       4.606   1.209   0.527  1.00  0.00    -0.033 SA
ATOM     21  H52 UNL     1       8.324   1.145   0.375  1.00  0.00     0.158 HD
ATOM     22  H51 UNL     1       7.475   2.258   1.086  1.00  0.00     0.158 HD
ENDBRANCH   8  13
BRANCH   1  23
HETATM   23  C2  UNL     1      -3.544   0.057   0.208  1.00  0.00     0.007 C 
HETATM   24  C1  UNL     1      -3.749   1.014   1.375  1.00  0.00     0.022 C 
HETATM   25  C3  UNL     1      -4.143   0.551  -1.067  1.00  0.00     0.022 C 
HETATM   26  C4  UNL     1      -4.184  -1.272   0.562  1.00  0.00     0.022 C 
ENDBRANCH   1  23
TORSDOF 2
