REMARK  4 active torsions:
REMARK  status: ('A' for Active; 'I' for Inactive)
REMARK    1  A    between atoms: O1_1  and  C1_3 
REMARK    2  A    between atoms: C1_3  and  C2_4 
REMARK    3  A    between atoms: C9_13  and  C10_14 
REMARK    4  A    between atoms: N3_21  and  O2_22 
ROOT
HETATM    1  C2  UNL     1      -1.373   0.695   1.121  1.00  0.00     0.062 C 
HETATM    2  C3  UNL     1      -2.592   1.123   0.314  1.00  0.00     0.011 C 
HETATM    3  C4  UNL     1      -3.146   0.085  -0.585  1.00  0.00     0.001 C 
HETATM    4  C5  UNL     1      -2.451  -0.122  -1.882  1.00  0.00     0.000 C 
HETATM    5  C6  UNL     1      -1.104  -0.736  -1.835  1.00  0.00     0.004 C 
HETATM    6  C7  UNL     1      -0.555  -1.038  -0.485  1.00  0.00     0.058 C 
HETATM    7  C8  UNL     1      -0.261   0.248   0.261  1.00  0.00     0.155 C 
HETATM    8  N1  UNL     1       0.973   0.052   0.981  1.00  0.00    -0.344 N 
ATOM      9  H1  UNL     1       1.073  -0.147   1.976  1.00  0.00     0.163 HD
HETATM   10  C9  UNL     1       2.020   0.190   0.035  1.00  0.00     0.130 C 
HETATM   11  N2  UNL     1       1.555   0.908  -0.921  1.00  0.00    -0.261 N 
ATOM     12  H2  UNL     1       2.082   1.178  -1.752  1.00  0.00     0.191 HD
HETATM   13  N3  UNL     1       0.203   1.278  -0.665  1.00  0.00    -0.169 N 
ENDROOT
BRANCH   1  14
HETATM   14  C1  UNL     1      -1.838  -0.305   2.163  1.00  0.00     0.173 C 
BRANCH  14  15
HETATM   15  O1  UNL     1      -0.848  -0.787   2.985  1.00  0.00    -0.400 OA
ATOM     16  H1  UNL     1      -1.139  -1.413   3.637  1.00  0.00     0.209 HD
ENDBRANCH  14  15
ENDBRANCH   1  14
BRANCH  13  17
HETATM   17  O2  UNL     1      -0.379   2.338  -1.203  1.00  0.00    -0.270 OA
ATOM     18  H2  UNL     1      -0.077   3.008  -1.805  1.00  0.00     0.246 HD
ENDBRANCH  13  17
BRANCH  10  19
HETATM   19  C10 UNL     1       3.409  -0.367   0.105  1.00  0.00     0.016 A 
HETATM   20  C11 UNL     1       4.468   0.266  -0.455  1.00  0.00     0.023 A 
HETATM   21  C12 UNL     1       5.690  -0.334  -0.326  1.00  0.00     0.050 A 
HETATM   22  S1  UNL     1       5.346  -1.746   0.557  1.00  0.00    -0.113 SA
HETATM   23  C13 UNL     1       3.668  -1.549   0.745  1.00  0.00     0.064 A 
ENDBRANCH  10  19
TORSDOF 4
