REMARK  6 active torsions:
REMARK  status: ('A' for Active; 'I' for Inactive)
REMARK    1  A    between atoms: O1_2  and  C2_3 
REMARK    2  A    between atoms: C3_4  and  O2_5 
REMARK    3  A    between atoms: N1_16  and  O3_18 
REMARK    4  A    between atoms: C13_20  and  C14_21 
REMARK    5  A    between atoms: C14_21  and  O4_22 
REMARK    6  A    between atoms: N2_24  and  O5_26 
ROOT
HETATM    1  C2  UNL     1      -1.642  -0.478  -0.363  1.00  0.00     0.183 C 
HETATM    2  C3  UNL     1      -0.520  -0.900  -1.257  1.00  0.00     0.181 C 
HETATM    3  C4  UNL     1       0.725  -0.139  -0.976  1.00  0.00    -0.035 C 
HETATM    4  C5  UNL     1       0.745   1.198  -0.857  1.00  0.00    -0.019 C 
HETATM    5  C6  UNL     1      -0.434   2.136  -0.968  1.00  0.00     0.036 C 
HETATM    6  C7  UNL     1      -1.286   1.924   0.291  1.00  0.00     0.016 C 
HETATM    7  C8  UNL     1      -2.670   2.414  -0.070  1.00  0.00     0.015 C 
HETATM    8  C9  UNL     1      -1.265   0.490   0.735  1.00  0.00    -0.048 C 
HETATM    9  C10 UNL     1      -0.215   0.031   1.646  1.00  0.00    -0.015 C 
HETATM   10  C11 UNL     1       1.117   0.647   1.716  1.00  0.00     0.083 C 
HETATM   11  C12 UNL     1       2.162   0.025   0.859  1.00  0.00     0.029 C 
HETATM   12  N1  UNL     1       3.267  -0.294   1.439  1.00  0.00    -0.276 N 
ATOM     13  H1  UNL     1       4.006  -0.723   0.882  1.00  0.00     0.193 HD
HETATM   14  C13 UNL     1       2.150  -0.307  -0.619  1.00  0.00     0.141 C 
ENDROOT
BRANCH  14  15
HETATM   15  C14 UNL     1       2.752  -1.588  -0.908  1.00  0.00     0.149 C 
HETATM   16  N2  UNL     1       3.755  -1.666  -1.726  1.00  0.00    -0.250 N 
ATOM     17  H2  UNL     1       4.176  -2.573  -1.927  1.00  0.00     0.196 HD
BRANCH  15  18
HETATM   18  O4  UNL     1       2.352  -2.808  -0.377  1.00  0.00    -0.347 OA
ATOM     19  H4  UNL     1       2.748  -3.650  -0.567  1.00  0.00     0.219 HD
ENDBRANCH  15  18
BRANCH  16  20
HETATM   20  O5  UNL     1       4.247  -0.552  -2.315  1.00  0.00    -0.288 OA
ATOM     21  H5  UNL     1       4.982  -0.609  -2.914  1.00  0.00     0.244 HD
ENDBRANCH  16  20
ENDBRANCH  14  15
BRANCH   2  22
HETATM   22  O2  UNL     1      -0.328  -2.272  -1.283  1.00  0.00    -0.388 OA
ATOM     23  H2  UNL     1       0.385  -2.540  -1.851  1.00  0.00     0.210 HD
ENDBRANCH   2  22
BRANCH  12  24
HETATM   24  O3  UNL     1       3.488  -0.084   2.754  1.00  0.00    -0.290 OA
ATOM     25  H3  UNL     1       4.303  -0.319   3.182  1.00  0.00     0.244 HD
ENDBRANCH  12  24
BRANCH   1  26
HETATM   26  O1  UNL     1      -2.129  -1.621   0.256  1.00  0.00    -0.383 OA
HETATM   27  C1  UNL     1      -3.474  -1.831  -0.000  1.00  0.00     0.202 C 
ENDBRANCH   1  26
TORSDOF 6
