REMARK  3 active torsions:
REMARK  status: ('A' for Active; 'I' for Inactive)
REMARK    1  A    between atoms: C2_2  and  S1_3 
REMARK    2  A    between atoms: S1_3  and  C3_4 
REMARK    3  A    between atoms: N2_9  and  C6_10 
ROOT
HETATM    1  C6  UNL     1      -0.697  -0.399   0.403  1.00  0.00     0.360 C 
HETATM    2  C7  UNL     1      -0.675  -0.955   1.798  1.00  0.00     0.268 C 
HETATM    3  O1  UNL     1       0.548  -0.564   2.368  1.00  0.00    -0.234 OA
HETATM    4  O2  UNL     1       1.084   0.455   1.728  1.00  0.00    -0.197 OA
HETATM    5  C8  UNL     1       1.569   0.073   0.456  1.00  0.00     0.294 C 
HETATM    6  C9  UNL     1       1.667   1.351  -0.347  1.00  0.00     0.075 C 
HETATM    7  C10 UNL     1       2.740   2.211   0.290  1.00  0.00     0.005 C 
HETATM    8  C11 UNL     1       4.118   1.916  -0.176  1.00  0.00     0.000 C 
HETATM    9  C12 UNL     1       4.241   0.802  -1.158  1.00  0.00     0.000 C 
HETATM   10  C13 UNL     1       3.671  -0.500  -0.729  1.00  0.00     0.005 C 
HETATM   11  C14 UNL     1       2.949  -0.458   0.598  1.00  0.00     0.075 C 
HETATM   12  N3  UNL     1       0.604  -0.775  -0.174  1.00  0.00     0.148 N 
HETATM   13  C15 UNL     1       0.850  -2.175  -0.064  1.00  0.00     0.317 C 
ENDROOT
BRANCH   1  14
HETATM   14  N2  UNL     1      -1.807  -0.798  -0.408  1.00  0.00    -0.303 N 
HETATM   15  C3  UNL     1      -3.082  -0.538  -0.109  1.00  0.00     0.148 A 
HETATM   16  N1  UNL     1      -3.827  -1.057  -1.099  1.00  0.00    -0.345 N 
HETATM   17  C4  UNL     1      -3.036  -1.637  -2.010  1.00  0.00     0.107 A 
ATOM     18  H1  UNL     1      -4.845  -1.015  -1.149  1.00  0.00     0.167 HD
HETATM   19  C5  UNL     1      -1.751  -1.473  -1.573  1.00  0.00     0.112 A 
BRANCH  15  20
HETATM   20  S1  UNL     1      -3.744   0.348   1.328  1.00  0.00    -0.094 SA
BRANCH  20  21
HETATM   21  C2  UNL     1      -5.549   0.416   1.206  1.00  0.00     0.078 C 
HETATM   22  C1  UNL     1      -5.927   1.276   0.018  1.00  0.00     0.016 C 
ENDBRANCH  20  21
ENDBRANCH  15  20
ENDBRANCH   1  14
TORSDOF 3
