REMARK  4 active torsions:
REMARK  status: ('A' for Active; 'I' for Inactive)
REMARK    1  A    between atoms: C2_2  and  O1_3 
REMARK    2  A    between atoms: O1_3  and  C3_4 
REMARK    3  A    between atoms: C3_4  and  C4_6 
REMARK    4  A    between atoms: C12_18  and  C13_19 
ROOT
HETATM    1  C4  UNL     1       0.933  -0.396  -0.202  1.00  0.00     0.053 A 
HETATM    2  C5  UNL     1       0.959  -1.627  -0.671  1.00  0.00     0.020 A 
HETATM    3  C6  UNL     1       2.231  -2.322  -0.977  1.00  0.00     0.069 C 
HETATM    4  N1  UNL     1      -0.294  -2.318  -0.916  1.00  0.00    -0.341 N 
ATOM      5  H1  UNL     1      -0.270  -3.272  -1.276  1.00  0.00     0.167 HD
HETATM    6  C7  UNL     1      -1.425  -1.768  -0.695  1.00  0.00     0.152 A 
HETATM    7  O3  UNL     1      -2.753  -2.155  -0.820  1.00  0.00    -0.300 OA
HETATM    8  C8  UNL     1      -3.463  -1.441   0.214  1.00  0.00     0.165 C 
HETATM    9  C9  UNL     1      -4.543  -0.582  -0.372  1.00  0.00     0.079 C 
HETATM   10  C10 UNL     1      -4.001  -2.481   1.146  1.00  0.00     0.079 C 
HETATM   11  O4  UNL     1      -2.488  -0.623   0.840  1.00  0.00    -0.341 OA
HETATM   12  C11 UNL     1      -1.578  -0.382  -0.184  1.00  0.00     0.214 A 
HETATM   13  C12 UNL     1      -0.348   0.328   0.145  1.00  0.00     0.121 A 
ENDROOT
BRANCH   1  14
HETATM   14  C3  UNL     1       2.213   0.285   0.012  1.00  0.00     0.292 C 
HETATM   15  O2  UNL     1       2.213   1.483   0.470  1.00  0.00    -0.260 OA
BRANCH  14  16
HETATM   16  O1  UNL     1       3.455  -0.231  -0.230  1.00  0.00    -0.318 OA
BRANCH  16  17
HETATM   17  C2  UNL     1       4.665   0.477  -0.004  1.00  0.00     0.174 C 
HETATM   18  C1  UNL     1       4.842   0.886   1.426  1.00  0.00     0.034 C 
ENDBRANCH  16  17
ENDBRANCH  14  16
ENDBRANCH   1  14
BRANCH  13  19
HETATM   19  C13 UNL     1      -0.389   1.663  -0.523  1.00  0.00     0.064 A 
HETATM   20  C14 UNL     1      -0.506   2.868   0.132  1.00  0.00     0.035 A 
HETATM   21  C15 UNL     1      -0.508   3.869  -0.818  1.00  0.00     0.027 A 
HETATM   22  C16 UNL     1      -0.391   3.216  -2.024  1.00  0.00     0.142 A 
HETATM   23  O5  UNL     1      -0.324   1.905  -1.794  1.00  0.00    -0.326 OA
ENDBRANCH  13  19
TORSDOF 4
