REMARK  4 active torsions:
REMARK  status: ('A' for Active; 'I' for Inactive)
REMARK    1  A    between atoms: C5_5  and  S1_6 
REMARK    2  A    between atoms: S1_6  and  C6_7 
REMARK    3  A    between atoms: N1_14  and  N2_15 
REMARK    4  A    between atoms: N2_15  and  O3_17 
ROOT
HETATM    1  C6  UNL     1      -0.458  -0.326   0.268  1.00  0.00     0.181 C 
HETATM    2  C7  UNL     1      -0.753   0.870  -0.567  1.00  0.00     0.278 C 
HETATM    3  O1  UNL     1       0.009   1.192  -1.511  1.00  0.00    -0.264 OA
HETATM    4  O2  UNL     1      -1.898   1.633  -0.286  1.00  0.00    -0.287 OA
HETATM    5  C8  UNL     1      -3.129   0.991   0.049  1.00  0.00     0.154 C 
HETATM    6  C9  UNL     1      -3.966   1.858   0.971  1.00  0.00     0.072 C 
HETATM    7  C10 UNL     1      -3.910   0.882  -1.248  1.00  0.00     0.072 C 
HETATM    8  N1  UNL     1      -2.859  -0.292   0.640  1.00  0.00    -0.263 N 
HETATM    9  C11 UNL     1      -1.748  -1.135   0.299  1.00  0.00     0.068 C 
HETATM   10  C12 UNL     1      -1.903  -1.793  -1.055  1.00  0.00     0.041 C 
HETATM   11  C13 UNL     1      -1.606  -2.257   1.304  1.00  0.00     0.041 C 
ENDROOT
BRANCH   1  12
HETATM   12  S1  UNL     1       0.887  -1.316  -0.380  1.00  0.00    -0.112 SA
BRANCH  12  13
HETATM   13  C5  UNL     1       2.464  -0.518  -0.290  1.00  0.00     0.001 A 
HETATM   14  C4  UNL     1       3.571  -1.192  -0.822  1.00  0.00     0.019 A 
HETATM   15  C3  UNL     1       4.824  -0.623  -0.772  1.00  0.00     0.008 A 
HETATM   16  C2  UNL     1       5.050   0.614  -0.207  1.00  0.00    -0.062 A 
HETATM   17  C1  UNL     1       6.412   1.222  -0.158  1.00  0.00     0.048 C 
HETATM   18  C15 UNL     1       3.954   1.269   0.313  1.00  0.00     0.008 A 
HETATM   19  C14 UNL     1       2.672   0.719   0.278  1.00  0.00     0.019 A 
ENDBRANCH  12  13
ENDBRANCH   1  12
BRANCH   8  20
HETATM   20  N2  UNL     1      -3.739  -0.752   1.613  1.00  0.00    -0.209 N 
ATOM     21  H2  UNL     1      -4.550  -1.296   1.318  1.00  0.00     0.215 HD
BRANCH  20  22
HETATM   22  O3  UNL     1      -3.583  -0.530   2.832  1.00  0.00    -0.274 OA
ATOM     23  H3  UNL     1      -4.184  -0.844   3.497  1.00  0.00     0.246 HD
ENDBRANCH  20  22
ENDBRANCH   8  20
TORSDOF 4
