REMARK  15 active torsions:
REMARK  status: ('A' for Active; 'I' for Inactive)
REMARK    1  A    between atoms: C2_2  and  C3_3 
REMARK    2  A    between atoms: C2_2  and  C27_45 
REMARK    3  A    between atoms: C3_3  and  C4_4 
REMARK    4  A    between atoms: C4_4  and  C5_5 
REMARK    5  A    between atoms: C5_5  and  N1_6 
REMARK    6  A    between atoms: C7_13  and  C8_14 
REMARK    7  A    between atoms: C8_14  and  C9_15 
REMARK    8  A    between atoms: C9_15  and  C10_16 
REMARK    9  A    between atoms: C10_16  and  C11_17 
REMARK   10  A    between atoms: C11_17  and  C12_18 
REMARK   11  A    between atoms: C14_22  and  N5_23 
REMARK       I    between atoms: N5_23  and  C15_25 
REMARK   12  A    between atoms: C15_25  and  C16_27 
REMARK   13  A    between atoms: C16_27  and  N6_28 
REMARK       I    between atoms: N6_28  and  C17_30 
REMARK   14  A    between atoms: C17_30  and  C18_32 
REMARK   15  A    between atoms: N7_36  and  C22_37 
ROOT
HETATM    1  C12 UNL     1       1.491  -0.701   3.138  1.00  0.00     0.001 A 
HETATM    2  C13 UNL     1       2.041  -1.607   4.010  1.00  0.00     0.104 A 
HETATM    3  N4  UNL     1       3.327  -1.731   4.025  1.00  0.00    -0.345 N 
ATOM      4  H4  UNL     1       3.773  -2.393   4.660  1.00  0.00     0.167 HD
HETATM    5  C14 UNL     1       4.069  -0.983   3.200  1.00  0.00     0.151 A 
HETATM    6  S1  UNL     1       2.882  -0.068   2.373  1.00  0.00    -0.057 SA
ENDROOT
BRANCH   1   7
HETATM    7  C11 UNL     1       0.040  -0.395   2.963  1.00  0.00     0.048 C 
BRANCH   7   8
HETATM    8  C10 UNL     1      -0.113   0.599   1.838  1.00  0.00     0.006 C 
BRANCH   8   9
HETATM    9  C9  UNL     1      -1.567   0.953   1.612  1.00  0.00     0.007 C 
BRANCH   9  10
HETATM   10  C8  UNL     1      -2.382  -0.288   1.293  1.00  0.00     0.066 C 
BRANCH  10  11
HETATM   11  C7  UNL     1      -3.802   0.166   1.079  1.00  0.00     0.069 A 
HETATM   12  N3  UNL     1      -4.754   0.302   1.993  1.00  0.00    -0.296 N 
HETATM   13  N2  UNL     1      -5.913   0.688   1.659  1.00  0.00    -0.279 N 
ATOM     14  H3  UNL     1      -4.551   0.094   2.971  1.00  0.00     0.187 HD
HETATM   15  C6  UNL     1      -6.158   0.955   0.373  1.00  0.00     0.161 A 
ATOM     16  H2  UNL     1      -6.647   0.793   2.360  1.00  0.00     0.189 HD
HETATM   17  N1  UNL     1      -7.285   1.363  -0.165  1.00  0.00    -0.369 N 
HETATM   18  S2  UNL     1      -4.640   0.625  -0.344  1.00  0.00    -0.038 SA
ATOM     19  H1  UNL     1      -8.123   1.522   0.394  1.00  0.00     0.161 HD
BRANCH  17  20
HETATM   20  C5  UNL     1      -7.269   1.574  -1.594  1.00  0.00     0.121 C 
BRANCH  20  21
HETATM   21  C4  UNL     1      -8.141   0.488  -2.218  1.00  0.00     0.020 C 
BRANCH  21  22
HETATM   22  C3  UNL     1      -9.536   0.664  -1.637  1.00  0.00     0.013 C 
BRANCH  22  23
HETATM   23  C2  UNL     1     -10.479  -0.385  -2.204  1.00  0.00     0.049 C 
HETATM   24  C1  UNL     1     -10.519  -0.214  -3.691  1.00  0.00     0.018 C 
BRANCH  23  25
HETATM   25  C27 UNL     1     -11.831  -0.200  -1.591  1.00  0.00     0.084 A 
HETATM   26  N8  UNL     1     -12.346  -1.155  -0.810  1.00  0.00    -0.355 N 
HETATM   27  C28 UNL     1     -13.548  -1.026  -0.255  1.00  0.00     0.090 A 
ATOM     28  H8  UNL     1     -11.805  -2.002  -0.636  1.00  0.00     0.166 HD
HETATM   29  C29 UNL     1     -14.305   0.118  -0.477  1.00  0.00     0.034 A 
HETATM   30  C30 UNL     1     -13.752   1.084  -1.284  1.00  0.00     0.090 A 
HETATM   31  N9  UNL     1     -12.541   0.910  -1.819  1.00  0.00    -0.355 N 
ATOM     32  H9  UNL     1     -12.149   1.640  -2.414  1.00  0.00     0.166 HD
ENDBRANCH  23  25
ENDBRANCH  22  23
ENDBRANCH  21  22
ENDBRANCH  20  21
ENDBRANCH  17  20
ENDBRANCH  10  11
ENDBRANCH   9  10
ENDBRANCH   8   9
ENDBRANCH   7   8
ENDBRANCH   1   7
BRANCH   5  33
HETATM   33  N5  UNL     1       5.377  -0.999   3.094  1.00  0.00    -0.305 N 
HETATM   34  C15 UNL     1       6.005  -0.153   2.187  1.00  0.00     0.252 C 
HETATM   35  O1  UNL     1       5.846   1.085   2.280  1.00  0.00    -0.270 OA
ATOM     36  H5  UNL     1       5.930  -1.629   3.674  1.00  0.00     0.171 HD
BRANCH  34  37
HETATM   37  C16 UNL     1       6.889  -0.644   1.079  1.00  0.00     0.114 C 
HETATM   38  C23 UNL     1       5.961  -0.912  -0.105  1.00  0.00     0.041 C 
HETATM   39  C24 UNL     1       5.765  -2.398  -0.131  1.00  0.00     0.003 C 
HETATM   40  C25 UNL     1       6.961  -3.017   0.502  1.00  0.00     0.003 C 
HETATM   41  C26 UNL     1       7.523  -1.948   1.393  1.00  0.00     0.041 C 
BRANCH  37  42
HETATM   42  N6  UNL     1       7.816   0.426   0.758  1.00  0.00    -0.341 N 
HETATM   43  C17 UNL     1       8.823   0.277  -0.236  1.00  0.00     0.241 C 
HETATM   44  O2  UNL     1       8.886  -0.817  -0.844  1.00  0.00    -0.271 OA
ATOM     45  H6  UNL     1       7.743   1.311   1.260  1.00  0.00     0.163 HD
BRANCH  43  46
HETATM   46  C18 UNL     1       9.804   1.328  -0.594  1.00  0.00     0.178 C 
HETATM   47  C19 UNL     1       9.208   2.592  -1.108  1.00  0.00     0.037 C 
HETATM   48  C20 UNL     1       9.899   2.827  -2.431  1.00  0.00     0.022 C 
HETATM   49  C21 UNL     1      10.587   1.537  -2.779  1.00  0.00     0.126 C 
HETATM   50  N7  UNL     1      10.776   0.842  -1.532  1.00  0.00    -0.346 N 
BRANCH  50  51
HETATM   51  C22 UNL     1      11.745  -0.154  -1.249  1.00  0.00     0.351 C 
HETATM   52  O3  UNL     1      12.583  -0.556  -2.103  1.00  0.00    -0.284 OA
ENDBRANCH  50  51
ENDBRANCH  43  46
ENDBRANCH  37  42
ENDBRANCH  34  37
ENDBRANCH   5  33
TORSDOF 15
