REMARK  18 active torsions:
REMARK  status: ('A' for Active; 'I' for Inactive)
REMARK    1  A    between atoms: C2_2  and  C3_3 
REMARK    2  A    between atoms: C3_3  and  C4_4 
REMARK    3  A    between atoms: C4_4  and  C5_5 
REMARK    4  A    between atoms: C5_5  and  C6_6 
REMARK    5  A    between atoms: C6_6  and  C7_7 
REMARK    6  A    between atoms: C7_7  and  C8_8 
REMARK    7  A    between atoms: C8_8  and  C9_9 
REMARK    8  A    between atoms: C9_9  and  C10_10 
REMARK    9  A    between atoms: C10_10  and  C11_11 
REMARK       I    between atoms: C11_11  and  N1_13 
REMARK       I    between atoms: N2_16  and  C14_17 
REMARK   10  A    between atoms: C14_17  and  O3_19 
REMARK   11  A    between atoms: O3_19  and  C15_20 
REMARK   12  A    between atoms: C15_20  and  C16_21 
REMARK       I    between atoms: C16_21  and  N3_23 
REMARK       I    between atoms: N5_34  and  C25_35 
REMARK   13  A    between atoms: C25_35  and  O6_37 
REMARK   14  A    between atoms: O6_37  and  C26_38 
REMARK   15  A    between atoms: C26_38  and  C27_39 
REMARK   16  A    between atoms: C27_39  and  C28_40 
REMARK   17  A    between atoms: C28_40  and  O7_41 
REMARK   18  A    between atoms: C28_40  and  O8_43 
ROOT
HETATM    1  C16 UNL     1      -2.681   0.088   0.426  1.00  0.00     0.244 C 
HETATM    2  O4  UNL     1      -2.342   0.380   1.623  1.00  0.00    -0.271 OA
HETATM    3  N3  UNL     1      -4.004  -0.390   0.232  1.00  0.00    -0.349 N 
HETATM    4  C17 UNL     1      -4.855  -0.528   1.401  1.00  0.00     0.126 C 
HETATM    5  C18 UNL     1      -5.131  -1.979   1.722  1.00  0.00     0.020 C 
HETATM    6  C19 UNL     1      -6.148  -2.185   2.788  1.00  0.00     0.003 C 
HETATM    7  C20 UNL     1      -7.522  -1.706   2.481  1.00  0.00     0.019 C 
HETATM    8  C21 UNL     1      -8.185  -2.352   1.298  1.00  0.00     0.113 C 
HETATM    9  N4  UNL     1      -8.773  -1.417   0.397  1.00  0.00    -0.421 N 
ATOM     10  H4  UNL     1      -8.888  -0.437   0.655  1.00  0.00     0.153 HD
HETATM   11  C22 UNL     1      -9.191  -1.894  -0.866  1.00  0.00     0.118 C 
HETATM   12  C23 UNL     1      -8.580  -1.078  -2.030  1.00  0.00     0.064 C 
HETATM   13  C24 UNL     1      -7.167  -0.861  -1.776  1.00  0.00     0.071 C 
HETATM   14  N5  UNL     1      -6.563   0.405  -1.804  1.00  0.00    -0.306 N 
HETATM   15  C25 UNL     1      -7.149   1.690  -1.794  1.00  0.00     0.366 C 
HETATM   16  O5  UNL     1      -6.414   2.748  -1.832  1.00  0.00    -0.238 OA
HETATM   17  C29 UNL     1      -5.085   0.395  -1.853  1.00  0.00     0.153 C 
HETATM   18  C30 UNL     1      -4.448  -0.710  -1.096  1.00  0.00     0.146 C 
ENDROOT
BRANCH   1  19
HETATM   19  C15 UNL     1      -1.692   0.264  -0.639  1.00  0.00     0.283 C 
BRANCH  19  20
HETATM   20  O3  UNL     1      -0.467   0.676  -0.099  1.00  0.00    -0.295 OA
BRANCH  20  21
HETATM   21  C14 UNL     1       0.322  -0.050   0.779  1.00  0.00     0.363 C 
HETATM   22  N2  UNL     1       1.542   0.459   1.282  1.00  0.00    -0.325 N 
HETATM   23  C13 UNL     1       2.011   1.741   0.876  1.00  0.00     0.148 C 
HETATM   24  C31 UNL     1       2.297  -0.320   2.218  1.00  0.00     0.148 C 
HETATM   25  C12 UNL     1       3.474   1.701   0.622  1.00  0.00     0.145 C 
HETATM   26  N1  UNL     1       4.123   0.439   0.773  1.00  0.00    -0.349 N 
HETATM   27  C11 UNL     1       5.364   0.243   0.097  1.00  0.00     0.219 C 
HETATM   28  C32 UNL     1       3.616  -0.655   1.567  1.00  0.00     0.145 C 
HETATM   29  O1  UNL     1       5.862   1.176  -0.610  1.00  0.00    -0.273 OA
HETATM   30  O2  UNL     1      -0.104  -1.201   1.115  1.00  0.00    -0.238 OA
BRANCH  27  31
HETATM   31  C10 UNL     1       6.031  -1.066   0.248  1.00  0.00     0.103 C 
BRANCH  31  32
HETATM   32  C9  UNL     1       7.448  -1.046  -0.247  1.00  0.00     0.009 C 
BRANCH  32  33
HETATM   33  C8  UNL     1       8.280  -0.094   0.527  1.00  0.00     0.000 C 
BRANCH  33  34
HETATM   34  C7  UNL     1       9.724  -0.045   0.023  1.00  0.00     0.000 C 
BRANCH  34  35
HETATM   35  C6  UNL     1      10.363  -1.367   0.150  1.00  0.00     0.000 C 
BRANCH  35  36
HETATM   36  C5  UNL     1      11.777  -1.530  -0.280  1.00  0.00     0.000 C 
BRANCH  36  37
HETATM   37  C4  UNL     1      12.850  -0.801   0.391  1.00  0.00     0.000 C 
BRANCH  37  38
HETATM   38  C3  UNL     1      12.907   0.672   0.389  1.00  0.00    -0.000 C 
BRANCH  38  39
HETATM   39  C2  UNL     1      12.964   1.307  -0.981  1.00  0.00    -0.005 C 
HETATM   40  C1  UNL     1      14.214   0.814  -1.705  1.00  0.00     0.005 C 
ENDBRANCH  38  39
ENDBRANCH  37  38
ENDBRANCH  36  37
ENDBRANCH  35  36
ENDBRANCH  34  35
ENDBRANCH  33  34
ENDBRANCH  32  33
ENDBRANCH  31  32
ENDBRANCH  27  31
ENDBRANCH  20  21
ENDBRANCH  19  20
ENDBRANCH   1  19
BRANCH  15  41
HETATM   41  O6  UNL     1      -8.495   2.002  -1.747  1.00  0.00    -0.304 OA
BRANCH  41  42
HETATM   42  C26 UNL     1      -8.927   3.347  -1.752  1.00  0.00     0.185 C 
BRANCH  42  43
HETATM   43  C27 UNL     1     -10.413   3.407  -1.697  1.00  0.00     0.087 C 
BRANCH  43  44
HETATM   44  C28 UNL     1     -11.001   2.784  -0.458  1.00  0.00     0.256 C 
BRANCH  44  45
HETATM   45  O7  UNL     1     -12.397   2.878  -0.467  1.00  0.00    -0.371 OA
ATOM     46  H7  UNL     1     -12.768   2.485   0.314  1.00  0.00     0.212 HD
ENDBRANCH  44  45
BRANCH  44  47
HETATM   47  O8  UNL     1     -10.639   1.451  -0.365  1.00  0.00    -0.371 OA
ATOM     48  H8  UNL     1     -11.010   1.058   0.416  1.00  0.00     0.212 HD
ENDBRANCH  44  47
ENDBRANCH  43  44
ENDBRANCH  42  43
ENDBRANCH  41  42
ENDBRANCH  15  41
TORSDOF 18
