REMARK  12 active torsions:
REMARK  status: ('A' for Active; 'I' for Inactive)
REMARK       I    between atoms: N1_2  and  C3_4 
REMARK       I    between atoms: C3_4  and  N2_6 
REMARK    1  A    between atoms: N2_6  and  C4_8 
REMARK    2  A    between atoms: C5_13  and  C6_14 
REMARK    3  A    between atoms: C6_14  and  C7_15 
REMARK    4  A    between atoms: C7_15  and  S1_16 
REMARK    5  A    between atoms: S1_16  and  C8_17 
REMARK    6  A    between atoms: C8_17  and  C9_18 
REMARK    7  A    between atoms: C9_18  and  C10_19 
REMARK       I    between atoms: N7_25  and  C12_27 
REMARK    8  A    between atoms: C12_27  and  C13_29 
REMARK    9  A    between atoms: C13_29  and  C14_30 
REMARK   10  A    between atoms: C15_31  and  C16_32 
REMARK   11  A    between atoms: C16_32  and  C17_33 
REMARK   12  A    between atoms: C17_33  and  N8_34 
ROOT
HETATM    1  C10 UNL     1       2.722   0.215   0.661  1.00  0.00     0.070 A 
HETATM    2  N5  UNL     1       2.385  -0.884   0.064  1.00  0.00    -0.296 N 
ATOM      3  H5  UNL     1       3.129  -1.484  -0.292  1.00  0.00     0.187 HD
HETATM    4  N6  UNL     1       1.191  -1.258  -0.104  1.00  0.00    -0.279 N 
ATOM      5  H6  UNL     1       0.977  -2.133  -0.582  1.00  0.00     0.189 HD
HETATM    6  C11 UNL     1       0.207  -0.464   0.368  1.00  0.00     0.167 A 
HETATM    7  N7  UNL     1      -1.081  -0.682   0.263  1.00  0.00    -0.306 N 
ATOM      8  H7  UNL     1      -1.441  -1.515  -0.202  1.00  0.00     0.171 HD
HETATM    9  C12 UNL     1      -1.958   0.288   0.823  1.00  0.00     0.227 C 
HETATM   10  O2  UNL     1      -2.678  -0.054   1.758  1.00  0.00    -0.273 OA
HETATM   11  S2  UNL     1       1.111   0.811   1.049  1.00  0.00    -0.038 SA
ENDROOT
BRANCH   9  12
HETATM   12  C13 UNL     1      -1.934   1.625   0.248  1.00  0.00     0.130 C 
BRANCH  12  13
HETATM   13  C14 UNL     1      -2.906   1.917  -0.796  1.00  0.00    -0.022 C 
HETATM   14  C15 UNL     1      -4.325   1.955  -0.591  1.00  0.00    -0.029 C 
BRANCH  14  15
HETATM   15  C16 UNL     1      -5.152   0.837  -0.119  1.00  0.00     0.047 C 
BRANCH  15  16
HETATM   16  C17 UNL     1      -6.631   1.302  -0.259  1.00  0.00     0.128 C 
BRANCH  16  17
HETATM   17  N8  UNL     1      -7.509   0.271   0.183  1.00  0.00    -0.361 N 
HETATM   18  C18 UNL     1      -8.219  -0.489  -0.822  1.00  0.00     0.058 A 
HETATM   19  C19 UNL     1      -7.673  -0.536  -2.117  1.00  0.00     0.031 A 
HETATM   20  C23 UNL     1      -9.379  -1.176  -0.570  1.00  0.00     0.061 A 
HETATM   21  C20 UNL     1      -8.318  -1.269  -3.090  1.00  0.00     0.002 A 
HETATM   22  C21 UNL     1      -9.469  -1.936  -2.792  1.00  0.00     0.002 A 
HETATM   23  C22 UNL     1     -10.033  -1.910  -1.528  1.00  0.00     0.032 A 
HETATM   24  N9  UNL     1      -9.917  -1.145   0.735  1.00  0.00    -0.323 N 
HETATM   25  C24 UNL     1      -9.205  -0.386   1.721  1.00  0.00     0.250 C 
ATOM     26  H9  UNL     1     -10.777  -1.642   0.967  1.00  0.00     0.169 HD
HETATM   27  O3  UNL     1      -9.761   0.090   2.741  1.00  0.00    -0.270 OA
HETATM   28  C25 UNL     1      -7.727  -0.136   1.547  1.00  0.00     0.106 C 
HETATM   29  C26 UNL     1      -7.248   0.818   2.585  1.00  0.00     0.049 C 
HETATM   30  C27 UNL     1      -7.028  -1.471   1.732  1.00  0.00     0.049 C 
ENDBRANCH  16  17
ENDBRANCH  15  16
ENDBRANCH  14  15
ENDBRANCH  12  13
ENDBRANCH   9  12
BRANCH   1  31
HETATM   31  C9  UNL     1       3.941   0.988   0.946  1.00  0.00     0.076 C 
BRANCH  31  32
HETATM   32  C8  UNL     1       5.205   0.646   0.273  1.00  0.00     0.080 C 
BRANCH  32  33
HETATM   33  S1  UNL     1       5.181   0.656  -1.509  1.00  0.00    -0.168 SA
BRANCH  33  34
HETATM   34  C7  UNL     1       5.177  -0.994  -2.215  1.00  0.00     0.080 C 
BRANCH  34  35
HETATM   35  C6  UNL     1       6.547  -1.549  -2.400  1.00  0.00     0.076 C 
BRANCH  35  36
HETATM   36  C5  UNL     1       7.385  -1.559  -1.181  1.00  0.00     0.070 A 
HETATM   37  N4  UNL     1       7.583  -2.431  -0.215  1.00  0.00    -0.296 N 
HETATM   38  N3  UNL     1       8.405  -2.217   0.723  1.00  0.00    -0.279 N 
ATOM     39  H4  UNL     1       7.058  -3.306  -0.223  1.00  0.00     0.187 HD
HETATM   40  C4  UNL     1       9.091  -1.067   0.728  1.00  0.00     0.169 A 
ATOM     41  H3  UNL     1       8.542  -2.907   1.461  1.00  0.00     0.189 HD
HETATM   42  S3  UNL     1       8.497  -0.306  -0.681  1.00  0.00    -0.038 SA
BRANCH  40  43
HETATM   43  N2  UNL     1      10.001  -0.633   1.578  1.00  0.00    -0.288 N 
HETATM   44  C3  UNL     1      10.567   0.650   1.322  1.00  0.00     0.323 C 
HETATM   45  N1  UNL     1      11.638   0.897   0.429  1.00  0.00    -0.343 N 
HETATM   46  O1  UNL     1      10.073   1.627   1.938  1.00  0.00    -0.247 OA
HETATM   47  C1  UNL     1      12.276  -0.138  -0.356  1.00  0.00     0.154 C 
HETATM   48  C2  UNL     1      12.176   2.253   0.270  1.00  0.00     0.154 C 
ATOM     49  H2  UNL     1      10.287  -1.191   2.383  1.00  0.00     0.172 HD
ENDBRANCH  40  43
ENDBRANCH  35  36
ENDBRANCH  34  35
ENDBRANCH  33  34
ENDBRANCH  32  33
ENDBRANCH  31  32
ENDBRANCH   1  31
TORSDOF 12
