REMARK  17 active torsions:
REMARK  status: ('A' for Active; 'I' for Inactive)
REMARK    1  A    between atoms: C5_14  and  C6_15 
REMARK    2  A    between atoms: C6_15  and  O1_16 
REMARK    3  A    between atoms: C6_15  and  C7_18 
REMARK    4  A    between atoms: C7_18  and  O2_19 
REMARK    5  A    between atoms: C7_18  and  C8_21 
REMARK    6  A    between atoms: C8_21  and  O3_22 
REMARK    7  A    between atoms: N5_24  and  C9_25 
REMARK    8  A    between atoms: C10_26  and  O4_27 
REMARK    9  A    between atoms: C11_29  and  O5_30 
REMARK   10  A    between atoms: C12_32  and  O6_33 
REMARK   11  A    between atoms: C13_35  and  C14_36 
REMARK   12  A    between atoms: C14_36  and  O7_37 
REMARK   13  A    between atoms: N6_39  and  C15_40 
REMARK   14  A    between atoms: C15_40  and  O8_41 
REMARK   15  A    between atoms: C15_40  and  C16_43 
REMARK   16  A    between atoms: C17_47  and  O9_48 
REMARK   17  A    between atoms: C18_50  and  O10_51 
ROOT
HETATM    1  C9  UNL     1      -0.108  -0.477  -0.955  1.00  0.00     0.228 C 
HETATM    2  C10 UNL     1      -0.597  -1.528  -1.930  1.00  0.00     0.192 C 
HETATM    3  C11 UNL     1       0.204  -1.829  -3.131  1.00  0.00     0.181 C 
HETATM    4  C12 UNL     1       1.435  -1.013  -3.153  1.00  0.00     0.174 C 
HETATM    5  C13 UNL     1       2.105  -1.042  -1.832  1.00  0.00     0.143 C 
HETATM    6  N6  UNL     1       1.290  -0.391  -0.792  1.00  0.00    -0.330 N 
ENDROOT
BRANCH   1   7
HETATM    7  N5  UNL     1      -0.876  -0.674   0.303  1.00  0.00    -0.293 N 
HETATM    8  C3  UNL     1      -0.587  -1.572   1.250  1.00  0.00     0.142 A 
HETATM    9  N3  UNL     1       0.360  -2.473   1.445  1.00  0.00    -0.336 N 
HETATM   10  C4  UNL     1      -1.556  -1.463   2.217  1.00  0.00     0.122 A 
HETATM   11  C2  UNL     1       0.401  -3.252   2.516  1.00  0.00     0.183 A 
ATOM     12  H3  UNL     1       1.091  -2.573   0.741  1.00  0.00     0.168 HD
HETATM   13  N2  UNL     1      -0.553  -3.150   3.474  1.00  0.00    -0.337 N 
HETATM   14  C1  UNL     1      -1.539  -2.265   3.347  1.00  0.00     0.131 A 
ATOM     15  H2  UNL     1      -0.515  -3.754   4.295  1.00  0.00     0.168 HD
HETATM   16  N1  UNL     1      -2.452  -2.138   4.223  1.00  0.00    -0.383 N 
ATOM     17  H12 UNL     1      -2.439  -2.728   5.055  1.00  0.00     0.157 HD
ATOM     18  H11 UNL     1      -3.208  -1.460   4.126  1.00  0.00     0.157 HD
HETATM   19  N4  UNL     1      -2.407  -0.501   1.830  1.00  0.00    -0.337 N 
HETATM   20  C5  UNL     1      -1.983  -0.003   0.631  1.00  0.00     0.119 A 
ATOM     21  H4  UNL     1      -3.232  -0.193   2.345  1.00  0.00     0.167 HD
BRANCH  20  22
HETATM   22  C6  UNL     1      -2.754   1.077  -0.030  1.00  0.00     0.216 C 
BRANCH  22  23
HETATM   23  O1  UNL     1      -2.832   1.043  -1.387  1.00  0.00    -0.385 OA
ATOM     24  H1  UNL     1      -3.326   1.735  -1.811  1.00  0.00     0.210 HD
ENDBRANCH  22  23
BRANCH  22  25
HETATM   25  C7  UNL     1      -2.409   2.464   0.447  1.00  0.00     0.177 C 
BRANCH  25  26
HETATM   26  O2  UNL     1      -2.328   2.534   1.836  1.00  0.00    -0.390 OA
ATOM     27  H2  UNL     1      -2.110   3.408   2.137  1.00  0.00     0.210 HD
ENDBRANCH  25  26
BRANCH  25  28
HETATM   28  C8  UNL     1      -3.527   3.411  -0.012  1.00  0.00     0.198 C 
BRANCH  28  29
HETATM   29  O3  UNL     1      -3.275   4.707   0.359  1.00  0.00    -0.398 OA
ATOM     30  H3  UNL     1      -3.967   5.293   0.075  1.00  0.00     0.209 HD
ENDBRANCH  28  29
ENDBRANCH  25  28
ENDBRANCH  22  25
ENDBRANCH  20  22
ENDBRANCH   1   7
BRANCH   2  31
HETATM   31  O4  UNL     1      -0.945  -2.718  -1.220  1.00  0.00    -0.389 OA
ATOM     32  H4  UNL     1      -1.252  -3.377  -1.832  1.00  0.00     0.210 HD
ENDBRANCH   2  31
BRANCH   6  33
HETATM   33  C15 UNL     1       1.966   0.295   0.189  1.00  0.00     0.150 C 
BRANCH  33  34
HETATM   34  O8  UNL     1       3.277   0.073   0.142  1.00  0.00    -0.348 OA
ATOM     35  H8  UNL     1       3.744   0.547   0.820  1.00  0.00     0.219 HD
ENDBRANCH  33  34
BRANCH  33  36
HETATM   36  C16 UNL     1       1.575   1.207   1.257  1.00  0.00     0.295 C 
HETATM   37  N7  UNL     1       2.654   1.632   2.143  1.00  0.00    -0.032 N 
HETATM   38  C17 UNL     1       3.042   2.665   1.247  1.00  0.00     0.351 C 
ATOM     39  H72 UNL     1       2.440   1.867   3.112  1.00  0.00     0.281 HD
ATOM     40  H71 UNL     1       3.348   0.949   2.446  1.00  0.00     0.281 HD
HETATM   41  C18 UNL     1       1.622   2.653   0.722  1.00  0.00     0.213 C 
BRANCH  38  42
HETATM   42  O9  UNL     1       3.394   3.863   1.879  1.00  0.00    -0.368 OA
ATOM     43  H9  UNL     1       3.653   4.553   1.280  1.00  0.00     0.212 HD
ENDBRANCH  38  42
BRANCH  41  44
HETATM   44  O10 UNL     1       0.862   3.560   1.460  1.00  0.00    -0.389 OA
ATOM     45  H10 UNL     1       0.891   4.451   1.131  1.00  0.00     0.210 HD
ENDBRANCH  41  44
ENDBRANCH  33  36
ENDBRANCH   6  33
BRANCH   3  46
HETATM   46  O5  UNL     1       0.455  -3.199  -3.304  1.00  0.00    -0.390 OA
ATOM     47  H5  UNL     1       0.971  -3.393  -4.078  1.00  0.00     0.210 HD
ENDBRANCH   3  46
BRANCH   5  48
HETATM   48  C14 UNL     1       2.608  -2.382  -1.524  1.00  0.00     0.192 C 
BRANCH  48  49
HETATM   49  O7  UNL     1       3.358  -2.838  -2.630  1.00  0.00    -0.399 OA
ATOM     50  H7  UNL     1       3.684  -3.707  -2.430  1.00  0.00     0.209 HD
ENDBRANCH  48  49
ENDBRANCH   5  48
BRANCH   4  51
HETATM   51  O6  UNL     1       2.271  -1.442  -4.171  1.00  0.00    -0.391 OA
ATOM     52  H6  UNL     1       3.063  -0.917  -4.185  1.00  0.00     0.210 HD
ENDBRANCH   4  51
TORSDOF 17
