REMARK  13 active torsions:
REMARK  status: ('A' for Active; 'I' for Inactive)
REMARK    1  A    between atoms: N1_1  and  C1_4 
REMARK    2  A    between atoms: N4_12  and  C5_13 
REMARK    3  A    between atoms: C6_15  and  O2_16 
REMARK    4  A    between atoms: C7_18  and  N5_19 
REMARK       I    between atoms: N5_19  and  C8_21 
REMARK    5  A    between atoms: C8_21  and  C9_23 
REMARK    6  A    between atoms: C9_23  and  N6_24 
REMARK    7  A    between atoms: N6_24  and  C10_26 
REMARK    8  A    between atoms: C11_28  and  O5_29 
REMARK    9  A    between atoms: N7_33  and  C13_34 
REMARK   10  A    between atoms: C14_35  and  O7_36 
REMARK   11  A    between atoms: C15_38  and  O8_39 
REMARK   12  A    between atoms: C16_41  and  O9_42 
REMARK   13  A    between atoms: C17_44  and  O10_45 
ROOT
HETATM    1  C1  UNL     1      -2.441   1.603  -0.775  1.00  0.00     0.683 A 
HETATM    2  N2  UNL     1      -1.093   1.550  -0.593  1.00  0.00    -0.174 N 
ATOM      3  H2  UNL     1      -0.534   2.357  -0.870  1.00  0.00     0.186 HD
HETATM    4  C2  UNL     1      -0.466   0.490  -0.068  1.00  0.00     0.159 A 
HETATM    5  C3  UNL     1      -1.265  -0.571   0.290  1.00  0.00     0.148 A 
HETATM    6  N3  UNL     1      -0.448  -1.506   0.785  1.00  0.00    -0.345 N 
ATOM      7  H3  UNL     1      -0.731  -2.419   1.141  1.00  0.00     0.167 HD
HETATM    8  C4  UNL     1       0.826  -1.031   0.732  1.00  0.00     0.188 A 
HETATM    9  N4  UNL     1       0.827   0.208   0.204  1.00  0.00    -0.297 N 
HETATM   10  C12 UNL     1      -2.642  -0.494   0.096  1.00  0.00     0.293 A 
HETATM   11  O6  UNL     1      -3.298  -1.484   0.440  1.00  0.00    -0.265 OA
HETATM   12  N7  UNL     1      -3.264   0.573  -0.432  1.00  0.00    -0.136 N 
ENDROOT
BRANCH   9  13
HETATM   13  C5  UNL     1       1.960   1.085  -0.037  1.00  0.00     0.264 C 
HETATM   14  O1  UNL     1       2.389   1.744   1.083  1.00  0.00    -0.332 OA
HETATM   15  C6  UNL     1       3.631   1.288   1.437  1.00  0.00     0.284 C 
HETATM   16  C7  UNL     1       4.297   0.965   0.123  1.00  0.00     0.172 C 
HETATM   17  C11 UNL     1       3.123   0.381  -0.662  1.00  0.00     0.195 C 
BRANCH  15  18
HETATM   18  O2  UNL     1       3.605   0.200   2.301  1.00  0.00    -0.369 OA
ATOM     19  H2  UNL     1       4.466  -0.116   2.547  1.00  0.00     0.212 HD
ENDBRANCH  15  18
BRANCH  16  20
HETATM   20  N5  UNL     1       5.360  -0.026   0.279  1.00  0.00    -0.348 N 
HETATM   21  C8  UNL     1       6.636   0.251  -0.212  1.00  0.00     0.235 C 
HETATM   22  O3  UNL     1       6.824   1.372  -0.797  1.00  0.00    -0.272 OA
ATOM     23  H5  UNL     1       5.170  -0.914   0.744  1.00  0.00     0.163 HD
BRANCH  21  24
HETATM   24  C9  UNL     1       7.769  -0.665  -0.103  1.00  0.00     0.224 C 
BRANCH  24  25
HETATM   25  N6  UNL     1       7.457  -1.858   0.644  1.00  0.00    -0.359 N 
ATOM     26  H6  UNL     1       7.481  -2.757   0.164  1.00  0.00     0.162 HD
BRANCH  25  27
HETATM   27  C10 UNL     1       7.120  -1.830   2.010  1.00  0.00     0.348 C 
HETATM   28  O4  UNL     1       7.072  -0.767   2.690  1.00  0.00    -0.284 OA
ENDBRANCH  25  27
ENDBRANCH  24  25
ENDBRANCH  21  24
ENDBRANCH  16  20
BRANCH  17  29
HETATM   29  O5  UNL     1       3.250   0.667  -2.034  1.00  0.00    -0.389 OA
ATOM     30  H5  UNL     1       3.988   0.220  -2.431  1.00  0.00     0.210 HD
ENDBRANCH  17  29
ENDBRANCH   9  13
BRANCH   1  31
HETATM   31  N1  UNL     1      -2.868   2.678  -1.286  1.00  0.00    -0.234 N 
ATOM     32  H12 UNL     1      -2.252   3.449  -1.543  1.00  0.00     0.174 HD
ATOM     33  H11 UNL     1      -3.878   2.718  -1.422  1.00  0.00     0.174 HD
ENDBRANCH   1  31
BRANCH  12  34
HETATM   34  C13 UNL     1      -4.671   0.568  -0.593  1.00  0.00     0.174 C 
HETATM   35  C14 UNL     1      -5.499   0.434   0.666  1.00  0.00     0.176 C 
HETATM   36  C15 UNL     1      -6.384  -0.755   0.492  1.00  0.00     0.180 C 
HETATM   37  C16 UNL     1      -6.489  -0.912  -0.984  1.00  0.00     0.180 C 
HETATM   38  C17 UNL     1      -5.251  -0.338  -1.629  1.00  0.00     0.176 C 
BRANCH  35  39
HETATM   39  O7  UNL     1      -4.780   0.479   1.840  1.00  0.00    -0.391 OA
ATOM     40  H7  UNL     1      -5.300   0.395   2.631  1.00  0.00     0.210 HD
ENDBRANCH  35  39
BRANCH  36  41
HETATM   41  O8  UNL     1      -7.697  -0.508   0.980  1.00  0.00    -0.390 OA
ATOM     42  H8  UNL     1      -8.260  -1.265   0.869  1.00  0.00     0.210 HD
ENDBRANCH  36  41
BRANCH  37  43
HETATM   43  O9  UNL     1      -7.608  -0.158  -1.415  1.00  0.00    -0.390 OA
ATOM     44  H9  UNL     1      -7.675  -0.258  -2.357  1.00  0.00     0.210 HD
ENDBRANCH  37  43
BRANCH  38  45
HETATM   45  O10 UNL     1      -4.396  -1.294  -2.153  1.00  0.00    -0.391 OA
ATOM     46  H10 UNL     1      -4.765  -1.870  -2.812  1.00  0.00     0.210 HD
ENDBRANCH  38  45
ENDBRANCH  12  34
TORSDOF 13
