REMARK  13 active torsions:
REMARK  status: ('A' for Active; 'I' for Inactive)
REMARK    1  A    between atoms: N1_2  and  C3_4 
REMARK    2  A    between atoms: C5_10  and  N4_11 
REMARK    3  A    between atoms: N4_11  and  O1_12 
REMARK    4  A    between atoms: O1_12  and  C6_13 
REMARK    5  A    between atoms: C7_17  and  C8_18 
REMARK    6  A    between atoms: C8_18  and  O2_19 
REMARK    7  A    between atoms: O2_19  and  C9_20 
REMARK    8  A    between atoms: N6_23  and  N7_24 
REMARK    9  A    between atoms: C11_27  and  O4_28 
REMARK   10  A    between atoms: C12_30  and  O5_31 
REMARK   11  A    between atoms: C13_33  and  O6_34 
REMARK   12  A    between atoms: C14_36  and  O7_37 
REMARK   13  A    between atoms: C15_39  and  N8_40 
ROOT
HETATM    1  C6  UNL     1       0.844  -0.349   0.499  1.00  0.00     0.397 C 
HETATM    2  N5  UNL     1       1.346   0.853  -0.054  1.00  0.00    -0.034 N 
ATOM      3  H51 UNL     1       1.065   1.662   0.500  1.00  0.00     0.281 HD
ATOM      4  H52 UNL     1       0.874   1.085  -0.928  1.00  0.00     0.281 HD
HETATM    5  C7  UNL     1       2.805   0.806  -0.230  1.00  0.00     0.243 C 
HETATM    6  C12 UNL     1       3.033  -0.417  -1.083  1.00  0.00     0.182 C 
HETATM    7  C13 UNL     1       2.965  -1.585  -0.114  1.00  0.00     0.182 C 
HETATM    8  C14 UNL     1       1.847  -1.407   0.877  1.00  0.00     0.209 C 
ENDROOT
BRANCH   1   9
HETATM    9  O1  UNL     1      -0.176  -0.853  -0.320  1.00  0.00    -0.170 OA
BRANCH   9  10
HETATM   10  N4  UNL     1      -1.354  -1.117  -0.348  1.00  0.00    -0.256 NA
BRANCH  10  11
HETATM   11  C5  UNL     1      -2.523  -1.357  -0.377  1.00  0.00     0.257 C 
HETATM   12  N3  UNL     1      -3.440  -0.328  -0.400  1.00  0.00    -0.309 N 
HETATM   13  C4  UNL     1      -4.754  -0.320  -0.120  1.00  0.00     0.156 A 
ATOM     14  H3  UNL     1      -3.058   0.577  -0.675  1.00  0.00     0.170 HD
HETATM   15  N2  UNL     1      -5.549   0.774  -0.255  1.00  0.00    -0.174 N 
HETATM   16  C17 UNL     1      -5.561  -1.333   0.345  1.00  0.00     0.161 A 
HETATM   17  C3  UNL     1      -6.813   0.465   0.112  1.00  0.00     0.681 A 
ATOM     18  H2  UNL     1      -5.239   1.689  -0.583  1.00  0.00     0.186 HD
HETATM   19  N10 UNL     1      -6.785  -0.829   0.473  1.00  0.00    -0.182 N 
ATOM     20  H10 UNL     1      -7.595  -1.355   0.802  1.00  0.00     0.184 HD
HETATM   21  C16 UNL     1      -5.174  -2.622   0.613  1.00  0.00     0.278 C 
HETATM   22  N9  UNL     1      -4.072  -3.257   0.122  1.00  0.00    -0.304 N 
HETATM   23  O8  UNL     1      -5.907  -3.260   1.382  1.00  0.00    -0.265 OA
HETATM   24  C15 UNL     1      -2.969  -2.699  -0.388  1.00  0.00     0.164 C 
ATOM     25  H9  UNL     1      -4.091  -4.277   0.147  1.00  0.00     0.171 HD
BRANCH  17  26
HETATM   26  N1  UNL     1      -7.958   1.331   0.101  1.00  0.00    -0.226 N 
HETATM   27  C1  UNL     1      -8.197   2.350   1.089  1.00  0.00     0.168 C 
HETATM   28  C2  UNL     1      -8.930   1.142  -0.962  1.00  0.00     0.168 C 
ENDBRANCH  17  26
BRANCH  24  29
HETATM   29  N8  UNL     1      -2.122  -3.473  -1.012  1.00  0.00    -0.381 N 
ATOM     30  H82 UNL     1      -1.281  -3.047  -1.401  1.00  0.00     0.157 HD
ATOM     31  H81 UNL     1      -2.444  -4.441  -1.020  1.00  0.00     0.157 HD
ENDBRANCH  24  29
ENDBRANCH  10  11
ENDBRANCH   9  10
ENDBRANCH   1   9
BRANCH   8  32
HETATM   32  O7  UNL     1       2.356  -1.187   2.154  1.00  0.00    -0.388 OA
ATOM     33  H7  UNL     1       2.989  -1.854   2.392  1.00  0.00     0.210 HD
ENDBRANCH   8  32
BRANCH   5  34
HETATM   34  C8  UNL     1       3.309   2.068  -0.834  1.00  0.00     0.207 C 
BRANCH  34  35
HETATM   35  O2  UNL     1       4.640   2.103  -1.033  1.00  0.00    -0.355 OA
BRANCH  35  36
HETATM   36  C9  UNL     1       5.506   1.918  -0.015  1.00  0.00     0.305 C 
HETATM   37  O3  UNL     1       6.091   3.178   0.391  1.00  0.00    -0.342 OA
HETATM   38  C10 UNL     1       7.087   2.732   1.279  1.00  0.00     0.287 C 
HETATM   39  N6  UNL     1       7.690   1.587   0.685  1.00  0.00    -0.180 NA
HETATM   40  C11 UNL     1       6.715   1.095  -0.257  1.00  0.00     0.268 C 
BRANCH  39  41
HETATM   41  N7  UNL     1       7.869   0.574   1.640  1.00  0.00    -0.359 NA
ATOM     42  H72 UNL     1       8.559   0.922   2.306  1.00  0.00     0.171 HD
ATOM     43  H71 UNL     1       8.301  -0.246   1.214  1.00  0.00     0.171 HD
ENDBRANCH  39  41
BRANCH  40  44
HETATM   44  O4  UNL     1       6.470  -0.270  -0.085  1.00  0.00    -0.374 OA
ATOM     45  H4  UNL     1       7.245  -0.797  -0.240  1.00  0.00     0.212 HD
ENDBRANCH  40  44
ENDBRANCH  35  36
ENDBRANCH  34  35
ENDBRANCH   5  34
BRANCH   7  46
HETATM   46  O6  UNL     1       2.900  -2.753  -0.843  1.00  0.00    -0.390 OA
ATOM     47  H6  UNL     1       2.857  -3.483  -0.237  1.00  0.00     0.210 HD
ENDBRANCH   7  46
BRANCH   6  48
HETATM   48  O5  UNL     1       2.064  -0.524  -2.077  1.00  0.00    -0.391 OA
ATOM     49  H5  UNL     1       2.208  -1.294  -2.614  1.00  0.00     0.210 HD
ENDBRANCH   6  48
TORSDOF 13
