REMARK  3 active torsions:
REMARK  status: ('A' for Active; 'I' for Inactive)
REMARK    1  A    between atoms: C2_2  and  C4_4 
REMARK    2  A    between atoms: C4_4  and  C5_5 
REMARK    3  A    between atoms: C10_11  and  N1_12 
ROOT
HETATM    1  C5  UNL     1      -0.267   0.345  -0.748  1.00  0.00     0.024 C 
HETATM    2  C6  UNL     1       0.095   1.251  -1.942  1.00  0.00     0.028 C 
HETATM    3  S1  UNL     1       0.603  -1.269  -0.944  1.00  0.00    -0.146 SA
HETATM    4  C7  UNL     1       1.973  -0.966   0.243  1.00  0.00     0.031 C 
HETATM    5  C8  UNL     1       3.281  -1.362  -0.364  1.00  0.00     0.029 C 
HETATM    6  C9  UNL     1       1.717  -1.697   1.545  1.00  0.00     0.029 C 
HETATM    7  C10 UNL     1       1.849   0.511   0.413  1.00  0.00     0.220 C 
HETATM    8  C11 UNL     1       0.362   0.849   0.490  1.00  0.00     0.143 C 
HETATM    9  C12 UNL     1       0.350   2.339   0.556  1.00  0.00     0.067 C 
HETATM   10  N2  UNL     1       0.328   3.503   0.625  1.00  0.00    -0.197 NA
ENDROOT
BRANCH   1  11
HETATM   11  C4  UNL     1      -1.718   0.163  -0.827  1.00  0.00     0.025 C 
BRANCH  11  12
HETATM   12  C2  UNL     1      -2.469  -0.660   0.121  1.00  0.00    -0.021 C 
HETATM   13  C1  UNL     1      -3.953  -0.606  -0.366  1.00  0.00     0.009 C 
HETATM   14  C3  UNL     1      -2.532  -0.043   1.496  1.00  0.00     0.009 C 
ENDBRANCH  11  12
ENDBRANCH   1  11
BRANCH   7  15
HETATM   15  N1  UNL     1       2.566   1.278  -0.535  1.00  0.00    -0.072 N 
ATOM     16  H13 UNL     1       3.548   1.004  -0.542  1.00  0.00     0.274 HD
ATOM     17  H12 UNL     1       2.301   1.007  -1.482  1.00  0.00     0.274 HD
ATOM     18  H11 UNL     1       2.481   2.288  -0.419  1.00  0.00     0.274 HD
ENDBRANCH   7  15
TORSDOF 3
