REMARK  2 active torsions:
REMARK  status: ('A' for Active; 'I' for Inactive)
REMARK    1  A    between atoms: C2_2  and  S1_3 
REMARK    2  A    between atoms: S1_3  and  C3_4 
ROOT
HETATM    1  C3  UNL     1       1.424   0.328   0.625  1.00  0.00     0.183 C 
HETATM    2  C4  UNL     1       1.424  -1.060   0.028  1.00  0.00     0.046 C 
HETATM    3  C5  UNL     1      -0.042  -1.434   0.217  1.00  0.00     0.043 C 
HETATM    4  C6  UNL     1      -0.719  -0.096   0.129  1.00  0.00     0.078 C 
HETATM    5  C7  UNL     1      -1.552   0.029  -1.123  1.00  0.00     0.040 C 
HETATM    6  C8  UNL     1      -2.746  -0.885  -1.132  1.00  0.00     0.004 C 
HETATM    7  C9  UNL     1      -3.702  -0.554  -0.017  1.00  0.00     0.019 C 
HETATM    8  C10 UNL     1      -3.651   0.875   0.417  1.00  0.00     0.113 C 
HETATM    9  N1  UNL     1      -2.459   1.268   1.093  1.00  0.00    -0.418 N 
ATOM     10  H1  UNL     1      -2.281   2.236   1.360  1.00  0.00     0.153 HD
HETATM   11  C11 UNL     1      -1.529   0.218   1.373  1.00  0.00     0.151 C 
HETATM   12  O1  UNL     1       0.280   0.873   0.031  1.00  0.00    -0.363 OA
ENDROOT
BRANCH   1  13
HETATM   13  S1  UNL     1       2.878   1.287   0.186  1.00  0.00    -0.138 SA
BRANCH  13  14
HETATM   14  C2  UNL     1       4.351   0.273  -0.050  1.00  0.00     0.072 C 
HETATM   15  C1  UNL     1       5.460   1.170  -0.564  1.00  0.00     0.016 C 
ENDBRANCH  13  14
ENDBRANCH   1  13
TORSDOF 2
