REMARK  3 active torsions:
REMARK  status: ('A' for Active; 'I' for Inactive)
REMARK    1  A    between atoms: C2_2  and  S1_3 
REMARK    2  A    between atoms: S1_3  and  C3_4 
REMARK    3  A    between atoms: C8_9  and  O1_10 
ROOT
HETATM    1  C3  UNL     1       0.463   0.008   0.491  1.00  0.00     0.052 C 
HETATM    2  C4  UNL     1       0.281  -1.202  -0.418  1.00  0.00     0.015 C 
HETATM    3  C5  UNL     1      -0.910  -2.032  -0.025  1.00  0.00     0.002 C 
HETATM    4  C6  UNL     1      -2.098  -1.184   0.325  1.00  0.00     0.008 C 
HETATM    5  C7  UNL     1      -1.897   0.219  -0.189  1.00  0.00     0.030 C 
HETATM    6  C8  UNL     1      -3.110   1.085   0.009  1.00  0.00     0.183 C 
HETATM    7  S2  UNL     1      -2.366   2.754   0.053  1.00  0.00    -0.137 SA
HETATM    8  C9  UNL     1      -0.608   2.249   0.074  1.00  0.00     0.082 C 
HETATM    9  C10 UNL     1      -0.766   0.841   0.589  1.00  0.00     0.016 C 
ENDROOT
BRANCH   1  10
HETATM   10  S1  UNL     1       1.898   0.913  -0.171  1.00  0.00    -0.164 SA
BRANCH  10  11
HETATM   11  C2  UNL     1       3.242  -0.314  -0.296  1.00  0.00     0.070 C 
HETATM   12  C1  UNL     1       4.504   0.378   0.187  1.00  0.00     0.016 C 
ENDBRANCH  10  11
ENDBRANCH   1  10
BRANCH   6  13
HETATM   13  O1  UNL     1      -3.772   0.800   1.197  1.00  0.00    -0.385 OA
ATOM     14  H1  UNL     1      -4.538   1.347   1.322  1.00  0.00     0.211 HD
ENDBRANCH   6  13
TORSDOF 3
