REMARK  2 active torsions:
REMARK  status: ('A' for Active; 'I' for Inactive)
REMARK    1  A    between atoms: C2_2  and  O1_4 
REMARK    2  A    between atoms: O1_4  and  C4_5 
ROOT
HETATM    1  C4  UNL     1       1.069   1.546  -0.078  1.00  0.00     0.141 C 
HETATM    2  C5  UNL     1      -0.041   0.929   0.089  1.00  0.00    -0.022 C 
HETATM    3  C6  UNL     1      -1.280   1.620   0.652  1.00  0.00     0.153 C 
HETATM    4  C7  UNL     1      -2.279   1.746  -0.459  1.00  0.00     0.037 C 
HETATM    5  C8  UNL     1      -1.999   0.940  -1.668  1.00  0.00     0.004 C 
HETATM    6  C9  UNL     1      -1.338  -0.375  -1.438  1.00  0.00     0.012 C 
HETATM    7  C10 UNL     1      -0.582  -0.427  -0.124  1.00  0.00     0.053 C 
HETATM    8  C11 UNL     1      -1.526  -0.554   1.056  1.00  0.00     0.062 C 
HETATM    9  C12 UNL     1      -0.842  -1.499   2.057  1.00  0.00     0.046 C 
HETATM   10  C13 UNL     1      -2.841  -1.165   0.729  1.00  0.00     0.046 C 
HETATM   11  O2  UNL     1      -1.683   0.694   1.590  1.00  0.00    -0.370 OA
ENDROOT
BRANCH   1  12
HETATM   12  O1  UNL     1       2.214   1.066  -0.558  1.00  0.00    -0.358 OA
BRANCH  12  13
HETATM   13  C2  UNL     1       2.793  -0.168  -0.532  1.00  0.00     0.119 C 
HETATM   14  C1  UNL     1       4.161  -0.015  -1.260  1.00  0.00     0.039 C 
HETATM   15  C3  UNL     1       3.120  -0.684   0.853  1.00  0.00     0.039 C 
ENDBRANCH  12  13
ENDBRANCH   1  12
TORSDOF 2
