REMARK  2 active torsions:
REMARK  status: ('A' for Active; 'I' for Inactive)
REMARK    1  A    between atoms: C4_6  and  N1_7 
REMARK    2  A    between atoms: N1_7  and  C5_10 
ROOT
HETATM    1  N1  UNL     1       1.390  -0.690   0.438  1.00  0.00    -0.058 N 
ATOM      2  H11 UNL     1       1.656  -1.127   1.320  1.00  0.00     0.278 HD
ATOM      3  H12 UNL     1       1.317  -1.522  -0.148  1.00  0.00     0.278 HD
ENDROOT
BRANCH   1   4
HETATM    4  C4  UNL     1       2.433   0.176  -0.036  1.00  0.00     0.287 C 
HETATM    5  C1  UNL     1       3.546   0.219   0.951  1.00  0.00     0.289 C 
HETATM    6  O1  UNL     1       3.490   0.180   2.204  1.00  0.00    -0.263 OA
HETATM    7  O2  UNL     1       4.767   0.316   0.258  1.00  0.00    -0.320 OA
HETATM    8  C2  UNL     1       4.570   0.202  -1.134  1.00  0.00     0.181 C 
HETATM    9  C3  UNL     1       3.117  -0.260  -1.282  1.00  0.00     0.070 C 
ENDBRANCH   1   4
BRANCH   1  10
HETATM   10  C5  UNL     1       0.096  -0.027   0.559  1.00  0.00     0.187 C 
HETATM   11  C6  UNL     1      -0.262   0.310  -0.896  1.00  0.00     0.033 C 
HETATM   12  C7  UNL     1      -1.554   1.072  -1.005  1.00  0.00     0.002 C 
HETATM   13  C8  UNL     1      -2.714   0.168  -1.260  1.00  0.00     0.000 C 
HETATM   14  C9  UNL     1      -3.444  -0.317  -0.068  1.00  0.00     0.000 C 
HETATM   15  C10 UNL     1      -3.096   0.263   1.256  1.00  0.00     0.000 C 
HETATM   16  C11 UNL     1      -1.956  -0.415   1.950  1.00  0.00     0.002 C 
HETATM   17  C12 UNL     1      -0.912  -1.009   1.048  1.00  0.00     0.033 C 
ENDBRANCH   1  10
TORSDOF 2
