REMARK  5 active torsions:
REMARK  status: ('A' for Active; 'I' for Inactive)
REMARK    1  A    between atoms: C5_5  and  O1_6 
REMARK    2  A    between atoms: C5_5  and  O2_8 
REMARK    3  A    between atoms: N1_11  and  C7_13 
REMARK    4  A    between atoms: C7_13  and  C8_14 
REMARK    5  A    between atoms: C8_14  and  C9_15 
ROOT
HETATM    1  C1  UNL     1       3.148   2.432   0.169  1.00  0.00     0.010 C 
HETATM    2  C2  UNL     1       2.757   0.991   0.413  1.00  0.00    -0.013 C 
HETATM    3  C3  UNL     1       3.841   0.035  -0.000  1.00  0.00     0.010 C 
HETATM    4  C4  UNL     1       3.441  -1.331   0.573  1.00  0.00     0.075 C 
HETATM    5  C5  UNL     1       2.326  -1.825  -0.333  1.00  0.00     0.199 C 
HETATM    6  C6  UNL     1       1.252  -0.809  -0.462  1.00  0.00     0.044 C 
HETATM    7  N1  UNL     1       0.077  -1.213  -0.737  1.00  0.00    -0.392 N 
ATOM      8  H1  UNL     1      -0.049  -2.219  -0.852  1.00  0.00     0.159 HD
HETATM    9  C13 UNL     1       1.483   0.644  -0.287  1.00  0.00     0.062 C 
ENDROOT
BRANCH   5  10
HETATM   10  O1  UNL     1       1.806  -3.026   0.157  1.00  0.00    -0.361 OA
ATOM     11  H1  UNL     1       1.109  -3.335  -0.410  1.00  0.00     0.213 HD
ENDBRANCH   5  10
BRANCH   5  12
HETATM   12  O2  UNL     1       2.916  -2.079  -1.579  1.00  0.00    -0.361 OA
ATOM     13  H2  UNL     1       2.219  -2.388  -2.146  1.00  0.00     0.213 HD
ENDBRANCH   5  12
BRANCH   7  14
HETATM   14  C7  UNL     1      -1.070  -0.404  -0.899  1.00  0.00     0.120 C 
BRANCH  14  15
HETATM   15  C8  UNL     1      -2.032  -0.628   0.243  1.00  0.00     0.028 C 
BRANCH  15  16
HETATM   16  C9  UNL     1      -3.268   0.231   0.087  1.00  0.00    -0.050 C 
HETATM   17  C10 UNL     1      -4.169  -0.057   1.266  1.00  0.00     0.014 C 
HETATM   18  C11 UNL     1      -3.975  -0.197  -1.177  1.00  0.00     0.014 C 
HETATM   19  C12 UNL     1      -2.936   1.699   0.076  1.00  0.00     0.014 C 
ENDBRANCH  15  16
ENDBRANCH  14  15
ENDBRANCH   7  14
TORSDOF 5
