REMARK  8 active torsions:
REMARK  status: ('A' for Active; 'I' for Inactive)
REMARK    1  A    between atoms: N1_1  and  C1_4 
REMARK    2  A    between atoms: C2_7  and  N3_8 
REMARK    3  A    between atoms: N3_8  and  C3_10 
REMARK    4  A    between atoms: C6_13  and  C7_14 
REMARK    5  A    between atoms: C10_22  and  N6_23 
REMARK    6  A    between atoms: C13_32  and  C14_33 
REMARK    7  A    between atoms: C14_33  and  N8_34 
REMARK    8  A    between atoms: C14_33  and  C15_38 
ROOT
HETATM    1  C3  UNL     1      -0.803  -0.048  -0.749  1.00  0.00     0.102 A 
HETATM    2  C4  UNL     1      -0.060   0.311   0.359  1.00  0.00     0.038 A 
HETATM    3  C5  UNL     1       1.320   0.373   0.295  1.00  0.00     0.034 A 
HETATM    4  C6  UNL     1       1.934   0.071  -0.895  1.00  0.00     0.060 A 
HETATM    5  N7  UNL     1       1.230  -0.274  -1.973  1.00  0.00    -0.320 N 
ATOM      6  H7  UNL     1       1.719  -0.490  -2.842  1.00  0.00     0.169 HD
HETATM    7  C12 UNL     1      -0.099  -0.342  -1.937  1.00  0.00     0.272 A 
HETATM    8  O5  UNL     1      -0.769  -0.677  -2.981  1.00  0.00    -0.266 OA
ENDROOT
BRANCH   1   9
HETATM    9  N3  UNL     1      -2.205  -0.062  -0.837  1.00  0.00    -0.337 N 
ATOM     10  H3  UNL     1      -2.594   0.119  -1.762  1.00  0.00     0.167 HD
BRANCH   9  11
HETATM   11  C2  UNL     1      -3.143  -0.294   0.189  1.00  0.00     0.136 A 
HETATM   12  N2  UNL     1      -2.825  -0.788   1.384  1.00  0.00    -0.176 N 
HETATM   13  C1  UNL     1      -3.730  -1.121   2.353  1.00  0.00     0.680 A 
ATOM     14  H2  UNL     1      -1.836  -0.928   1.591  1.00  0.00     0.186 HD
HETATM   15  N10 UNL     1      -5.034  -0.953   2.113  1.00  0.00    -0.156 N 
HETATM   16  C16 UNL     1      -5.415  -0.456   0.915  1.00  0.00     0.272 A 
ATOM     17  H10 UNL     1      -5.728  -1.195   2.820  1.00  0.00     0.187 HD
HETATM   18  C13 UNL     1      -4.501  -0.117  -0.064  1.00  0.00     0.094 A 
HETATM   19  O7  UNL     1      -6.669  -0.303   0.705  1.00  0.00    -0.267 OA
BRANCH  13  20
HETATM   20  N1  UNL     1      -3.333  -1.589   3.477  1.00  0.00    -0.234 N 
ATOM     21  H12 UNL     1      -2.338  -1.717   3.660  1.00  0.00     0.174 HD
ATOM     22  H11 UNL     1      -4.008  -1.837   4.200  1.00  0.00     0.174 HD
ENDBRANCH  13  20
BRANCH  18  23
HETATM   23  C14 UNL     1      -4.966   0.460  -1.345  1.00  0.00     0.314 C 
BRANCH  23  24
HETATM   24  N8  UNL     1      -5.525  -0.608  -2.148  1.00  0.00    -0.062 N 
ATOM     25  H83 UNL     1      -4.874  -1.383  -2.279  1.00  0.00     0.275 HD
ATOM     26  H82 UNL     1      -6.258  -1.124  -1.661  1.00  0.00     0.275 HD
ATOM     27  H81 UNL     1      -5.845  -0.210  -3.031  1.00  0.00     0.275 HD
ENDBRANCH  23  24
BRANCH  23  28
HETATM   28  C15 UNL     1      -6.076   1.462  -1.086  1.00  0.00     0.266 C 
HETATM   29  N9  UNL     1      -5.830   2.589  -0.264  1.00  0.00    -0.060 NA
HETATM   30  O6  UNL     1      -7.217   1.319  -1.585  1.00  0.00    -0.274 OA
ENDBRANCH  23  28
ENDBRANCH  18  23
ENDBRANCH   9  11
ENDBRANCH   1   9
BRANCH   4  31
HETATM   31  C7  UNL     1       3.389   0.127  -0.995  1.00  0.00     0.066 C 
HETATM   32  N4  UNL     1       4.084  -0.126  -2.033  1.00  0.00    -0.263 N 
HETATM   33  O1  UNL     1       5.443   0.020  -1.793  1.00  0.00    -0.218 OA
ATOM     34  H4  UNL     1       3.689  -0.402  -2.932  1.00  0.00     0.194 HD
HETATM   35  C8  UNL     1       5.635  -0.046  -0.393  1.00  0.00     0.278 C 
HETATM   36  C9  UNL     1       4.314   0.493   0.100  1.00  0.00     0.157 C 
HETATM   37  N5  UNL     1       6.690   0.793   0.090  1.00  0.00    -0.316 N 
HETATM   38  O4  UNL     1       5.904  -1.333   0.062  1.00  0.00    -0.329 OA
HETATM   39  C10 UNL     1       7.696   0.058   0.422  1.00  0.00     0.174 C 
ATOM     40  H5  UNL     1       6.652   1.810   0.160  1.00  0.00     0.166 HD
HETATM   41  C11 UNL     1       7.294  -1.341   0.144  1.00  0.00     0.256 C 
BRANCH  39  42
HETATM   42  N6  UNL     1       8.948   0.522   0.952  1.00  0.00    -0.100 N 
HETATM   43  O2  UNL     1       8.909   1.384   1.845  1.00  0.00    -0.531 OA
HETATM   44  O3  UNL     1      10.154   0.058   0.520  1.00  0.00    -0.531 OA
ENDBRANCH  39  42
ENDBRANCH   4  31
TORSDOF 8
