REMARK  17 active torsions:
REMARK  status: ('A' for Active; 'I' for Inactive)
REMARK    1  A    between atoms: C2_2  and  C3_3 
REMARK    2  A    between atoms: C3_3  and  C5_5 
REMARK    3  A    between atoms: C5_5  and  N1_6 
REMARK    4  A    between atoms: C5_5  and  C12_17 
REMARK       I    between atoms: N1_6  and  C6_8 
REMARK    5  A    between atoms: C6_8  and  C7_10 
REMARK    6  A    between atoms: C7_10  and  C8_12 
REMARK    7  A    between atoms: C8_12  and  C9_13 
REMARK    8  A    between atoms: C9_13  and  C11_15 
REMARK    9  A    between atoms: C12_17  and  C13_19 
REMARK   10  A    between atoms: C13_19  and  C14_20 
REMARK       I    between atoms: C14_20  and  N2_22 
REMARK   11  A    between atoms: N2_22  and  C15_24 
REMARK   12  A    between atoms: C15_24  and  C17_26 
REMARK   13  A    between atoms: C17_26  and  C19_29 
REMARK   14  A    between atoms: C19_29  and  C21_31 
REMARK   15  A    between atoms: C21_31  and  C22_33 
REMARK       I    between atoms: C22_33  and  N3_35 
REMARK   16  A    between atoms: C23_37  and  O7_38 
REMARK   17  A    between atoms: C23_37  and  C24_40 
ROOT
HETATM    1  C13 UNL     1      -0.892  -0.444   0.144  1.00  0.00     0.103 C 
HETATM    2  C28 UNL     1      -0.652  -1.937  -0.073  1.00  0.00     0.027 C 
HETATM    3  C29 UNL     1      -1.383  -2.566  -1.174  1.00  0.00     0.002 C 
HETATM    4  C30 UNL     1      -2.103  -1.671  -2.109  1.00  0.00     0.000 C 
HETATM    5  C31 UNL     1      -1.519  -0.335  -2.313  1.00  0.00     0.002 C 
HETATM    6  C32 UNL     1      -0.865   0.319  -1.141  1.00  0.00     0.027 C 
ENDROOT
BRANCH   1   7
HETATM    7  C12 UNL     1      -2.126  -0.218   0.927  1.00  0.00     0.167 C 
HETATM    8  O3  UNL     1      -2.294  -1.047   1.848  1.00  0.00    -0.294 OA
BRANCH   7   9
HETATM    9  C5  UNL     1      -3.163   0.807   0.786  1.00  0.00     0.159 C 
BRANCH   9  10
HETATM   10  C3  UNL     1      -3.161   1.937   1.771  1.00  0.00     0.011 C 
HETATM   11  C4  UNL     1      -2.034   2.910   1.674  1.00  0.00     0.012 C 
BRANCH  10  12
HETATM   12  C2  UNL     1      -4.424   2.791   1.613  1.00  0.00     0.002 C 
HETATM   13  C1  UNL     1      -4.501   3.536   0.332  1.00  0.00     0.005 C 
ENDBRANCH  10  12
ENDBRANCH   9  10
BRANCH   9  14
HETATM   14  N1  UNL     1      -4.412   0.024   1.036  1.00  0.00    -0.343 N 
HETATM   15  C6  UNL     1      -5.377  -0.181   0.067  1.00  0.00     0.288 C 
HETATM   16  O1  UNL     1      -5.240   0.298  -1.085  1.00  0.00    -0.264 OA
ATOM     17  H1  UNL     1      -4.559  -0.377   1.962  1.00  0.00     0.163 HD
BRANCH  15  18
HETATM   18  C7  UNL     1      -6.564  -0.954   0.353  1.00  0.00     0.216 C 
HETATM   19  O2  UNL     1      -6.732  -1.452   1.480  1.00  0.00    -0.287 OA
BRANCH  18  20
HETATM   20  C8  UNL     1      -7.595  -1.167  -0.688  1.00  0.00     0.095 C 
BRANCH  20  21
HETATM   21  C9  UNL     1      -8.684  -2.078  -0.161  1.00  0.00     0.018 C 
HETATM   22  C10 UNL     1      -9.375  -1.532   1.048  1.00  0.00     0.012 C 
BRANCH  21  23
HETATM   23  C11 UNL     1      -9.679  -2.240  -1.300  1.00  0.00     0.226 C 
HETATM   24  F1  UNL     1     -10.709  -3.057  -0.916  1.00  0.00    -0.255 F 
ENDBRANCH  21  23
ENDBRANCH  20  21
ENDBRANCH  18  20
ENDBRANCH  15  18
ENDBRANCH   9  14
ENDBRANCH   7   9
ENDBRANCH   1   7
BRANCH   1  25
HETATM   25  C14 UNL     1       0.261  -0.036   0.972  1.00  0.00     0.234 C 
HETATM   26  O4  UNL     1       0.104   0.277   2.167  1.00  0.00    -0.272 OA
HETATM   27  N2  UNL     1       1.594   0.014   0.451  1.00  0.00    -0.353 N 
ATOM     28  H2  UNL     1       1.734  -0.244  -0.526  1.00  0.00     0.163 HD
BRANCH  27  29
HETATM   29  C15 UNL     1       2.751   0.405   1.218  1.00  0.00     0.120 C 
HETATM   30  C16 UNL     1       3.660  -0.724   1.596  1.00  0.00     0.035 C 
BRANCH  29  31
HETATM   31  C17 UNL     1       3.486   1.574   0.646  1.00  0.00     0.130 C 
HETATM   32  C18 UNL     1       2.481   2.771   0.645  1.00  0.00     0.055 C 
HETATM   33  F2  UNL     1       4.461   1.976   1.525  1.00  0.00    -0.240 F 
BRANCH  31  34
HETATM   34  C19 UNL     1       3.912   1.439  -0.776  1.00  0.00     0.103 C 
HETATM   35  C20 UNL     1       4.650   2.707  -1.249  1.00  0.00     0.022 C 
BRANCH  34  36
HETATM   36  C21 UNL     1       4.710   0.316  -1.178  1.00  0.00     0.223 C 
HETATM   37  O5  UNL     1       4.203  -0.536  -1.989  1.00  0.00    -0.287 OA
BRANCH  36  38
HETATM   38  C22 UNL     1       6.096   0.000  -0.761  1.00  0.00     0.293 C 
HETATM   39  O6  UNL     1       6.598   0.839   0.003  1.00  0.00    -0.264 OA
HETATM   40  N3  UNL     1       6.755  -1.137  -1.196  1.00  0.00    -0.304 N 
HETATM   41  C23 UNL     1       7.960  -1.732  -1.032  1.00  0.00     0.126 C 
ATOM     42  H3  UNL     1       6.162  -1.684  -1.820  1.00  0.00     0.171 HD
BRANCH  41  43
HETATM   43  O7  UNL     1       8.096  -2.881  -1.705  1.00  0.00    -0.349 OA
ATOM     44  H7  UNL     1       8.942  -3.299  -1.590  1.00  0.00     0.219 HD
ENDBRANCH  41  43
BRANCH  41  45
HETATM   45  C24 UNL     1       9.176  -1.427  -0.288  1.00  0.00     0.021 A 
HETATM   46  C25 UNL     1       9.356  -0.189   0.570  1.00  0.00     0.024 C 
HETATM   47  C26 UNL     1       9.964  -2.639   0.218  1.00  0.00     0.018 A 
HETATM   48  C27 UNL     1      10.492  -1.857  -0.934  1.00  0.00     0.018 A 
ENDBRANCH  41  45
ENDBRANCH  36  38
ENDBRANCH  34  36
ENDBRANCH  31  34
ENDBRANCH  29  31
ENDBRANCH  27  29
ENDBRANCH   1  25
TORSDOF 17
