REMARK  19 active torsions:
REMARK  status: ('A' for Active; 'I' for Inactive)
REMARK    1  A    between atoms: C2_2  and  C3_3 
REMARK    2  A    between atoms: C3_3  and  C4_4 
REMARK    3  A    between atoms: C4_4  and  C5_5 
REMARK    4  A    between atoms: C5_5  and  C6_6 
REMARK    5  A    between atoms: C6_6  and  C7_7 
REMARK    6  A    between atoms: C7_7  and  C8_8 
REMARK    7  A    between atoms: C8_8  and  C9_9 
REMARK    8  A    between atoms: C9_9  and  C10_10 
REMARK    9  A    between atoms: C11_11  and  C12_12 
REMARK   10  A    between atoms: N2_16  and  C14_17 
REMARK   11  A    between atoms: C15_19  and  C16_20 
REMARK   12  A    between atoms: C16_20  and  C17_21 
REMARK       I    between atoms: C17_21  and  N3_23 
REMARK   13  A    between atoms: N3_23  and  C18_24 
REMARK   14  A    between atoms: N3_23  and  C26_33 
REMARK   15  A    between atoms: C18_24  and  C19_25 
REMARK   16  A    between atoms: C19_25  and  N4_26 
REMARK   17  A    between atoms: C26_33  and  C27_34 
REMARK   18  A    between atoms: C30_37  and  O3_38 
REMARK   19  A    between atoms: C31_40  and  O4_41 
ROOT
HETATM    1  C14 UNL     1      -0.611  -2.593   1.538  1.00  0.00     0.276 C 
HETATM    2  O1  UNL     1      -1.434  -1.624   2.039  1.00  0.00    -0.354 OA
HETATM    3  C15 UNL     1      -2.269  -1.183   1.043  1.00  0.00     0.164 C 
HETATM    4  C30 UNL     1      -1.795  -1.682  -0.275  1.00  0.00     0.180 C 
HETATM    5  C31 UNL     1      -0.957  -2.873   0.108  1.00  0.00     0.199 C 
ENDROOT
BRANCH   1   6
HETATM    6  N2  UNL     1       0.757  -2.103   1.691  1.00  0.00    -0.254 N 
HETATM    7  C13 UNL     1       1.280  -1.770   2.893  1.00  0.00     0.205 A 
HETATM    8  N1  UNL     1       2.539  -1.357   2.713  1.00  0.00    -0.329 N 
HETATM    9  C12 UNL     1       2.819  -1.430   1.376  1.00  0.00     0.177 A 
ATOM     10  H1  UNL     1       3.178  -1.043   3.444  1.00  0.00     0.168 HD
HETATM   11  N5  UNL     1       1.703  -1.888   0.812  1.00  0.00    -0.273 N 
ATOM     12  H5  UNL     1       1.597  -2.052  -0.189  1.00  0.00     0.189 HD
BRANCH   9  13
HETATM   13  C11 UNL     1       4.085  -1.069   0.780  1.00  0.00    -0.029 C 
HETATM   14  C10 UNL     1       5.150  -0.765   0.307  1.00  0.00    -0.098 C 
BRANCH  14  15
HETATM   15  C9  UNL     1       6.456  -0.390  -0.241  1.00  0.00     0.094 C 
BRANCH  15  16
HETATM   16  C8  UNL     1       7.467  -1.424   0.274  1.00  0.00     0.012 C 
BRANCH  16  17
HETATM   17  C7  UNL     1       8.818  -1.014  -0.293  1.00  0.00     0.001 C 
BRANCH  17  18
HETATM   18  C6  UNL     1       9.901  -1.961   0.149  1.00  0.00     0.000 C 
BRANCH  18  19
HETATM   19  C5  UNL     1      11.223  -1.555  -0.405  1.00  0.00     0.000 C 
BRANCH  19  20
HETATM   20  C4  UNL     1      11.588  -0.187   0.062  1.00  0.00     0.000 C 
BRANCH  20  21
HETATM   21  C3  UNL     1      12.949   0.268  -0.482  1.00  0.00    -0.000 C 
BRANCH  21  22
HETATM   22  C2  UNL     1      13.134   1.674   0.100  1.00  0.00    -0.005 C 
HETATM   23  C1  UNL     1      12.001   2.558  -0.372  1.00  0.00     0.005 C 
ENDBRANCH  21  22
ENDBRANCH  20  21
ENDBRANCH  19  20
ENDBRANCH  18  19
ENDBRANCH  17  18
ENDBRANCH  16  17
ENDBRANCH  15  16
ENDBRANCH  14  15
ENDBRANCH   9  13
ENDBRANCH   1   6
BRANCH   5  24
HETATM   24  O4  UNL     1       0.148  -3.028  -0.725  1.00  0.00    -0.388 OA
ATOM     25  H4  UNL     1      -0.071  -3.206  -1.632  1.00  0.00     0.210 HD
ENDBRANCH   5  24
BRANCH   3  26
HETATM   26  C16 UNL     1      -2.353   0.324   1.129  1.00  0.00     0.138 C 
BRANCH  26  27
HETATM   27  C17 UNL     1      -3.198   0.976   0.160  1.00  0.00     0.230 C 
HETATM   28  O2  UNL     1      -2.847   0.797  -1.069  1.00  0.00    -0.273 OA
HETATM   29  N3  UNL     1      -4.357   1.793   0.332  1.00  0.00    -0.302 N 
BRANCH  29  30
HETATM   30  C18 UNL     1      -4.872   2.344  -0.885  1.00  0.00     0.116 C 
BRANCH  30  31
HETATM   31  C19 UNL     1      -5.746   1.614  -1.785  1.00  0.00     0.103 C 
BRANCH  31  32
HETATM   32  N4  UNL     1      -7.044   1.204  -1.515  1.00  0.00    -0.389 N 
HETATM   33  C20 UNL     1      -8.040   2.208  -1.461  1.00  0.00     0.122 C 
HETATM   34  C21 UNL     1      -9.397   1.809  -1.011  1.00  0.00     0.024 C 
HETATM   35  C22 UNL     1      -9.827   0.498  -1.562  1.00  0.00    -0.015 C 
HETATM   36  C23 UNL     1     -10.225  -0.417  -0.424  1.00  0.00     0.010 C 
HETATM   37  C24 UNL     1      -8.796  -0.151  -2.457  1.00  0.00     0.024 C 
HETATM   38  C25 UNL     1      -7.435  -0.118  -1.823  1.00  0.00     0.122 C 
ENDBRANCH  31  32
ENDBRANCH  30  31
ENDBRANCH  29  30
BRANCH  29  39
HETATM   39  C26 UNL     1      -4.815   2.129   1.613  1.00  0.00     0.101 C 
BRANCH  39  40
HETATM   40  C27 UNL     1      -5.743   1.406   2.457  1.00  0.00    -0.072 C 
HETATM   41  C28 UNL     1      -7.136   1.142   2.047  1.00  0.00     0.044 C 
HETATM   42  C29 UNL     1      -5.240   0.134   3.129  1.00  0.00     0.044 C 
ENDBRANCH  39  40
ENDBRANCH  29  39
ENDBRANCH  26  27
ENDBRANCH   3  26
BRANCH   4  43
HETATM   43  O3  UNL     1      -2.848  -2.068  -1.115  1.00  0.00    -0.390 OA
ATOM     44  H3  UNL     1      -2.545  -2.387  -1.957  1.00  0.00     0.210 HD
ENDBRANCH   4  43
TORSDOF 19
