REMARK  18 active torsions:
REMARK  status: ('A' for Active; 'I' for Inactive)
REMARK    1  A    between atoms: O1_2  and  C2_3 
REMARK    2  A    between atoms: C2_3  and  C3_5 
REMARK    3  A    between atoms: C3_5  and  C4_6 
REMARK    4  A    between atoms: C4_6  and  C5_7 
REMARK    5  A    between atoms: C5_7  and  C6_8 
REMARK    6  A    between atoms: C6_8  and  C7_9 
REMARK    7  A    between atoms: C7_9  and  N1_10 
REMARK    8  A    between atoms: C7_9  and  C24_37 
REMARK    9  A    between atoms: N1_10  and  C8_12 
REMARK   10  A    between atoms: C8_12  and  C10_14 
REMARK   11  A    between atoms: C10_14  and  N2_15 
REMARK       I    between atoms: N2_15  and  C11_17 
REMARK   12  A    between atoms: C11_17  and  C12_19 
REMARK       I    between atoms: N3_23  and  C16_24 
REMARK   13  A    between atoms: C16_24  and  C17_26 
REMARK   14  A    between atoms: C17_26  and  C18_27 
REMARK   15  A    between atoms: C18_27  and  C19_29 
REMARK       I    between atoms: C19_29  and  N4_31 
REMARK   16  A    between atoms: N4_31  and  C20_33 
REMARK   17  A    between atoms: C24_37  and  C25_39 
REMARK   18  A    between atoms: C25_39  and  C26_40 
ROOT
HETATM    1  C10 UNL     1      -0.643   0.727   0.712  1.00  0.00     0.147 C 
ENDROOT
BRANCH   1   2
HETATM    2  C8  UNL     1      -0.678  -0.393  -0.326  1.00  0.00     0.091 C 
HETATM    3  C9  UNL     1      -0.840  -1.712   0.342  1.00  0.00     0.033 C 
BRANCH   2   4
HETATM    4  N1  UNL     1      -1.554  -0.054  -1.366  1.00  0.00    -0.405 N 
ATOM      5  H1  UNL     1      -1.199   0.096  -2.310  1.00  0.00     0.154 HD
BRANCH   4   6
HETATM    6  C7  UNL     1      -2.948   0.079  -1.091  1.00  0.00     0.147 C 
BRANCH   6   7
HETATM    7  C6  UNL     1      -3.513   0.926  -2.221  1.00  0.00     0.033 C 
BRANCH   7   8
HETATM    8  C5  UNL     1      -4.961   1.220  -2.141  1.00  0.00     0.003 C 
BRANCH   8   9
HETATM    9  C4  UNL     1      -5.350   2.004  -0.883  1.00  0.00     0.010 C 
BRANCH   9  10
HETATM   10  C3  UNL     1      -4.612   3.342  -0.884  1.00  0.00     0.111 C 
BRANCH  10  11
HETATM   11  C2  UNL     1      -4.950   4.147   0.294  1.00  0.00     0.258 C 
HETATM   12  O2  UNL     1      -5.750   3.733   1.178  1.00  0.00    -0.265 OA
BRANCH  11  13
HETATM   13  O1  UNL     1      -4.365   5.392   0.424  1.00  0.00    -0.326 OA
HETATM   14  C1  UNL     1      -4.602   6.260   1.493  1.00  0.00     0.213 C 
ENDBRANCH  11  13
ENDBRANCH  10  11
ENDBRANCH   9  10
ENDBRANCH   8   9
ENDBRANCH   7   8
ENDBRANCH   6   7
BRANCH   6  15
HETATM   15  C24 UNL     1      -3.512  -1.314  -1.155  1.00  0.00     0.149 C 
HETATM   16  O7  UNL     1      -3.014  -2.110  -1.948  1.00  0.00    -0.296 OA
BRANCH  15  17
HETATM   17  C25 UNL     1      -4.635  -1.788  -0.313  1.00  0.00     0.085 C 
BRANCH  17  18
HETATM   18  C26 UNL     1      -5.084  -3.187  -0.623  1.00  0.00    -0.007 C 
HETATM   19  C27 UNL     1      -6.220  -3.487   0.371  1.00  0.00     0.005 C 
HETATM   20  C28 UNL     1      -7.118  -4.590  -0.183  1.00  0.00     0.000 C 
HETATM   21  C29 UNL     1      -7.954  -4.052  -1.333  1.00  0.00     0.000 C 
HETATM   22  C30 UNL     1      -7.181  -2.922  -1.995  1.00  0.00     0.000 C 
HETATM   23  C31 UNL     1      -5.712  -3.306  -1.986  1.00  0.00     0.005 C 
ENDBRANCH  17  18
ENDBRANCH  15  17
ENDBRANCH   6  15
ENDBRANCH   4   6
ENDBRANCH   2   4
ENDBRANCH   1   2
BRANCH   1  24
HETATM   24  N2  UNL     1       0.210   0.473   1.817  1.00  0.00    -0.357 N 
HETATM   25  C11 UNL     1       1.597   0.258   1.764  1.00  0.00     0.240 C 
HETATM   26  O3  UNL     1       2.198   0.281   0.671  1.00  0.00    -0.271 OA
ATOM     27  H2  UNL     1      -0.226   0.444   2.739  1.00  0.00     0.162 HD
BRANCH  25  28
HETATM   28  C12 UNL     1       2.409  -0.004   2.980  1.00  0.00     0.179 C 
HETATM   29  C13 UNL     1       2.005  -1.321   3.636  1.00  0.00     0.037 C 
HETATM   30  C14 UNL     1       2.987  -2.331   3.150  1.00  0.00     0.022 C 
HETATM   31  C15 UNL     1       4.040  -1.564   2.432  1.00  0.00     0.127 C 
HETATM   32  N3  UNL     1       3.803  -0.176   2.686  1.00  0.00    -0.338 N 
HETATM   33  C16 UNL     1       4.762   0.868   2.660  1.00  0.00     0.228 C 
HETATM   34  O4  UNL     1       4.430   2.074   2.910  1.00  0.00    -0.273 OA
BRANCH  33  35
HETATM   35  C17 UNL     1       6.192   0.618   2.342  1.00  0.00     0.192 C 
BRANCH  35  36
HETATM   36  C18 UNL     1       6.443   1.095   0.961  1.00  0.00     0.225 C 
HETATM   37  O5  UNL     1       5.510   1.599   0.298  1.00  0.00    -0.287 OA
BRANCH  36  38
HETATM   38  C19 UNL     1       7.756   0.999   0.332  1.00  0.00     0.288 C 
HETATM   39  O6  UNL     1       8.731   0.496   0.969  1.00  0.00    -0.264 OA
HETATM   40  N4  UNL     1       7.966   1.462  -0.985  1.00  0.00    -0.346 N 
ATOM     41  H4  UNL     1       7.187   1.870  -1.501  1.00  0.00     0.163 HD
BRANCH  40  42
HETATM   42  C20 UNL     1       9.255   1.370  -1.614  1.00  0.00     0.022 C 
HETATM   43  C21 UNL     1       9.747  -0.041  -1.732  1.00  0.00     0.037 C 
HETATM   44  C22 UNL     1      10.305   2.132  -0.817  1.00  0.00     0.037 C 
HETATM   45  C23 UNL     1       9.179   2.012  -2.984  1.00  0.00     0.037 C 
ENDBRANCH  40  42
ENDBRANCH  36  38
ENDBRANCH  35  36
ENDBRANCH  33  35
ENDBRANCH  25  28
ENDBRANCH   1  24
TORSDOF 18
