REMARK  16 active torsions:
REMARK  status: ('A' for Active; 'I' for Inactive)
REMARK    1  A    between atoms: C2_2  and  C3_3 
REMARK    2  A    between atoms: C3_3  and  C4_4 
REMARK    3  A    between atoms: C4_4  and  C5_5 
REMARK    4  A    between atoms: C5_5  and  N1_6 
REMARK    5  A    between atoms: C5_5  and  C11_18 
REMARK       I    between atoms: N1_6  and  C6_8 
REMARK       I    between atoms: C6_8  and  N2_10 
REMARK       I    between atoms: C11_18  and  N4_20 
REMARK    6  A    between atoms: N4_20  and  C12_22 
REMARK    7  A    between atoms: C12_22  and  C13_23 
REMARK    8  A    between atoms: C12_22  and  C20_30 
REMARK    9  A    between atoms: C13_23  and  C14_24 
REMARK   10  A    between atoms: C20_30  and  C21_32 
REMARK   11  A    between atoms: C21_32  and  O4_33 
REMARK   12  A    between atoms: C21_32  and  C29_43 
REMARK   13  A    between atoms: O4_33  and  C22_34 
REMARK   14  A    between atoms: C22_34  and  O6_36 
REMARK   15  A    between atoms: O6_36  and  C23_37 
REMARK   16  A    between atoms: C29_43  and  O8_45 
ROOT
HETATM    1  C12 UNL     1      -0.805   1.189   0.723  1.00  0.00     0.158 C 
ENDROOT
BRANCH   1   2
HETATM    2  N4  UNL     1       0.626   1.407   0.958  1.00  0.00    -0.348 N 
HETATM    3  C11 UNL     1       1.605   0.573   0.349  1.00  0.00     0.241 C 
HETATM    4  O2  UNL     1       1.229  -0.359  -0.400  1.00  0.00    -0.271 OA
ATOM      5  H4  UNL     1       0.924   2.168   1.568  1.00  0.00     0.163 HD
BRANCH   3   6
HETATM    6  C5  UNL     1       3.057   0.802   0.596  1.00  0.00     0.178 C 
BRANCH   6   7
HETATM    7  C4  UNL     1       3.382   0.917   2.041  1.00  0.00     0.035 C 
BRANCH   7   8
HETATM    8  C3  UNL     1       4.729   1.365   2.432  1.00  0.00     0.002 C 
BRANCH   8   9
HETATM    9  C2  UNL     1       5.905   0.569   2.006  1.00  0.00    -0.004 C 
HETATM   10  C1  UNL     1       7.185   1.224   2.579  1.00  0.00     0.005 C 
ENDBRANCH   8   9
ENDBRANCH   7   8
ENDBRANCH   6   7
BRANCH   6  11
HETATM   11  N1  UNL     1       3.869  -0.149  -0.128  1.00  0.00    -0.330 N 
HETATM   12  C6  UNL     1       3.846  -1.537   0.155  1.00  0.00     0.319 C 
HETATM   13  O1  UNL     1       3.106  -1.963   1.060  1.00  0.00    -0.247 OA
HETATM   14  N2  UNL     1       4.651  -2.450  -0.576  1.00  0.00    -0.331 N 
HETATM   15  C7  UNL     1       5.536  -1.981  -1.645  1.00  0.00     0.155 C 
HETATM   16  C10 UNL     1       4.559  -3.854  -0.228  1.00  0.00     0.155 C 
HETATM   17  C8  UNL     1       6.634  -2.989  -1.937  1.00  0.00     0.252 C 
HETATM   18  N3  UNL     1       6.899  -3.779  -0.724  1.00  0.00    -0.072 N 
HETATM   19  C9  UNL     1       5.767  -4.661  -0.533  1.00  0.00     0.252 C 
ATOM     20  H32 UNL     1       7.790  -4.274  -0.756  1.00  0.00     0.277 HD
ATOM     21  H31 UNL     1       7.099  -3.202   0.093  1.00  0.00     0.277 HD
ATOM     22  H1  UNL     1       4.481   0.191  -0.870  1.00  0.00     0.165 HD
ENDBRANCH   6  11
ENDBRANCH   3   6
ENDBRANCH   1   2
BRANCH   1  23
HETATM   23  C13 UNL     1      -1.430   2.479   0.363  1.00  0.00     0.037 C 
BRANCH  23  24
HETATM   24  C14 UNL     1      -0.992   3.207  -0.831  1.00  0.00    -0.012 C 
HETATM   25  C15 UNL     1       0.419   3.650  -0.939  1.00  0.00     0.005 C 
HETATM   26  C16 UNL     1       0.405   4.883  -1.876  1.00  0.00     0.000 C 
HETATM   27  C17 UNL     1      -0.091   4.433  -3.232  1.00  0.00     0.000 C 
HETATM   28  C18 UNL     1      -1.339   3.618  -3.195  1.00  0.00     0.000 C 
HETATM   29  C19 UNL     1      -1.336   2.525  -2.143  1.00  0.00     0.005 C 
ENDBRANCH  23  24
ENDBRANCH   1  23
BRANCH   1  30
HETATM   30  C20 UNL     1      -1.384   0.753   2.022  1.00  0.00     0.188 C 
HETATM   31  O3  UNL     1      -0.664   0.727   3.002  1.00  0.00    -0.292 OA
BRANCH  30  32
HETATM   32  C21 UNL     1      -2.789   0.336   2.247  1.00  0.00     0.304 C 
BRANCH  32  33
HETATM   33  O4  UNL     1      -3.565   0.294   1.071  1.00  0.00    -0.275 OA
BRANCH  33  34
HETATM   34  C22 UNL     1      -4.183  -0.883   0.678  1.00  0.00     0.408 C 
HETATM   35  O5  UNL     1      -4.035  -1.914   1.395  1.00  0.00    -0.229 OA
BRANCH  34  36
HETATM   36  O6  UNL     1      -4.961  -1.016  -0.458  1.00  0.00    -0.293 OA
BRANCH  36  37
HETATM   37  C23 UNL     1      -5.571  -2.270  -0.805  1.00  0.00     0.134 C 
HETATM   38  C24 UNL     1      -5.073  -2.739  -2.156  1.00  0.00     0.032 C 
HETATM   39  C25 UNL     1      -6.034  -3.762  -2.715  1.00  0.00     0.002 C 
HETATM   40  C26 UNL     1      -6.828  -4.356  -1.573  1.00  0.00     0.000 C 
HETATM   41  C27 UNL     1      -7.793  -3.345  -0.990  1.00  0.00     0.002 C 
HETATM   42  C28 UNL     1      -7.058  -2.039  -0.839  1.00  0.00     0.032 C 
ENDBRANCH  36  37
ENDBRANCH  34  36
ENDBRANCH  33  34
ENDBRANCH  32  33
BRANCH  32  43
HETATM   43  C29 UNL     1      -3.486   1.231   3.208  1.00  0.00     0.295 C 
HETATM   44  O7  UNL     1      -3.042   1.472   4.363  1.00  0.00    -0.262 OA
BRANCH  43  45
HETATM   45  O8  UNL     1      -4.677   1.852   2.872  1.00  0.00    -0.324 OA
HETATM   46  C30 UNL     1      -5.363   2.711   3.764  1.00  0.00     0.213 C 
ENDBRANCH  43  45
ENDBRANCH  32  43
ENDBRANCH  30  32
ENDBRANCH   1  30
TORSDOF 16
