REMARK  14 active torsions:
REMARK  status: ('A' for Active; 'I' for Inactive)
REMARK    1  A    between atoms: O1_2  and  C2_3 
REMARK    2  A    between atoms: C2_3  and  O2_4 
REMARK    3  A    between atoms: O2_4  and  C3_5 
REMARK    4  A    between atoms: C12_14  and  C13_15 
REMARK    5  A    between atoms: C13_15  and  C14_17 
REMARK    6  A    between atoms: C14_17  and  C15_18 
REMARK    7  A    between atoms: C15_18  and  C16_19 
REMARK       I    between atoms: C16_19  and  N1_21 
REMARK    8  A    between atoms: N1_21  and  C17_23 
REMARK    9  A    between atoms: C17_23  and  C18_24 
REMARK   10  A    between atoms: C18_24  and  C19_25 
REMARK   11  A    between atoms: C19_25  and  C20_26 
REMARK   12  A    between atoms: C20_26  and  N2_27 
REMARK       I    between atoms: N2_27  and  C21_29 
REMARK   13  A    between atoms: C21_29  and  C22_31 
REMARK   14  A    between atoms: C22_31  and  O6_33 
ROOT
HETATM    1  C3  UNL     1      -6.533  -2.321   1.081  1.00  0.00     0.190 C 
HETATM    2  C4  UNL     1      -5.980  -1.500  -0.127  1.00  0.00     0.050 C 
HETATM    3  C5  UNL     1      -4.819  -0.963   0.666  1.00  0.00    -0.001 C 
HETATM    4  C6  UNL     1      -5.522  -0.086   1.603  1.00  0.00     0.019 C 
HETATM    5  C7  UNL     1      -3.685  -0.207   0.197  1.00  0.00     0.002 C 
HETATM    6  C8  UNL     1      -3.824   1.226  -0.175  1.00  0.00     0.007 C 
HETATM    7  C9  UNL     1      -2.526   1.657  -0.809  1.00  0.00     0.011 C 
HETATM    8  C10 UNL     1      -1.284   1.054  -0.303  1.00  0.00    -0.030 C 
HETATM    9  C11 UNL     1      -0.576   0.317  -1.452  1.00  0.00     0.016 C 
HETATM   10  C12 UNL     1      -0.362   2.152   0.158  1.00  0.00     0.064 C 
HETATM   11  C24 UNL     1      -0.480   2.216   1.667  1.00  0.00     0.013 C 
HETATM   12  C25 UNL     1      -0.520   0.762   2.001  1.00  0.00     0.006 C 
HETATM   13  C26 UNL     1      -1.360   0.159   0.864  1.00  0.00    -0.001 C 
HETATM   14  C27 UNL     1      -2.731  -0.176   1.421  1.00  0.00     0.001 C 
HETATM   15  C28 UNL     1      -2.603  -1.450   2.141  1.00  0.00     0.017 C 
HETATM   16  C29 UNL     1      -3.473  -1.984   3.147  1.00  0.00     0.176 C 
HETATM   17  O7  UNL     1      -4.739  -2.437   2.925  1.00  0.00    -0.350 OA
HETATM   18  C30 UNL     1      -5.205  -2.792   1.739  1.00  0.00     0.224 A 
HETATM   19  O8  UNL     1      -4.728  -3.558   0.735  1.00  0.00    -0.333 OA
HETATM   20  C31 UNL     1      -4.259  -2.297   0.844  1.00  0.00     0.131 A 
HETATM   21  C32 UNL     1      -2.777  -2.448   0.976  1.00  0.00     0.052 C 
ENDROOT
BRANCH  10  22
HETATM   22  C13 UNL     1       1.054   2.017  -0.173  1.00  0.00     0.132 C 
HETATM   23  O3  UNL     1       1.857   1.449   0.564  1.00  0.00    -0.298 OA
BRANCH  22  24
HETATM   24  C14 UNL     1       1.616   2.556  -1.431  1.00  0.00     0.088 C 
BRANCH  24  25
HETATM   25  C15 UNL     1       3.051   2.191  -1.640  1.00  0.00     0.110 C 
BRANCH  25  26
HETATM   26  C16 UNL     1       3.963   2.693  -0.612  1.00  0.00     0.217 C 
HETATM   27  O4  UNL     1       3.621   3.536   0.239  1.00  0.00    -0.274 OA
HETATM   28  N1  UNL     1       5.317   2.202  -0.562  1.00  0.00    -0.361 N 
ATOM     29  H1  UNL     1       5.642   1.519  -1.246  1.00  0.00     0.162 HD
BRANCH  28  30
HETATM   30  C17 UNL     1       6.204   2.682   0.457  1.00  0.00     0.122 C 
BRANCH  30  31
HETATM   31  C18 UNL     1       7.579   2.113   0.359  1.00  0.00     0.021 C 
BRANCH  31  32
HETATM   32  C19 UNL     1       8.406   2.441  -0.807  1.00  0.00     0.021 C 
BRANCH  32  33
HETATM   33  C20 UNL     1       8.051   2.079  -2.173  1.00  0.00     0.122 C 
BRANCH  33  34
HETATM   34  N2  UNL     1       7.951   0.695  -2.521  1.00  0.00    -0.359 N 
HETATM   35  C21 UNL     1       8.990  -0.243  -2.422  1.00  0.00     0.246 C 
HETATM   36  O5  UNL     1      10.108   0.096  -1.997  1.00  0.00    -0.271 OA
ATOM     37  H2  UNL     1       7.052   0.363  -2.869  1.00  0.00     0.162 HD
BRANCH  35  38
HETATM   38  C22 UNL     1       8.764  -1.645  -2.827  1.00  0.00     0.205 C 
HETATM   39  C23 UNL     1       7.624  -2.292  -2.074  1.00  0.00     0.049 C 
BRANCH  38  40
HETATM   40  O6  UNL     1       9.914  -2.423  -2.673  1.00  0.00    -0.387 OA
ATOM     41  H6  UNL     1       9.769  -3.325  -2.934  1.00  0.00     0.210 HD
ENDBRANCH  38  40
ENDBRANCH  35  38
ENDBRANCH  33  34
ENDBRANCH  32  33
ENDBRANCH  31  32
ENDBRANCH  30  31
ENDBRANCH  28  30
ENDBRANCH  25  26
ENDBRANCH  24  25
ENDBRANCH  22  24
ENDBRANCH  10  22
BRANCH   1  42
HETATM   42  O2  UNL     1      -7.224  -3.450   0.604  1.00  0.00    -0.356 OA
BRANCH  42  43
HETATM   43  C2  UNL     1      -8.492  -3.582   1.089  1.00  0.00     0.337 C 
BRANCH  43  44
HETATM   44  O1  UNL     1      -9.346  -2.527   0.798  1.00  0.00    -0.372 OA
HETATM   45  C1  UNL     1     -10.622  -2.765   1.345  1.00  0.00     0.204 C 
ENDBRANCH  43  44
ENDBRANCH  42  43
ENDBRANCH   1  42
TORSDOF 14
