REMARK  15 active torsions:
REMARK  status: ('A' for Active; 'I' for Inactive)
REMARK    1  A    between atoms: C2_2  and  C3_4 
REMARK    2  A    between atoms: C3_4  and  N1_5 
REMARK    3  A    between atoms: C3_4  and  C18_24 
REMARK       I    between atoms: N1_5  and  C4_7 
REMARK    4  A    between atoms: C4_7  and  C5_9 
REMARK    5  A    between atoms: C5_9  and  C6_11 
REMARK    6  A    between atoms: C6_11  and  C7_12 
REMARK    7  A    between atoms: C9_15  and  C10_16 
REMARK    8  A    between atoms: C13_19  and  C14_20 
REMARK       I    between atoms: C18_24  and  N2_26 
REMARK    9  A    between atoms: N2_26  and  C19_28 
REMARK   10  A    between atoms: C19_28  and  C20_29 
REMARK   11  A    between atoms: C19_28  and  C27_41 
REMARK       I    between atoms: C20_29  and  N3_31 
REMARK   12  A    between atoms: N3_31  and  C21_32 
REMARK   13  A    between atoms: C21_32  and  C22_33 
REMARK   14  A    between atoms: C21_32  and  C24_38 
REMARK   15  A    between atoms: C22_33  and  C23_35 
ROOT
HETATM    1  C3  UNL     1       0.782  -0.584  -2.153  1.00  0.00     0.246 C 
ENDROOT
BRANCH   1   2
HETATM    2  C2  UNL     1       0.976  -0.485  -3.625  1.00  0.00     0.154 C 
HETATM    3  C1  UNL     1       2.117  -1.044  -4.371  1.00  0.00     0.093 C 
HETATM    4  O1  UNL     1       0.091   0.121  -4.255  1.00  0.00    -0.296 OA
ENDBRANCH   1   2
BRANCH   1   5
HETATM    5  N1  UNL     1      -0.480   0.070  -1.807  1.00  0.00    -0.335 N 
HETATM    6  C4  UNL     1      -1.522  -0.592  -1.145  1.00  0.00     0.288 C 
HETATM    7  O2  UNL     1      -1.382  -1.789  -0.809  1.00  0.00    -0.264 OA
ATOM      8  H1  UNL     1      -0.607   1.050  -2.059  1.00  0.00     0.164 HD
BRANCH   6   9
HETATM    9  C5  UNL     1      -2.773   0.075  -0.848  1.00  0.00     0.220 C 
HETATM   10  O3  UNL     1      -2.904   1.285  -1.089  1.00  0.00    -0.287 OA
BRANCH   9  11
HETATM   11  C6  UNL     1      -3.919  -0.756  -0.244  1.00  0.00     0.128 C 
BRANCH  11  12
HETATM   12  C7  UNL     1      -5.247  -0.089  -0.619  1.00  0.00    -0.036 A 
HETATM   13  C8  UNL     1      -5.282   0.487  -1.864  1.00  0.00     0.058 A 
HETATM   14  S1  UNL     1      -6.830   1.133  -1.985  1.00  0.00    -0.105 SA
HETATM   15  C9  UNL     1      -7.447   0.658  -0.424  1.00  0.00    -0.007 A 
HETATM   16  C13 UNL     1      -6.395   0.002   0.137  1.00  0.00    -0.030 A 
BRANCH  15  17
HETATM   17  C10 UNL     1      -8.823   1.047  -0.016  1.00  0.00     0.018 C 
HETATM   18  C11 UNL     1      -9.582   1.523  -1.275  1.00  0.00     0.015 C 
HETATM   19  C12 UNL     1      -8.781   2.310   0.859  1.00  0.00     0.015 C 
ENDBRANCH  15  17
BRANCH  16  20
HETATM   20  C14 UNL     1      -6.451  -0.618   1.527  1.00  0.00    -0.022 C 
HETATM   21  C15 UNL     1      -5.505   0.005   2.505  1.00  0.00     0.019 C 
HETATM   22  C16 UNL     1      -5.881  -2.079   1.350  1.00  0.00     0.019 C 
HETATM   23  C17 UNL     1      -7.820  -0.891   2.041  1.00  0.00     0.019 C 
ENDBRANCH  16  20
ENDBRANCH  11  12
ENDBRANCH   9  11
ENDBRANCH   6   9
ENDBRANCH   1   5
BRANCH   1  24
HETATM   24  C18 UNL     1       1.891   0.067  -1.439  1.00  0.00     0.248 C 
HETATM   25  O4  UNL     1       1.654   1.079  -0.732  1.00  0.00    -0.271 OA
HETATM   26  N2  UNL     1       3.207  -0.412  -1.523  1.00  0.00    -0.344 N 
ATOM     27  H2  UNL     1       3.383  -1.235  -2.099  1.00  0.00     0.163 HD
BRANCH  26  28
HETATM   28  C19 UNL     1       4.349   0.205  -0.827  1.00  0.00     0.195 C 
BRANCH  28  29
HETATM   29  C20 UNL     1       4.824  -0.727   0.247  1.00  0.00     0.315 C 
HETATM   30  O5  UNL     1       4.163  -1.844   0.295  1.00  0.00    -0.255 OA
HETATM   31  N3  UNL     1       5.803  -0.540   1.118  1.00  0.00    -0.369 NA
BRANCH  31  32
HETATM   32  C21 UNL     1       6.608  -0.302   1.948  1.00  0.00     0.148 C 
BRANCH  32  33
HETATM   33  C22 UNL     1       6.372   0.624   3.060  1.00  0.00     0.284 C 
HETATM   34  O6  UNL     1       7.352   0.788   3.893  1.00  0.00    -0.278 OA
BRANCH  33  35
HETATM   35  C23 UNL     1       5.191   1.364   3.331  1.00  0.00     0.254 C 
HETATM   36  O7  UNL     1       4.165   1.213   2.615  1.00  0.00    -0.641 OA
HETATM   37  O8  UNL     1       5.121   2.268   4.370  1.00  0.00    -0.641 OA
ENDBRANCH  33  35
ENDBRANCH  32  33
BRANCH  32  38
HETATM   38  C24 UNL     1       7.956  -0.939   1.915  1.00  0.00     0.046 C 
HETATM   39  C25 UNL     1       8.159  -1.877   0.766  1.00  0.00     0.017 C 
HETATM   40  C26 UNL     1       8.955   0.219   1.758  1.00  0.00     0.017 C 
ENDBRANCH  32  38
ENDBRANCH  31  32
ENDBRANCH  28  29
BRANCH  28  41
HETATM   41  C27 UNL     1       5.405   0.625  -1.790  1.00  0.00     0.010 C 
HETATM   42  C28 UNL     1       5.974  -0.515  -2.585  1.00  0.00     0.012 C 
HETATM   43  C29 UNL     1       6.506   1.432  -1.157  1.00  0.00     0.012 C 
ENDBRANCH  28  41
ENDBRANCH  26  28
ENDBRANCH   1  24
TORSDOF 15
