REMARK  18 active torsions:
REMARK  status: ('A' for Active; 'I' for Inactive)
REMARK    1  A    between atoms: C2_2  and  C3_3 
REMARK    2  A    between atoms: C3_3  and  C5_5 
REMARK    3  A    between atoms: C5_5  and  N1_6 
REMARK    4  A    between atoms: C5_5  and  C11_15 
REMARK       I    between atoms: N1_6  and  C6_8 
REMARK    5  A    between atoms: C6_8  and  O2_10 
REMARK    6  A    between atoms: O2_10  and  C7_11 
REMARK       I    between atoms: C11_15  and  N2_17 
REMARK    7  A    between atoms: N2_17  and  C12_19 
REMARK    8  A    between atoms: C12_19  and  C13_20 
REMARK    9  A    between atoms: C12_19  and  C26_42 
REMARK   10  A    between atoms: C13_20  and  O4_21 
REMARK   11  A    between atoms: C13_20  and  N3_23 
REMARK   12  A    between atoms: C17_27  and  C18_28 
REMARK       I    between atoms: C18_28  and  N4_30 
REMARK   13  A    between atoms: N4_30  and  C19_32 
REMARK   14  A    between atoms: C19_32  and  S1_33 
REMARK   15  A    between atoms: C19_32  and  C23_39 
REMARK   16  A    between atoms: S1_33  and  C20_34 
REMARK   17  A    between atoms: C20_34  and  C21_35 
REMARK   18  A    between atoms: C21_35  and  O7_37 
ROOT
HETATM    1  C12 UNL     1      -1.020  -0.560   2.287  1.00  0.00     0.162 C 
ENDROOT
BRANCH   1   2
HETATM    2  N2  UNL     1      -2.167  -0.992   1.467  1.00  0.00    -0.347 N 
HETATM    3  C11 UNL     1      -2.597  -0.518   0.257  1.00  0.00     0.241 C 
HETATM    4  O3  UNL     1      -1.996   0.441  -0.345  1.00  0.00    -0.271 OA
ATOM      5  H2  UNL     1      -2.720  -1.755   1.858  1.00  0.00     0.163 HD
BRANCH   3   6
HETATM    6  C5  UNL     1      -3.806  -1.033  -0.525  1.00  0.00     0.182 C 
BRANCH   6   7
HETATM    7  C3  UNL     1      -4.583  -1.934   0.328  1.00  0.00     0.013 C 
HETATM    8  C4  UNL     1      -3.804  -3.288   0.311  1.00  0.00     0.012 C 
BRANCH   7   9
HETATM    9  C2  UNL     1      -5.921  -2.339  -0.306  1.00  0.00     0.002 C 
HETATM   10  C1  UNL     1      -6.493  -3.415   0.590  1.00  0.00     0.005 C 
ENDBRANCH   7   9
ENDBRANCH   6   7
BRANCH   6  11
HETATM   11  N1  UNL     1      -4.444   0.203  -0.947  1.00  0.00    -0.323 N 
HETATM   12  C6  UNL     1      -4.222   0.821  -2.174  1.00  0.00     0.362 C 
HETATM   13  O1  UNL     1      -3.424   0.322  -3.000  1.00  0.00    -0.238 OA
ATOM     14  H1  UNL     1      -5.097   0.647  -0.301  1.00  0.00     0.165 HD
BRANCH  12  15
HETATM   15  O2  UNL     1      -4.861   1.984  -2.516  1.00  0.00    -0.294 OA
BRANCH  15  16
HETATM   16  C7  UNL     1      -4.718   2.692  -3.695  1.00  0.00     0.061 C 
HETATM   17  C8  UNL     1      -3.291   3.181  -3.918  1.00  0.00     0.046 C 
HETATM   18  C9  UNL     1      -5.609   3.912  -3.644  1.00  0.00     0.046 C 
HETATM   19  C10 UNL     1      -5.099   1.912  -4.932  1.00  0.00     0.046 C 
ENDBRANCH  15  16
ENDBRANCH  12  15
ENDBRANCH   6  11
ENDBRANCH   3   6
ENDBRANCH   1   2
BRANCH   1  20
HETATM   20  C13 UNL     1       0.173  -1.283   1.864  1.00  0.00     0.138 C 
BRANCH  20  21
HETATM   21  O4  UNL     1       0.145  -1.753   0.634  1.00  0.00    -0.348 OA
ATOM     22  H4  UNL     1       0.922  -2.224   0.358  1.00  0.00     0.219 HD
ENDBRANCH  20  21
BRANCH  20  23
HETATM   23  N3  UNL     1       1.363  -1.581   2.536  1.00  0.00    -0.350 N 
HETATM   24  C14 UNL     1       1.747  -1.271   3.883  1.00  0.00     0.126 C 
HETATM   25  C15 UNL     1       2.522  -2.488   4.335  1.00  0.00     0.022 C 
HETATM   26  C16 UNL     1       2.876  -3.267   3.099  1.00  0.00     0.037 C 
HETATM   27  C17 UNL     1       2.511  -2.317   1.981  1.00  0.00     0.178 C 
BRANCH  27  28
HETATM   28  C18 UNL     1       3.613  -1.446   1.550  1.00  0.00     0.241 C 
HETATM   29  O5  UNL     1       4.626  -1.318   2.315  1.00  0.00    -0.271 OA
HETATM   30  N4  UNL     1       3.578  -0.763   0.326  1.00  0.00    -0.346 N 
ATOM     31  H4  UNL     1       2.748  -0.888  -0.254  1.00  0.00     0.163 HD
BRANCH  30  32
HETATM   32  C19 UNL     1       4.621   0.107  -0.187  1.00  0.00     0.150 C 
BRANCH  32  33
HETATM   33  S1  UNL     1       4.057   1.772  -0.516  1.00  0.00    -0.134 SA
BRANCH  33  34
HETATM   34  C20 UNL     1       5.393   2.750  -1.236  1.00  0.00     0.187 C 
BRANCH  34  35
HETATM   35  C21 UNL     1       6.520   2.945  -0.285  1.00  0.00     0.267 C 
HETATM   36  O6  UNL     1       6.521   2.462   0.888  1.00  0.00    -0.264 OA
BRANCH  35  37
HETATM   37  O7  UNL     1       7.651   3.677  -0.630  1.00  0.00    -0.326 OA
HETATM   38  C22 UNL     1       8.727   3.866   0.268  1.00  0.00     0.213 C 
ENDBRANCH  35  37
ENDBRANCH  34  35
ENDBRANCH  33  34
ENDBRANCH  32  33
BRANCH  32  39
HETATM   39  C23 UNL     1       5.245  -0.481  -1.445  1.00  0.00     0.010 C 
HETATM   40  C24 UNL     1       5.867  -1.821  -1.185  1.00  0.00     0.012 C 
HETATM   41  C25 UNL     1       4.253  -0.522  -2.592  1.00  0.00     0.012 C 
ENDBRANCH  32  39
ENDBRANCH  30  32
ENDBRANCH  27  28
ENDBRANCH  20  23
ENDBRANCH   1  20
BRANCH   1  42
HETATM   42  C26 UNL     1      -0.973   0.939   2.220  1.00  0.00     0.008 C 
HETATM   43  C27 UNL     1       0.153   1.565   3.059  1.00  0.00     0.012 C 
HETATM   44  C28 UNL     1      -2.286   1.526   2.717  1.00  0.00     0.012 C 
ENDBRANCH   1  42
TORSDOF 18
