REMARK  15 active torsions:
REMARK  status: ('A' for Active; 'I' for Inactive)
REMARK    1  A    between atoms: N1_1  and  C1_5 
REMARK    2  A    between atoms: C1_5  and  C2_6 
REMARK    3  A    between atoms: C2_6  and  S1_7 
REMARK    4  A    between atoms: S1_7  and  O1_8 
REMARK    5  A    between atoms: O1_8  and  N2_9 
REMARK    6  A    between atoms: C5_16  and  C6_17 
REMARK    7  A    between atoms: C5_16  and  C20_32 
REMARK    8  A    between atoms: C6_17  and  C7_18 
REMARK    9  A    between atoms: C7_18  and  N4_19 
REMARK   10  A    between atoms: C10_22  and  C11_23 
REMARK   11  A    between atoms: C11_23  and  C12_24 
REMARK   12  A    between atoms: C23_35  and  O4_36 
REMARK   13  A    between atoms: O4_36  and  C24_37 
REMARK   14  A    between atoms: C24_37  and  C25_38 
REMARK   15  A    between atoms: C25_38  and  N5_39 
ROOT
HETATM    1  N2  UNL     1       1.868   3.159   1.155  1.00  0.00    -0.170 N 
HETATM    2  C3  UNL     1       2.747   3.948   0.338  1.00  0.00     0.351 C 
HETATM    3  O2  UNL     1       3.666   4.697   0.781  1.00  0.00    -0.244 OA
HETATM    4  N3  UNL     1       2.371   3.709  -1.008  1.00  0.00    -0.275 N 
ATOM      5  H3  UNL     1       2.800   4.118  -1.838  1.00  0.00     0.173 HD
HETATM    6  C4  UNL     1       1.276   2.785  -0.985  1.00  0.00     0.261 C 
HETATM    7  O3  UNL     1       0.446   2.620  -1.905  1.00  0.00    -0.270 OA
HETATM    8  C5  UNL     1       1.314   2.069   0.326  1.00  0.00     0.175 C 
ENDROOT
BRANCH   8   9
HETATM    9  C6  UNL     1      -0.020   1.764   0.875  1.00  0.00     0.069 C 
BRANCH   9  10
HETATM   10  C7  UNL     1      -0.782   0.654   0.191  1.00  0.00     0.125 C 
BRANCH  10  11
HETATM   11  N4  UNL     1      -2.032   0.544   0.857  1.00  0.00    -0.393 N 
HETATM   12  C8  UNL     1      -2.942   1.618   0.698  1.00  0.00     0.122 C 
HETATM   13  C9  UNL     1      -4.370   1.185   0.563  1.00  0.00     0.024 C 
HETATM   14  C10 UNL     1      -4.468  -0.013  -0.424  1.00  0.00    -0.008 C 
HETATM   15  C18 UNL     1      -3.756  -1.125   0.218  1.00  0.00     0.049 C 
HETATM   16  C19 UNL     1      -2.577  -0.725   1.089  1.00  0.00     0.058 C 
BRANCH  14  17
HETATM   17  C11 UNL     1      -5.890  -0.110  -0.766  1.00  0.00     0.009 C 
BRANCH  17  18
HETATM   18  C12 UNL     1      -6.402  -1.132  -1.688  1.00  0.00    -0.014 C 
HETATM   19  C13 UNL     1      -7.922  -0.897  -1.895  1.00  0.00     0.005 C 
HETATM   20  C14 UNL     1      -8.725  -1.129  -0.671  1.00  0.00     0.000 C 
HETATM   21  C15 UNL     1      -8.603  -2.594  -0.230  1.00  0.00     0.000 C 
HETATM   22  C16 UNL     1      -7.145  -2.816   0.046  1.00  0.00     0.000 C 
HETATM   23  C17 UNL     1      -6.305  -2.544  -1.188  1.00  0.00     0.005 C 
ENDBRANCH  17  18
ENDBRANCH  14  17
ENDBRANCH  10  11
ENDBRANCH   9  10
ENDBRANCH   8   9
BRANCH   8  24
HETATM   24  C20 UNL     1       2.293   0.985   0.299  1.00  0.00    -0.018 A 
HETATM   25  C21 UNL     1       2.302   0.184  -0.833  1.00  0.00     0.013 A 
HETATM   26  C22 UNL     1       3.190  -0.857  -0.963  1.00  0.00     0.037 A 
HETATM   27  C23 UNL     1       4.111  -1.146   0.031  1.00  0.00     0.068 A 
HETATM   28  C30 UNL     1       4.093  -0.352   1.143  1.00  0.00     0.037 A 
HETATM   29  C31 UNL     1       3.208   0.697   1.289  1.00  0.00     0.013 A 
BRANCH  27  30
HETATM   30  O4  UNL     1       5.006  -2.217  -0.135  1.00  0.00    -0.349 OA
BRANCH  30  31
HETATM   31  C24 UNL     1       4.953  -2.997  -1.341  1.00  0.00     0.206 C 
BRANCH  31  32
HETATM   32  C25 UNL     1       5.983  -4.073  -1.338  1.00  0.00     0.299 C 
BRANCH  32  33
HETATM   33  N5  UNL     1       7.335  -3.596  -1.233  1.00  0.00     0.090 N 
HETATM   34  C26 UNL     1       7.670  -3.014   0.013  1.00  0.00     0.272 C 
HETATM   35  C27 UNL     1       9.029  -3.558   0.400  1.00  0.00     0.032 C 
HETATM   36  C28 UNL     1       9.594  -4.040  -0.939  1.00  0.00     0.032 C 
HETATM   37  C29 UNL     1       8.308  -4.588  -1.568  1.00  0.00     0.272 C 
ENDBRANCH  32  33
ENDBRANCH  31  32
ENDBRANCH  30  31
ENDBRANCH  27  30
ENDBRANCH   8  24
BRANCH   1  38
HETATM   38  O1  UNL     1       1.592   3.375   2.448  1.00  0.00    -0.196 OA
BRANCH  38  39
HETATM   39  S1  UNL     1       2.110   4.893   2.998  1.00  0.00     0.022 SA
BRANCH  39  40
HETATM   40  C2  UNL     1       0.815   6.131   3.028  1.00  0.00     0.135 C 
BRANCH  40  41
HETATM   41  C1  UNL     1       0.348   6.457   1.629  1.00  0.00     0.242 C 
BRANCH  41  42
HETATM   42  N1  UNL     1      -0.715   7.472   1.661  1.00  0.00    -0.079 N 
ATOM     43  H13 UNL     1      -1.489   7.190   2.262  1.00  0.00     0.274 HD
ATOM     44  H12 UNL     1      -0.425   8.308   2.168  1.00  0.00     0.274 HD
ATOM     45  H11 UNL     1      -1.030   7.692   0.716  1.00  0.00     0.274 HD
ENDBRANCH  41  42
ENDBRANCH  40  41
ENDBRANCH  39  40
ENDBRANCH  38  39
ENDBRANCH   1  38
TORSDOF 15
