REMARK  4 active torsions:
REMARK  status: ('A' for Active; 'I' for Inactive)
REMARK    1  A    between atoms: C1_2  and  C2_3 
REMARK       I    between atoms: C1_2  and  N4_16 
REMARK    2  A    between atoms: C2_3  and  N1_4 
REMARK    3  A    between atoms: N1_4  and  C3_6 
REMARK    4  A    between atoms: C3_6  and  N2_8 
ROOT
HETATM    1  N1  UNL     1      -0.566  -0.137   0.129  1.00  0.00    -0.358 N 
ATOM      2  H1  UNL     1      -0.599  -0.068   1.146  1.00  0.00     0.162 HD
ENDROOT
BRANCH   1   3
HETATM    3  C2  UNL     1       0.693   0.042  -0.527  1.00  0.00     0.225 C 
BRANCH   3   4
HETATM    4  C1  UNL     1       1.775   0.309   0.453  1.00  0.00     0.237 C 
HETATM    5  O1  UNL     1       1.424   0.335   1.682  1.00  0.00    -0.272 OA
HETATM    6  N4  UNL     1       3.119   0.523   0.072  1.00  0.00    -0.346 N 
HETATM    7  C8  UNL     1       3.668   0.524  -1.275  1.00  0.00     0.127 C 
HETATM    8  C12 UNL     1       4.233   0.784   0.887  1.00  0.00     0.091 A 
HETATM    9  C9  UNL     1       5.174   0.232  -1.058  1.00  0.00     0.026 C 
HETATM   10  C10 UNL     1       5.074  -0.417   0.278  1.00  0.00     0.012 A 
HETATM   11  C11 UNL     1       5.165   0.020   1.604  1.00  0.00     0.032 A 
ENDBRANCH   3   4
ENDBRANCH   1   3
BRANCH   1  12
HETATM   12  C3  UNL     1      -1.763  -0.404  -0.567  1.00  0.00     0.170 C 
HETATM   13  S1  UNL     1      -1.680  -0.509  -2.205  1.00  0.00    -0.041 SA
BRANCH  12  14
HETATM   14  N2  UNL     1      -3.010  -0.583   0.064  1.00  0.00    -0.355 N 
HETATM   15  C4  UNL     1      -4.211  -0.858  -0.728  1.00  0.00     0.152 C 
HETATM   16  C5  UNL     1      -5.359   0.020  -0.267  1.00  0.00     0.252 C 
HETATM   17  N3  UNL     1      -5.501   0.069   1.155  1.00  0.00    -0.072 N 
HETATM   18  C6  UNL     1      -4.245   0.588   1.720  1.00  0.00     0.252 C 
ATOM     19  H32 UNL     1      -6.318   0.603   1.452  1.00  0.00     0.277 HD
ATOM     20  H31 UNL     1      -5.772  -0.829   1.556  1.00  0.00     0.277 HD
HETATM   21  C7  UNL     1      -3.219  -0.517   1.491  1.00  0.00     0.152 C 
ENDBRANCH  12  14
ENDBRANCH   1  12
TORSDOF 4
