REMARK  2 active torsions:
REMARK  status: ('A' for Active; 'I' for Inactive)
REMARK       I    between atoms: C1_2  and  N2_4 
REMARK    1  A    between atoms: N2_4  and  C2_5 
REMARK       I    between atoms: N3_8  and  C5_9 
REMARK    2  A    between atoms: C5_9  and  C6_11 
REMARK       I    between atoms: C6_11  and  N4_13 
ROOT
HETATM    1  C2  UNL     1       2.680   0.735  -0.556  1.00  0.00     0.171 C 
HETATM    2  C3  UNL     1       2.821  -0.740  -0.178  1.00  0.00     0.059 C 
HETATM    3  C4  UNL     1       1.531  -1.481  -0.365  1.00  0.00     0.129 C 
HETATM    4  N3  UNL     1       0.402  -0.630  -0.579  1.00  0.00    -0.344 N 
HETATM    5  C5  UNL     1      -0.815  -0.923   0.115  1.00  0.00     0.311 C 
HETATM    6  O2  UNL     1      -0.795  -1.933   0.904  1.00  0.00    -0.262 OA
HETATM    7  C11 UNL     1       0.418   0.527  -1.447  1.00  0.00     0.129 C 
HETATM    8  C12 UNL     1       1.884   0.712  -1.874  1.00  0.00     0.059 C 
ENDROOT
BRANCH   5   9
HETATM    9  C6  UNL     1      -2.012  -0.176  -0.018  1.00  0.00     0.311 C 
HETATM   10  O3  UNL     1      -2.091   0.779  -0.861  1.00  0.00    -0.262 OA
HETATM   11  N4  UNL     1      -3.181  -0.408   0.739  1.00  0.00    -0.344 N 
HETATM   12  C7  UNL     1      -3.370  -1.372   1.788  1.00  0.00     0.126 C 
HETATM   13  C10 UNL     1      -4.465   0.327   0.539  1.00  0.00     0.126 C 
HETATM   14  C8  UNL     1      -4.463  -0.717   2.649  1.00  0.00     0.021 C 
HETATM   15  C9  UNL     1      -5.383  -0.157   1.598  1.00  0.00     0.021 C 
ENDBRANCH   5   9
BRANCH   1  16
HETATM   16  N2  UNL     1       3.933   1.268  -0.748  1.00  0.00    -0.394 NA
HETATM   17  C1  UNL     1       5.176   1.796  -0.937  1.00  0.00     0.401 C 
HETATM   18  N1  UNL     1       6.019   1.220  -1.996  1.00  0.00    -0.025 NA
HETATM   19  O1  UNL     1       5.749   2.726  -0.340  1.00  0.00    -0.234 OA
ENDBRANCH   1  16
TORSDOF 2
