REMARK  3 active torsions:
REMARK  status: ('A' for Active; 'I' for Inactive)
REMARK    1  A    between atoms: N1_7  and  C7_8 
REMARK    2  A    between atoms: C9_10  and  N2_11 
REMARK       I    between atoms: N2_11  and  C10_13 
REMARK    3  A    between atoms: C13_18  and  O3_19 
ROOT
HETATM    1  C1  UNL     1      -3.655   0.994  -2.273  1.00  0.00     0.014 C 
HETATM    2  C2  UNL     1      -2.851   0.831  -1.390  1.00  0.00    -0.089 C 
HETATM    3  C3  UNL     1      -1.881   0.636  -0.290  1.00  0.00     0.140 C 
HETATM    4  C4  UNL     1      -2.028   1.721   0.686  1.00  0.00    -0.089 C 
HETATM    5  C5  UNL     1      -2.140   2.621   1.489  1.00  0.00     0.014 C 
HETATM    6  C6  UNL     1      -0.472   0.622  -0.780  1.00  0.00     0.276 C 
HETATM    7  N1  UNL     1       0.262  -0.521  -0.269  1.00  0.00    -0.058 N 
HETATM    8  C11 UNL     1      -0.332  -1.750  -0.778  1.00  0.00     0.241 C 
HETATM    9  C12 UNL     1      -1.824  -1.767  -0.665  1.00  0.00     0.068 C 
HETATM   10  C13 UNL     1      -2.222  -0.711   0.347  1.00  0.00     0.092 C 
HETATM   11  C14 UNL     1      -1.311  -0.876   1.539  1.00  0.00     0.068 C 
HETATM   12  C15 UNL     1       0.103  -0.541   1.170  1.00  0.00     0.241 C 
ENDROOT
BRANCH  10  13
HETATM   13  O3  UNL     1      -3.549  -0.816   0.683  1.00  0.00    -0.387 OA
ATOM     14  H3  UNL     1      -3.761  -1.653   1.079  1.00  0.00     0.210 HD
ENDBRANCH  10  13
BRANCH   7  15
HETATM   15  C7  UNL     1       1.630  -0.498  -0.681  1.00  0.00     0.215 A 
HETATM   16  C8  UNL     1       2.048   0.444  -1.771  1.00  0.00     0.063 A 
HETATM   17  C9  UNL     1       2.566   0.580  -0.327  1.00  0.00     0.120 A 
BRANCH  17  18
HETATM   18  N2  UNL     1       3.980   0.275  -0.204  1.00  0.00    -0.329 N 
HETATM   19  C10 UNL     1       4.882   1.054   0.533  1.00  0.00     0.283 C 
HETATM   20  O1  UNL     1       4.496   2.088   1.142  1.00  0.00    -0.630 OA
HETATM   21  O2  UNL     1       6.200   0.707   0.604  1.00  0.00    -0.630 OA
ATOM     22  H2  UNL     1       4.337  -0.553  -0.681  1.00  0.00     0.166 HD
ENDBRANCH  17  18
ENDBRANCH   7  15
TORSDOF 3
