REMARK  4 active torsions:
REMARK  status: ('A' for Active; 'I' for Inactive)
REMARK    1  A    between atoms: N1_6  and  S1_7 
REMARK    2  A    between atoms: S1_7  and  N2_10 
REMARK    3  A    between atoms: C8_13  and  N3_14 
REMARK       I    between atoms: N3_14  and  C9_16 
REMARK       I    between atoms: C9_16  and  N4_18 
REMARK    4  A    between atoms: N4_18  and  C10_20 
ROOT
HETATM    1  N2  UNL     1      -2.138  -0.401   0.496  1.00  0.00    -0.222 NA
HETATM    2  C6  UNL     1      -1.462  -1.513   1.110  1.00  0.00     0.108 C 
HETATM    3  C7  UNL     1      -0.049  -1.505   0.517  1.00  0.00     0.041 C 
HETATM    4  C8  UNL     1       0.657  -0.319   1.117  1.00  0.00     0.088 C 
HETATM    5  C15 UNL     1      -0.207   0.856   1.366  1.00  0.00     0.041 C 
HETATM    6  C16 UNL     1      -1.527   0.853   0.686  1.00  0.00     0.108 C 
ENDROOT
BRANCH   4   7
HETATM    7  N3  UNL     1       1.822  -0.043   0.315  1.00  0.00    -0.338 N 
HETATM    8  C9  UNL     1       3.150  -0.202   0.761  1.00  0.00     0.316 C 
HETATM    9  O2  UNL     1       3.351  -0.607   1.922  1.00  0.00    -0.247 OA
HETATM   10  N4  UNL     1       4.254   0.084  -0.069  1.00  0.00    -0.339 N 
ATOM     11  H4  UNL     1       4.079   0.415  -1.018  1.00  0.00     0.164 HD
ATOM     12  H3  UNL     1       1.676   0.289  -0.638  1.00  0.00     0.164 HD
BRANCH  10  13
HETATM   13  C10 UNL     1       5.608  -0.070   0.363  1.00  0.00     0.086 C 
HETATM   14  C11 UNL     1       6.283  -1.097  -0.539  1.00  0.00     0.025 C 
HETATM   15  C12 UNL     1       7.751  -0.844  -0.278  1.00  0.00     0.002 C 
HETATM   16  C13 UNL     1       7.848   0.649  -0.188  1.00  0.00     0.002 C 
HETATM   17  C14 UNL     1       6.456   1.153   0.191  1.00  0.00     0.025 C 
ENDBRANCH  10  13
ENDBRANCH   4   7
BRANCH   1  18
HETATM   18  S1  UNL     1      -3.837  -0.430   0.722  1.00  0.00     0.141 S 
HETATM   19  O1  UNL     1      -4.187  -1.774   1.303  1.00  0.00    -0.227 OA
HETATM   20  S2  UNL     1      -4.256   0.825   1.834  1.00  0.00     0.041 SA
BRANCH  18  21
HETATM   21  N1  UNL     1      -4.548  -0.161  -0.800  1.00  0.00    -0.218 NA
HETATM   22  C2  UNL     1      -5.933  -0.387  -0.896  1.00  0.00     0.069 C 
HETATM   23  C1  UNL     1      -6.535  -1.347   0.061  1.00  0.00     0.027 C 
HETATM   24  C3  UNL     1      -6.596   0.986  -0.849  1.00  0.00     0.021 C 
HETATM   25  C4  UNL     1      -5.588   1.793  -1.679  1.00  0.00     0.017 C 
HETATM   26  C5  UNL     1      -4.285   1.233  -1.166  1.00  0.00     0.106 C 
ENDBRANCH  18  21
ENDBRANCH   1  18
TORSDOF 4
