REMARK  4 active torsions:
REMARK  status: ('A' for Active; 'I' for Inactive)
REMARK       I    between atoms: C2_2  and  N1_4 
REMARK    1  A    between atoms: C6_8  and  C7_9 
REMARK       I    between atoms: C7_9  and  N2_11 
REMARK    2  A    between atoms: N2_11  and  C8_13 
REMARK    3  A    between atoms: C8_13  and  C9_14 
REMARK       I    between atoms: N3_18  and  C13_19 
REMARK       I    between atoms: C13_19  and  N4_21 
REMARK    4  A    between atoms: N4_21  and  C14_23 
ROOT
HETATM    1  C9  UNL     1      -0.458   1.253   1.617  1.00  0.00     0.021 C 
HETATM    2  C10 UNL     1      -0.160   2.496   0.787  1.00  0.00     0.009 C 
HETATM    3  C11 UNL     1       1.185   2.996   1.252  1.00  0.00     0.020 C 
HETATM    4  C12 UNL     1       2.186   1.910   1.444  1.00  0.00     0.127 C 
HETATM    5  N3  UNL     1       1.793   0.596   1.050  1.00  0.00    -0.334 N 
HETATM    6  C13 UNL     1       2.785  -0.343   0.628  1.00  0.00     0.318 C 
HETATM    7  O3  UNL     1       2.398  -1.498   0.274  1.00  0.00    -0.247 OA
HETATM    8  N4  UNL     1       4.164  -0.089   0.573  1.00  0.00    -0.338 N 
ATOM      9  H4  UNL     1       4.495   0.834   0.854  1.00  0.00     0.164 HD
HETATM   10  C19 UNL     1       0.394   0.157   1.068  1.00  0.00     0.133 C 
ENDROOT
BRANCH   1  11
HETATM   11  C8  UNL     1      -1.933   0.922   1.567  1.00  0.00     0.128 C 
BRANCH  11  12
HETATM   12  N2  UNL     1      -2.363   0.669   0.222  1.00  0.00    -0.359 N 
HETATM   13  C7  UNL     1      -3.702   0.338  -0.079  1.00  0.00     0.240 C 
HETATM   14  O2  UNL     1      -4.526   0.265   0.860  1.00  0.00    -0.271 OA
ATOM     15  H2  UNL     1      -1.684   0.730  -0.536  1.00  0.00     0.162 HD
BRANCH  13  16
HETATM   16  C6  UNL     1      -4.108   0.087  -1.452  1.00  0.00     0.179 C 
HETATM   17  N1  UNL     1      -5.505  -0.248  -1.601  1.00  0.00    -0.339 N 
HETATM   18  C2  UNL     1      -6.546   0.556  -2.086  1.00  0.00     0.216 C 
HETATM   19  C3  UNL     1      -5.629  -1.608  -1.140  1.00  0.00     0.127 C 
HETATM   20  C1  UNL     1      -7.921   0.045  -2.165  1.00  0.00     0.117 C 
HETATM   21  O1  UNL     1      -6.302   1.726  -2.458  1.00  0.00    -0.274 OA
HETATM   22  C4  UNL     1      -4.327  -2.252  -1.625  1.00  0.00     0.022 C 
HETATM   23  C5  UNL     1      -3.435  -1.115  -2.072  1.00  0.00     0.037 C 
ENDBRANCH  13  16
ENDBRANCH  11  12
ENDBRANCH   1  11
BRANCH   8  24
HETATM   24  C14 UNL     1       5.142  -1.060   0.141  1.00  0.00     0.086 C 
HETATM   25  C15 UNL     1       6.155  -1.366   1.224  1.00  0.00     0.025 C 
HETATM   26  C16 UNL     1       7.333  -1.864   0.412  1.00  0.00     0.002 C 
HETATM   27  C17 UNL     1       7.402  -0.841  -0.698  1.00  0.00     0.002 C 
HETATM   28  C18 UNL     1       5.967  -0.569  -1.037  1.00  0.00     0.025 C 
ENDBRANCH   8  24
TORSDOF 4
