REMARK  4 active torsions:
REMARK  status: ('A' for Active; 'I' for Inactive)
REMARK       I    between atoms: C2_2  and  N1_4 
REMARK    1  A    between atoms: N1_4  and  C3_6 
REMARK    2  A    between atoms: C3_6  and  C4_7 
REMARK    3  A    between atoms: C3_6  and  C9_17 
REMARK       I    between atoms: C4_7  and  N2_9 
REMARK       I    between atoms: N4_20  and  C12_21 
REMARK    4  A    between atoms: C12_21  and  C13_23 
ROOT
HETATM    1  C3  UNL     1      -1.941  -1.234  -1.009  1.00  0.00     0.105 C 
ENDROOT
BRANCH   1   2
HETATM    2  N1  UNL     1      -3.093  -2.016  -0.804  1.00  0.00    -0.323 N 
HETATM    3  C2  UNL     1      -3.374  -3.371  -0.621  1.00  0.00     0.218 C 
HETATM    4  C1  UNL     1      -4.855  -3.709  -0.393  1.00  0.00     0.117 C 
HETATM    5  O1  UNL     1      -2.643  -4.367  -0.601  1.00  0.00    -0.274 OA
ATOM      6  H1  UNL     1      -3.939  -1.447  -0.784  1.00  0.00     0.169 HD
ENDBRANCH   1   2
BRANCH   1   7
HETATM    7  C4  UNL     1      -2.303   0.077  -1.685  1.00  0.00     0.270 C 
HETATM    8  O2  UNL     1      -2.140   0.182  -2.904  1.00  0.00    -0.266 OA
HETATM    9  N2  UNL     1      -2.829   1.149  -0.929  1.00  0.00    -0.344 N 
HETATM   10  C5  UNL     1      -2.891   2.522  -1.456  1.00  0.00     0.153 C 
HETATM   11  C8  UNL     1      -3.534   1.013   0.349  1.00  0.00     0.153 C 
HETATM   12  C6  UNL     1      -4.109   3.233  -0.848  1.00  0.00     0.252 C 
HETATM   13  N3  UNL     1      -5.267   2.384  -0.754  1.00  0.00    -0.072 N 
HETATM   14  C7  UNL     1      -5.039   1.271   0.168  1.00  0.00     0.252 C 
ATOM     15  H32 UNL     1      -6.100   2.915  -0.500  1.00  0.00     0.277 HD
ATOM     16  H31 UNL     1      -5.564   2.054  -1.672  1.00  0.00     0.277 HD
ENDBRANCH   1   7
BRANCH   1  17
HETATM   17  C9  UNL     1      -0.710  -1.236  -0.244  1.00  0.00    -0.044 C 
HETATM   18  C10 UNL     1      -0.013  -2.604  -0.199  1.00  0.00     0.056 C 
HETATM   19  C11 UNL     1       1.456  -2.456   0.109  1.00  0.00     0.130 C 
HETATM   20  N4  UNL     1       1.890  -1.178   0.537  1.00  0.00    -0.351 N 
HETATM   21  C12 UNL     1       3.327  -0.991   0.555  1.00  0.00     0.224 C 
HETATM   22  C19 UNL     1       1.067  -0.090   0.948  1.00  0.00     0.130 C 
HETATM   23  O3  UNL     1       4.055  -1.949   0.245  1.00  0.00    -0.273 OA
HETATM   24  C20 UNL     1      -0.408  -0.565   1.014  1.00  0.00     0.056 C 
BRANCH  21  25
HETATM   25  C13 UNL     1       3.902   0.358   0.942  1.00  0.00     0.078 C 
HETATM   26  C14 UNL     1       3.693   1.266  -0.232  1.00  0.00     0.014 C 
HETATM   27  C15 UNL     1       4.980   1.786  -0.846  1.00  0.00     0.001 C 
HETATM   28  C16 UNL     1       5.765   2.415   0.332  1.00  0.00     0.000 C 
HETATM   29  C17 UNL     1       6.260   1.274   1.167  1.00  0.00     0.001 C 
HETATM   30  C18 UNL     1       5.303   0.150   1.385  1.00  0.00     0.014 C 
ENDBRANCH  21  25
ENDBRANCH   1  17
TORSDOF 4
