REMARK  4 active torsions:
REMARK  status: ('A' for Active; 'I' for Inactive)
REMARK       I    between atoms: C1_2  and  N1_3 
REMARK    1  A    between atoms: C1_2  and  C12_17 
REMARK    2  A    between atoms: N1_3  and  C2_5 
REMARK    3  A    between atoms: C9_12  and  O2_13 
REMARK       I    between atoms: N2_21  and  C16_22 
REMARK    4  A    between atoms: C16_22  and  C17_24 
ROOT
HETATM    1  O1  UNL     1       0.874  -1.206   0.413  1.00  0.00    -0.271 OA
HETATM    2  C1  UNL     1       0.498  -0.092   0.003  1.00  0.00     0.241 C 
HETATM    3  N1  UNL     1      -0.896   0.123  -0.175  1.00  0.00    -0.354 N 
ATOM      4  H1  UNL     1      -1.211   1.032  -0.514  1.00  0.00     0.162 HD
ENDROOT
BRANCH   3   5
HETATM    5  C2  UNL     1      -1.888  -0.896   0.105  1.00  0.00     0.092 C 
HETATM    6  C3  UNL     1      -2.682  -1.303  -1.111  1.00  0.00     0.012 C 
HETATM    7  C4  UNL     1      -3.562  -0.190  -1.632  1.00  0.00     0.011 C 
HETATM    8  C11 UNL     1      -3.610  -2.431  -0.685  1.00  0.00     0.044 C 
HETATM    9  C5  UNL     1      -4.507   0.273  -0.573  1.00  0.00    -0.011 C 
HETATM   10  C6  UNL     1      -3.691   0.770   0.600  1.00  0.00     0.011 C 
HETATM   11  C10 UNL     1      -5.394  -0.854  -0.122  1.00  0.00     0.042 C 
HETATM   12  C7  UNL     1      -2.821  -0.348   1.135  1.00  0.00     0.012 C 
HETATM   13  C8  UNL     1      -3.740  -1.444   1.611  1.00  0.00     0.044 C 
HETATM   14  C9  UNL     1      -4.523  -1.953   0.428  1.00  0.00     0.059 C 
BRANCH  14  15
HETATM   15  O2  UNL     1      -5.361  -2.996   0.804  1.00  0.00    -0.390 OA
ATOM     16  H2  UNL     1      -5.855  -3.317   0.058  1.00  0.00     0.210 HD
ENDBRANCH  14  15
ENDBRANCH   3   5
BRANCH   2  17
HETATM   17  C12 UNL     1       1.406   1.032  -0.316  1.00  0.00     0.179 C 
HETATM   18  C13 UNL     1       1.259   1.579  -1.683  1.00  0.00     0.037 C 
HETATM   19  C14 UNL     1       2.555   1.241  -2.379  1.00  0.00     0.022 C 
HETATM   20  C15 UNL     1       3.219   0.210  -1.441  1.00  0.00     0.127 C 
HETATM   21  N2  UNL     1       2.789   0.714  -0.154  1.00  0.00    -0.338 N 
HETATM   22  C16 UNL     1       3.609   0.832   0.986  1.00  0.00     0.224 C 
HETATM   23  O3  UNL     1       3.037   1.282   2.041  1.00  0.00    -0.273 OA
BRANCH  22  24
HETATM   24  C17 UNL     1       5.027   0.501   1.093  1.00  0.00     0.078 C 
HETATM   25  C18 UNL     1       6.021   1.250   0.282  1.00  0.00     0.014 C 
HETATM   26  C19 UNL     1       6.969   1.135   1.482  1.00  0.00     0.002 C 
HETATM   27  C20 UNL     1       5.726   1.010   2.334  1.00  0.00     0.014 C 
ENDBRANCH  22  24
ENDBRANCH   2  17
TORSDOF 4
