REMARK  7 active torsions:
REMARK  status: ('A' for Active; 'I' for Inactive)
REMARK       I    between atoms: C1_2  and  N1_3 
REMARK    1  A    between atoms: C1_2  and  C9_12 
REMARK    2  A    between atoms: N1_3  and  C2_5 
REMARK    3  A    between atoms: C2_5  and  C3_6 
REMARK       I    between atoms: C9_12  and  N2_14 
REMARK    4  A    between atoms: N2_14  and  C10_16 
REMARK    5  A    between atoms: N3_20  and  C14_21 
REMARK    6  A    between atoms: C14_21  and  O3_22 
REMARK    7  A    between atoms: C14_21  and  N4_24 
ROOT
HETATM    1  C9  UNL     1      -0.222   0.559  -0.863  1.00  0.00     0.310 C 
HETATM    2  O2  UNL     1      -0.455   1.731  -0.493  1.00  0.00    -0.262 OA
HETATM    3  N2  UNL     1       0.975   0.274  -1.567  1.00  0.00    -0.332 N 
ATOM      4  H2  UNL     1       1.170  -0.680  -1.870  1.00  0.00     0.165 HD
ENDROOT
BRANCH   3   5
HETATM    5  C10 UNL     1       1.919   1.324  -1.858  1.00  0.00     0.190 C 
HETATM    6  C11 UNL     1       2.085   1.474  -3.339  1.00  0.00     0.049 C 
HETATM    7  C12 UNL     1       3.442   0.852  -3.584  1.00  0.00     0.024 C 
HETATM    8  C13 UNL     1       4.185   1.378  -2.332  1.00  0.00     0.129 C 
HETATM    9  N3  UNL     1       3.255   1.051  -1.311  1.00  0.00    -0.326 N 
BRANCH   9  10
HETATM   10  C14 UNL     1       3.467   0.564  -0.016  1.00  0.00     0.218 C 
BRANCH  10  11
HETATM   11  O3  UNL     1       2.424   0.326   0.728  1.00  0.00    -0.332 OA
ATOM     12  H3  UNL     1       2.568  -0.005   1.607  1.00  0.00     0.220 HD
ENDBRANCH  10  11
BRANCH  10  13
HETATM   13  N4  UNL     1       4.696   0.282   0.627  1.00  0.00    -0.347 N 
HETATM   14  C15 UNL     1       6.037   0.425   0.122  1.00  0.00     0.126 C 
HETATM   15  C16 UNL     1       6.958   0.192   1.327  1.00  0.00     0.021 C 
HETATM   16  C17 UNL     1       6.115  -0.848   2.072  1.00  0.00     0.021 C 
HETATM   17  C18 UNL     1       4.761  -0.228   2.006  1.00  0.00     0.126 C 
ENDBRANCH  10  13
ENDBRANCH   9  10
ENDBRANCH   3   5
BRANCH   1  18
HETATM   18  C1  UNL     1      -1.204  -0.471  -0.548  1.00  0.00     0.309 C 
HETATM   19  O1  UNL     1      -0.950  -1.646  -0.928  1.00  0.00    -0.262 OA
HETATM   20  N1  UNL     1      -2.404  -0.192   0.156  1.00  0.00    -0.353 N 
ATOM     21  H1  UNL     1      -2.606   0.760   0.462  1.00  0.00     0.162 HD
BRANCH  20  22
HETATM   22  C2  UNL     1      -3.333  -1.247   0.438  1.00  0.00     0.127 C 
BRANCH  22  23
HETATM   23  C3  UNL     1      -4.551  -0.759   1.194  1.00  0.00     0.003 C 
HETATM   24  C4  UNL     1      -5.232   0.280   0.334  1.00  0.00     0.006 C 
HETATM   25  C5  UNL     1      -6.623   0.595   0.788  1.00  0.00     0.000 C 
HETATM   26  C6  UNL     1      -7.428  -0.595   1.189  1.00  0.00     0.000 C 
HETATM   27  C7  UNL     1      -6.724  -1.836   0.672  1.00  0.00     0.000 C 
HETATM   28  C8  UNL     1      -5.425  -1.947   1.463  1.00  0.00     0.006 C 
ENDBRANCH  22  23
ENDBRANCH  20  22
ENDBRANCH   1  18
TORSDOF 7
