REMARK  3 active torsions:
REMARK  status: ('A' for Active; 'I' for Inactive)
REMARK       I    between atoms: C1_2  and  N1_3 
REMARK       I    between atoms: C1_2  and  N3_18 
REMARK    1  A    between atoms: N1_3  and  C2_5 
REMARK    2  A    between atoms: C2_5  and  C3_6 
REMARK    3  A    between atoms: C3_6  and  C4_7 
ROOT
HETATM    1  C3  UNL     1       0.531  -0.419   0.891  1.00  0.00     0.024 C 
ENDROOT
BRANCH   1   2
HETATM    2  C2  UNL     1      -0.169   0.905   0.891  1.00  0.00     0.125 C 
BRANCH   2   3
HETATM    3  N1  UNL     1      -1.597   0.815   0.814  1.00  0.00    -0.343 N 
HETATM    4  C1  UNL     1      -2.314   0.224  -0.240  1.00  0.00     0.318 C 
HETATM    5  O1  UNL     1      -1.700  -0.274  -1.207  1.00  0.00    -0.247 OA
HETATM    6  N3  UNL     1      -3.728   0.175  -0.240  1.00  0.00    -0.330 N 
HETATM    7  C11 UNL     1      -4.525   0.732   0.850  1.00  0.00     0.153 C 
HETATM    8  C14 UNL     1      -4.487  -0.434  -1.324  1.00  0.00     0.153 C 
HETATM    9  C12 UNL     1      -5.961   0.735   0.377  1.00  0.00     0.187 C 
HETATM   10  O2  UNL     1      -6.425  -0.549   0.112  1.00  0.00    -0.388 OA
HETATM   11  C13 UNL     1      -5.613  -1.264  -0.734  1.00  0.00     0.187 C 
ATOM     12  H1  UNL     1      -2.135   1.211   1.585  1.00  0.00     0.164 HD
ENDBRANCH   2   3
ENDBRANCH   1   2
BRANCH   1  13
HETATM   13  C4  UNL     1       2.028  -0.252   0.974  1.00  0.00    -0.011 C 
HETATM   14  C5  UNL     1       2.746  -1.584   0.975  1.00  0.00     0.021 C 
HETATM   15  C6  UNL     1       4.179  -1.154   0.744  1.00  0.00     0.070 C 
HETATM   16 BR1  UNL     1       5.248  -2.590   0.007  1.00  0.00    -0.090 Br
HETATM   17  C7  UNL     1       4.067   0.014  -0.179  1.00  0.00     0.021 C 
HETATM   18  C8  UNL     1       5.016   1.151   0.132  1.00  0.00     0.244 C 
HETATM   19  C9  UNL     1       4.761  -0.096  -1.495  1.00  0.00     0.244 C 
HETATM   20  C10 UNL     1       2.611   0.424  -0.225  1.00  0.00     0.018 C 
HETATM   21  N2  UNL     1       5.843   0.716  -0.972  1.00  0.00    -0.073 N 
ATOM     22  H22 UNL     1       6.287   1.411  -1.573  1.00  0.00     0.277 HD
ATOM     23  H21 UNL     1       6.749   0.287  -0.784  1.00  0.00     0.277 HD
ENDBRANCH   1  13
TORSDOF 3
