REMARK  4 active torsions:
REMARK  status: ('A' for Active; 'I' for Inactive)
REMARK    1  A    between atoms: C1_2  and  C2_3 
REMARK       I    between atoms: C1_2  and  N1_13 
REMARK       I    between atoms: N2_16  and  C14_17 
REMARK    2  A    between atoms: C14_17  and  C15_19 
REMARK    3  A    between atoms: C15_19  and  C16_20 
REMARK    4  A    between atoms: C16_20  and  O3_21 
ROOT
HETATM    1  O1  UNL     1      -0.999  -1.169   2.354  1.00  0.00    -0.273 OA
HETATM    2  C1  UNL     1      -0.586  -0.471   1.354  1.00  0.00     0.224 C 
HETATM    3  N1  UNL     1       0.799  -0.306   1.147  1.00  0.00    -0.343 N 
HETATM    4  C12 UNL     1       1.252   0.490   0.036  1.00  0.00     0.146 C 
HETATM    5  C13 UNL     1       2.551   1.204   0.338  1.00  0.00     0.151 C 
HETATM    6  N2  UNL     1       3.460   0.346   1.115  1.00  0.00    -0.286 N 
HETATM    7  C14 UNL     1       4.750   0.032   0.649  1.00  0.00     0.226 C 
HETATM    8  O2  UNL     1       5.495  -0.700   1.334  1.00  0.00    -0.273 OA
HETATM    9  C17 UNL     1       2.920  -0.133   2.372  1.00  0.00     0.342 C 
HETATM   10  F1  UNL     1       2.492   0.967   3.126  1.00  0.00    -0.180 F 
HETATM   11  F2  UNL     1       3.839  -0.866   3.059  1.00  0.00    -0.180 F 
HETATM   12  C18 UNL     1       1.704  -0.953   2.076  1.00  0.00     0.230 C 
ENDROOT
BRANCH   2  13
HETATM   13  C2  UNL     1      -1.594   0.133   0.452  1.00  0.00     0.083 C 
HETATM   14  C3  UNL     1      -1.643  -0.445  -0.918  1.00  0.00     0.019 C 
HETATM   15  C4  UNL     1      -2.912   0.058  -1.603  1.00  0.00    -0.013 C 
HETATM   16  C5  UNL     1      -4.036  -0.923  -1.512  1.00  0.00     0.009 C 
HETATM   17  C9  UNL     1      -3.340   1.372  -1.042  1.00  0.00     0.010 C 
HETATM   18  C6  UNL     1      -4.680  -0.983  -0.145  1.00  0.00    -0.013 C 
HETATM   19  C7  UNL     1      -5.168   0.411   0.231  1.00  0.00     0.010 C 
HETATM   20  C11 UNL     1      -3.656  -1.230   0.942  1.00  0.00     0.010 C 
HETATM   21  C8  UNL     1      -3.820   1.131   0.380  1.00  0.00    -0.009 C 
HETATM   22  C10 UNL     1      -2.981   0.089   1.082  1.00  0.00     0.003 C 
ENDBRANCH   2  13
BRANCH   7  23
HETATM   23  C15 UNL     1       5.227   0.560  -0.644  1.00  0.00     0.129 C 
BRANCH  23  24
HETATM   24  C16 UNL     1       6.631   0.112  -0.966  1.00  0.00     0.173 C 
BRANCH  24  25
HETATM   25  O3  UNL     1       6.717  -1.261  -1.039  1.00  0.00    -0.400 OA
ATOM     26  H3  UNL     1       7.601  -1.543  -1.242  1.00  0.00     0.209 HD
ENDBRANCH  24  25
ENDBRANCH  23  24
ENDBRANCH   7  23
TORSDOF 4
