REMARK  4 active torsions:
REMARK  status: ('A' for Active; 'I' for Inactive)
REMARK       I    between atoms: C2_2  and  N1_4 
REMARK    1  A    between atoms: N1_4  and  C3_6 
REMARK       I    between atoms: N2_10  and  C7_11 
REMARK       I    between atoms: C7_11  and  N3_13 
REMARK    2  A    between atoms: N4_16  and  C10_17 
REMARK    3  A    between atoms: C16_23  and  C17_24 
REMARK    4  A    between atoms: C17_24  and  O3_25 
ROOT
HETATM    1  C3  UNL     1       3.253   0.610  -1.778  1.00  0.00     0.097 C 
HETATM    2  C4  UNL     1       1.929   0.625  -2.539  1.00  0.00     0.023 C 
HETATM    3  C5  UNL     1       1.874  -0.442  -3.582  1.00  0.00     0.014 C 
HETATM    4  C6  UNL     1       0.752   0.457  -1.596  1.00  0.00     0.134 C 
HETATM    5  N2  UNL     1       0.873   1.416  -0.539  1.00  0.00    -0.333 N 
HETATM    6  C7  UNL     1       0.047   1.543   0.602  1.00  0.00     0.320 C 
HETATM    7  O2  UNL     1       0.322   2.505   1.428  1.00  0.00    -0.247 OA
HETATM    8  N3  UNL     1      -1.050   0.752   0.964  1.00  0.00    -0.331 N 
HETATM    9  C8  UNL     1      -1.755   1.113   2.217  1.00  0.00     0.158 C 
HETATM   10  C9  UNL     1      -3.191   1.366   1.770  1.00  0.00     0.292 C 
HETATM   11  N4  UNL     1      -3.813   0.180   1.262  1.00  0.00     0.095 N 
HETATM   12  C13 UNL     1      -2.917  -0.835   0.826  1.00  0.00     0.292 C 
HETATM   13  C14 UNL     1      -1.588  -0.372   0.296  1.00  0.00     0.158 C 
HETATM   14  C15 UNL     1       1.978   2.358  -0.664  1.00  0.00     0.136 C 
HETATM   15  C16 UNL     1       3.300   1.622  -0.706  1.00  0.00     0.050 C 
ENDROOT
BRANCH  15  16
HETATM   16  C17 UNL     1       3.649   1.190   0.665  1.00  0.00     0.172 C 
BRANCH  16  17
HETATM   17  O3  UNL     1       2.816   0.246   1.246  1.00  0.00    -0.400 OA
ATOM     18  H3  UNL     1       3.040  -0.031   2.127  1.00  0.00     0.209 HD
ENDBRANCH  16  17
ENDBRANCH  15  16
BRANCH   1  19
HETATM   19  N1  UNL     1       3.653  -0.723  -1.422  1.00  0.00    -0.356 N 
HETATM   20  C2  UNL     1       4.744  -1.443  -1.913  1.00  0.00     0.213 C 
HETATM   21  C1  UNL     1       5.062  -2.815  -1.474  1.00  0.00     0.117 C 
HETATM   22  O1  UNL     1       5.512  -0.945  -2.761  1.00  0.00    -0.274 OA
ATOM     23  H1  UNL     1       3.073  -1.198  -0.731  1.00  0.00     0.162 HD
ENDBRANCH   1  19
BRANCH  11  24
HETATM   24  C10 UNL     1      -4.800  -0.378   2.157  1.00  0.00     0.215 C 
HETATM   25  C11 UNL     1      -5.957   0.534   2.415  1.00  0.00     0.042 C 
HETATM   26  C12 UNL     1      -5.365  -1.617   1.452  1.00  0.00     0.042 C 
ENDBRANCH  11  24
TORSDOF 4
