REMARK  4 active torsions:
REMARK  status: ('A' for Active; 'I' for Inactive)
REMARK    1  A    between atoms: C2_2  and  C3_3 
REMARK    2  A    between atoms: C3_3  and  N1_4 
REMARK       I    between atoms: N1_4  and  C4_6 
REMARK       I    between atoms: C4_6  and  N2_8 
REMARK    3  A    between atoms: N2_8  and  C5_10 
REMARK       I    between atoms: N3_17  and  C12_18 
REMARK    4  A    between atoms: C12_18  and  C13_20 
REMARK       I    between atoms: C13_20  and  N4_22 
ROOT
HETATM    1  C5  UNL     1       1.578   0.240  -0.846  1.00  0.00     0.088 C 
HETATM    2  C6  UNL     1       1.405   0.679  -2.269  1.00  0.00     0.028 C 
HETATM    3  C7  UNL     1       0.243  -0.078  -2.856  1.00  0.00     0.033 C 
HETATM    4  C8  UNL     1      -0.197  -1.107  -1.825  1.00  0.00     0.037 C 
HETATM    5  C9  UNL     1      -0.173  -2.512  -2.470  1.00  0.00     0.033 C 
HETATM    6  C10 UNL     1      -1.351  -2.308  -3.430  1.00  0.00     0.022 C 
HETATM    7  C11 UNL     1      -2.362  -1.619  -2.495  1.00  0.00     0.127 C 
HETATM    8  N3  UNL     1      -1.567  -0.965  -1.490  1.00  0.00    -0.335 N 
HETATM    9  C12 UNL     1      -2.152  -0.296  -0.381  1.00  0.00     0.312 C 
HETATM   10  O2  UNL     1      -1.451   0.284   0.509  1.00  0.00    -0.262 OA
HETATM   11  C18 UNL     1       0.799  -1.048  -0.714  1.00  0.00     0.056 C 
ENDROOT
BRANCH   9  12
HETATM   12  C13 UNL     1      -3.590  -0.207  -0.156  1.00  0.00     0.311 C 
HETATM   13  O3  UNL     1      -4.341  -0.736  -1.017  1.00  0.00    -0.262 OA
HETATM   14  N4  UNL     1      -4.108   0.448   0.982  1.00  0.00    -0.344 N 
HETATM   15  C14 UNL     1      -3.422   1.093   2.061  1.00  0.00     0.126 C 
HETATM   16  C17 UNL     1      -5.545   0.572   1.231  1.00  0.00     0.126 C 
HETATM   17  C15 UNL     1      -4.476   1.550   3.053  1.00  0.00     0.021 C 
HETATM   18  C16 UNL     1      -5.612   0.581   2.735  1.00  0.00     0.021 C 
ENDBRANCH   9  12
BRANCH   1  19
HETATM   19  N2  UNL     1       2.986   0.019  -0.523  1.00  0.00    -0.338 N 
HETATM   20  C4  UNL     1       3.575   0.816   0.489  1.00  0.00     0.316 C 
HETATM   21  N1  UNL     1       4.940   0.613   0.813  1.00  0.00    -0.340 N 
HETATM   22  O1  UNL     1       2.913   1.706   1.111  1.00  0.00    -0.247 OA
ATOM     23  H1  UNL     1       5.490  -0.095   0.326  1.00  0.00     0.164 HD
ATOM     24  H2  UNL     1       3.530  -0.691  -1.013  1.00  0.00     0.164 HD
BRANCH  21  25
HETATM   25  C3  UNL     1       5.537   1.427   1.845  1.00  0.00     0.150 C 
BRANCH  25  26
HETATM   26  C2  UNL     1       6.944   1.045   2.011  1.00  0.00    -0.018 C 
HETATM   27  C1  UNL     1       7.381   0.597   3.174  1.00  0.00     0.008 C 
ENDBRANCH  25  26
ENDBRANCH  21  25
ENDBRANCH   1  19
TORSDOF 4
