REMARK  5 active torsions:
REMARK  status: ('A' for Active; 'I' for Inactive)
REMARK    1  A    between atoms: N3_4  and  C2_6 
REMARK    2  A    between atoms: C2_6  and  N4_8 
REMARK    3  A    between atoms: N5_11  and  C5_12 
REMARK    4  A    between atoms: N6_15  and  C8_16 
REMARK    5  A    between atoms: C8_16  and  C9_17 
ROOT
HETATM    1  N4  UNL     1       3.984  -0.599   0.118  1.00  0.00    -0.349 N 
HETATM    2  C3  UNL     1       3.451   0.619   0.654  1.00  0.00     0.170 C 
HETATM    3  C4  UNL     1       2.464   1.219  -0.319  1.00  0.00     0.083 C 
HETATM    4  N5  UNL     1       1.490   0.312  -0.780  1.00  0.00    -0.366 N 
HETATM    5  C16 UNL     1       1.732  -1.068  -0.767  1.00  0.00     0.083 C 
HETATM    6  C17 UNL     1       3.184  -1.415  -0.745  1.00  0.00     0.170 C 
ENDROOT
BRANCH   4   7
HETATM    7  C5  UNL     1       0.142   0.717  -0.516  1.00  0.00     0.094 C 
HETATM    8  C6  UNL     1      -0.806   0.449  -1.619  1.00  0.00     0.070 C 
HETATM    9  C7  UNL     1      -2.227   0.692  -1.321  1.00  0.00     0.065 C 
HETATM   10  N6  UNL     1      -2.651   0.895  -0.015  1.00  0.00    -0.373 N 
HETATM   11  C14 UNL     1      -1.674   0.888   1.027  1.00  0.00     0.129 C 
HETATM   12  C15 UNL     1      -0.437   0.083   0.734  1.00  0.00     0.046 C 
BRANCH  10  13
HETATM   13  C8  UNL     1      -3.962   0.677   0.386  1.00  0.00     0.067 C 
BRANCH  13  14
HETATM   14  C9  UNL     1      -4.562  -0.638   0.568  1.00  0.00     0.024 C 
HETATM   15  C10 UNL     1      -6.038  -0.392   1.021  1.00  0.00     0.010 C 
HETATM   16  C11 UNL     1      -6.678  -0.028  -0.299  1.00  0.00     0.001 C 
HETATM   17  C12 UNL     1      -5.863  -0.735  -1.374  1.00  0.00     0.001 C 
HETATM   18  C13 UNL     1      -4.814  -1.518  -0.606  1.00  0.00     0.010 C 
ENDBRANCH  13  14
ENDBRANCH  10  13
ENDBRANCH   4   7
BRANCH   1  19
HETATM   19  C2  UNL     1       5.333  -0.940   0.443  1.00  0.00     0.176 C 
HETATM   20  S1  UNL     1       6.027  -2.302  -0.092  1.00  0.00    -0.041 SA
BRANCH  19  21
HETATM   21  N3  UNL     1       6.138  -0.062   1.265  1.00  0.00    -0.310 N 
HETATM   22  C1  UNL     1       7.277   0.304   0.738  1.00  0.00     0.203 C 
HETATM   23  N1  UNL     1       7.621  -0.169  -0.539  1.00  0.00    -0.066 NA
HETATM   24  N2  UNL     1       8.126   1.177   1.440  1.00  0.00    -0.066 NA
ATOM     25  H3  UNL     1       5.838   0.249   2.189  1.00  0.00     0.170 HD
ENDBRANCH  19  21
ENDBRANCH   1  19
TORSDOF 5
