REMARK  4 active torsions:
REMARK  status: ('A' for Active; 'I' for Inactive)
REMARK       I    between atoms: C1_2  and  N1_3 
REMARK    1  A    between atoms: C1_2  and  C10_20 
REMARK    2  A    between atoms: N1_3  and  S1_5 
REMARK    3  A    between atoms: S1_5  and  N2_8 
REMARK    4  A    between atoms: C9_17  and  O4_18 
ROOT
HETATM    1  S1  UNL     1       0.140   1.401  -0.930  1.00  0.00     0.308 S 
HETATM    2  O2  UNL     1       0.089   2.496   0.098  1.00  0.00    -0.188 OA
HETATM    3  O3  UNL     1      -0.178   2.058  -2.270  1.00  0.00    -0.188 OA
ENDROOT
BRANCH   1   4
HETATM    4  N1  UNL     1       1.677   0.694  -1.035  1.00  0.00    -0.241 N 
HETATM    5  C1  UNL     1       2.707   1.003  -0.112  1.00  0.00     0.236 C 
HETATM    6  O1  UNL     1       2.468   1.821   0.806  1.00  0.00    -0.272 OA
ATOM      7  H1  UNL     1       1.866   0.027  -1.784  1.00  0.00     0.182 HD
BRANCH   5   8
HETATM    8  C10 UNL     1       4.055   0.397  -0.185  1.00  0.00     0.079 C 
HETATM    9  C11 UNL     1       4.848   0.844   1.013  1.00  0.00     0.014 C 
HETATM   10  C12 UNL     1       6.254   0.399   0.849  1.00  0.00     0.001 C 
HETATM   11  C13 UNL     1       6.516  -0.813   0.059  1.00  0.00     0.000 C 
HETATM   12  C14 UNL     1       5.367  -1.688  -0.267  1.00  0.00     0.001 C 
HETATM   13  C15 UNL     1       4.021  -1.094  -0.161  1.00  0.00     0.014 C 
ENDBRANCH   5   8
ENDBRANCH   1   4
BRANCH   1  14
HETATM   14  N2  UNL     1      -1.113   0.265  -0.636  1.00  0.00    -0.139 NA
HETATM   15  C2  UNL     1      -0.971  -0.437   0.600  1.00  0.00     0.142 C 
HETATM   16  C3  UNL     1      -2.384  -0.978   0.787  1.00  0.00     0.258 C 
HETATM   17  N3  UNL     1      -3.238  -0.065   0.042  1.00  0.00    -0.026 N 
HETATM   18  C4  UNL     1      -4.277   0.489   0.894  1.00  0.00     0.242 C 
HETATM   19  C8  UNL     1      -3.797  -0.749  -1.096  1.00  0.00     0.242 C 
HETATM   20  C9  UNL     1      -2.361   0.975  -0.458  1.00  0.00     0.420 C 
HETATM   21  C5  UNL     1      -5.387  -0.508   1.000  1.00  0.00     0.028 C 
HETATM   22  C6  UNL     1      -6.150  -0.450  -0.327  1.00  0.00     0.003 C 
HETATM   23  C7  UNL     1      -5.176  -0.224  -1.462  1.00  0.00     0.028 C 
BRANCH  20  24
HETATM   24  O4  UNL     1      -2.209   1.966   0.509  1.00  0.00    -0.357 OA
ATOM     25  H4  UNL     1      -3.028   2.432   0.626  1.00  0.00     0.213 HD
ENDBRANCH  20  24
ENDBRANCH   1  14
TORSDOF 4
