REMARK  4 active torsions:
REMARK  status: ('A' for Active; 'I' for Inactive)
REMARK    1  A    between atoms: C1_2  and  C2_3 
REMARK       I    between atoms: C1_2  and  N2_14 
REMARK    2  A    between atoms: C2_3  and  O2_4 
REMARK    3  A    between atoms: O2_4  and  C3_5 
REMARK    4  A    between atoms: N2_14  and  C8_16 
ROOT
HETATM    1  O1  UNL     1      -1.166  -1.806   2.060  1.00  0.00    -0.271 OA
HETATM    2  C1  UNL     1      -0.472  -1.747   1.014  1.00  0.00     0.246 C 
HETATM    3  N2  UNL     1      -0.785  -0.924  -0.052  1.00  0.00    -0.323 N 
ATOM      4  H2  UNL     1      -0.150  -0.973  -0.849  1.00  0.00     0.169 HD
ENDROOT
BRANCH   2   5
HETATM    5  C2  UNL     1       0.713  -2.631   1.002  1.00  0.00     0.280 C 
BRANCH   5   6
HETATM    6  O2  UNL     1       1.618  -2.344  -0.020  1.00  0.00    -0.326 OA
BRANCH   6   7
HETATM    7  C3  UNL     1       2.282  -1.110  -0.028  1.00  0.00     0.143 A 
HETATM    8  C4  UNL     1       3.184  -0.806  -1.047  1.00  0.00     0.081 A 
HETATM    9  C5  UNL     1       3.837   0.399  -1.057  1.00  0.00     0.056 A 
HETATM   10 CL1  UNL     1       4.971   0.780  -2.340  1.00  0.00    -0.083 Cl
HETATM   11  C6  UNL     1       3.600   1.302  -0.061  1.00  0.00     0.048 A 
HETATM   12 BR1  UNL     1       4.508   2.967  -0.081  1.00  0.00    -0.048 Br
HETATM   13  C7  UNL     1       2.703   1.001   0.955  1.00  0.00     0.111 A 
HETATM   14  N1  UNL     1       2.092  -0.184   0.920  1.00  0.00    -0.345 N 
ATOM     15  H1  UNL     1       1.433  -0.400   1.668  1.00  0.00     0.167 HD
ENDBRANCH   6   7
ENDBRANCH   5   6
ENDBRANCH   2   5
BRANCH   3  16
HETATM   16  C8  UNL     1      -1.876  -0.015  -0.188  1.00  0.00     0.080 A 
HETATM   17  C9  UNL     1      -2.835   0.196   0.765  1.00  0.00     0.078 A 
HETATM   18  C10 UNL     1      -3.887   1.110   0.568  1.00  0.00     0.160 A 
HETATM   19  F1  UNL     1      -4.822   1.300   1.525  1.00  0.00    -0.203 F 
HETATM   20  C11 UNL     1      -4.001   1.833  -0.593  1.00  0.00     0.196 A 
HETATM   21  F2  UNL     1      -5.014   2.711  -0.781  1.00  0.00    -0.199 F 
HETATM   22  C12 UNL     1      -3.038   1.624  -1.554  1.00  0.00     0.198 A 
HETATM   23  F3  UNL     1      -3.160   2.346  -2.701  1.00  0.00    -0.199 F 
HETATM   24  C13 UNL     1      -2.006   0.733  -1.370  1.00  0.00     0.184 A 
HETATM   25  F4  UNL     1      -1.071   0.551  -2.340  1.00  0.00    -0.200 F 
ENDBRANCH   3  16
TORSDOF 4
