REMARK  3 active torsions:
REMARK  status: ('A' for Active; 'I' for Inactive)
REMARK    1  A    between atoms: N2_6  and  C4_8 
REMARK    2  A    between atoms: C4_8  and  C5_9 
REMARK    3  A    between atoms: C5_9  and  N3_10 
ROOT
HETATM    1  C1  UNL     1      -2.150   1.668  -2.594  1.00  0.00     0.044 C 
HETATM    2  C2  UNL     1      -1.520   1.049  -1.643  1.00  0.00     0.053 A 
HETATM    3  N1  UNL     1      -0.073   1.219  -1.543  1.00  0.00    -0.192 N 
ATOM      4  H1  UNL     1       0.410   1.815  -2.215  1.00  0.00     0.184 HD
HETATM    5  C3  UNL     1       0.664   0.575  -0.535  1.00  0.00     0.679 A 
HETATM    6  N2  UNL     1       1.948   0.714  -0.431  1.00  0.00    -0.224 N 
ATOM      7  H2  UNL     1       2.429   1.310  -1.105  1.00  0.00     0.177 HD
HETATM    8  N4  UNL     1       0.029  -0.245   0.397  1.00  0.00    -0.191 N 
ATOM      9  H4  UNL     1       0.583  -0.703   1.120  1.00  0.00     0.184 HD
HETATM   10  C6  UNL     1      -1.375  -0.454   0.358  1.00  0.00     0.064 A 
HETATM   11  C7  UNL     1      -1.910  -1.286   1.328  1.00  0.00     0.050 A 
HETATM   12  C8  UNL     1      -3.262  -1.514   1.326  1.00  0.00     0.014 A 
HETATM   13 BR1  UNL     1      -4.041  -2.658   2.650  1.00  0.00    -0.051 Br
HETATM   14  C9  UNL     1      -4.019  -0.909   0.365  1.00  0.00     0.039 A 
HETATM   15  C10 UNL     1      -3.465  -0.066  -0.617  1.00  0.00     0.027 A 
HETATM   16 BR2  UNL     1      -4.664   0.697  -1.883  1.00  0.00    -0.050 Br
HETATM   17  C11 UNL     1      -2.117   0.175  -0.631  1.00  0.00     0.035 A 
ENDROOT
BRANCH   6  18
HETATM   18  C4  UNL     1       2.726   0.068   0.588  1.00  0.00     0.165 C 
BRANCH  18  19
HETATM   19  C5  UNL     1       4.203   0.234   0.258  1.00  0.00     0.249 C 
BRANCH  19  20
HETATM   20  N3  UNL     1       5.038  -0.401   1.258  1.00  0.00    -0.078 N 
ATOM     21  H33 UNL     1       4.823  -0.063   2.196  1.00  0.00     0.274 HD
ATOM     22  H32 UNL     1       4.790  -1.382   1.385  1.00  0.00     0.274 HD
ATOM     23  H31 UNL     1       6.028  -0.290   1.037  1.00  0.00     0.274 HD
ENDBRANCH  19  20
ENDBRANCH  18  19
ENDBRANCH   6  18
TORSDOF 3
