REMARK  5 active torsions:
REMARK  status: ('A' for Active; 'I' for Inactive)
REMARK    1  A    between atoms: C2_2  and  C3_4 
REMARK    2  A    between atoms: C3_4  and  C4_5 
REMARK    3  A    between atoms: C5_7  and  O1_8 
REMARK    4  A    between atoms: C6_10  and  O2_11 
REMARK    5  A    between atoms: C11_17  and  O3_18 
ROOT
HETATM    1  C3  UNL     1       0.864  -0.237  -0.332  1.00  0.00     0.016 C 
HETATM    2  C5  UNL     1       0.268   1.066  -0.818  1.00  0.00     0.158 C 
HETATM    3  C6  UNL     1      -1.166   0.870  -1.261  1.00  0.00     0.154 C 
HETATM    4  C7  UNL     1      -1.963   0.021  -0.342  1.00  0.00     0.046 C 
HETATM    5  C8  UNL     1      -1.845   0.499   1.104  1.00  0.00     0.010 C 
HETATM    6  C9  UNL     1      -0.669  -0.271   1.671  1.00  0.00     0.009 C 
HETATM    7  C10 UNL     1      -0.078  -1.028   0.516  1.00  0.00     0.028 C 
HETATM    8  C11 UNL     1      -1.361  -1.352  -0.218  1.00  0.00     0.129 C 
ENDROOT
BRANCH   1   9
HETATM    9  C2  UNL     1       2.240  -0.141   0.182  1.00  0.00     0.066 C 
HETATM   10  C1  UNL     1       2.546   0.558   1.430  1.00  0.00     0.023 C 
HETATM   11 BR1  UNL     1       2.943  -1.961   0.364  1.00  0.00    -0.091 Br
ENDBRANCH   1   9
BRANCH   1  12
HETATM   12  C4  UNL     1       1.035  -1.052  -1.637  1.00  0.00     0.099 C 
HETATM   13 BR2  UNL     1       2.252  -0.070  -2.822  1.00  0.00    -0.096 Br
ENDBRANCH   1  12
BRANCH   2  14
HETATM   14  O1  UNL     1       0.381   2.116   0.052  1.00  0.00    -0.392 OA
ATOM     15  H1  UNL     1       0.007   2.934  -0.253  1.00  0.00     0.210 HD
ENDBRANCH   2  14
BRANCH   3  16
HETATM   16  O2  UNL     1      -1.732   2.154  -1.330  1.00  0.00    -0.393 OA
ATOM     17  H2  UNL     1      -2.632   2.031  -1.608  1.00  0.00     0.210 HD
ENDBRANCH   3  16
BRANCH   8  18
HETATM   18  O3  UNL     1      -2.228  -2.055   0.655  1.00  0.00    -0.395 OA
ATOM     19  H3  UNL     1      -1.848  -2.922   0.733  1.00  0.00     0.210 HD
ENDBRANCH   8  18
TORSDOF 5
