REMARK  4 active torsions:
REMARK  status: ('A' for Active; 'I' for Inactive)
REMARK    1  A    between atoms: C2_2  and  C4_4 
REMARK       I    between atoms: N3_10  and  C6_12 
REMARK    2  A    between atoms: C6_12  and  C7_14 
REMARK    3  A    between atoms: C7_14  and  N4_15 
REMARK    4  A    between atoms: C7_14  and  C8_19 
ROOT
HETATM    1  C4  UNL     1      -1.887  -0.024   0.285  1.00  0.00     0.071 A 
HETATM    2  N1  UNL     1      -1.148   0.387   1.347  1.00  0.00    -0.298 N 
ATOM      3  H1  UNL     1      -1.515   0.608   2.273  1.00  0.00     0.187 HD
HETATM    4  N2  UNL     1       0.137   0.455   0.985  1.00  0.00    -0.284 N 
ATOM      5  H2  UNL     1       0.908   0.740   1.589  1.00  0.00     0.188 HD
HETATM    6  C5  UNL     1       0.249   0.094  -0.282  1.00  0.00     0.142 A 
HETATM    7  N3  UNL     1       1.354   0.098  -1.004  1.00  0.00    -0.309 N 
ATOM      8  H3  UNL     1       1.374  -0.199  -1.980  1.00  0.00     0.170 HD
HETATM    9  C6  UNL     1       2.522   0.551  -0.311  1.00  0.00     0.254 C 
HETATM   10  O1  UNL     1       2.626   1.822  -0.125  1.00  0.00    -0.271 OA
HETATM   11  C9  UNL     1      -1.001  -0.218  -0.773  1.00  0.00     0.084 A 
HETATM   12 BR2  UNL     1      -1.477  -0.834  -2.508  1.00  0.00    -0.044 Br
ENDROOT
BRANCH   9  13
HETATM   13  C7  UNL     1       3.601  -0.294   0.203  1.00  0.00     0.284 C 
BRANCH  13  14
HETATM   14  N4  UNL     1       4.499   0.535   1.029  1.00  0.00    -0.066 N 
ATOM     15  H43 UNL     1       4.848   1.351   0.527  1.00  0.00     0.275 HD
ATOM     16  H42 UNL     1       4.002   1.028   1.771  1.00  0.00     0.275 HD
ATOM     17  H41 UNL     1       5.251  -0.054   1.387  1.00  0.00     0.275 HD
ENDBRANCH  13  14
BRANCH  13  18
HETATM   18  C8  UNL     1       4.501  -0.778  -0.932  1.00  0.00     0.127 C 
HETATM   19 BR1  UNL     1       5.304   0.686  -1.869  1.00  0.00    -0.094 Br
ENDBRANCH  13  18
ENDBRANCH   9  13
BRANCH   1  20
HETATM   20  C2  UNL     1      -3.350  -0.069   0.267  1.00  0.00    -0.058 C 
HETATM   21  C1  UNL     1      -3.969  -1.411   0.287  1.00  0.00     0.045 C 
HETATM   22  C3  UNL     1      -3.965   0.894  -0.688  1.00  0.00     0.045 C 
ENDBRANCH   1  20
TORSDOF 4
