REMARK  6 active torsions:
REMARK  status: ('A' for Active; 'I' for Inactive)
REMARK    1  A    between atoms: O1_1  and  C1_3 
REMARK    2  A    between atoms: C1_3  and  C2_4 
REMARK    3  A    between atoms: C2_4  and  N1_5 
REMARK    4  A    between atoms: N1_5  and  C3_7 
REMARK    5  A    between atoms: C3_7  and  N2_9 
REMARK    6  A    between atoms: N2_9  and  C4_11 
ROOT
HETATM    1  N2  UNL     1      -0.787   0.695  -1.627  1.00  0.00    -0.313 N 
ATOM      2  H2  UNL     1      -0.651   0.798  -2.633  1.00  0.00     0.170 HD
ENDROOT
BRANCH   1   3
HETATM    3  C3  UNL     1       0.204   1.087  -0.689  1.00  0.00     0.173 C 
HETATM    4  S1  UNL     1       0.016   2.430   0.244  1.00  0.00    -0.041 SA
BRANCH   3   5
HETATM    5  N1  UNL     1       1.394   0.334  -0.524  1.00  0.00    -0.365 N 
ATOM      6  H1  UNL     1       1.545  -0.504  -1.086  1.00  0.00     0.161 HD
BRANCH   5   7
HETATM    7  C2  UNL     1       2.383   0.741   0.424  1.00  0.00     0.148 C 
BRANCH   7   8
HETATM    8  C1  UNL     1       3.533  -0.237   0.388  1.00  0.00     0.183 C 
BRANCH   8   9
HETATM    9  O1  UNL     1       3.071  -1.510   0.712  1.00  0.00    -0.399 OA
ATOM     10  H1  UNL     1       3.794  -2.125   0.689  1.00  0.00     0.209 HD
ENDBRANCH   8   9
ENDBRANCH   7   8
ENDBRANCH   5   7
ENDBRANCH   3   5
ENDBRANCH   1   3
BRANCH   1  11
HETATM   11  C4  UNL     1      -1.892   0.190  -1.119  1.00  0.00     0.152 A 
HETATM   12  N3  UNL     1      -2.222  -0.010   0.158  1.00  0.00    -0.329 N 
HETATM   13  C5  UNL     1      -3.392  -0.533   0.427  1.00  0.00     0.106 A 
ATOM     14  H3  UNL     1      -1.577   0.239   0.908  1.00  0.00     0.168 HD
HETATM   15 BR1  UNL     1      -3.985  -0.872   2.248  1.00  0.00    -0.029 Br
HETATM   16  C6  UNL     1      -4.209  -0.845  -0.617  1.00  0.00     0.089 A 
HETATM   17 BR2  UNL     1      -5.977  -1.619  -0.586  1.00  0.00    -0.040 Br
HETATM   18  S2  UNL     1      -3.278  -0.379  -1.963  1.00  0.00    -0.043 SA
ENDBRANCH   1  11
TORSDOF 6
