REMARK  4 active torsions:
REMARK  status: ('A' for Active; 'I' for Inactive)
REMARK       I    between atoms: C1_4  and  N2_5 
REMARK       I    between atoms: C1_4  and  N5_16 
REMARK    1  A    between atoms: N2_5  and  C2_7 
REMARK    2  A    between atoms: N5_16  and  C5_18 
REMARK    3  A    between atoms: C5_18  and  C6_19 
REMARK    4  A    between atoms: C6_19  and  N6_20 
ROOT
HETATM    1  N1  UNL     1       1.543  -2.761  -0.628  1.00  0.00    -0.235 N 
ATOM      2  H11 UNL     1       0.595  -3.113  -0.495  1.00  0.00     0.174 HD
ATOM      3  H12 UNL     1       2.380  -3.279  -0.360  1.00  0.00     0.174 HD
HETATM    4  C1  UNL     1       1.683  -1.596  -1.164  1.00  0.00     0.673 C 
HETATM    5  N2  UNL     1       2.999  -1.108  -1.348  1.00  0.00    -0.174 N 
ATOM      6  H2  UNL     1       3.476  -1.305  -2.228  1.00  0.00     0.186 HD
HETATM    7  N5  UNL     1       0.522  -0.878  -1.535  1.00  0.00    -0.225 N 
ATOM      8  H5  UNL     1       0.420  -0.543  -2.493  1.00  0.00     0.177 HD
ENDROOT
BRANCH   5   9
HETATM    9  C2  UNL     1       3.621  -0.421  -0.444  1.00  0.00     0.155 A 
HETATM   10  N3  UNL     1       3.137  -0.074   0.765  1.00  0.00    -0.283 N 
HETATM   11  N4  UNL     1       4.040   0.626   1.431  1.00  0.00    -0.291 N 
ATOM     12  H3  UNL     1       2.210  -0.316   1.115  1.00  0.00     0.188 HD
HETATM   13  C3  UNL     1       5.164   0.773   0.688  1.00  0.00     0.115 A 
ATOM     14  H4  UNL     1       3.909   1.002   2.370  1.00  0.00     0.187 HD
HETATM   15 BR1  UNL     1       6.765   1.698   1.182  1.00  0.00    -0.028 Br
HETATM   16  C4  UNL     1       4.891   0.109  -0.494  1.00  0.00     0.092 A 
HETATM   17 BR2  UNL     1       6.077  -0.050  -1.960  1.00  0.00    -0.044 Br
ENDBRANCH   5   9
BRANCH   7  18
HETATM   18  C5  UNL     1      -0.519  -0.615  -0.571  1.00  0.00     0.159 C 
BRANCH  18  19
HETATM   19  C6  UNL     1      -1.648   0.161  -1.195  1.00  0.00     0.168 C 
BRANCH  19  20
HETATM   20  N6  UNL     1      -2.683   0.421  -0.229  1.00  0.00    -0.264 N 
HETATM   21  N7  UNL     1      -2.731   1.556   0.591  1.00  0.00    -0.136 NA
HETATM   22  C7  UNL     1      -4.041   1.562   1.186  1.00  0.00     0.144 C 
HETATM   23  C8  UNL     1      -4.509   0.118   1.197  1.00  0.00     0.122 C 
HETATM   24  C9  UNL     1      -3.789  -0.433   0.019  1.00  0.00     0.236 C 
HETATM   25  O1  UNL     1      -4.065  -1.458  -0.664  1.00  0.00    -0.272 OA
ENDBRANCH  19  20
ENDBRANCH  18  19
ENDBRANCH   7  18
TORSDOF 4
