REMARK  4 active torsions:
REMARK  status: ('A' for Active; 'I' for Inactive)
REMARK    1  A    between atoms: N4_12  and  C5_13 
REMARK       I    between atoms: N5_16  and  C7_18 
REMARK    2  A    between atoms: C7_18  and  C8_20 
REMARK    3  A    between atoms: C8_20  and  O2_21 
REMARK    4  A    between atoms: C8_20  and  C9_23 
ROOT
HETATM    1  N1  UNL     1       4.969   1.546   1.088  1.00  0.00    -0.234 N 
ATOM      2  H11 UNL     1       5.907   1.283   0.786  1.00  0.00     0.174 HD
ATOM      3  H12 UNL     1       5.077   2.152   1.901  1.00  0.00     0.174 HD
HETATM    4  C1  UNL     1       3.846   1.175   0.536  1.00  0.00     0.676 A 
HETATM    5  N2  UNL     1       2.612   1.521   0.933  1.00  0.00    -0.193 N 
ATOM      6  H2  UNL     1       2.403   2.125   1.728  1.00  0.00     0.184 HD
HETATM    7  C2  UNL     1       1.696   0.961   0.139  1.00  0.00     0.058 A 
HETATM    8  C3  UNL     1       2.400   0.232  -0.795  1.00  0.00     0.068 A 
HETATM    9  N3  UNL     1       3.704   0.381  -0.529  1.00  0.00    -0.192 N 
ATOM     10  H3  UNL     1       4.467  -0.044  -1.056  1.00  0.00     0.184 HD
HETATM   11  C4  UNL     1       1.585  -0.502  -1.812  1.00  0.00     0.184 C 
HETATM   12  N4  UNL     1       0.571  -1.214  -1.059  1.00  0.00    -0.355 N 
HETATM   13  C6  UNL     1      -0.260  -0.393  -0.206  1.00  0.00     0.088 C 
HETATM   14  N5  UNL     1      -1.328  -0.938   0.219  1.00  0.00    -0.314 N 
ATOM     15  H5  UNL     1      -1.489  -1.898  -0.085  1.00  0.00     0.170 HD
HETATM   16  C7  UNL     1      -2.317  -0.384   1.056  1.00  0.00     0.252 C 
HETATM   17  O1  UNL     1      -1.965   0.084   2.170  1.00  0.00    -0.270 OA
HETATM   18  C10 UNL     1       0.195   0.987   0.094  1.00  0.00     0.136 C 
ENDROOT
BRANCH  12  19
HETATM   19  C5  UNL     1       0.410  -2.643  -1.160  1.00  0.00     0.209 C 
HETATM   20 BR1  UNL     1       2.004  -3.601  -0.632  1.00  0.00    -0.075 Br
ENDBRANCH  12  19
BRANCH  16  21
HETATM   21  C8  UNL     1      -3.757  -0.329   0.680  1.00  0.00     0.220 C 
BRANCH  21  22
HETATM   22  O2  UNL     1      -3.945  -0.873  -0.582  1.00  0.00    -0.385 OA
ATOM     23  H2  UNL     1      -4.864  -0.838  -0.822  1.00  0.00     0.210 HD
ENDBRANCH  21  22
BRANCH  21  24
HETATM   24  C9  UNL     1      -4.378   1.019   0.830  1.00  0.00     0.126 C 
HETATM   25 BR2  UNL     1      -3.573   2.394  -0.228  1.00  0.00    -0.093 Br
ENDBRANCH  21  24
ENDBRANCH  16  21
TORSDOF 4
