REMARK  4 active torsions:
REMARK  status: ('A' for Active; 'I' for Inactive)
REMARK    1  A    between atoms: C5_6  and  C6_7 
REMARK    2  A    between atoms: C6_7  and  N1_8 
REMARK    3  A    between atoms: C12_17  and  O1_18 
REMARK    4  A    between atoms: C12_17  and  C13_20 
REMARK       I    between atoms: N3_23  and  C15_25 
ROOT
HETATM    1  C1  UNL     1      -3.489  -1.230  -0.992  1.00  0.00     0.034 C 
HETATM    2  C2  UNL     1      -2.929  -1.121   0.392  1.00  0.00     0.056 C 
HETATM    3 BR1  UNL     1      -4.304  -1.624   1.654  1.00  0.00    -0.079 Br
HETATM    4  C3  UNL     1      -1.803  -2.118   0.550  1.00  0.00     0.027 C 
HETATM    5  C4  UNL     1      -0.489  -1.577   0.030  1.00  0.00     0.011 C 
HETATM    6  C5  UNL     1       0.010  -0.482   0.887  1.00  0.00     0.054 C 
HETATM    7  C12 UNL     1      -1.130   0.227   1.557  1.00  0.00     0.128 C 
HETATM    8  C14 UNL     1      -2.396   0.188   0.742  1.00  0.00     0.045 C 
HETATM    9  N3  UNL     1      -2.940   1.260   0.403  1.00  0.00    -0.334 N 
ATOM     10  H3  UNL     1      -2.420   2.069   0.742  1.00  0.00     0.168 HD
HETATM   11  C15 UNL     1      -4.050   1.633  -0.303  1.00  0.00     0.186 C 
HETATM   12  N4  UNL     1      -5.209   1.686   0.287  1.00  0.00    -0.374 N 
ATOM     13  H41 UNL     1      -6.037   1.964  -0.240  1.00  0.00     0.158 HD
ATOM     14  H42 UNL     1      -5.180   1.420   1.271  1.00  0.00     0.158 HD
HETATM   15  N5  UNL     1      -4.091   2.006  -1.684  1.00  0.00    -0.064 NA
ENDROOT
BRANCH   6  16
HETATM   16  C6  UNL     1       0.884   0.527   0.255  1.00  0.00     0.245 C 
BRANCH  16  17
HETATM   17  N1  UNL     1       2.117   0.060  -0.324  1.00  0.00    -0.067 N 
HETATM   18  C7  UNL     1       1.963  -0.547  -1.618  1.00  0.00     0.272 C 
HETATM   19  C8  UNL     1       2.778  -0.763   0.638  1.00  0.00     0.264 C 
HETATM   20  C9  UNL     1       4.249  -0.949   0.402  1.00  0.00     0.260 C 
HETATM   21  N2  UNL     1       4.890   0.362   0.392  1.00  0.00    -0.072 N 
HETATM   22  C10 UNL     1       4.341   1.045  -0.788  1.00  0.00     0.260 C 
ATOM     23  H22 UNL     1       4.777   0.884   1.261  1.00  0.00     0.277 HD
ATOM     24  H21 UNL     1       5.909   0.324   0.410  1.00  0.00     0.277 HD
HETATM   25  C11 UNL     1       2.896   1.277  -0.548  1.00  0.00     0.264 C 
ENDBRANCH  16  17
ENDBRANCH   6  16
BRANCH   7  26
HETATM   26  O1  UNL     1      -1.466  -0.430   2.767  1.00  0.00    -0.381 OA
ATOM     27  H1  UNL     1      -2.188   0.019   3.191  1.00  0.00     0.211 HD
ENDBRANCH   7  26
BRANCH   7  28
HETATM   28  C13 UNL     1      -0.876   1.640   1.916  1.00  0.00     0.266 C 
HETATM   29  F1  UNL     1      -2.009   2.148   2.524  1.00  0.00    -0.252 F 
ENDBRANCH   7  28
TORSDOF 4
