REMARK  6 active torsions:
REMARK  status: ('A' for Active; 'I' for Inactive)
REMARK    1  A    between atoms: N1_2  and  C3_4 
REMARK    2  A    between atoms: C4_5  and  N2_6 
REMARK    3  A    between atoms: N2_6  and  C5_8 
REMARK    4  A    between atoms: C5_8  and  C6_10 
REMARK    5  A    between atoms: C5_8  and  C7_13 
REMARK    6  A    between atoms: C6_10  and  O1_11 
ROOT
HETATM    1  C3  UNL     1      -1.287   0.317  -0.238  1.00  0.00     0.107 A 
HETATM    2  C4  UNL     1       0.084   0.467  -0.362  1.00  0.00     0.146 A 
HETATM    3  N3  UNL     1       0.519   1.409  -1.214  1.00  0.00    -0.282 N 
ATOM      4  H3  UNL     1       1.529   1.521  -1.306  1.00  0.00     0.188 HD
HETATM    5  N4  UNL     1      -0.237   2.197  -1.938  1.00  0.00    -0.281 N 
ATOM      6  H4  UNL     1       0.191   2.883  -2.559  1.00  0.00     0.188 HD
HETATM    7  C8  UNL     1      -1.571   2.103  -1.864  1.00  0.00     0.166 A 
HETATM    8  N5  UNL     1      -2.811   2.499  -2.235  1.00  0.00    -0.282 N 
ATOM      9  H5  UNL     1      -3.193   3.197  -2.873  1.00  0.00     0.188 HD
HETATM   10  N6  UNL     1      -3.306   1.605  -1.427  1.00  0.00    -0.293 N 
ATOM     11  H6  UNL     1      -4.260   1.334  -1.189  1.00  0.00     0.187 HD
HETATM   12  C9  UNL     1      -2.100   1.169  -1.020  1.00  0.00     0.125 A 
ENDROOT
BRANCH   2  13
HETATM   13  N2  UNL     1       0.851  -0.272   0.323  1.00  0.00    -0.352 N 
ATOM     14  H2  UNL     1       0.367  -0.936   0.928  1.00  0.00     0.163 HD
BRANCH  13  15
HETATM   15  C5  UNL     1       2.261  -0.337   0.395  1.00  0.00     0.120 C 
HETATM   16 BR1  UNL     1       3.083   1.347   0.958  1.00  0.00    -0.059 Br
BRANCH  15  17
HETATM   17  C6  UNL     1       2.622  -1.309   1.537  1.00  0.00     0.208 C 
BRANCH  17  18
HETATM   18  O1  UNL     1       2.146  -0.901   2.755  1.00  0.00    -0.398 OA
ATOM     19  H1  UNL     1       2.368  -1.500   3.458  1.00  0.00     0.209 HD
ENDBRANCH  17  18
ENDBRANCH  15  17
BRANCH  15  20
HETATM   20  C7  UNL     1       2.954  -0.913  -0.811  1.00  0.00     0.130 C 
HETATM   21 BR2  UNL     1       4.870  -0.885  -0.460  1.00  0.00    -0.093 Br
ENDBRANCH  15  20
ENDBRANCH  13  15
ENDBRANCH   2  13
BRANCH   1  22
HETATM   22  N1  UNL     1      -1.894  -0.517   0.505  1.00  0.00    -0.385 N 
HETATM   23  C1  UNL     1      -3.342  -0.542   0.516  1.00  0.00     0.149 C 
HETATM   24  C2  UNL     1      -1.232  -1.459   1.353  1.00  0.00     0.149 C 
ENDBRANCH   1  22
TORSDOF 6
