REMARK  6 active torsions:
REMARK  status: ('A' for Active; 'I' for Inactive)
REMARK    1  A    between atoms: C2_3  and  C3_4 
REMARK    2  A    between atoms: C3_4  and  N2_5 
REMARK    3  A    between atoms: N2_5  and  O1_6 
REMARK    4  A    between atoms: N2_5  and  C4_8 
REMARK    5  A    between atoms: C4_8  and  C5_9 
REMARK    6  A    between atoms: C5_9  and  C6_10 
ROOT
HETATM    1  N2  UNL     1      -0.312  -0.589   0.233  1.00  0.00    -0.183 NA
ENDROOT
BRANCH   1   2
HETATM    2  C3  UNL     1      -1.582  -1.243   0.236  1.00  0.00     0.180 C 
BRANCH   2   3
HETATM    3  C2  UNL     1      -2.688  -0.249   0.188  1.00  0.00     0.051 A 
HETATM    4  C1  UNL     1      -4.055  -0.504   0.177  1.00  0.00     0.090 A 
HETATM    5  N1  UNL     1      -4.672  -1.783   0.210  1.00  0.00    -0.099 NA
HETATM    6  C11 UNL     1      -4.718   0.699   0.129  1.00  0.00     0.071 A 
HETATM    7  C10 UNL     1      -3.741   1.669   0.111  1.00  0.00     0.099 A 
HETATM    8 BR2  UNL     1      -6.575   1.043   0.091  1.00  0.00    -0.046 Br
HETATM    9  N4  UNL     1      -2.516   1.089   0.147  1.00  0.00    -0.350 N 
HETATM   10 BR1  UNL     1      -4.028   3.546   0.046  1.00  0.00    -0.030 Br
ATOM     11  H4  UNL     1      -1.621   1.578   0.144  1.00  0.00     0.166 HD
ENDBRANCH   2   3
ENDBRANCH   1   2
BRANCH   1  12
HETATM   12  O1  UNL     1      -0.191   0.065   1.435  1.00  0.00    -0.312 OA
ATOM     13  H1  UNL     1       0.654   0.500   1.433  1.00  0.00     0.237 HD
ENDBRANCH   1  12
BRANCH   1  14
HETATM   14  C4  UNL     1       0.780  -1.432   0.039  1.00  0.00     0.206 C 
BRANCH  14  15
HETATM   15  C5  UNL     1       1.964  -0.860   0.053  1.00  0.00    -0.126 C 
BRANCH  15  16
HETATM   16  C6  UNL     1       3.059  -0.181   0.056  1.00  0.00     0.053 C 
HETATM   17  C7  UNL     1       3.671   0.420  -1.107  1.00  0.00     0.072 C 
HETATM   18  C8  UNL     1       4.662   1.388  -0.439  1.00  0.00     0.128 C 
HETATM   19  N3  UNL     1       5.012   0.734   0.806  1.00  0.00    -0.356 N 
HETATM   20  C9  UNL     1       3.821   0.069   1.244  1.00  0.00     0.255 C 
ATOM     21  H3  UNL     1       5.918   0.745   1.274  1.00  0.00     0.162 HD
HETATM   22  O2  UNL     1       3.530  -0.221   2.422  1.00  0.00    -0.267 OA
ENDBRANCH  15  16
ENDBRANCH  14  15
ENDBRANCH   1  14
TORSDOF 6
