REMARK  6 active torsions:
REMARK  status: ('A' for Active; 'I' for Inactive)
REMARK    1  A    between atoms: C4_6  and  C5_7 
REMARK    2  A    between atoms: C5_7  and  C6_8 
REMARK    3  A    between atoms: C6_8  and  N2_9 
REMARK    4  A    between atoms: C7_11  and  O1_12 
REMARK    5  A    between atoms: C7_11  and  N3_14 
REMARK    6  A    between atoms: N3_14  and  N4_16 
ROOT
HETATM    1  C5  UNL     1      -0.480   0.545   0.713  1.00  0.00     0.049 C 
ENDROOT
BRANCH   1   2
HETATM    2  C4  UNL     1       0.866   0.065   0.738  1.00  0.00     0.006 C 
HETATM    3  C3  UNL     1       1.945   0.400   0.103  1.00  0.00     0.050 A 
HETATM    4  N1  UNL     1       3.175  -0.345   0.410  1.00  0.00    -0.342 N 
HETATM    5  C8  UNL     1       2.100   1.425  -0.899  1.00  0.00     0.071 A 
HETATM    6  C2  UNL     1       4.387  -0.047  -0.247  1.00  0.00     0.096 A 
ATOM      7  H1  UNL     1       3.151  -1.088   1.108  1.00  0.00     0.167 HD
HETATM    8  C1  UNL     1       5.511  -0.696   0.003  1.00  0.00     0.063 C 
HETATM    9  N6  UNL     1       4.468   0.989  -1.235  1.00  0.00    -0.336 N 
HETATM   10  C9  UNL     1       3.276   1.693  -1.516  1.00  0.00     0.101 A 
ATOM     11  H6  UNL     1       5.343   1.207  -1.711  1.00  0.00     0.168 HD
HETATM   12 BR2  UNL     1       3.284   3.105  -2.832  1.00  0.00    -0.030 Br
HETATM   13 BR1  UNL     1       0.611   2.477  -1.448  1.00  0.00    -0.046 Br
ENDBRANCH   1   2
BRANCH   1  14
HETATM   14  C6  UNL     1      -1.474  -0.526   0.197  1.00  0.00     0.127 C 
BRANCH  14  15
HETATM   15  N2  UNL     1      -2.773   0.113   0.234  1.00  0.00    -0.355 N 
HETATM   16  C7  UNL     1      -3.831  -0.594   0.327  1.00  0.00     0.233 C 
ATOM     17  H2  UNL     1      -2.842   1.129   0.186  1.00  0.00     0.163 HD
BRANCH  16  18
HETATM   18  O1  UNL     1      -3.730  -1.964   0.391  1.00  0.00    -0.332 OA
ATOM     19  H1  UNL     1      -4.518  -2.490   0.460  1.00  0.00     0.221 HD
ENDBRANCH  16  18
BRANCH  16  20
HETATM   20  N3  UNL     1      -5.089   0.049   0.362  1.00  0.00    -0.251 N 
ATOM     21  H3  UNL     1      -5.115   1.068   0.323  1.00  0.00     0.192 HD
BRANCH  20  22
HETATM   22  N4  UNL     1      -6.301  -0.645   0.447  1.00  0.00    -0.246 N 
HETATM   23  N5  UNL     1      -6.727  -0.926   1.609  1.00  0.00    -0.331 N 
ATOM     24  H52 UNL     1      -6.197  -0.651   2.436  1.00  0.00     0.178 HD
ATOM     25  H51 UNL     1      -7.611  -1.432   1.671  1.00  0.00     0.178 HD
ATOM     26  H4  UNL     1      -6.820  -0.914  -0.389  1.00  0.00     0.208 HD
ENDBRANCH  20  22
ENDBRANCH  16  20
ENDBRANCH  14  15
ENDBRANCH   1  14
TORSDOF 6
