REMARK  6 active torsions:
REMARK  status: ('A' for Active; 'I' for Inactive)
REMARK       I    between atoms: C1_2  and  N1_3 
REMARK    1  A    between atoms: C1_2  and  C4_8 
REMARK    2  A    between atoms: N1_3  and  C2_5 
REMARK    3  A    between atoms: C2_5  and  C3_6 
REMARK    4  A    between atoms: C10_15  and  N2_16 
REMARK    5  A    between atoms: N2_16  and  C11_19 
REMARK    6  A    between atoms: C11_19  and  C12_20 
ROOT
HETATM    1  C4  UNL     1       2.462   0.781  -0.549  1.00  0.00     0.109 C 
HETATM    2  C5  UNL     1       1.644   1.851   0.137  1.00  0.00     0.023 C 
HETATM    3  C6  UNL     1       0.315   1.183   0.426  1.00  0.00     0.022 C 
HETATM    4  C7  UNL     1       0.353   0.378   1.695  1.00  0.00     0.033 C 
HETATM    5  C8  UNL     1       1.115  -0.882   1.629  1.00  0.00     0.168 C 
HETATM    6  O2  UNL     1       1.763  -1.185   0.486  1.00  0.00    -0.383 OA
HETATM    7  C9  UNL     1       1.546  -0.449  -0.629  1.00  0.00     0.165 C 
HETATM    8  C10 UNL     1       0.206   0.222  -0.712  1.00  0.00     0.219 C 
ENDROOT
BRANCH   8   9
HETATM    9  N2  UNL     1      -0.915  -0.634  -0.724  1.00  0.00    -0.068 N 
ATOM     10  H22 UNL     1      -0.858  -1.346  -1.452  1.00  0.00     0.277 HD
ATOM     11  H21 UNL     1      -0.939  -1.260   0.081  1.00  0.00     0.277 HD
BRANCH   9  12
HETATM   12  C11 UNL     1      -2.110   0.181  -0.833  1.00  0.00     0.237 C 
BRANCH  12  13
HETATM   13  C12 UNL     1      -3.386  -0.582  -0.867  1.00  0.00     0.014 C 
HETATM   14  C13 UNL     1      -4.510   0.456  -0.989  1.00  0.00     0.034 C 
HETATM   15  C14 UNL     1      -5.803  -0.078  -0.391  1.00  0.00     0.232 C 
HETATM   16  N3  UNL     1      -5.601  -0.040   1.057  1.00  0.00    -0.075 N 
HETATM   17  C15 UNL     1      -4.377  -0.667   1.454  1.00  0.00     0.232 C 
ATOM     18  H32 UNL     1      -5.657   0.915   1.411  1.00  0.00     0.277 HD
ATOM     19  H31 UNL     1      -6.398  -0.444   1.550  1.00  0.00     0.277 HD
HETATM   20  C16 UNL     1      -3.685  -1.411   0.335  1.00  0.00     0.034 C 
ENDBRANCH  12  13
ENDBRANCH   9  12
ENDBRANCH   8   9
BRANCH   1  21
HETATM   21  C1  UNL     1       3.726   0.505   0.152  1.00  0.00     0.224 C 
HETATM   22  O1  UNL     1       3.968   1.155   1.191  1.00  0.00    -0.273 OA
HETATM   23  N1  UNL     1       4.662  -0.440  -0.281  1.00  0.00    -0.358 N 
ATOM     24  H1  UNL     1       4.457  -0.972  -1.127  1.00  0.00     0.162 HD
BRANCH  23  25
HETATM   25  C2  UNL     1       5.892  -0.699   0.402  1.00  0.00     0.153 C 
BRANCH  25  26
HETATM   26  C3  UNL     1       6.822   0.468   0.491  1.00  0.00     0.241 C 
HETATM   27  F1  UNL     1       7.992   0.142   1.155  1.00  0.00    -0.254 F 
ENDBRANCH  25  26
ENDBRANCH  23  25
ENDBRANCH   1  21
TORSDOF 6
