REMARK  9 active torsions:
REMARK  status: ('A' for Active; 'I' for Inactive)
REMARK    1  A    between atoms: C1_2  and  N1_3 
REMARK    2  A    between atoms: C1_2  and  N3_14 
REMARK    3  A    between atoms: N1_3  and  C2_5 
REMARK    4  A    between atoms: C2_5  and  C3_6 
REMARK    5  A    between atoms: C3_6  and  N2_7 
REMARK    6  A    between atoms: N2_7  and  C4_9 
REMARK    7  A    between atoms: N3_14  and  C9_16 
REMARK    8  A    between atoms: C9_16  and  C10_17 
REMARK    9  A    between atoms: C10_17  and  N4_18 
ROOT
HETATM    1  S1  UNL     1       0.724   0.431  -1.510  1.00  0.00    -0.041 SA
HETATM    2  C1  UNL     1       0.700   0.972   0.038  1.00  0.00     0.167 C 
ENDROOT
BRANCH   2   3
HETATM    3  N1  UNL     1      -0.328   0.568   0.940  1.00  0.00    -0.363 N 
ATOM      4  H1  UNL     1      -0.337   0.928   1.894  1.00  0.00     0.162 HD
BRANCH   3   5
HETATM    5  C2  UNL     1      -1.378  -0.369   0.498  1.00  0.00     0.166 C 
BRANCH   5   6
HETATM    6  C3  UNL     1      -2.341  -0.519   1.638  1.00  0.00     0.075 C 
BRANCH   6   7
HETATM    7  N2  UNL     1      -3.434  -1.368   1.466  1.00  0.00    -0.396 N 
ATOM      8  H2  UNL     1      -3.436  -2.243   1.990  1.00  0.00     0.159 HD
BRANCH   7   9
HETATM    9  C4  UNL     1      -4.509  -1.119   0.646  1.00  0.00     0.080 C 
HETATM   10  C5  UNL     1      -5.402   0.065   0.957  1.00  0.00     0.025 C 
HETATM   11  C6  UNL     1      -6.430  -0.059  -0.179  1.00  0.00     0.002 C 
HETATM   12  C7  UNL     1      -5.721  -0.844  -1.295  1.00  0.00     0.002 C 
HETATM   13  C8  UNL     1      -4.243  -0.831  -0.827  1.00  0.00     0.025 C 
ENDBRANCH   7   9
ENDBRANCH   6   7
ENDBRANCH   5   6
ENDBRANCH   3   5
ENDBRANCH   2   3
BRANCH   2  14
HETATM   14  N3  UNL     1       1.699   1.871   0.489  1.00  0.00    -0.366 N 
ATOM     15  H3  UNL     1       1.647   2.199   1.453  1.00  0.00     0.161 HD
BRANCH  14  16
HETATM   16  C9  UNL     1       2.766   2.343  -0.316  1.00  0.00     0.152 C 
BRANCH  16  17
HETATM   17  C10 UNL     1       3.875   1.442  -0.697  1.00  0.00     0.292 C 
BRANCH  17  18
HETATM   18  N4  UNL     1       4.686   0.937   0.356  1.00  0.00     0.094 N 
HETATM   19  C11 UNL     1       5.992   0.454  -0.182  1.00  0.00     0.298 C 
HETATM   20  C12 UNL     1       5.687  -0.612  -1.192  1.00  0.00     0.198 C 
HETATM   21  O1  UNL     1       5.048  -1.659  -0.592  1.00  0.00    -0.388 OA
HETATM   22  C13 UNL     1       3.943  -1.389   0.166  1.00  0.00     0.198 C 
HETATM   23  C14 UNL     1       4.102  -0.195   1.059  1.00  0.00     0.298 C 
ENDBRANCH  17  18
ENDBRANCH  16  17
ENDBRANCH  14  16
ENDBRANCH   2  14
TORSDOF 9
