REMARK  7 active torsions:
REMARK  status: ('A' for Active; 'I' for Inactive)
REMARK    1  A    between atoms: N1_2  and  C2_3 
REMARK    2  A    between atoms: N1_2  and  C11_21 
REMARK    3  A    between atoms: C2_3  and  C3_4 
REMARK    4  A    between atoms: C3_4  and  C4_5 
REMARK    5  A    between atoms: C4_5  and  C5_6 
REMARK    6  A    between atoms: C5_6  and  N2_7 
REMARK    7  A    between atoms: N2_7  and  C6_10 
ROOT
HETATM    1  N2  UNL     1       2.235   0.159   0.962  1.00  0.00    -0.061 N 
ATOM      2  H21 UNL     1       2.450   0.204   1.958  1.00  0.00     0.278 HD
ATOM      3  H22 UNL     1       1.717   1.033   0.872  1.00  0.00     0.278 HD
ENDROOT
BRANCH   1   4
HETATM    4  C5  UNL     1       1.416  -0.963   0.659  1.00  0.00     0.233 C 
BRANCH   4   5
HETATM    5  C4  UNL     1       0.769  -0.852  -0.726  1.00  0.00     0.032 C 
BRANCH   5   6
HETATM    6  C3  UNL     1      -0.094   0.351  -0.809  1.00  0.00     0.046 C 
BRANCH   6   7
HETATM    7  C2  UNL     1      -1.264   0.428   0.110  1.00  0.00     0.058 C 
BRANCH   7   8
HETATM    8  N1  UNL     1      -2.271  -0.506  -0.084  1.00  0.00    -0.390 N 
HETATM    9  C1  UNL     1      -2.176  -1.864   0.154  1.00  0.00     0.149 C 
BRANCH   8  10
HETATM   10  C11 UNL     1      -3.591   0.060  -0.107  1.00  0.00     0.116 C 
HETATM   11  C12 UNL     1      -4.494  -0.453  -1.171  1.00  0.00     0.028 C 
HETATM   12  C13 UNL     1      -5.588   0.571  -1.357  1.00  0.00     0.002 C 
HETATM   13  C14 UNL     1      -6.068   1.279  -0.169  1.00  0.00     0.003 C 
HETATM   14  C15 UNL     1      -5.327   1.166   1.112  1.00  0.00     0.039 C 
HETATM   15  C16 UNL     1      -4.364  -0.004   1.167  1.00  0.00     0.193 C 
HETATM   16  F1  UNL     1      -5.163  -1.152   1.184  1.00  0.00    -0.247 F 
ENDBRANCH   8  10
ENDBRANCH   7   8
ENDBRANCH   6   7
ENDBRANCH   5   6
ENDBRANCH   4   5
ENDBRANCH   1   4
BRANCH   1  17
HETATM   17  C6  UNL     1       3.419   0.174   0.174  1.00  0.00     0.302 C 
HETATM   18  C7  UNL     1       4.314  -1.026   0.445  1.00  0.00     0.275 C 
HETATM   19  N3  UNL     1       5.634  -0.673   0.871  1.00  0.00    -0.071 N 
HETATM   20  C8  UNL     1       6.582  -0.510  -0.206  1.00  0.00     0.252 C 
ATOM     21  H32 UNL     1       5.609   0.164   1.453  1.00  0.00     0.277 HD
ATOM     22  H31 UNL     1       5.981  -1.348   1.552  1.00  0.00     0.277 HD
HETATM   23  C9  UNL     1       6.292   0.693  -1.055  1.00  0.00     0.150 C 
HETATM   24  N4  UNL     1       5.515   1.627  -0.236  1.00  0.00    -0.358 N 
HETATM   25  C10 UNL     1       4.295   1.371   0.445  1.00  0.00     0.250 C 
ATOM     26  H4  UNL     1       5.894   2.570  -0.144  1.00  0.00     0.162 HD
HETATM   27  O1  UNL     1       3.957   2.194   1.302  1.00  0.00    -0.271 OA
ENDBRANCH   1  17
TORSDOF 7
