REMARK  7 active torsions:
REMARK  status: ('A' for Active; 'I' for Inactive)
REMARK       I    between atoms: N1_3  and  C3_5 
REMARK    1  A    between atoms: C3_5  and  C4_7 
REMARK    2  A    between atoms: C4_7  and  O2_8 
REMARK    3  A    between atoms: O2_8  and  C5_9 
REMARK    4  A    between atoms: C8_12  and  C9_13 
REMARK    5  A    between atoms: C9_13  and  N2_14 
REMARK    6  A    between atoms: N2_14  and  C10_16 
REMARK    7  A    between atoms: C10_16  and  C11_17 
ROOT
HETATM    1  C1  UNL     1       7.079   2.840  -1.271  1.00  0.00     0.037 C 
HETATM    2  C2  UNL     1       6.154   2.106  -1.039  1.00  0.00     0.002 C 
HETATM    3  N1  UNL     1       5.064   1.224  -0.741  1.00  0.00    -0.281 N 
ATOM      4  H1  UNL     1       4.154   1.601  -0.477  1.00  0.00     0.179 HD
HETATM    5  C3  UNL     1       5.263  -0.167  -0.817  1.00  0.00     0.274 C 
HETATM    6  O1  UNL     1       6.447  -0.553  -1.164  1.00  0.00    -0.266 OA
ENDROOT
BRANCH   5   7
HETATM    7  C4  UNL     1       4.284  -1.186  -0.551  1.00  0.00     0.210 C 
BRANCH   7   8
HETATM    8  O2  UNL     1       3.040  -0.944  -0.150  1.00  0.00    -0.352 OA
BRANCH   8   9
HETATM    9  C5  UNL     1       2.730  -0.310   0.991  1.00  0.00     0.130 C 
HETATM   10  C6  UNL     1       1.612   0.666   0.784  1.00  0.00     0.033 C 
HETATM   11  C7  UNL     1       0.599  -0.031  -0.163  1.00  0.00     0.015 C 
HETATM   12  C8  UNL     1       0.009  -1.136   0.634  1.00  0.00     0.058 C 
HETATM   13  C15 UNL     1       1.140  -2.149   0.967  1.00  0.00     0.181 C 
HETATM   14  F1  UNL     1       0.557  -3.193   1.617  1.00  0.00    -0.249 F 
HETATM   15  C16 UNL     1       2.085  -1.433   1.899  1.00  0.00     0.070 C 
BRANCH  12  16
HETATM   16  C9  UNL     1      -1.187  -1.843   0.161  1.00  0.00     0.063 C 
BRANCH  16  17
HETATM   17  N2  UNL     1      -2.367  -1.153   0.006  1.00  0.00    -0.400 N 
ATOM     18  H2  UNL     1      -3.112  -1.371   0.667  1.00  0.00     0.158 HD
BRANCH  17  19
HETATM   19  C10 UNL     1      -2.654  -0.186  -0.959  1.00  0.00     0.151 C 
BRANCH  19  20
HETATM   20  C11 UNL     1      -4.173   0.112  -0.821  1.00  0.00     0.203 C 
HETATM   21  C12 UNL     1      -4.387   0.621   0.569  1.00  0.00     0.036 C 
HETATM   22  C13 UNL     1      -5.417   1.693   0.466  1.00  0.00     0.029 C 
HETATM   23  C14 UNL     1      -5.571   1.942  -0.992  1.00  0.00     0.233 C 
HETATM   24  N3  UNL     1      -4.583   1.163  -1.716  1.00  0.00    -0.069 N 
ATOM     25  H32 UNL     1      -3.806   1.720  -2.072  1.00  0.00     0.277 HD
ATOM     26  H31 UNL     1      -4.915   0.823  -2.619  1.00  0.00     0.277 HD
ENDBRANCH  19  20
ENDBRANCH  17  19
ENDBRANCH  16  17
ENDBRANCH  12  16
ENDBRANCH   8   9
ENDBRANCH   7   8
ENDBRANCH   5   7
TORSDOF 7
