REMARK  8 active torsions:
REMARK  status: ('A' for Active; 'I' for Inactive)
REMARK    1  A    between atoms: C2_2  and  C3_3 
REMARK    2  A    between atoms: C3_3  and  C4_4 
REMARK    3  A    between atoms: C4_4  and  C5_5 
REMARK    4  A    between atoms: C5_5  and  N1_6 
REMARK    5  A    between atoms: C7_11  and  O1_12 
REMARK    6  A    between atoms: C8_14  and  C9_15 
REMARK    7  A    between atoms: C9_15  and  C10_16 
REMARK       I    between atoms: C10_16  and  N3_18 
REMARK    8  A    between atoms: N3_18  and  C11_20 
ROOT
HETATM    1  N1  UNL     1       2.210   1.671  -0.119  1.00  0.00     0.123 N 
HETATM    2  C6  UNL     1       2.737   2.619   0.831  1.00  0.00     0.506 C 
HETATM    3  N2  UNL     1       1.820   2.525   1.953  1.00  0.00    -0.020 N 
ATOM      4  H21 UNL     1       1.851   3.311   2.602  1.00  0.00     0.282 HD
ATOM      5  H22 UNL     1       2.060   1.817   2.647  1.00  0.00     0.282 HD
HETATM    6  C7  UNL     1       0.547   2.328   1.293  1.00  0.00     0.354 C 
HETATM    7  C8  UNL     1       0.787   1.761  -0.058  1.00  0.00     0.289 C 
ENDROOT
BRANCH   7   8
HETATM    8  C9  UNL     1       0.064   0.483  -0.345  1.00  0.00     0.143 C 
BRANCH   8   9
HETATM    9  C10 UNL     1      -1.409   0.632  -0.267  1.00  0.00     0.220 C 
HETATM   10  O2  UNL     1      -1.894   1.754   0.033  1.00  0.00    -0.274 OA
HETATM   11  N3  UNL     1      -2.319  -0.428  -0.512  1.00  0.00    -0.352 N 
ATOM     12  H3  UNL     1      -1.945  -1.345  -0.757  1.00  0.00     0.163 HD
BRANCH  11  13
HETATM   13  C11 UNL     1      -3.752  -0.267  -0.430  1.00  0.00     0.032 C 
HETATM   14  C12 UNL     1      -4.287   0.763  -1.385  1.00  0.00     0.038 C 
HETATM   15  C13 UNL     1      -4.401  -1.586  -0.791  1.00  0.00     0.033 C 
HETATM   16  C14 UNL     1      -5.475  -1.819   0.248  1.00  0.00     0.040 C 
HETATM   17  C15 UNL     1      -4.807  -1.272   1.494  1.00  0.00     0.172 C 
HETATM   18  F1  UNL     1      -5.694  -0.939   2.478  1.00  0.00    -0.249 F 
HETATM   19  C16 UNL     1      -4.162  -0.008   0.990  1.00  0.00     0.067 C 
ENDBRANCH  11  13
ENDBRANCH   8   9
ENDBRANCH   7   8
BRANCH   1  20
HETATM   20  C5  UNL     1       2.768   0.374  -0.075  1.00  0.00     0.275 C 
BRANCH  20  21
HETATM   21  C4  UNL     1       4.198   0.419  -0.563  1.00  0.00     0.030 C 
BRANCH  21  22
HETATM   22  C3  UNL     1       4.875  -0.937  -0.536  1.00  0.00     0.001 C 
BRANCH  22  23
HETATM   23  C2  UNL     1       4.163  -1.949  -1.408  1.00  0.00    -0.005 C 
HETATM   24  C1  UNL     1       4.869  -3.292  -1.362  1.00  0.00     0.005 C 
ENDBRANCH  22  23
ENDBRANCH  21  22
ENDBRANCH  20  21
ENDBRANCH   1  20
BRANCH   6  25
HETATM   25  O1  UNL     1      -0.040   3.614   1.228  1.00  0.00    -0.368 OA
ATOM     26  H1  UNL     1      -0.876   3.485   0.795  1.00  0.00     0.212 HD
ENDBRANCH   6  25
TORSDOF 8
