REMARK  10 active torsions:
REMARK  status: ('A' for Active; 'I' for Inactive)
REMARK    1  A    between atoms: C3_4  and  C4_5 
REMARK    2  A    between atoms: C4_5  and  O1_6 
REMARK    3  A    between atoms: O1_6  and  C5_7 
REMARK    4  A    between atoms: C5_7  and  C6_8 
REMARK    5  A    between atoms: C6_8  and  N2_9 
REMARK    6  A    between atoms: N2_9  and  C7_11 
REMARK    7  A    between atoms: C7_11  and  N3_13 
REMARK    8  A    between atoms: N3_13  and  C8_15 
REMARK    9  A    between atoms: C8_15  and  C9_16 
REMARK   10  A    between atoms: C9_16  and  O2_17 
ROOT
HETATM    1  C5  UNL     1       1.784  -0.049  -1.325  1.00  0.00     0.187 C 
ENDROOT
BRANCH   1   2
HETATM    2  O1  UNL     1       0.673   0.441  -0.726  1.00  0.00    -0.389 OA
BRANCH   2   3
HETATM    3  C4  UNL     1      -0.221  -0.504  -0.308  1.00  0.00     0.173 C 
BRANCH   3   4
HETATM    4  C3  UNL     1      -1.452   0.156   0.351  1.00  0.00     0.038 C 
HETATM    5  C2  UNL     1      -2.119   1.059  -0.630  1.00  0.00     0.278 C 
HETATM    6  N1  UNL     1      -3.546   0.900  -0.623  1.00  0.00     0.085 N 
HETATM    7  C1  UNL     1      -4.279   1.987  -1.214  1.00  0.00     0.309 C 
HETATM    8  C14 UNL     1      -4.065   0.699   0.718  1.00  0.00     0.280 C 
HETATM    9  C11 UNL     1      -3.704  -0.667   1.186  1.00  0.00    -0.021 C 
HETATM   10  C10 UNL     1      -2.317  -1.005   0.774  1.00  0.00     0.019 C 
HETATM   11  C12 UNL     1      -3.803  -0.768   2.697  1.00  0.00     0.016 C 
HETATM   12  C13 UNL     1      -4.655  -1.714   0.635  1.00  0.00     0.016 C 
ENDBRANCH   3   4
ENDBRANCH   2   3
ENDBRANCH   1   2
BRANCH   1  13
HETATM   13  C6  UNL     1       2.666  -0.941  -0.478  1.00  0.00     0.148 C 
BRANCH  13  14
HETATM   14  N2  UNL     1       3.797  -1.373  -1.236  1.00  0.00    -0.365 N 
ATOM     15  H2  UNL     1       3.705  -2.347  -1.525  1.00  0.00     0.161 HD
BRANCH  14  16
HETATM   16  C7  UNL     1       4.970  -0.827  -1.677  1.00  0.00     0.167 C 
HETATM   17  S1  UNL     1       5.853  -1.927  -2.679  1.00  0.00    -0.041 SA
BRANCH  16  18
HETATM   18  N3  UNL     1       5.562   0.399  -1.482  1.00  0.00    -0.365 N 
ATOM     19  H3  UNL     1       6.420   0.541  -2.015  1.00  0.00     0.161 HD
BRANCH  18  20
HETATM   20  C8  UNL     1       5.188   1.501  -0.669  1.00  0.00     0.148 C 
BRANCH  20  21
HETATM   21  C9  UNL     1       5.585   1.138   0.775  1.00  0.00     0.183 C 
BRANCH  21  22
HETATM   22  O2  UNL     1       5.250   2.150   1.641  1.00  0.00    -0.399 OA
ATOM     23  H2  UNL     1       5.495   1.926   2.531  1.00  0.00     0.209 HD
ENDBRANCH  21  22
ENDBRANCH  20  21
ENDBRANCH  18  20
ENDBRANCH  16  18
ENDBRANCH  14  16
ENDBRANCH  13  14
ENDBRANCH   1  13
TORSDOF 10
