REMARK  11 active torsions:
REMARK  status: ('A' for Active; 'I' for Inactive)
REMARK    1  A    between atoms: N1_1  and  C1_5 
REMARK    2  A    between atoms: C1_5  and  C2_6 
REMARK    3  A    between atoms: C2_6  and  O2_8 
REMARK    4  A    between atoms: O2_8  and  C3_9 
REMARK    5  A    between atoms: C4_10  and  C5_11 
REMARK    6  A    between atoms: N2_12  and  N3_14 
REMARK       I    between atoms: N3_14  and  C6_16 
REMARK    7  A    between atoms: N5_18  and  N6_20 
REMARK    8  A    between atoms: N6_20  and  C7_22 
REMARK    9  A    between atoms: N10_29  and  C8_30 
REMARK   10  A    between atoms: C13_39  and  O3_40 
REMARK   11  A    between atoms: C14_42  and  O4_43 
ROOT
HETATM    1  N3  UNL     1      -0.110  -0.906  -2.125  1.00  0.00    -0.273 N 
ATOM      2  H3  UNL     1       0.179  -0.609  -3.057  1.00  0.00     0.189 HD
HETATM    3  C6  UNL     1      -1.473  -0.849  -1.747  1.00  0.00     0.222 C 
HETATM    4  N4  UNL     1      -2.477  -1.209  -2.668  1.00  0.00    -0.061 NA
HETATM    5  N5  UNL     1      -1.784  -0.471  -0.570  1.00  0.00    -0.258 N 
ATOM      6  H5  UNL     1      -1.046  -0.214   0.086  1.00  0.00     0.190 HD
ENDROOT
BRANCH   1   7
HETATM    7  N2  UNL     1       0.802  -1.357  -1.241  1.00  0.00    -0.309 N 
HETATM    8  C5  UNL     1       1.733  -0.872  -0.550  1.00  0.00     0.121 C 
ATOM      9  H2  UNL     1       0.713  -2.362  -1.093  1.00  0.00     0.186 HD
BRANCH   8  10
HETATM   10  C4  UNL     1       2.187   0.496  -0.464  1.00  0.00     0.018 A 
HETATM   11  C3  UNL     1       3.254   0.765   0.394  1.00  0.00     0.126 A 
HETATM   12  C14 UNL     1       3.697   2.062   0.486  1.00  0.00     0.134 A 
HETATM   13  C13 UNL     1       3.132   3.095  -0.230  1.00  0.00     0.101 A 
HETATM   14  C12 UNL     1       2.070   2.789  -1.074  1.00  0.00     0.040 A 
HETATM   15  C11 UNL     1       1.591   1.487  -1.196  1.00  0.00     0.018 A 
BRANCH  11  16
HETATM   16  O2  UNL     1       3.854  -0.250   1.135  1.00  0.00    -0.274 OA
BRANCH  16  17
HETATM   17  C2  UNL     1       4.922  -0.958   0.614  1.00  0.00     0.289 C 
HETATM   18  O1  UNL     1       5.331  -0.659  -0.538  1.00  0.00    -0.263 OA
BRANCH  17  19
HETATM   19  C1  UNL     1       5.601  -2.052   1.362  1.00  0.00     0.340 C 
BRANCH  19  20
HETATM   20  N1  UNL     1       6.676  -2.601   0.564  1.00  0.00    -0.070 N 
ATOM     21  H13 UNL     1       6.353  -2.908  -0.354  1.00  0.00     0.274 HD
ATOM     22  H12 UNL     1       7.332  -1.882   0.258  1.00  0.00     0.274 HD
ATOM     23  H11 UNL     1       7.141  -3.350   1.076  1.00  0.00     0.274 HD
ENDBRANCH  19  20
ENDBRANCH  17  19
ENDBRANCH  16  17
ENDBRANCH  11  16
BRANCH  12  24
HETATM   24  O4  UNL     1       4.754   2.350   1.329  1.00  0.00    -0.356 OA
ATOM     25  H4  UNL     1       5.060   3.247   1.393  1.00  0.00     0.218 HD
ENDBRANCH  12  24
BRANCH  13  26
HETATM   26  O3  UNL     1       3.596   4.401  -0.121  1.00  0.00    -0.358 OA
ATOM     27  H3  UNL     1       4.322   4.610   0.456  1.00  0.00     0.217 HD
ENDBRANCH  13  26
ENDBRANCH   8  10
ENDBRANCH   1   7
BRANCH   5  28
HETATM   28  N6  UNL     1      -3.106  -0.404  -0.168  1.00  0.00    -0.126 N 
ATOM     29  H6  UNL     1      -3.834  -0.802  -0.761  1.00  0.00     0.206 HD
BRANCH  28  30
HETATM   30  C7  UNL     1      -3.424   0.151   0.937  1.00  0.00     0.750 A 
HETATM   31  N7  UNL     1      -2.585   0.717   1.823  1.00  0.00    -0.113 N 
HETATM   32  N8  UNL     1      -3.301   1.174   2.829  1.00  0.00    -0.212 N 
ATOM     33  H7  UNL     1      -1.571   0.781   1.731  1.00  0.00     0.207 HD
HETATM   34  N9  UNL     1      -4.565   0.896   2.572  1.00  0.00    -0.191 N 
ATOM     35  H8  UNL     1      -2.944   1.654   3.655  1.00  0.00     0.210 HD
HETATM   36  N10 UNL     1      -4.681   0.266   1.416  1.00  0.00     0.109 N 
ATOM     37  H9  UNL     1      -5.346   1.135   3.183  1.00  0.00     0.211 HD
BRANCH  36  38
HETATM   38  C8  UNL     1      -5.855  -0.215   0.760  1.00  0.00     0.719 A 
HETATM   39  N11 UNL     1      -5.961  -1.337   0.010  1.00  0.00    -0.198 N 
HETATM   40  C9  UNL     1      -7.208  -1.472  -0.445  1.00  0.00     0.123 A 
ATOM     41  H11 UNL     1      -5.197  -1.986  -0.180  1.00  0.00     0.183 HD
HETATM   42  C10 UNL     1      -7.935  -0.409   0.019  1.00  0.00     0.123 A 
HETATM   43  N12 UNL     1      -7.073   0.337   0.752  1.00  0.00    -0.198 N 
ATOM     44  H12 UNL     1      -7.320   1.202   1.232  1.00  0.00     0.183 HD
ENDBRANCH  36  38
ENDBRANCH  28  30
ENDBRANCH   5  28
TORSDOF 11
