REMARK  11 active torsions:
REMARK  status: ('A' for Active; 'I' for Inactive)
REMARK    1  A    between atoms: C3_3  and  C4_4 
REMARK    2  A    between atoms: N2_6  and  N3_8 
REMARK    3  A    between atoms: N8_19  and  C8_20 
REMARK    4  A    between atoms: C8_20  and  C9_21 
REMARK    5  A    between atoms: C8_20  and  N9_24 
REMARK    6  A    between atoms: C9_21  and  O1_22 
REMARK    7  A    between atoms: N9_24  and  N10_26 
REMARK    8  A    between atoms: N10_26  and  C10_28 
REMARK    9  A    between atoms: C11_31  and  C12_32 
REMARK   10  A    between atoms: C12_32  and  O2_33 
REMARK   11  A    between atoms: C12_32  and  O3_35 
ROOT
HETATM    1  C8  UNL     1       1.800   0.635  -0.096  1.00  0.00     0.243 C 
ENDROOT
BRANCH   1   2
HETATM    2  N8  UNL     1       0.628  -0.174   0.174  1.00  0.00    -0.251 N 
HETATM    3  C2  UNL     1      -0.643   0.247   0.037  1.00  0.00     0.056 A 
HETATM    4  C1  UNL     1      -1.083   1.607  -0.413  1.00  0.00     0.072 C 
HETATM    5  C3  UNL     1      -1.517  -0.772   0.376  1.00  0.00     0.112 A 
HETATM    6  N6  UNL     1      -0.718  -1.801   0.716  1.00  0.00    -0.279 N 
HETATM    7  N7  UNL     1       0.545  -1.429   0.590  1.00  0.00    -0.017 NA
ATOM      8  H6  UNL     1      -1.036  -2.721   1.022  1.00  0.00     0.184 HD
BRANCH   5   9
HETATM    9  C4  UNL     1      -2.971  -0.710   0.359  1.00  0.00     0.161 C 
HETATM   10  N1  UNL     1      -3.736  -1.840   0.735  1.00  0.00    -0.079 NA
HETATM   11  N2  UNL     1      -3.594   0.356   0.006  1.00  0.00    -0.272 N 
ATOM     12  H2  UNL     1      -3.024   1.158  -0.262  1.00  0.00     0.189 HD
BRANCH  11  13
HETATM   13  N3  UNL     1      -4.959   0.515  -0.044  1.00  0.00    -0.234 N 
HETATM   14  C5  UNL     1      -5.723  -0.223  -1.000  1.00  0.00     0.192 C 
HETATM   15  C6  UNL     1      -6.983  -0.717  -0.361  1.00  0.00     0.256 C 
HETATM   16  N4  UNL     1      -7.577   0.182   0.582  1.00  0.00    -0.059 N 
HETATM   17  C7  UNL     1      -6.591   0.642   1.570  1.00  0.00     0.368 C 
ATOM     18  H42 UNL     1      -8.035   0.965   0.116  1.00  0.00     0.278 HD
ATOM     19  H41 UNL     1      -8.394  -0.232   1.032  1.00  0.00     0.278 HD
HETATM   20  N5  UNL     1      -5.614   1.401   0.839  1.00  0.00    -0.096 NA
ENDBRANCH  11  13
ENDBRANCH   5   9
ENDBRANCH   1   2
BRANCH   1  21
HETATM   21  C9  UNL     1       2.060   0.682  -1.610  1.00  0.00     0.213 C 
BRANCH  21  22
HETATM   22  O1  UNL     1       2.289  -0.608  -2.085  1.00  0.00    -0.397 OA
ATOM     23  H1  UNL     1       2.450  -0.579  -3.021  1.00  0.00     0.209 HD
ENDBRANCH  21  22
ENDBRANCH   1  21
BRANCH   1  24
HETATM   24  N9  UNL     1       2.992   0.065   0.490  1.00  0.00    -0.295 N 
ATOM     25  H9  UNL     1       2.889  -0.808   1.008  1.00  0.00     0.183 HD
BRANCH  24  26
HETATM   26  N10 UNL     1       4.246   0.601   0.406  1.00  0.00    -0.134 N 
ATOM     27  H10 UNL     1       4.377   1.589   0.624  1.00  0.00     0.205 HD
BRANCH  26  28
HETATM   28  C10 UNL     1       5.300  -0.125   0.049  1.00  0.00     0.703 A 
HETATM   29  N11 UNL     1       6.478   0.440  -0.015  1.00  0.00    -0.181 N 
HETATM   30  C11 UNL     1       7.520  -0.286  -0.370  1.00  0.00     0.139 A 
ATOM     31  H11 UNL     1       6.589   1.429   0.207  1.00  0.00     0.185 HD
HETATM   32  S1  UNL     1       6.812  -1.816  -0.621  1.00  0.00     0.021 SA
HETATM   33  N12 UNL     1       5.217  -1.425  -0.253  1.00  0.00    -0.157 N 
ATOM     34  H12 UNL     1       4.394  -2.028  -0.259  1.00  0.00     0.193 HD
BRANCH  30  35
HETATM   35  C12 UNL     1       8.946   0.189  -0.498  1.00  0.00     0.314 C 
BRANCH  35  36
HETATM   36  O2  UNL     1       9.274   0.967   0.592  1.00  0.00    -0.365 OA
ATOM     37  H2  UNL     1      10.172   1.266   0.511  1.00  0.00     0.213 HD
ENDBRANCH  35  36
BRANCH  35  38
HETATM   38  O3  UNL     1       9.123   0.926  -1.651  1.00  0.00    -0.365 OA
ATOM     39  H3  UNL     1      10.021   1.225  -1.732  1.00  0.00     0.213 HD
ENDBRANCH  35  38
ENDBRANCH  30  35
ENDBRANCH  26  28
ENDBRANCH  24  26
ENDBRANCH   1  24
TORSDOF 11
