REMARK  2 active torsions:
REMARK  status: ('A' for Active; 'I' for Inactive)
REMARK    1  A    between atoms: C4_4  and  N1_5 
REMARK    2  A    between atoms: N1_5  and  C5_8 
ROOT
HETATM    1  N1  UNL     1       0.570  -0.509   0.604  1.00  0.00    -0.045 N 
ATOM      2  H11 UNL     1       0.613  -1.493   0.337  1.00  0.00     0.280 HD
ATOM      3  H12 UNL     1       0.546  -0.630   1.616  1.00  0.00     0.280 HD
ENDROOT
BRANCH   1   4
HETATM    4  C4  UNL     1      -0.622   0.134   0.108  1.00  0.00     0.321 C 
HETATM    5  C3  UNL     1      -1.720   0.061   1.137  1.00  0.00     0.061 C 
HETATM    6  C2  UNL     1      -2.921  -0.605   0.488  1.00  0.00     0.006 C 
HETATM    7  C1  UNL     1      -3.277   0.256  -0.717  1.00  0.00     0.026 C 
HETATM    8  C9  UNL     1      -2.103   0.180  -1.657  1.00  0.00     0.170 C 
HETATM    9  O1  UNL     1      -0.993  -0.435  -1.112  1.00  0.00    -0.359 OA
ENDBRANCH   1   4
BRANCH   1  10
HETATM   10  C5  UNL     1       1.733   0.215   0.177  1.00  0.00     0.189 C 
HETATM   11  C6  UNL     1       2.829   0.376   1.219  1.00  0.00     0.033 C 
HETATM   12  C7  UNL     1       3.805   0.275   0.050  1.00  0.00     0.004 C 
HETATM   13  C8  UNL     1       2.749  -0.601  -0.616  1.00  0.00     0.033 C 
ENDBRANCH   1  10
TORSDOF 2
