REMARK  2 active torsions:
REMARK  status: ('A' for Active; 'I' for Inactive)
REMARK    1  A    between atoms: C2_3  and  N2_4 
REMARK    2  A    between atoms: N2_4  and  C3_7 
ROOT
HETATM    1  N1  UNL     1       0.095   2.129  -1.420  1.00  0.00    -0.195 NA
HETATM    2  C1  UNL     1      -0.125   1.244  -0.721  1.00  0.00     0.099 C 
HETATM    3  C2  UNL     1      -0.419   0.115   0.158  1.00  0.00     0.213 C 
HETATM    4  C6  UNL     1      -1.663   0.419   0.995  1.00  0.00     0.055 C 
HETATM    5  C7  UNL     1      -2.740   0.373  -0.073  1.00  0.00     0.004 C 
HETATM    6  C8  UNL     1      -2.232  -0.590  -1.130  1.00  0.00     0.004 C 
HETATM    7  C9  UNL     1      -0.885  -1.091  -0.615  1.00  0.00     0.055 C 
ENDROOT
BRANCH   3   8
HETATM    8  N2  UNL     1       0.719  -0.140   1.007  1.00  0.00    -0.049 N 
ATOM      9  H22 UNL     1       0.936   0.641   1.626  1.00  0.00     0.279 HD
ATOM     10  H21 UNL     1       0.528  -0.834   1.730  1.00  0.00     0.279 HD
BRANCH   8  11
HETATM   11  C3  UNL     1       1.828  -0.507   0.154  1.00  0.00     0.188 A 
HETATM   12  C4  UNL     1       3.215  -0.509   0.659  1.00  0.00     0.035 A 
HETATM   13  C5  UNL     1       2.759   0.644  -0.168  1.00  0.00     0.035 A 
ENDBRANCH   8  11
ENDBRANCH   3   8
TORSDOF 2
