REMARK  3 active torsions:
REMARK  status: ('A' for Active; 'I' for Inactive)
REMARK    1  A    between atoms: C2_2  and  C3_3 
REMARK    2  A    between atoms: C3_3  and  N1_4 
REMARK    3  A    between atoms: C9_10  and  N2_11 
ROOT
HETATM    1  N1  UNL     1       0.396  -0.263  -0.247  1.00  0.00     0.122 N 
HETATM    2  C4  UNL     1      -0.242  -1.578   0.013  1.00  0.00     0.275 C 
HETATM    3  C5  UNL     1      -1.341  -1.791  -1.006  1.00  0.00     0.030 C 
HETATM    4  C6  UNL     1      -2.507  -0.853  -0.789  1.00  0.00     0.002 C 
HETATM    5  C7  UNL     1      -2.103   0.574  -0.594  1.00  0.00     0.004 C 
HETATM    6  C8  UNL     1      -1.524   0.859   0.770  1.00  0.00     0.065 C 
HETATM    7  C9  UNL     1      -0.066   0.549   0.868  1.00  0.00     0.417 C 
ENDROOT
BRANCH   7   8
HETATM    8  N2  UNL     1       0.674   1.731   1.122  1.00  0.00    -0.048 N 
ATOM      9  H23 UNL     1       1.661   1.503   1.245  1.00  0.00     0.276 HD
ATOM     10  H22 UNL     1       0.722   2.299   0.276  1.00  0.00     0.276 HD
ATOM     11  H21 UNL     1       0.350   2.300   1.904  1.00  0.00     0.276 HD
ENDBRANCH   7   8
BRANCH   1  12
HETATM   12  C3  UNL     1       1.827  -0.519  -0.195  1.00  0.00     0.301 C 
BRANCH  12  13
HETATM   13  C2  UNL     1       2.663   0.581  -0.679  1.00  0.00    -0.007 C 
HETATM   14  C1  UNL     1       3.585   1.240  -0.033  1.00  0.00     0.008 C 
ENDBRANCH  12  13
ENDBRANCH   1  12
TORSDOF 3
