REMARK  2 active torsions:
REMARK  status: ('A' for Active; 'I' for Inactive)
REMARK    1  A    between atoms: C3_3  and  N1_4 
REMARK    2  A    between atoms: N1_4  and  C4_7 
ROOT
HETATM    1  N1  UNL     1      -0.473  -0.715   0.488  1.00  0.00    -0.067 N 
ATOM      2  H11 UNL     1      -0.350  -1.580  -0.038  1.00  0.00     0.278 HD
ATOM      3  H12 UNL     1      -0.719  -1.131   1.386  1.00  0.00     0.278 HD
ENDROOT
BRANCH   1   4
HETATM    4  C3  UNL     1      -1.538   0.121  -0.051  1.00  0.00     0.186 C 
HETATM    5  C2  UNL     1      -2.886  -0.089   0.630  1.00  0.00     0.033 C 
HETATM    6  C1  UNL     1      -3.513   0.077  -0.748  1.00  0.00     0.004 C 
HETATM    7  C9  UNL     1      -2.184  -0.411  -1.314  1.00  0.00     0.033 C 
ENDBRANCH   1   4
BRANCH   1   8
HETATM    8  C4  UNL     1       0.733   0.067   0.554  1.00  0.00     0.190 C 
HETATM    9  C5  UNL     1       1.233   0.253  -0.871  1.00  0.00     0.059 C 
HETATM   10  C6  UNL     1       2.441   1.140  -0.774  1.00  0.00     0.169 C 
HETATM   11  O1  UNL     1       3.462   0.636  -0.008  1.00  0.00    -0.391 OA
HETATM   12  C7  UNL     1       3.181  -0.497   0.705  1.00  0.00     0.169 C 
HETATM   13  C8  UNL     1       1.832  -0.553   1.343  1.00  0.00     0.059 C 
ENDBRANCH   1   8
TORSDOF 2
