REMARK  3 active torsions:
REMARK  status: ('A' for Active; 'I' for Inactive)
REMARK    1  A    between atoms: C5_12  and  N4_13 
REMARK    2  A    between atoms: N4_13  and  O3_14 
REMARK    3  A    between atoms: N4_13  and  N5_16 
ROOT
HETATM    1  N1  UNL     1       0.544   2.991  -1.490  1.00  0.00    -0.190 NA
HETATM    2  C1  UNL     1       0.081   2.027  -1.001  1.00  0.00     0.120 C 
HETATM    3  C2  UNL     1      -0.501   0.850  -0.421  1.00  0.00     0.149 A 
HETATM    4  N2  UNL     1      -1.819   0.551  -0.592  1.00  0.00    -0.298 N 
ATOM      5  H2  UNL     1      -2.400   1.181  -1.145  1.00  0.00     0.171 HD
HETATM    6  C3  UNL     1      -2.379  -0.549  -0.055  1.00  0.00     0.328 A 
HETATM    7  O1  UNL     1      -3.589  -0.757  -0.254  1.00  0.00    -0.247 OA
HETATM    8  N3  UNL     1      -1.632  -1.411   0.690  1.00  0.00    -0.274 N 
ATOM      9  H3  UNL     1      -2.063  -2.242   1.094  1.00  0.00     0.173 HD
HETATM   10  C4  UNL     1      -0.333  -1.165   0.890  1.00  0.00     0.278 A 
HETATM   11  O2  UNL     1       0.409  -1.924   1.568  1.00  0.00    -0.266 OA
HETATM   12  C5  UNL     1       0.249  -0.030   0.336  1.00  0.00     0.166 A 
ENDROOT
BRANCH  12  13
HETATM   13  N4  UNL     1       1.612   0.235   0.541  1.00  0.00    -0.048 NA
BRANCH  13  14
HETATM   14  O3  UNL     1       1.912   1.514   0.758  1.00  0.00    -0.288 OA
ATOM     15  H3  UNL     1       2.835   1.693   0.897  1.00  0.00     0.239 HD
ENDBRANCH  13  14
BRANCH  13  16
HETATM   16  N5  UNL     1       2.403  -0.247  -0.489  1.00  0.00    -0.240 N 
HETATM   17  N6  UNL     1       3.409   0.389  -0.847  1.00  0.00    -0.333 N 
ATOM     18  H62 UNL     1       3.638   1.263  -0.373  1.00  0.00     0.178 HD
ATOM     19  H61 UNL     1       3.991   0.034  -1.605  1.00  0.00     0.178 HD
ATOM     20  H5  UNL     1       2.160  -1.122  -0.953  1.00  0.00     0.204 HD
ENDBRANCH  13  16
ENDBRANCH  12  13
TORSDOF 3
