REMARK  2 active torsions:
REMARK  status: ('A' for Active; 'I' for Inactive)
REMARK       I    between atoms: C1_2  and  N2_4 
REMARK    1  A    between atoms: N2_4  and  N3_6 
REMARK    2  A    between atoms: N3_6  and  C2_8 
ROOT
HETATM    1  C2  UNL     1       0.602  -0.594  -0.101  1.00  0.00     0.714 A 
HETATM    2  N4  UNL     1       1.783  -0.829  -0.665  1.00  0.00    -0.128 N 
ATOM      3  H4  UNL     1       1.847  -1.552  -1.381  1.00  0.00     0.205 HD
HETATM    4  N5  UNL     1       2.879  -0.165  -0.337  1.00  0.00    -0.247 N 
ATOM      5  H5  UNL     1       3.759  -0.387  -0.803  1.00  0.00     0.191 HD
HETATM    6  C3  UNL     1       2.852   0.797   0.600  1.00  0.00     0.329 A 
HETATM    7  O2  UNL     1       3.841   1.461   0.958  1.00  0.00    -0.261 OA
HETATM    8  C4  UNL     1       1.635   1.056   1.197  1.00  0.00     0.329 A 
HETATM    9  O3  UNL     1       1.492   1.940   2.091  1.00  0.00    -0.261 OA
HETATM   10  N6  UNL     1       0.529   0.362   0.843  1.00  0.00    -0.149 N 
ATOM     11  H6  UNL     1      -0.364   0.564   1.293  1.00  0.00     0.188 HD
ENDROOT
BRANCH   1  12
HETATM   12  N3  UNL     1      -0.415  -1.288  -0.480  1.00  0.00    -0.127 N 
ATOM     13  H3  UNL     1      -0.285  -1.997  -1.201  1.00  0.00     0.206 HD
BRANCH  12  14
HETATM   14  N2  UNL     1      -1.684  -1.104   0.060  1.00  0.00    -0.240 N 
HETATM   15  C1  UNL     1      -2.480   0.010  -0.316  1.00  0.00     0.347 C 
HETATM   16  N1  UNL     1      -3.769   0.195   0.233  1.00  0.00    -0.038 NA
HETATM   17  O1  UNL     1      -2.057   0.854  -1.144  1.00  0.00    -0.249 OA
ATOM     18  H2  UNL     1      -2.047  -1.778   0.734  1.00  0.00     0.192 HD
ENDBRANCH  12  14
ENDBRANCH   1  12
TORSDOF 2
