REMARK  1 active torsions:
REMARK  status: ('A' for Active; 'I' for Inactive)
REMARK       I    between atoms: C1_2  and  N2_4 
REMARK    1  A    between atoms: N2_4  and  C2_6 
ROOT
HETATM    1  C2  UNL     1       0.045  -0.352  -0.550  1.00  0.00     0.694 A 
HETATM    2  N3  UNL     1      -0.977  -1.093  -0.971  1.00  0.00    -0.141 N 
ATOM      3  H3  UNL     1      -0.821  -1.860  -1.625  1.00  0.00     0.189 HD
HETATM    4  C3  UNL     1      -2.205  -0.825  -0.532  1.00  0.00     0.342 A 
HETATM    5  O2  UNL     1      -3.196  -1.520  -0.921  1.00  0.00    -0.246 OA
HETATM    6  N4  UNL     1      -2.452   0.175   0.328  1.00  0.00    -0.260 N 
ATOM      7  H4  UNL     1      -3.399   0.367   0.655  1.00  0.00     0.175 HD
HETATM    8  C4  UNL     1      -1.408   0.918   0.746  1.00  0.00     0.342 A 
HETATM    9  O3  UNL     1      -1.606   1.865   1.554  1.00  0.00    -0.246 OA
HETATM   10  N5  UNL     1      -0.170   0.646   0.303  1.00  0.00    -0.141 N 
ATOM     11  H5  UNL     1       0.616   1.212   0.625  1.00  0.00     0.189 HD
ENDROOT
BRANCH   1  12
HETATM   12  N2  UNL     1       1.240  -0.600  -0.966  1.00  0.00    -0.143 N 
HETATM   13  C1  UNL     1       2.309   0.199  -0.507  1.00  0.00     0.346 C 
HETATM   14  N1  UNL     1       2.953  -0.025   0.732  1.00  0.00    -0.039 NA
HETATM   15  O1  UNL     1       2.707   1.146  -1.219  1.00  0.00    -0.250 OA
ATOM     16  H2  UNL     1       1.411  -1.365  -1.619  1.00  0.00     0.188 HD
ENDBRANCH   1  12
TORSDOF 1
