REMARK  14 active torsions:
REMARK  status: ('A' for Active; 'I' for Inactive)
REMARK    1  A    between atoms: O1_2  and  C2_3 
REMARK    2  A    between atoms: C5_6  and  O2_7 
REMARK    3  A    between atoms: C8_10  and  O3_11 
REMARK    4  A    between atoms: C10_14  and  O4_15 
REMARK    5  A    between atoms: C11_17  and  C12_18 
REMARK    6  A    between atoms: C13_23  and  N2_24 
REMARK    7  A    between atoms: N2_24  and  N3_26 
REMARK       I    between atoms: N4_28  and  C14_30 
REMARK    8  A    between atoms: C14_30  and  C15_32 
REMARK    9  A    between atoms: C15_32  and  C16_33 
REMARK   10  A    between atoms: C15_32  and  C17_41 
REMARK   11  A    between atoms: C16_33  and  O8_34 
REMARK   12  A    between atoms: O8_34  and  S1_35 
REMARK   13  A    between atoms: S1_35  and  N5_36 
REMARK   14  A    between atoms: C19_45  and  O13_46 
ROOT
HETATM    1  C2  UNL     1      -3.973  -0.872  -2.061  1.00  0.00     0.082 A 
HETATM    2  C3  UNL     1      -5.295  -0.410  -2.145  1.00  0.00     0.040 A 
HETATM    3  C4  UNL     1      -5.782   0.511  -1.229  1.00  0.00     0.040 A 
HETATM    4  C5  UNL     1      -4.976   0.987  -0.223  1.00  0.00     0.082 A 
HETATM    5  C7  UNL     1      -3.677   0.540  -0.134  1.00  0.00     0.047 A 
HETATM    6  C8  UNL     1      -2.861   1.047   0.908  1.00  0.00     0.093 A 
HETATM    7  C9  UNL     1      -1.562   0.611   1.005  1.00  0.00     0.051 A 
HETATM    8  C10 UNL     1      -0.736   1.116   2.047  1.00  0.00     0.113 A 
HETATM    9  C11 UNL     1       0.561   0.708   2.174  1.00  0.00     0.145 A 
HETATM   10  N1  UNL     1       0.991  -0.182   1.268  1.00  0.00    -0.333 N 
ATOM     11  H1  UNL     1       1.957  -0.501   1.345  1.00  0.00     0.168 HD
HETATM   12  C13 UNL     1       0.231  -0.699   0.242  1.00  0.00     0.136 A 
HETATM   13  C18 UNL     1      -1.075  -0.299   0.101  1.00  0.00     0.059 A 
HETATM   14  C19 UNL     1      -1.878  -0.810  -0.938  1.00  0.00     0.094 A 
HETATM   15  C20 UNL     1      -3.204  -0.367  -1.038  1.00  0.00     0.047 A 
ENDROOT
BRANCH  12  16
HETATM   16  N2  UNL     1       0.831  -1.631  -0.610  1.00  0.00    -0.270 N 
ATOM     17  H2  UNL     1       0.381  -1.944  -1.471  1.00  0.00     0.190 HD
BRANCH  16  18
HETATM   18  N3  UNL     1       2.119  -2.123  -0.202  1.00  0.00    -0.239 N 
HETATM   19  N4  UNL     1       3.076  -1.787  -0.965  1.00  0.00    -0.255 N 
HETATM   20  C14 UNL     1       4.384  -2.258  -0.595  1.00  0.00     0.253 C 
ATOM     21  H4  UNL     1       2.926  -1.214  -1.795  1.00  0.00     0.191 HD
HETATM   22  O7  UNL     1       4.775  -3.286  -1.227  1.00  0.00    -0.271 OA
ATOM     23  H3  UNL     1       2.253  -2.695   0.632  1.00  0.00     0.208 HD
BRANCH  20  24
HETATM   24  C15 UNL     1       5.211  -1.598   0.440  1.00  0.00     0.205 C 
BRANCH  24  25
HETATM   25  C16 UNL     1       5.554  -0.172   0.066  1.00  0.00     0.217 C 
BRANCH  25  26
HETATM   26  O8  UNL     1       4.366   0.524  -0.078  1.00  0.00    -0.258 OA
BRANCH  26  27
HETATM   27  S1  UNL     1       4.618   2.127  -0.499  1.00  0.00     0.355 S 
HETATM   28  O9  UNL     1       3.531   2.508  -1.466  1.00  0.00    -0.176 OA
HETATM   29  O10 UNL     1       4.647   3.038   0.687  1.00  0.00    -0.176 OA
BRANCH  27  30
HETATM   30  N5  UNL     1       6.115   2.220  -1.371  1.00  0.00    -0.306 N 
ATOM     31  H52 UNL     1       6.724   1.429  -1.582  1.00  0.00     0.171 HD
ATOM     32  H51 UNL     1       6.268   3.195  -1.627  1.00  0.00     0.171 HD
ENDBRANCH  27  30
ENDBRANCH  26  27
ENDBRANCH  25  26
ENDBRANCH  24  25
BRANCH  24  33
HETATM   33  C17 UNL     1       6.437  -2.424   0.620  1.00  0.00     0.188 C 
HETATM   34  O11 UNL     1       7.549  -1.875   0.396  1.00  0.00    -0.647 OA
HETATM   35  O12 UNL     1       6.332  -3.739   1.018  1.00  0.00    -0.647 OA
ENDBRANCH  24  33
ENDBRANCH  20  24
ENDBRANCH  16  18
ENDBRANCH  12  16
BRANCH   9  36
HETATM   36  C12 UNL     1       1.490   1.155   3.203  1.00  0.00     0.229 C 
HETATM   37  O5  UNL     1       2.689   0.703   3.226  1.00  0.00    -0.643 OA
HETATM   38  O6  UNL     1       1.181   2.044   4.178  1.00  0.00    -0.643 OA
ENDBRANCH   9  36
BRANCH  14  39
HETATM   39  O13 UNL     1      -1.430  -1.691  -1.816  1.00  0.00    -0.359 OA
ATOM     40  H13 UNL     1      -1.971  -2.036  -2.517  1.00  0.00     0.217 HD
ENDBRANCH  14  39
BRANCH   8  41
HETATM   41  O4  UNL     1      -1.302   2.010   2.897  1.00  0.00    -0.357 OA
ATOM     42  H4  UNL     1      -0.750   2.347   3.593  1.00  0.00     0.217 HD
ENDBRANCH   8  41
BRANCH   6  43
HETATM   43  O3  UNL     1      -3.403   1.924   1.741  1.00  0.00    -0.359 OA
ATOM     44  H3  UNL     1      -2.856   2.264   2.439  1.00  0.00     0.217 HD
ENDBRANCH   6  43
BRANCH   1  45
HETATM   45  O1  UNL     1      -3.560  -1.781  -3.000  1.00  0.00    -0.355 OA
HETATM   46  C1  UNL     1      -4.455  -2.216  -3.996  1.00  0.00     0.210 C 
ENDBRANCH   1  45
BRANCH   4  47
HETATM   47  O2  UNL     1      -5.457   1.899   0.684  1.00  0.00    -0.355 OA
HETATM   48  C6  UNL     1      -6.790   2.350   0.581  1.00  0.00     0.210 C 
ENDBRANCH   4  47
TORSDOF 14
