REMARK  14 active torsions:
REMARK  status: ('A' for Active; 'I' for Inactive)
REMARK    1  A    between atoms: O1_2  and  C2_3 
REMARK    2  A    between atoms: C2_3  and  C3_5 
REMARK    3  A    between atoms: C3_5  and  N1_6 
REMARK    4  A    between atoms: C3_5  and  C5_15 
REMARK    5  A    between atoms: C3_5  and  C6_23 
REMARK       I    between atoms: N1_6  and  C4_8 
REMARK       I    between atoms: C4_8  and  N2_10 
REMARK    6  A    between atoms: N2_10  and  S1_12 
REMARK    7  A    between atoms: S1_12  and  O4_13 
REMARK    8  A    between atoms: C8_25  and  N7_26 
REMARK       I    between atoms: N7_26  and  C9_28 
REMARK    9  A    between atoms: C9_28  and  C10_30 
REMARK   10  A    between atoms: C10_30  and  C11_31 
REMARK   11  A    between atoms: C10_30  and  N8_33 
REMARK   12  A    between atoms: N8_33  and  C12_35 
REMARK   13  A    between atoms: C15_38  and  C16_39 
REMARK   14  A    between atoms: C17_42  and  O9_43 
ROOT
HETATM    1  C6  UNL     1      -3.184  -0.393  -0.325  1.00  0.00     0.031 A 
HETATM    2  C7  UNL     1      -2.107  -0.840   0.401  1.00  0.00     0.048 A 
HETATM    3  C8  UNL     1      -0.890  -0.663  -0.094  1.00  0.00     0.042 A 
HETATM    4  C19 UNL     1      -0.759  -0.046  -1.306  1.00  0.00     0.079 A 
HETATM    5  S2  UNL     1      -2.362   0.276  -1.719  1.00  0.00    -0.101 SA
ENDROOT
BRANCH   1   6
HETATM    6  C3  UNL     1      -4.611  -0.492  -0.262  1.00  0.00     0.218 C 
BRANCH   6   7
HETATM    7  C2  UNL     1      -5.312  -1.120   0.877  1.00  0.00     0.300 C 
HETATM    8  O2  UNL     1      -6.073  -2.094   0.720  1.00  0.00    -0.261 OA
BRANCH   7   9
HETATM    9  O1  UNL     1      -5.137  -0.560   2.157  1.00  0.00    -0.324 OA
HETATM   10  C1  UNL     1      -5.801  -0.975   3.346  1.00  0.00     0.213 C 
ENDBRANCH   7   9
ENDBRANCH   6   7
BRANCH   6  11
HETATM   11  N1  UNL     1      -5.398   0.644  -0.620  1.00  0.00    -0.313 N 
HETATM   12  C4  UNL     1      -5.284   1.787  -1.345  1.00  0.00     0.329 C 
HETATM   13  O3  UNL     1      -4.335   2.216  -1.965  1.00  0.00    -0.246 OA
HETATM   14  N2  UNL     1      -6.472   2.647  -1.386  1.00  0.00    -0.259 N 
ATOM     15  H2  UNL     1      -7.326   2.344  -0.917  1.00  0.00     0.181 HD
ATOM     16  H1  UNL     1      -6.328   0.577  -0.206  1.00  0.00     0.166 HD
BRANCH  14  17
HETATM   17  S1  UNL     1      -6.452   4.170  -2.217  1.00  0.00     0.114 SA
BRANCH  17  18
HETATM   18  O4  UNL     1      -5.516   5.184  -1.547  1.00  0.00    -0.312 OA
ATOM     19  H4  UNL     1      -5.505   6.018  -2.002  1.00  0.00     0.229 HD
ENDBRANCH  17  18
ENDBRANCH  14  17
ENDBRANCH   6  11
BRANCH   6  20
HETATM   20  C5  UNL     1      -4.948  -1.498  -1.433  1.00  0.00     0.155 A 
HETATM   21  N3  UNL     1      -6.122  -1.975  -1.763  1.00  0.00    -0.268 N 
HETATM   22  N4  UNL     1      -5.976  -2.778  -2.827  1.00  0.00    -0.005 NA
ATOM     23  H3  UNL     1      -7.002  -1.770  -1.289  1.00  0.00     0.185 HD
HETATM   24  N5  UNL     1      -4.686  -2.785  -3.149  1.00  0.00    -0.225 N 
HETATM   25  N6  UNL     1      -4.076  -2.004  -2.297  1.00  0.00    -0.272 N 
ATOM     26  H5  UNL     1      -4.254  -3.302  -3.915  1.00  0.00     0.205 HD
ATOM     27  H6  UNL     1      -3.074  -1.811  -2.296  1.00  0.00     0.189 HD
ENDBRANCH   6  20
ENDBRANCH   1   6
BRANCH   3  28
HETATM   28  N7  UNL     1       0.345  -1.182   0.522  1.00  0.00    -0.325 N 
HETATM   29  C9  UNL     1       1.536  -0.508   0.330  1.00  0.00     0.251 C 
HETATM   30  O5  UNL     1       1.523   0.591  -0.313  1.00  0.00    -0.270 OA
ATOM     31  H7  UNL     1       0.320  -2.032   1.085  1.00  0.00     0.169 HD
BRANCH  29  32
HETATM   32  C10 UNL     1       2.906  -0.939   0.799  1.00  0.00     0.236 C 
BRANCH  32  33
HETATM   33  C11 UNL     1       3.400  -1.947  -0.213  1.00  0.00     0.266 C 
HETATM   34  O6  UNL     1       4.257  -1.694  -1.035  1.00  0.00    -0.304 OA
ENDBRANCH  32  33
BRANCH  32  35
HETATM   35  N8  UNL     1       3.795   0.212   0.685  1.00  0.00    -0.371 N 
ATOM     36  H8  UNL     1       3.304   1.101   0.594  1.00  0.00     0.161 HD
BRANCH  35  37
HETATM   37  C12 UNL     1       5.175   0.336   0.676  1.00  0.00     0.031 A 
HETATM   38  C13 UNL     1       6.095  -0.636   0.962  1.00  0.00     0.030 A 
HETATM   39  C14 UNL     1       7.456  -0.485   0.813  1.00  0.00     0.023 A 
HETATM   40  C15 UNL     1       7.945   0.742   0.337  1.00  0.00     0.073 A 
HETATM   41  C17 UNL     1       7.073   1.761   0.040  1.00  0.00     0.084 A 
HETATM   42  C18 UNL     1       5.692   1.526   0.220  1.00  0.00     0.066 A 
BRANCH  40  43
HETATM   43  C16 UNL     1       9.345   0.904   0.104  1.00  0.00     0.212 C 
HETATM   44  O7  UNL     1       9.833   1.946  -0.360  1.00  0.00    -0.644 OA
HETATM   45  O8  UNL     1      10.205  -0.129   0.397  1.00  0.00    -0.644 OA
ENDBRANCH  40  43
BRANCH  41  46
HETATM   46  O9  UNL     1       7.444   3.001  -0.419  1.00  0.00    -0.360 OA
ATOM     47  H9  UNL     1       6.841   3.706  -0.624  1.00  0.00     0.217 HD
ENDBRANCH  41  46
ENDBRANCH  35  37
ENDBRANCH  32  35
ENDBRANCH  29  32
ENDBRANCH   3  28
TORSDOF 14
