REMARK  13 active torsions:
REMARK  status: ('A' for Active; 'I' for Inactive)
REMARK       I    between atoms: N1_1  and  C1_5 
REMARK       I    between atoms: C1_5  and  N2_6 
REMARK       I    between atoms: C1_5  and  N5_33 
REMARK       I    between atoms: N2_6  and  C2_8 
REMARK    1  A    between atoms: C2_8  and  C3_10 
REMARK    2  A    between atoms: C3_10  and  O2_11 
REMARK    3  A    between atoms: C3_10  and  C4_13 
REMARK    4  A    between atoms: C3_10  and  N3_21 
REMARK    5  A    between atoms: C8_17  and  O3_18 
REMARK    6  A    between atoms: C11_23  and  O4_24 
REMARK    7  A    between atoms: C13_28  and  N4_29 
REMARK    8  A    between atoms: N5_33  and  C15_35 
REMARK    9  A    between atoms: C15_35  and  C16_36 
REMARK   10  A    between atoms: C15_35  and  C23_46 
REMARK   11  A    between atoms: C16_36  and  C17_37 
REMARK   12  A    between atoms: C20_40  and  N6_41 
REMARK       I    between atoms: C23_46  and  N7_48 
REMARK   13  A    between atoms: N7_48  and  O11_50 
ROOT
HETATM    1  N1  UNL     1       1.284  -0.473   1.639  1.00  0.00    -0.041 N 
ATOM      2  H11 UNL     1       2.299  -0.577   1.648  1.00  0.00     0.279 HD
ATOM      3  H12 UNL     1       0.805  -0.872   2.447  1.00  0.00     0.279 HD
ATOM      4  H13 UNL     1       0.949   0.479   1.785  1.00  0.00     0.279 HD
HETATM    5  C1  UNL     1       0.919  -1.060   0.362  1.00  0.00     0.385 C 
HETATM    6  N2  UNL     1      -0.560  -0.909   0.349  1.00  0.00    -0.313 N 
ATOM      7  H2  UNL     1      -0.961   0.019   0.214  1.00  0.00     0.166 HD
HETATM    8  C2  UNL     1      -1.421  -2.004   0.517  1.00  0.00     0.282 C 
HETATM    9  O1  UNL     1      -0.894  -3.138   0.680  1.00  0.00    -0.267 OA
HETATM   10  N5  UNL     1       1.408  -0.574  -0.812  1.00  0.00    -0.367 N 
ATOM     11  H5  UNL     1       0.713  -0.415  -1.542  1.00  0.00     0.157 HD
ENDROOT
BRANCH   8  12
HETATM   12  C3  UNL     1      -2.887  -1.928   0.516  1.00  0.00     0.250 C 
BRANCH  12  13
HETATM   13  O2  UNL     1      -3.409  -3.181   0.810  1.00  0.00    -0.359 OA
ATOM     14  H2  UNL     1      -4.358  -3.132   0.809  1.00  0.00     0.213 HD
ENDBRANCH  12  13
BRANCH  12  15
HETATM   15  C4  UNL     1      -3.514  -1.459  -0.720  1.00  0.00     0.009 A 
HETATM   16  C5  UNL     1      -2.866  -1.028  -1.847  1.00  0.00     0.013 A 
HETATM   17  C6  UNL     1      -3.601  -0.602  -2.920  1.00  0.00     0.003 A 
HETATM   18  C7  UNL     1      -4.986  -0.586  -2.921  1.00  0.00     0.036 A 
HETATM   19  C8  UNL     1      -5.640  -1.019  -1.789  1.00  0.00     0.066 A 
HETATM   20  C9  UNL     1      -4.920  -1.447  -0.708  1.00  0.00     0.049 A 
BRANCH  19  21
HETATM   21  O3  UNL     1      -7.037  -1.004  -1.788  1.00  0.00    -0.361 OA
ATOM     22  H3  UNL     1      -7.488  -1.303  -1.007  1.00  0.00     0.217 HD
ENDBRANCH  19  21
ENDBRANCH  12  15
BRANCH  12  23
HETATM   23  N3  UNL     1      -3.264  -1.015   1.580  1.00  0.00    -0.317 N 
HETATM   24  C10 UNL     1      -3.490   0.275   1.299  1.00  0.00     0.135 A 
HETATM   25  C11 UNL     1      -3.847   1.194   2.275  1.00  0.00     0.134 A 
HETATM   26  C12 UNL     1      -3.974   0.750   3.576  1.00  0.00     0.240 A 
HETATM   27  O5  UNL     1      -4.291   1.521   4.504  1.00  0.00    -0.283 OA
HETATM   28  C13 UNL     1      -3.747  -0.560   3.871  1.00  0.00     0.171 A 
HETATM   29  C14 UNL     1      -3.390  -1.431   2.845  1.00  0.00     0.134 A 
BRANCH  25  30
HETATM   30  O4  UNL     1      -4.072   2.517   1.942  1.00  0.00    -0.356 OA
ATOM     31  H4  UNL     1      -4.316   3.146   2.610  1.00  0.00     0.218 HD
ENDBRANCH  25  30
BRANCH  28  32
HETATM   32  N4  UNL     1      -3.850  -1.112   5.173  1.00  0.00    -0.110 N 
HETATM   33  O6  UNL     1      -4.670  -0.668   5.996  1.00  0.00    -0.532 OA
HETATM   34  O7  UNL     1      -3.064  -2.165   5.587  1.00  0.00    -0.532 OA
ENDBRANCH  28  32
ENDBRANCH  12  23
ENDBRANCH   8  12
BRANCH  10  35
HETATM   35  C15 UNL     1       2.729  -0.260  -1.163  1.00  0.00     0.178 C 
BRANCH  35  36
HETATM   36  C16 UNL     1       3.180   0.965  -0.425  1.00  0.00     0.073 C 
BRANCH  36  37
HETATM   37  C17 UNL     1       4.526   1.464  -0.672  1.00  0.00    -0.056 A 
HETATM   38  C18 UNL     1       5.669   1.027  -0.046  1.00  0.00     0.009 A 
HETATM   39  C19 UNL     1       6.902   1.594  -0.316  1.00  0.00     0.036 A 
HETATM   40  C20 UNL     1       7.065   2.621  -1.215  1.00  0.00     0.102 A 
HETATM   41  C21 UNL     1       5.916   3.070  -1.852  1.00  0.00     0.036 A 
HETATM   42  C22 UNL     1       4.692   2.510  -1.589  1.00  0.00     0.009 A 
BRANCH  40  43
HETATM   43  N6  UNL     1       8.341   3.188  -1.492  1.00  0.00    -0.116 N 
HETATM   44  O8  UNL     1       8.455   4.088  -2.345  1.00  0.00    -0.532 OA
HETATM   45  O9  UNL     1       9.445   2.751  -0.833  1.00  0.00    -0.532 OA
ENDBRANCH  40  43
ENDBRANCH  36  37
ENDBRANCH  35  36
BRANCH  35  46
HETATM   46  C23 UNL     1       2.905  -0.067  -2.625  1.00  0.00     0.263 C 
HETATM   47  O10 UNL     1       1.838  -0.061  -3.336  1.00  0.00    -0.269 OA
HETATM   48  N7  UNL     1       4.087   0.103  -3.328  1.00  0.00    -0.236 N 
ATOM     49  H7  UNL     1       4.162   0.959  -3.878  1.00  0.00     0.197 HD
BRANCH  48  50
HETATM   50  O11 UNL     1       5.062  -0.657  -3.370  1.00  0.00    -0.287 OA
ATOM     51  H11 UNL     1       5.872  -0.540  -3.852  1.00  0.00     0.244 HD
ENDBRANCH  48  50
ENDBRANCH  35  46
ENDBRANCH  10  35
TORSDOF 13
