REMARK  16 active torsions:
REMARK  status: ('A' for Active; 'I' for Inactive)
REMARK    1  A    between atoms: O1_2  and  C2_3 
REMARK    2  A    between atoms: C4_5  and  C5_6 
REMARK    3  A    between atoms: C7_10  and  C8_11 
REMARK    4  A    between atoms: C8_11  and  O5_13 
REMARK    5  A    between atoms: O5_13  and  C9_14 
REMARK    6  A    between atoms: C9_14  and  C10_15 
REMARK    7  A    between atoms: C10_15  and  O7_17 
REMARK    8  A    between atoms: O7_17  and  C11_18 
REMARK    9  A    between atoms: C13_20  and  C14_21 
REMARK   10  A    between atoms: C16_25  and  O10_26 
REMARK   11  A    between atoms: C16_25  and  C17_28 
REMARK   12  A    between atoms: C18_31  and  O13_32 
REMARK   13  A    between atoms: O13_32  and  C19_33 
REMARK   14  A    between atoms: C19_33  and  C20_35 
REMARK   15  A    between atoms: N1_37  and  O15_39 
REMARK   16  A    between atoms: C22_41  and  O16_42 
ROOT
HETATM    1  C11 UNL     1      -1.335   0.865   0.864  1.00  0.00     0.087 C 
HETATM    2  C12 UNL     1      -0.999   1.720  -0.113  1.00  0.00     0.024 C 
HETATM    3  C13 UNL     1      -1.946   2.612  -0.781  1.00  0.00     0.115 C 
HETATM    4  C15 UNL     1      -3.270   2.787  -0.123  1.00  0.00     0.071 C 
HETATM    5  C16 UNL     1      -3.349   2.219   1.251  1.00  0.00     0.179 C 
HETATM    6  C18 UNL     1      -2.758   0.803   1.309  1.00  0.00     0.234 C 
ENDROOT
BRANCH   1   7
HETATM    7  O7  UNL     1      -0.359   0.119   1.372  1.00  0.00    -0.279 OA
BRANCH   7   8
HETATM    8  C10 UNL     1      -0.255  -0.769   2.386  1.00  0.00     0.288 C 
HETATM    9  O6  UNL     1      -1.271  -0.996   3.066  1.00  0.00    -0.262 OA
BRANCH   8  10
HETATM   10  C9  UNL     1       1.047  -1.451   2.675  1.00  0.00     0.290 C 
BRANCH  10  11
HETATM   11  O5  UNL     1       2.005  -1.118   1.659  1.00  0.00    -0.307 OA
BRANCH  11  12
HETATM   12  C8  UNL     1       3.292  -1.589   1.689  1.00  0.00     0.296 C 
HETATM   13  O4  UNL     1       3.613  -2.323   2.655  1.00  0.00    -0.259 OA
BRANCH  12  14
HETATM   14  C7  UNL     1       4.293  -1.293   0.680  1.00  0.00     0.076 A 
HETATM   15  C6  UNL     1       5.569  -1.802   0.771  1.00  0.00     0.039 A 
HETATM   16  C4  UNL     1       6.548  -1.554  -0.157  1.00  0.00     0.044 A 
HETATM   17  C3  UNL     1       6.221  -0.758  -1.220  1.00  0.00     0.058 A 
HETATM   18  C2  UNL     1       4.955  -0.217  -1.368  1.00  0.00     0.103 A 
HETATM   19  C22 UNL     1       4.000  -0.485  -0.421  1.00  0.00     0.115 A 
BRANCH  16  20
HETATM   20  C5  UNL     1       7.895  -2.096  -0.064  1.00  0.00     0.209 C 
HETATM   21  O2  UNL     1       8.754  -1.853  -0.938  1.00  0.00    -0.644 OA
HETATM   22  O3  UNL     1       8.231  -2.893   1.009  1.00  0.00    -0.644 OA
ENDBRANCH  16  20
BRANCH  18  23
HETATM   23  O1  UNL     1       4.741   0.565  -2.474  1.00  0.00    -0.353 OA
HETATM   24  C1  UNL     1       5.686   0.861  -3.452  1.00  0.00     0.210 C 
ENDBRANCH  18  23
BRANCH  19  25
HETATM   25  O16 UNL     1       2.728   0.047  -0.548  1.00  0.00    -0.357 OA
ATOM     26  H16 UNL     1       2.066  -0.139   0.108  1.00  0.00     0.217 HD
ENDBRANCH  19  25
ENDBRANCH  12  14
ENDBRANCH  11  12
ENDBRANCH  10  11
ENDBRANCH   8  10
ENDBRANCH   7   8
ENDBRANCH   1   7
BRANCH   6  27
HETATM   27  O13 UNL     1      -3.532   0.010   0.472  1.00  0.00    -0.301 OA
BRANCH  27  28
HETATM   28  C19 UNL     1      -4.324  -1.057   0.746  1.00  0.00     0.308 C 
HETATM   29  O14 UNL     1      -4.404  -1.423   1.933  1.00  0.00    -0.258 OA
BRANCH  28  30
HETATM   30  C20 UNL     1      -5.060  -1.752  -0.329  1.00  0.00     0.103 C 
HETATM   31  C21 UNL     1      -5.884  -2.913   0.049  1.00  0.00     0.077 C 
HETATM   32  N1  UNL     1      -4.928  -1.303  -1.499  1.00  0.00    -0.268 N 
ATOM     33  H1  UNL     1      -4.319  -0.490  -1.597  1.00  0.00     0.194 HD
BRANCH  32  34
HETATM   34  O15 UNL     1      -5.490  -1.760  -2.644  1.00  0.00    -0.290 OA
ATOM     35  H15 UNL     1      -5.390  -1.422  -3.526  1.00  0.00     0.244 HD
ENDBRANCH  32  34
ENDBRANCH  28  30
ENDBRANCH  27  28
ENDBRANCH   6  27
BRANCH   3  36
HETATM   36  C14 UNL     1      -2.225   2.140  -2.189  1.00  0.00     0.180 C 
HETATM   37  O8  UNL     1      -1.671   1.103  -2.637  1.00  0.00    -0.647 OA
HETATM   38  O9  UNL     1      -3.101   2.894  -2.932  1.00  0.00    -0.647 OA
ENDBRANCH   3  36
BRANCH   5  39
HETATM   39  O10 UNL     1      -2.545   2.981   2.123  1.00  0.00    -0.376 OA
ATOM     40  H10 UNL     1      -2.595   2.619   3.000  1.00  0.00     0.211 HD
ENDBRANCH   5  39
BRANCH   5  41
HETATM   41  C17 UNL     1      -4.750   2.203   1.707  1.00  0.00     0.212 C 
HETATM   42  O11 UNL     1      -5.036   2.786   2.788  1.00  0.00    -0.646 OA
HETATM   43  O12 UNL     1      -5.795   1.599   1.046  1.00  0.00    -0.646 OA
ENDBRANCH   5  41
TORSDOF 16
