REMARK  3 active torsions:
REMARK  status: ('A' for Active; 'I' for Inactive)
REMARK    1  A    between atoms: C1_2  and  C2_3 
REMARK       I    between atoms: C1_2  and  N1_12 
REMARK    2  A    between atoms: C2_3  and  C3_4 
REMARK    3  A    between atoms: N1_12  and  C9_14 
ROOT
HETATM    1  O1  UNL     1       1.109  -2.166  -0.915  1.00  0.00    -0.273 OA
HETATM    2  C1  UNL     1       1.053  -1.016  -0.416  1.00  0.00     0.223 C 
HETATM    3  N1  UNL     1       1.935  -0.041  -0.905  1.00  0.00    -0.312 N 
ATOM      4  H1  UNL     1       1.583   0.604  -1.612  1.00  0.00     0.170 HD
ENDROOT
BRANCH   2   5
HETATM    5  C2  UNL     1       0.081  -0.739   0.642  1.00  0.00     0.113 C 
BRANCH   5   6
HETATM    6  C3  UNL     1      -1.132   0.007   0.166  1.00  0.00     0.067 C 
HETATM    7  C4  UNL     1      -1.805  -0.825  -0.898  1.00  0.00     0.011 C 
HETATM    8  C5  UNL     1      -3.210  -0.341  -1.180  1.00  0.00     0.001 C 
HETATM    9  C6  UNL     1      -3.458   1.012  -0.522  1.00  0.00     0.006 C 
HETATM   10  C7  UNL     1      -3.384   0.747   0.973  1.00  0.00     0.079 C 
HETATM   11  C8  UNL     1      -2.025   0.239   1.360  1.00  0.00     0.247 C 
HETATM   12  F1  UNL     1      -2.170  -0.928   2.083  1.00  0.00    -0.206 F 
HETATM   13  F2  UNL     1      -1.416   1.154   2.207  1.00  0.00    -0.206 F 
ENDBRANCH   5   6
ENDBRANCH   2   5
BRANCH   3  14
HETATM   14  C9  UNL     1       3.146   0.096  -0.528  1.00  0.00     0.123 A 
HETATM   15  C10 UNL     1       3.965   1.078  -1.050  1.00  0.00     0.068 A 
HETATM   16  C11 UNL     1       5.174   0.951  -0.443  1.00  0.00     0.111 A 
HETATM   17  N2  UNL     1       5.097  -0.076   0.422  1.00  0.00    -0.310 N 
HETATM   18  N3  UNL     1       3.870  -0.585   0.363  1.00  0.00    -0.286 N 
ATOM     19  H2  UNL     1       5.852  -0.408   1.022  1.00  0.00     0.186 HD
ATOM     20  H3  UNL     1       3.534  -1.375   0.914  1.00  0.00     0.188 HD
ENDBRANCH   3  14
TORSDOF 3
