REMARK  2 active torsions:
REMARK  status: ('A' for Active; 'I' for Inactive)
REMARK       I    between atoms: N1_2  and  C2_4 
REMARK    1  A    between atoms: C2_4  and  C3_6 
REMARK    2  A    between atoms: C3_6  and  C4_7 
ROOT
HETATM    1  C4  UNL     1      -0.443  -0.127   0.387  1.00  0.00     0.080 C 
HETATM    2 CL1  UNL     1      -0.504   0.557   2.034  1.00  0.00    -0.115 Cl
HETATM    3  C5  UNL     1      -1.385  -1.315   0.400  1.00  0.00     0.029 C 
HETATM    4  C6  UNL     1      -2.828  -0.966   0.427  1.00  0.00     0.002 C 
HETATM    5  C7  UNL     1      -3.106   0.477   0.052  1.00  0.00     0.003 C 
HETATM    6  C8  UNL     1      -2.222   0.737  -1.153  1.00  0.00     0.044 C 
HETATM    7  C9  UNL     1      -0.827   0.941  -0.559  1.00  0.00     0.135 C 
HETATM    8 CL2  UNL     1       0.253   1.082  -1.987  1.00  0.00    -0.100 Cl
HETATM    9 CL3  UNL     1      -0.894   2.573   0.169  1.00  0.00    -0.100 Cl
ENDROOT
BRANCH   1  10
HETATM   10  C3  UNL     1       0.918  -0.718   0.142  1.00  0.00     0.131 C 
BRANCH  10  11
HETATM   11  C2  UNL     1       2.054   0.194   0.255  1.00  0.00     0.219 C 
HETATM   12  N1  UNL     1       3.345  -0.284  -0.020  1.00  0.00    -0.365 N 
HETATM   13  C1  UNL     1       4.518   0.557   0.069  1.00  0.00     0.149 C 
ATOM     14  H1  UNL     1       3.460  -1.260  -0.293  1.00  0.00     0.161 HD
HETATM   15  O1  UNL     1       1.928   1.382   0.587  1.00  0.00    -0.274 OA
ENDBRANCH  10  11
ENDBRANCH   1  10
TORSDOF 2
