REMARK  2 active torsions:
REMARK  status: ('A' for Active; 'I' for Inactive)
REMARK    1  A    between atoms: C3_3  and  C5_5 
REMARK    2  A    between atoms: C6_6  and  C7_7 
ROOT
HETATM    1  C1  UNL     1      -2.868   0.965   0.581  1.00  0.00     0.103 C 
HETATM    2  C2  UNL     1      -2.335  -0.129   0.421  1.00  0.00    -0.150 C 
HETATM    3  C3  UNL     1      -1.763  -1.408   0.215  1.00  0.00    -0.005 C 
HETATM    4  C4  UNL     1      -2.606  -2.493   0.305  1.00  0.00     0.032 C 
ENDROOT
BRANCH   3   5
HETATM    5  C5  UNL     1      -0.435  -1.677  -0.183  1.00  0.00     0.020 C 
HETATM    6  C6  UNL     1       0.665  -1.097  -0.372  1.00  0.00     0.017 C 
BRANCH   6   7
HETATM    7  C7  UNL     1       1.197   0.236  -0.261  1.00  0.00     0.021 A 
HETATM    8  C8  UNL     1       2.157   0.763  -1.167  1.00  0.00     0.103 A 
HETATM    9  N1  UNL     1       2.575   1.961  -0.764  1.00  0.00    -0.357 N 
HETATM   10  C9  UNL     1       1.967   2.299   0.368  1.00  0.00     0.119 A 
ATOM     11  H1  UNL     1       3.262   2.535  -1.253  1.00  0.00     0.166 HD
HETATM   12 BR1  UNL     1       2.158   3.891   1.410  1.00  0.00    -0.028 Br
HETATM   13  C10 UNL     1       1.115   1.228   0.679  1.00  0.00     0.162 A 
HETATM   14  F1  UNL     1       0.410   1.206   1.826  1.00  0.00    -0.202 F 
ENDBRANCH   6   7
ENDBRANCH   3   5
TORSDOF 2
