REMARK  1 active torsions:
REMARK  status: ('A' for Active; 'I' for Inactive)
REMARK    1  A    between atoms: N1_1  and  C1_5 
ROOT
HETATM    1  C1  UNL     1      -1.032   0.089   0.200  1.00  0.00     0.124 C 
HETATM    2  C2  UNL     1      -0.391   1.155  -0.632  1.00  0.00     0.043 C 
HETATM    3  C3  UNL     1       1.098   0.930  -0.333  1.00  0.00    -0.007 C 
HETATM    4  C4  UNL     1       1.637  -0.279  -1.113  1.00  0.00     0.010 C 
HETATM    5  C5  UNL     1       0.970  -1.126  -0.022  1.00  0.00    -0.007 C 
HETATM    6  C6  UNL     1      -0.527  -1.248  -0.287  1.00  0.00     0.043 C 
HETATM    7  C7  UNL     1       1.149   0.066   0.886  1.00  0.00    -0.004 C 
HETATM    8  C8  UNL     1      -0.223   0.213   1.503  1.00  0.00     0.044 C 
ENDROOT
BRANCH   1   9
HETATM    9  N1  UNL     1      -2.420   0.185   0.383  1.00  0.00    -0.070 N 
ATOM     10  H13 UNL     1      -2.653   1.103   0.763  1.00  0.00     0.275 HD
ATOM     11  H12 UNL     1      -2.883   0.236  -0.525  1.00  0.00     0.275 HD
ATOM     12  H11 UNL     1      -2.857  -0.542   0.950  1.00  0.00     0.275 HD
ENDBRANCH   1   9
TORSDOF 1
