REMARK  1 active torsions:
REMARK  status: ('A' for Active; 'I' for Inactive)
REMARK    1  A    between atoms: N1_1  and  C1_5 
ROOT
HETATM    1  C1  UNL     1      -0.133   0.868  -0.035  1.00  0.00     0.124 C 
HETATM    2  C2  UNL     1       1.184   0.649   0.642  1.00  0.00     0.039 C 
HETATM    3  C3  UNL     1       1.433  -0.847   0.409  1.00  0.00     0.007 C 
HETATM    4  C4  UNL     1       0.317  -1.309  -0.483  1.00  0.00    -0.012 C 
HETATM    5  C5  UNL     1      -0.962  -1.382   0.333  1.00  0.00     0.007 C 
HETATM    6  C6  UNL     1      -1.191   0.089   0.716  1.00  0.00     0.039 C 
HETATM    7  C7  UNL     1       0.034  -0.026  -1.276  1.00  0.00     0.043 C 
ENDROOT
BRANCH   1   8
HETATM    8  N1  UNL     1      -0.467   2.198  -0.336  1.00  0.00    -0.070 N 
ATOM      9  H13 UNL     1      -0.417   2.765   0.511  1.00  0.00     0.275 HD
ATOM     10  H12 UNL     1       0.278   2.623  -0.888  1.00  0.00     0.275 HD
ATOM     11  H11 UNL     1      -1.364   2.347  -0.797  1.00  0.00     0.275 HD
ENDBRANCH   1   8
TORSDOF 1
