REMARK  4 active torsions:
REMARK  status: ('A' for Active; 'I' for Inactive)
REMARK    1  A    between atoms: C2_2  and  O1_3 
REMARK    2  A    between atoms: C2_2  and  C9_14 
REMARK    3  A    between atoms: O1_3  and  C3_4 
REMARK    4  A    between atoms: C8_9  and  N1_10 
ROOT
HETATM    1  C3  UNL     1       0.964   0.075  -0.549  1.00  0.00     0.159 C 
HETATM    2  C4  UNL     1       1.062  -0.878   0.645  1.00  0.00     0.034 C 
HETATM    3  C5  UNL     1       2.305  -1.734   0.370  1.00  0.00     0.003 C 
HETATM    4  C6  UNL     1       3.505  -0.865   0.068  1.00  0.00     0.002 C 
HETATM    5  C7  UNL     1       3.192   0.552   0.490  1.00  0.00     0.035 C 
HETATM    6  C8  UNL     1       2.065   1.069  -0.411  1.00  0.00     0.212 C 
ENDROOT
BRANCH   1   7
HETATM    7  O1  UNL     1      -0.315   0.673  -0.626  1.00  0.00    -0.348 OA
BRANCH   7   8
HETATM    8  C2  UNL     1      -1.481  -0.059  -0.771  1.00  0.00     0.046 C 
HETATM    9  C1  UNL     1      -1.531  -1.001  -1.687  1.00  0.00     0.047 C 
BRANCH   8  10
HETATM   10  C9  UNL     1      -2.673   0.189   0.075  1.00  0.00     0.004 A 
HETATM   11  C10 UNL     1      -2.539  -0.032   1.572  1.00  0.00     0.022 C 
HETATM   12  C11 UNL     1      -4.066  -0.126  -0.485  1.00  0.00     0.017 A 
HETATM   13  C12 UNL     1      -3.569   1.270  -0.415  1.00  0.00     0.017 A 
ENDBRANCH   8  10
ENDBRANCH   7   8
ENDBRANCH   1   7
BRANCH   6  14
HETATM   14  N1  UNL     1       1.617   2.348   0.104  1.00  0.00    -0.073 N 
ATOM     15  H13 UNL     1       0.858   2.723  -0.465  1.00  0.00     0.274 HD
ATOM     16  H12 UNL     1       1.121   2.230   0.988  1.00  0.00     0.274 HD
ATOM     17  H11 UNL     1       2.371   3.029   0.198  1.00  0.00     0.274 HD
ENDBRANCH   6  14
TORSDOF 4
