REMARK  2 active torsions:
REMARK  status: ('A' for Active; 'I' for Inactive)
REMARK    1  A    between atoms: C2_2  and  C3_3 
REMARK    2  A    between atoms: C2_2  and  N2_11 
ROOT
HETATM    1  C3  UNL     1      -1.298  -0.204  -0.303  1.00  0.00     0.208 C 
HETATM    2  C4  UNL     1      -1.943  -0.042   1.060  1.00  0.00     0.035 C 
HETATM    3  C5  UNL     1      -3.458  -0.080   0.810  1.00  0.00     0.004 C 
HETATM    4  C6  UNL     1      -3.897   0.788  -0.297  1.00  0.00     0.027 C 
HETATM    5  C7  UNL     1      -2.980   0.940  -1.447  1.00  0.00     0.233 C 
HETATM    6  N1  UNL     1      -1.569   1.011  -1.023  1.00  0.00    -0.069 N 
ATOM      7  H11 UNL     1      -0.923   1.176  -1.795  1.00  0.00     0.277 HD
ATOM      8  H12 UNL     1      -1.349   1.853  -0.492  1.00  0.00     0.277 HD
ENDROOT
BRANCH   1   9
HETATM    9  C2  UNL     1       0.052  -0.731  -0.310  1.00  0.00     0.110 C 
HETATM   10  C1  UNL     1       0.507  -0.816  -1.779  1.00  0.00     0.034 C 
BRANCH   9  11
HETATM   11  N2  UNL     1       1.108  -0.237   0.413  1.00  0.00    -0.387 N 
HETATM   12  C8  UNL     1       2.223  -1.152   0.340  1.00  0.00     0.122 C 
HETATM   13  C9  UNL     1       3.386  -0.653   1.148  1.00  0.00     0.020 C 
HETATM   14  C10 UNL     1       3.826   0.633   0.442  1.00  0.00     0.007 C 
HETATM   15  C11 UNL     1       2.737   1.621   0.571  1.00  0.00     0.044 C 
HETATM   16  C12 UNL     1       1.346   1.054   0.765  1.00  0.00     0.058 C 
ENDBRANCH   9  11
ENDBRANCH   1   9
TORSDOF 2
