REMARK  3 active torsions:
REMARK  status: ('A' for Active; 'I' for Inactive)
REMARK    1  A    between atoms: C3_3  and  S1_6 
REMARK    2  A    between atoms: S1_6  and  C6_7 
REMARK    3  A    between atoms: C6_7  and  C7_8 
ROOT
HETATM    1  C1  UNL     1       3.264   0.876   2.313  1.00  0.00     0.013 C 
HETATM    2  C2  UNL     1       3.081   0.392   1.224  1.00  0.00    -0.097 C 
HETATM    3  C3  UNL     1       2.865  -0.192  -0.120  1.00  0.00     0.063 C 
HETATM    4  C4  UNL     1       3.771   0.588  -1.072  1.00  0.00     0.040 C 
HETATM    5  C5  UNL     1       3.281  -1.635  -0.057  1.00  0.00     0.040 C 
ENDROOT
BRANCH   3   6
HETATM    6  S1  UNL     1       1.184   0.060  -0.671  1.00  0.00    -0.146 SA
BRANCH   6   7
HETATM    7  C6  UNL     1      -0.050  -0.825   0.302  1.00  0.00     0.085 C 
BRANCH   7   8
HETATM    8  C7  UNL     1      -1.406  -0.467  -0.326  1.00  0.00     0.034 C 
HETATM    9  C8  UNL     1      -1.479   1.061  -0.183  1.00  0.00     0.016 C 
HETATM   10  C9  UNL     1      -2.803   1.432  -0.825  1.00  0.00     0.045 C 
HETATM   11  C10 UNL     1      -3.884   0.877   0.045  1.00  0.00     0.060 C 
HETATM   12  N1  UNL     1      -3.720  -0.410   0.537  1.00  0.00    -0.382 N 
HETATM   13  C11 UNL     1      -2.550  -1.132   0.334  1.00  0.00     0.065 C 
ATOM     14  H1  UNL     1      -4.481  -0.839   1.063  1.00  0.00     0.164 HD
ENDBRANCH   7   8
ENDBRANCH   6   7
ENDBRANCH   3   6
TORSDOF 3
