REMARK  9 active torsions:
REMARK  status: ('A' for Active; 'I' for Inactive)
REMARK    1  A    between atoms: C2_2  and  C3_3 
REMARK    2  A    between atoms: C3_3  and  N1_4 
REMARK    3  A    between atoms: C4_6  and  C5_7 
REMARK    4  A    between atoms: C6_8  and  O1_9 
REMARK    5  A    between atoms: C8_12  and  O2_13 
REMARK    6  A    between atoms: C14_19  and  O3_20 
REMARK    7  A    between atoms: C16_22  and  O4_23 
REMARK    8  A    between atoms: C18_25  and  O5_26 
REMARK    9  A    between atoms: C20_29  and  O6_30 
ROOT
HETATM    1  C5  UNL     1       1.968   0.178  -0.696  1.00  0.00     0.026 A 
HETATM    2  C6  UNL     1       2.597   1.155  -1.501  1.00  0.00     0.081 A 
HETATM    3  C7  UNL     1       1.889   2.167  -2.097  1.00  0.00     0.075 A 
HETATM    4  C8  UNL     1       0.529   2.288  -1.945  1.00  0.00     0.082 A 
HETATM    5  C10 UNL     1      -0.087   1.344  -1.167  1.00  0.00     0.012 A 
HETATM    6  C11 UNL     1      -1.450   1.436  -0.998  1.00  0.00     0.027 A 
HETATM    7  C12 UNL     1      -2.141   0.531  -0.239  1.00  0.00    -0.017 A 
HETATM    8  C13 UNL     1      -3.515   0.681  -0.120  1.00  0.00     0.052 A 
HETATM    9  C14 UNL     1      -4.245  -0.234   0.638  1.00  0.00     0.105 A 
HETATM   10  C16 UNL     1      -3.582  -1.267   1.254  1.00  0.00     0.135 A 
HETATM   11  C18 UNL     1      -2.198  -1.403   1.126  1.00  0.00     0.115 A 
HETATM   12  C19 UNL     1      -1.448  -0.515   0.382  1.00  0.00     0.044 A 
HETATM   13  C20 UNL     1      -0.073  -0.643   0.237  1.00  0.00     0.091 A 
HETATM   14  C21 UNL     1       0.610   0.302  -0.547  1.00  0.00     0.025 A 
ENDROOT
BRANCH   1  15
HETATM   15  C4  UNL     1       2.810  -0.831  -0.082  1.00  0.00     0.098 C 
HETATM   16  N1  UNL     1       4.111  -0.806  -0.300  1.00  0.00    -0.398 N 
ATOM     17  H1  UNL     1       4.501  -0.081  -0.902  1.00  0.00     0.158 HD
BRANCH  16  18
HETATM   18  C3  UNL     1       4.999  -1.785   0.295  1.00  0.00     0.118 C 
BRANCH  18  19
HETATM   19  C2  UNL     1       5.087  -1.515   1.808  1.00  0.00     0.015 C 
HETATM   20  C1  UNL     1       5.642  -0.133   2.041  1.00  0.00     0.006 C 
ENDBRANCH  18  19
ENDBRANCH  16  18
ENDBRANCH   1  15
BRANCH   2  21
HETATM   21  O1  UNL     1       3.961   1.070  -1.679  1.00  0.00    -0.360 OA
ATOM     22  H1  UNL     1       4.384   1.727  -2.220  1.00  0.00     0.217 HD
ENDBRANCH   2  21
BRANCH  13  23
HETATM   23  O6  UNL     1       0.581  -1.637   0.827  1.00  0.00    -0.359 OA
ATOM     24  H6  UNL     1       1.522  -1.725   0.728  1.00  0.00     0.217 HD
ENDBRANCH  13  23
BRANCH   4  25
HETATM   25  O2  UNL     1      -0.157   3.329  -2.568  1.00  0.00    -0.355 OA
HETATM   26  C9  UNL     1       0.563   4.267  -3.353  1.00  0.00     0.210 C 
ENDBRANCH   4  25
BRANCH  11  27
HETATM   27  O5  UNL     1      -1.586  -2.456   1.769  1.00  0.00    -0.357 OA
ATOM     28  H5  UNL     1      -0.645  -2.549   1.682  1.00  0.00     0.217 HD
ENDBRANCH  11  27
BRANCH  10  29
HETATM   29  O4  UNL     1      -4.257  -2.196   2.014  1.00  0.00    -0.351 OA
HETATM   30  C17 UNL     1      -4.817  -3.397   1.525  1.00  0.00     0.210 C 
ENDBRANCH  10  29
BRANCH   9  31
HETATM   31  O3  UNL     1      -5.580  -0.055   0.730  1.00  0.00    -0.353 OA
HETATM   32  C15 UNL     1      -6.555   0.776   0.359  1.00  0.00     0.210 C 
ENDBRANCH   9  31
TORSDOF 9
