REMARK  9 active torsions:
REMARK  status: ('A' for Active; 'I' for Inactive)
REMARK    1  A    between atoms: O1_2  and  C2_3 
REMARK    2  A    between atoms: C4_5  and  O2_6 
REMARK    3  A    between atoms: C6_9  and  O3_10 
REMARK    4  A    between atoms: C7_12  and  C8_13 
REMARK    5  A    between atoms: C8_13  and  C9_14 
REMARK    6  A    between atoms: C10_15  and  C12_17 
REMARK    7  A    between atoms: C12_17  and  C13_18 
REMARK    8  A    between atoms: C19_25  and  O4_26 
REMARK    9  A    between atoms: C21_29  and  O5_30 
ROOT
HETATM    1  C2  UNL     1      -4.274   0.966   0.524  1.00  0.00     0.105 A 
HETATM    2  C3  UNL     1      -3.422   1.264   1.531  1.00  0.00     0.077 A 
HETATM    3  C4  UNL     1      -2.119   0.697   1.615  1.00  0.00     0.082 A 
HETATM    4  C5  UNL     1      -1.759  -0.181   0.608  1.00  0.00     0.047 A 
HETATM    5  C6  UNL     1      -0.511  -0.770   0.598  1.00  0.00     0.087 A 
HETATM    6  C7  UNL     1      -0.111  -1.652  -0.417  1.00  0.00     0.003 A 
HETATM    7  C17 UNL     1      -0.995  -1.941  -1.439  1.00  0.00     0.088 A 
HETATM    8  C18 UNL     1      -0.645  -2.837  -2.508  1.00  0.00     0.103 C 
HETATM    9  N1  UNL     1      -0.376  -3.569  -3.367  1.00  0.00    -0.191 NA
HETATM   10  C19 UNL     1      -2.240  -1.357  -1.431  1.00  0.00     0.101 A 
HETATM   11  C20 UNL     1      -2.663  -0.480  -0.438  1.00  0.00     0.051 A 
HETATM   12  C21 UNL     1      -3.905   0.082  -0.483  1.00  0.00     0.115 A 
ENDROOT
BRANCH   6  13
HETATM   13  C8  UNL     1       1.217  -2.284  -0.383  1.00  0.00     0.070 C 
BRANCH  13  14
HETATM   14  C9  UNL     1       2.355  -1.519  -0.773  1.00  0.00    -0.019 C 
HETATM   15  C10 UNL     1       2.527  -0.331  -1.223  1.00  0.00    -0.084 C 
HETATM   16  C11 UNL     1       1.582   0.754  -1.529  1.00  0.00     0.043 C 
BRANCH  15  17
HETATM   17  C12 UNL     1       3.995   0.074  -1.501  1.00  0.00     0.060 C 
BRANCH  17  18
HETATM   18  C13 UNL     1       4.328   1.249  -0.662  1.00  0.00    -0.020 C 
HETATM   19  C14 UNL     1       5.307   1.192   0.221  1.00  0.00    -0.091 C 
HETATM   20  C15 UNL     1       5.603   2.394   1.038  1.00  0.00     0.042 C 
HETATM   21  C16 UNL     1       6.072  -0.074   0.362  1.00  0.00     0.042 C 
ENDBRANCH  17  18
ENDBRANCH  15  17
ENDBRANCH  13  14
ENDBRANCH   6  13
BRANCH  10  22
HETATM   22  O4  UNL     1      -3.142  -1.637  -2.462  1.00  0.00    -0.358 OA
ATOM     23  H4  UNL     1      -4.002  -1.234  -2.456  1.00  0.00     0.217 HD
ENDBRANCH  10  22
BRANCH   5  24
HETATM   24  O3  UNL     1       0.390  -0.504   1.604  1.00  0.00    -0.359 OA
ATOM     25  H3  UNL     1       1.249  -0.909   1.597  1.00  0.00     0.217 HD
ENDBRANCH   5  24
BRANCH  12  26
HETATM   26  O5  UNL     1      -4.796  -0.209  -1.505  1.00  0.00    -0.352 OA
HETATM   27  C22 UNL     1      -5.786  -1.245  -1.340  1.00  0.00     0.210 C 
ENDBRANCH  12  26
BRANCH   3  28
HETATM   28  O2  UNL     1      -1.330   1.028   2.630  1.00  0.00    -0.360 OA
ATOM     29  H2  UNL     1      -0.460   0.650   2.686  1.00  0.00     0.217 HD
ENDBRANCH   3  28
BRANCH   1  30
HETATM   30  O1  UNL     1      -5.540   1.525   0.453  1.00  0.00    -0.353 OA
HETATM   31  C1  UNL     1      -5.935   2.427   1.468  1.00  0.00     0.210 C 
ENDBRANCH   1  30
TORSDOF 9
