REMARK  8 active torsions:
REMARK  status: ('A' for Active; 'I' for Inactive)
REMARK    1  A    between atoms: C2_2  and  O1_3 
REMARK    2  A    between atoms: C2_2  and  C3_5 
REMARK    3  A    between atoms: C6_10  and  C7_11 
REMARK    4  A    between atoms: C9_13  and  C10_14 
REMARK    5  A    between atoms: C13_17  and  O2_18 
REMARK    6  A    between atoms: O2_18  and  C14_19 
REMARK    7  A    between atoms: C14_19  and  C15_20 
REMARK    8  A    between atoms: C21_29  and  O5_30 
ROOT
HETATM    1  C7  UNL     1      -2.231  -0.366   0.122  1.00  0.00     0.093 A 
HETATM    2  C8  UNL     1      -1.691   0.773  -0.402  1.00  0.00     0.050 A 
HETATM    3  C9  UNL     1      -0.319   0.597  -0.614  1.00  0.00     0.007 A 
HETATM    4  C13 UNL     1      -0.082  -0.713  -0.181  1.00  0.00     0.192 A 
HETATM    5  O4  UNL     1      -1.233  -1.222   0.236  1.00  0.00    -0.287 OA
ENDROOT
BRANCH   1   6
HETATM    6  C6  UNL     1      -3.612  -0.673   0.521  1.00  0.00     0.047 A 
HETATM    7  C5  UNL     1      -3.767  -1.700   1.469  1.00  0.00     0.104 A 
HETATM    8  N1  UNL     1      -4.944  -2.114   1.913  1.00  0.00    -0.374 N 
HETATM    9  C4  UNL     1      -6.072  -1.548   1.455  1.00  0.00     0.100 A 
ATOM     10  H1  UNL     1      -4.994  -2.863   2.603  1.00  0.00     0.164 HD
HETATM   11  C3  UNL     1      -6.002  -0.553   0.538  1.00  0.00     0.019 A 
HETATM   12  C21 UNL     1      -4.737  -0.103   0.054  1.00  0.00     0.090 A 
BRANCH  11  13
HETATM   13  C2  UNL     1      -7.206   0.111  -0.013  1.00  0.00     0.151 C 
HETATM   14  C1  UNL     1      -8.440  -0.402   0.715  1.00  0.00     0.044 C 
BRANCH  13  15
HETATM   15  O1  UNL     1      -7.057   1.490   0.110  1.00  0.00    -0.391 OA
ATOM     16  H1  UNL     1      -6.287   1.810  -0.344  1.00  0.00     0.210 HD
ENDBRANCH  13  15
ENDBRANCH  11  13
BRANCH  12  17
HETATM   17  O5  UNL     1      -4.741   0.882  -0.864  1.00  0.00    -0.359 OA
ATOM     18  H5  UNL     1      -3.899   1.182  -1.186  1.00  0.00     0.217 HD
ENDBRANCH  12  17
ENDBRANCH   1   6
BRANCH   3  19
HETATM   19  C10 UNL     1       0.645   1.572  -1.175  1.00  0.00     0.023 A 
HETATM   20  C11 UNL     1       0.106   2.979  -1.472  1.00  0.00     0.010 A 
HETATM   21  C12 UNL     1       1.011   2.780  -0.307  1.00  0.00     0.010 A 
ENDBRANCH   3  19
BRANCH   4  22
HETATM   22  O2  UNL     1       1.053  -1.382  -0.161  1.00  0.00    -0.327 OA
BRANCH  22  23
HETATM   23  C14 UNL     1       2.241  -1.845  -0.209  1.00  0.00     0.211 C 
BRANCH  23  24
HETATM   24  C15 UNL     1       3.254  -1.185   0.756  1.00  0.00     0.171 C 
HETATM   25  C16 UNL     1       4.536  -1.972   0.691  1.00  0.00     0.038 C 
HETATM   26  C17 UNL     1       5.595  -1.354  -0.169  1.00  0.00     0.031 C 
HETATM   27  C18 UNL     1       5.607   0.139   0.070  1.00  0.00     0.050 C 
HETATM   28  C19 UNL     1       6.603   0.851  -0.795  1.00  0.00     0.036 C 
HETATM   29  C20 UNL     1       5.813   0.477   1.515  1.00  0.00     0.036 C 
HETATM   30  N2  UNL     1       4.260   0.586  -0.319  1.00  0.00    -0.091 NA
HETATM   31  O3  UNL     1       3.386   0.145   0.563  1.00  0.00    -0.278 OA
ENDBRANCH  23  24
ENDBRANCH  22  23
ENDBRANCH   4  22
TORSDOF 8
