REMARK  10 active torsions:
REMARK  status: ('A' for Active; 'I' for Inactive)
REMARK    1  A    between atoms: C3_3  and  C5_5 
REMARK    2  A    between atoms: C5_5  and  C6_6 
REMARK    3  A    between atoms: C6_6  and  C7_7 
REMARK    4  A    between atoms: C7_7  and  C8_8 
REMARK    5  A    between atoms: C8_8  and  O1_9 
REMARK    6  A    between atoms: C8_8  and  C9_11 
REMARK    7  A    between atoms: C15_18  and  O3_19 
REMARK    8  A    between atoms: C16_21  and  N1_22 
REMARK    9  A    between atoms: N1_22  and  O4_24 
REMARK   10  A    between atoms: C17_26  and  O5_27 
ROOT
HETATM    1  C9  UNL     1       0.437  -1.457  -0.101  1.00  0.00     0.019 C 
HETATM    2  C10 UNL     1       0.539  -0.407   0.941  1.00  0.00     0.014 C 
HETATM    3  C11 UNL     1      -0.566  -0.430   1.971  1.00  0.00     0.066 C 
HETATM    4  C12 UNL     1      -1.840  -0.196   1.209  1.00  0.00     0.064 A 
HETATM    5  O2  UNL     1      -2.722   0.692   1.559  1.00  0.00    -0.313 OA
HETATM    6  C13 UNL     1      -3.821   0.857   0.856  1.00  0.00     0.095 A 
HETATM    7  C14 UNL     1      -4.774   1.794   1.209  1.00  0.00     0.077 A 
HETATM    8  C15 UNL     1      -5.911   1.931   0.440  1.00  0.00     0.099 A 
HETATM    9  C16 UNL     1      -6.120   1.149  -0.678  1.00  0.00     0.121 A 
HETATM   10  C17 UNL     1      -5.177   0.214  -1.034  1.00  0.00     0.114 A 
HETATM   11  C18 UNL     1      -4.048   0.079  -0.272  1.00  0.00     0.084 A 
HETATM   12  C19 UNL     1      -3.127  -0.870  -0.663  1.00  0.00     0.196 A 
HETATM   13  O6  UNL     1      -3.294  -1.596  -1.680  1.00  0.00    -0.287 OA
HETATM   14  C20 UNL     1      -1.993  -1.003   0.107  1.00  0.00     0.023 A 
HETATM   15  C21 UNL     1      -0.966  -2.015  -0.275  1.00  0.00     0.052 C 
ENDROOT
BRANCH   1  16
HETATM   16  C8  UNL     1       0.915  -1.030  -1.454  1.00  0.00     0.122 C 
BRANCH  16  17
HETATM   17  C7  UNL     1       2.340  -0.607  -1.520  1.00  0.00     0.032 C 
BRANCH  17  18
HETATM   18  C6  UNL     1       3.295  -1.645  -0.973  1.00  0.00     0.007 C 
BRANCH  18  19
HETATM   19  C5  UNL     1       4.732  -1.181  -1.061  1.00  0.00     0.033 C 
BRANCH  19  20
HETATM   20  C3  UNL     1       4.866   0.067  -0.267  1.00  0.00    -0.088 C 
HETATM   21  C2  UNL     1       5.255   1.194  -0.829  1.00  0.00    -0.029 C 
HETATM   22  C1  UNL     1       5.382   2.425  -0.020  1.00  0.00     0.036 C 
HETATM   23  C4  UNL     1       4.561   0.060   1.182  1.00  0.00     0.043 C 
ENDBRANCH  19  20
ENDBRANCH  18  19
ENDBRANCH  17  18
ENDBRANCH  16  17
BRANCH  16  24
HETATM   24  O1  UNL     1       0.140   0.009  -1.986  1.00  0.00    -0.395 OA
ATOM     25  H1  UNL     1      -0.770  -0.261  -1.944  1.00  0.00     0.210 HD
ENDBRANCH  16  24
ENDBRANCH   1  16
BRANCH  10  26
HETATM   26  O5  UNL     1      -5.322  -0.607  -2.147  1.00  0.00    -0.357 OA
ATOM     27  H5  UNL     1      -4.670  -1.253  -2.393  1.00  0.00     0.217 HD
ENDBRANCH  10  26
BRANCH   9  28
HETATM   28  N1  UNL     1      -7.287   1.276  -1.481  1.00  0.00    -0.264 N 
ATOM     29  H1  UNL     1      -7.266   1.756  -2.381  1.00  0.00     0.194 HD
BRANCH  28  30
HETATM   30  O4  UNL     1      -8.337   0.773  -1.033  1.00  0.00    -0.289 OA
ATOM     31  H4  UNL     1      -9.116   0.858  -1.569  1.00  0.00     0.244 HD
ENDBRANCH  28  30
ENDBRANCH   9  28
BRANCH   8  32
HETATM   32  O3  UNL     1      -6.874   2.868   0.784  1.00  0.00    -0.358 OA
ATOM     33  H3  UNL     1      -7.657   2.962   0.254  1.00  0.00     0.217 HD
ENDBRANCH   8  32
TORSDOF 10
