REMARK  12 active torsions:
REMARK  status: ('A' for Active; 'I' for Inactive)
REMARK       I    between atoms: C2_2  and  N1_4 
REMARK    1  A    between atoms: N1_4  and  C3_5 
REMARK    2  A    between atoms: C3_5  and  C4_6 
REMARK    3  A    between atoms: C4_6  and  C5_7 
REMARK    4  A    between atoms: C5_7  and  C6_8 
REMARK    5  A    between atoms: C6_8  and  C7_9 
REMARK    6  A    between atoms: C7_9  and  C8_10 
REMARK       I    between atoms: C8_10  and  N2_12 
REMARK    7  A    between atoms: N2_12  and  C9_13 
REMARK    8  A    between atoms: C9_13  and  C10_14 
REMARK    9  A    between atoms: C11_15  and  C12_16 
REMARK   10  A    between atoms: C12_16  and  C13_17 
REMARK   11  A    between atoms: C13_17  and  C14_18 
REMARK       I    between atoms: C14_18  and  N3_20 
REMARK       I    between atoms: N3_20  and  C15_22 
REMARK   12  A    between atoms: C15_22  and  C16_24 
ROOT
HETATM    1  C10 UNL     1      -1.373  -2.485   0.028  1.00  0.00     0.028 C 
HETATM    2  C11 UNL     1      -2.737  -2.953   0.030  1.00  0.00    -0.024 C 
ENDROOT
BRANCH   1   3
HETATM    3  C9  UNL     1      -0.883  -1.286  -0.711  1.00  0.00     0.186 C 
BRANCH   3   4
HETATM    4  N2  UNL     1       0.488  -1.230  -0.595  1.00  0.00    -0.384 NA
HETATM    5  C8  UNL     1       1.824  -1.181  -0.486  1.00  0.00     0.291 C 
HETATM    6  O2  UNL     1       2.706  -1.869  -1.139  1.00  0.00    -0.257 OA
BRANCH   5   7
HETATM    7  C7  UNL     1       2.438  -0.204   0.523  1.00  0.00     0.119 C 
BRANCH   7   8
HETATM    8  C6  UNL     1       2.816   1.028  -0.185  1.00  0.00     0.011 C 
BRANCH   8   9
HETATM    9  C5  UNL     1       3.637   1.958   0.630  1.00  0.00     0.007 C 
BRANCH   9  10
HETATM   10  C4  UNL     1       4.972   1.299   0.931  1.00  0.00     0.060 C 
BRANCH  10  11
HETATM   11  C3  UNL     1       5.577   0.862  -0.360  1.00  0.00     0.159 C 
BRANCH  11  12
HETATM   12  N1  UNL     1       6.866   0.322  -0.208  1.00  0.00    -0.388 NA
HETATM   13  C2  UNL     1       8.090  -0.190  -0.063  1.00  0.00     0.286 C 
HETATM   14  C1  UNL     1       9.218   0.379  -0.926  1.00  0.00     0.135 C 
HETATM   15  O1  UNL     1       8.450  -1.116   0.723  1.00  0.00    -0.258 OA
ENDBRANCH  11  12
ENDBRANCH  10  11
ENDBRANCH   9  10
ENDBRANCH   8   9
ENDBRANCH   7   8
ENDBRANCH   5   7
ENDBRANCH   3   4
ENDBRANCH   1   3
BRANCH   2  16
HETATM   16  C12 UNL     1      -3.888  -2.078   0.196  1.00  0.00     0.036 C 
BRANCH  16  17
HETATM   17  C13 UNL     1      -3.892  -1.044   1.274  1.00  0.00     0.107 C 
BRANCH  17  18
HETATM   18  C14 UNL     1      -5.231  -0.336   1.263  1.00  0.00     0.224 C 
HETATM   19  O3  UNL     1      -6.065  -0.635   2.108  1.00  0.00    -0.273 OA
HETATM   20  N3  UNL     1      -5.521   0.665   0.262  1.00  0.00    -0.295 N 
HETATM   21  C15 UNL     1      -6.789   1.301   0.230  1.00  0.00     0.262 C 
ATOM     22  H3  UNL     1      -4.810   0.916  -0.425  1.00  0.00     0.171 HD
HETATM   23  O4  UNL     1      -7.589   1.100   1.182  1.00  0.00    -0.270 OA
BRANCH  21  24
HETATM   24  C16 UNL     1      -7.165   2.165  -0.889  1.00  0.00     0.190 C 
HETATM   25  C17 UNL     1      -8.603   2.662  -0.750  1.00  0.00     0.061 C 
HETATM   26 CL1  UNL     1      -7.039   1.174  -2.394  1.00  0.00    -0.091 Cl
HETATM   27 CL2  UNL     1      -6.096   3.564  -1.000  1.00  0.00    -0.091 Cl
ENDBRANCH  21  24
ENDBRANCH  17  18
ENDBRANCH  16  17
ENDBRANCH   2  16
TORSDOF 12
