REMARK  6 active torsions:
REMARK  status: ('A' for Active; 'I' for Inactive)
REMARK    1  A    between atoms: C1_4  and  N2_5 
REMARK    2  A    between atoms: C1_4  and  C8_17 
REMARK    3  A    between atoms: N2_5  and  C2_7 
REMARK    4  A    between atoms: C2_7  and  C3_8 
REMARK    5  A    between atoms: C3_8  and  N3_9 
REMARK    6  A    between atoms: N3_9  and  N4_11 
ROOT
HETATM    1  N2  UNL     1      -1.227  -0.596   0.189  1.00  0.00    -0.374 N 
ATOM      2  H2  UNL     1      -0.809   0.191   0.685  1.00  0.00     0.161 HD
ENDROOT
BRANCH   1   3
HETATM    3  C1  UNL     1      -2.570  -0.969   0.448  1.00  0.00     0.105 C 
HETATM    4  N1  UNL     1      -2.870  -2.185   0.756  1.00  0.00    -0.385 N 
ATOM      5  H12 UNL     1      -2.113  -2.867   0.806  1.00  0.00     0.157 HD
ATOM      6  H11 UNL     1      -3.836  -2.453   0.942  1.00  0.00     0.157 HD
BRANCH   3   7
HETATM    7  C8  UNL     1      -3.651   0.004   0.377  1.00  0.00     0.007 A 
HETATM    8  C9  UNL     1      -3.392   1.329   0.051  1.00  0.00     0.015 A 
HETATM    9  C10 UNL     1      -4.399   2.271  -0.023  1.00  0.00     0.001 A 
HETATM   10  C11 UNL     1      -5.711   1.922   0.227  1.00  0.00     0.000 A 
HETATM   11  C12 UNL     1      -5.958   0.603   0.550  1.00  0.00     0.001 A 
HETATM   12  C13 UNL     1      -4.957  -0.342   0.626  1.00  0.00     0.015 A 
ENDBRANCH   3   7
ENDBRANCH   1   3
BRANCH   1  13
HETATM   13  C2  UNL     1      -0.454  -1.337  -0.782  1.00  0.00     0.142 C 
BRANCH  13  14
HETATM   14  C3  UNL     1       0.962  -0.754  -0.892  1.00  0.00     0.158 C 
BRANCH  14  15
HETATM   15  N3  UNL     1       1.643  -0.814   0.360  1.00  0.00    -0.337 N 
ATOM     16  H3  UNL     1       1.199  -1.202   1.192  1.00  0.00     0.180 HD
BRANCH  15  17
HETATM   17  N4  UNL     1       2.896  -0.335   0.391  1.00  0.00    -0.328 N 
HETATM   18  C4  UNL     1       3.736  -0.690   1.475  1.00  0.00     0.168 C 
HETATM   19  C5  UNL     1       5.044   0.095   1.301  1.00  0.00     0.189 C 
HETATM   20  O1  UNL     1       4.837   1.331   0.743  1.00  0.00    -0.388 OA
HETATM   21  C6  UNL     1       4.331   1.316  -0.532  1.00  0.00     0.189 C 
HETATM   22  C7  UNL     1       3.530   0.037  -0.808  1.00  0.00     0.168 C 
ENDBRANCH  15  17
ENDBRANCH  14  15
ENDBRANCH  13  14
ENDBRANCH   1  13
TORSDOF 6
