REMARK  6 active torsions:
REMARK  status: ('A' for Active; 'I' for Inactive)
REMARK    1  A    between atoms: N1_1  and  N2_4 
REMARK    2  A    between atoms: N3_6  and  C1_8 
REMARK    3  A    between atoms: N5_14  and  C5_16 
REMARK    4  A    between atoms: C5_16  and  C6_17 
REMARK    5  A    between atoms: C6_17  and  O1_18 
REMARK    6  A    between atoms: O1_18  and  C7_19 
ROOT
HETATM    1  C1  UNL     1       3.981   1.132   0.566  1.00  0.00     0.054 A 
HETATM    2  C2  UNL     1       4.691  -0.038   0.389  1.00  0.00     0.048 A 
HETATM    3  C3  UNL     1       3.944  -1.196   0.255  1.00  0.00     0.092 A 
HETATM    4  N4  UNL     1       2.599  -1.194   0.294  1.00  0.00    -0.352 N 
ATOM      5  H4  UNL     1       2.100  -2.078   0.190  1.00  0.00     0.166 HD
HETATM    6  C4  UNL     1       1.890  -0.061   0.466  1.00  0.00     0.102 A 
HETATM    7  N5  UNL     1       0.620  -0.094   0.498  1.00  0.00    -0.374 N 
ATOM      8  H5  UNL     1       0.094   0.770   0.629  1.00  0.00     0.161 HD
HETATM    9  C13 UNL     1       2.604   1.125   0.605  1.00  0.00     0.079 A 
ENDROOT
BRANCH   7  10
HETATM   10  C5  UNL     1      -0.083  -1.345   0.350  1.00  0.00     0.148 C 
BRANCH  10  11
HETATM   11  C6  UNL     1      -1.566  -1.197   0.503  1.00  0.00     0.195 C 
BRANCH  11  12
HETATM   12  O1  UNL     1      -2.130  -0.321  -0.446  1.00  0.00    -0.350 OA
BRANCH  12  13
HETATM   13  C7  UNL     1      -3.499  -0.110  -0.397  1.00  0.00     0.068 A 
HETATM   14  C8  UNL     1      -4.317  -0.728   0.548  1.00  0.00     0.037 A 
HETATM   15  C9  UNL     1      -5.687  -0.481   0.553  1.00  0.00     0.003 A 
HETATM   16  C10 UNL     1      -6.262   0.365  -0.357  1.00  0.00     0.000 A 
HETATM   17  C11 UNL     1      -5.447   0.965  -1.279  1.00  0.00     0.003 A 
HETATM   18  C12 UNL     1      -4.087   0.738  -1.307  1.00  0.00     0.037 A 
ENDBRANCH  12  13
ENDBRANCH  11  12
ENDBRANCH  10  11
ENDBRANCH   7  10
BRANCH   1  19
HETATM   19  N3  UNL     1       4.696   2.341   0.708  1.00  0.00    -0.287 N 
HETATM   20  N2  UNL     1       5.608   2.729  -0.063  1.00  0.00    -0.249 N 
ATOM     21  H2  UNL     1       6.058   3.622   0.138  1.00  0.00     0.207 HD
ATOM     22  H3  UNL     1       4.454   2.944   1.495  1.00  0.00     0.188 HD
BRANCH  20  23
HETATM   23  N1  UNL     1       6.040   2.016  -1.171  1.00  0.00    -0.331 N 
ATOM     24  H12 UNL     1       5.579   1.125  -1.357  1.00  0.00     0.178 HD
ATOM     25  H11 UNL     1       6.781   2.331  -1.797  1.00  0.00     0.178 HD
ENDBRANCH  20  23
ENDBRANCH   1  19
TORSDOF 6
