REMARK  6 active torsions:
REMARK  status: ('A' for Active; 'I' for Inactive)
REMARK    1  A    between atoms: O1_2  and  C2_3 
REMARK    2  A    between atoms: C7_8  and  C8_9 
REMARK    3  A    between atoms: C8_9  and  C9_10 
REMARK    4  A    between atoms: C9_10  and  N1_11 
REMARK    5  A    between atoms: C9_10  and  C10_15 
REMARK    6  A    between atoms: C10_15  and  C11_19 
ROOT
HETATM    1  C9  UNL     1       0.791  -0.406  -0.012  1.00  0.00     0.239 C 
ENDROOT
BRANCH   1   2
HETATM    2  C8  UNL     1      -0.418   0.443  -0.154  1.00  0.00     0.080 C 
BRANCH   2   3
HETATM    3  C7  UNL     1      -1.714  -0.221  -0.121  1.00  0.00    -0.022 A 
HETATM    4  C2  UNL     1      -2.847   0.581  -0.202  1.00  0.00     0.074 A 
HETATM    5  C3  UNL     1      -4.117   0.060  -0.186  1.00  0.00     0.037 A 
HETATM    6  C4  UNL     1      -4.312  -1.304  -0.087  1.00  0.00     0.003 A 
HETATM    7  C5  UNL     1      -3.208  -2.126  -0.005  1.00  0.00     0.001 A 
HETATM    8  C6  UNL     1      -1.938  -1.575  -0.024  1.00  0.00     0.010 A 
BRANCH   4   9
HETATM    9  O1  UNL     1      -2.706   1.956  -0.303  1.00  0.00    -0.355 OA
HETATM   10  C1  UNL     1      -3.796   2.828  -0.389  1.00  0.00     0.210 C 
ENDBRANCH   4   9
ENDBRANCH   2   3
ENDBRANCH   1   2
BRANCH   1  11
HETATM   11  N1  UNL     1       0.863  -1.136   1.225  1.00  0.00    -0.069 N 
ATOM     12  H13 UNL     1       0.780  -0.500   2.018  1.00  0.00     0.275 HD
ATOM     13  H12 UNL     1       0.019  -1.694   1.358  1.00  0.00     0.275 HD
ATOM     14  H11 UNL     1       1.694  -1.719   1.323  1.00  0.00     0.275 HD
ENDBRANCH   1  11
BRANCH   1  15
HETATM   15  C10 UNL     1       1.999   0.452  -0.096  1.00  0.00     0.060 C 
HETATM   16  N2  UNL     1       1.815   1.719  -0.242  1.00  0.00    -0.399 N 
ATOM     17  H22 UNL     1       0.876   2.112  -0.300  1.00  0.00     0.156 HD
ATOM     18  H21 UNL     1       2.645   2.309  -0.300  1.00  0.00     0.156 HD
BRANCH  15  19
HETATM   19  C11 UNL     1       3.351  -0.114  -0.013  1.00  0.00     0.056 A 
HETATM   20  C12 UNL     1       4.535   0.586  -0.074  1.00  0.00     0.033 A 
HETATM   21  C13 UNL     1       5.594  -0.306   0.038  1.00  0.00     0.019 A 
HETATM   22  C14 UNL     1       5.015  -1.538   0.165  1.00  0.00     0.088 A 
HETATM   23  N3  UNL     1       3.672  -1.408   0.133  1.00  0.00    -0.364 N 
ATOM     24  H3  UNL     1       3.004  -2.175   0.208  1.00  0.00     0.165 HD
ENDBRANCH  15  19
ENDBRANCH   1  15
TORSDOF 6
