REMARK  6 active torsions:
REMARK  status: ('A' for Active; 'I' for Inactive)
REMARK    1  A    between atoms: N1_2  and  C2_4 
REMARK    2  A    between atoms: C4_6  and  C5_7 
REMARK    3  A    between atoms: C5_7  and  N2_8 
REMARK    4  A    between atoms: N2_8  and  C6_11 
REMARK    5  A    between atoms: C6_11  and  C7_12 
REMARK    6  A    between atoms: C12_17  and  O1_18 
ROOT
HETATM    1  N2  UNL     1       0.137   0.201  -0.835  1.00  0.00    -0.066 N 
ATOM      2  H21 UNL     1      -0.051   1.066  -1.342  1.00  0.00     0.277 HD
ATOM      3  H22 UNL     1       0.617   0.602  -0.030  1.00  0.00     0.277 HD
ENDROOT
BRANCH   1   4
HETATM    4  C5  UNL     1       0.983  -0.685  -1.579  1.00  0.00     0.291 C 
BRANCH   4   5
HETATM    5  C4  UNL     1       2.320  -0.770  -0.980  1.00  0.00     0.055 A 
HETATM    6  C3  UNL     1       3.207   0.180  -0.567  1.00  0.00     0.077 A 
HETATM    7  C2  UNL     1       4.320  -0.463  -0.050  1.00  0.00     0.117 A 
HETATM    8  N4  UNL     1       4.065  -1.798  -0.170  1.00  0.00    -0.286 N 
HETATM    9  N3  UNL     1       2.914  -2.004  -0.707  1.00  0.00    -0.302 N 
ATOM     10  H4  UNL     1       4.703  -2.536   0.127  1.00  0.00     0.188 HD
ATOM     11  H3  UNL     1       2.503  -2.917  -0.901  1.00  0.00     0.186 HD
BRANCH   7  12
HETATM   12  N1  UNL     1       5.407   0.017   0.439  1.00  0.00    -0.380 N 
HETATM   13  C1  UNL     1       5.790   1.348   0.597  1.00  0.00     0.147 C 
ATOM     14  H1  UNL     1       6.086  -0.674   0.757  1.00  0.00     0.160 HD
ENDBRANCH   7  12
ENDBRANCH   4   5
ENDBRANCH   1   4
BRANCH   1  15
HETATM   15  C6  UNL     1      -1.064  -0.472  -0.461  1.00  0.00     0.274 C 
BRANCH  15  16
HETATM   16  C7  UNL     1      -2.106   0.452  -0.009  1.00  0.00     0.001 A 
HETATM   17  C8  UNL     1      -2.045   1.829  -0.228  1.00  0.00     0.011 A 
HETATM   18  C9  UNL     1      -3.122   2.656   0.069  1.00  0.00     0.001 A 
HETATM   19  C10 UNL     1      -4.262   2.097   0.589  1.00  0.00     0.003 A 
HETATM   20  C11 UNL     1      -4.325   0.713   0.811  1.00  0.00     0.037 A 
HETATM   21  C12 UNL     1      -3.272  -0.129   0.525  1.00  0.00     0.076 A 
BRANCH  21  22
HETATM   22  O1  UNL     1      -3.356  -1.486   0.758  1.00  0.00    -0.355 OA
HETATM   23  C13 UNL     1      -4.528  -2.021   1.271  1.00  0.00     0.210 C 
ENDBRANCH  21  22
ENDBRANCH  15  16
ENDBRANCH   1  15
TORSDOF 6
