REMARK  3 active torsions:
REMARK  status: ('A' for Active; 'I' for Inactive)
REMARK    1  A    between atoms: C1_2  and  C2_3 
REMARK    2  A    between atoms: C2_3  and  N1_4 
REMARK    3  A    between atoms: N1_4  and  C3_7 
ROOT
HETATM    1  N1  UNL     1       0.919   0.199   0.792  1.00  0.00    -0.070 N 
ATOM      2  H11 UNL     1       0.443   0.727   1.523  1.00  0.00     0.277 HD
ATOM      3  H12 UNL     1       1.415  -0.478   1.371  1.00  0.00     0.277 HD
ENDROOT
BRANCH   1   4
HETATM    4  C2  UNL     1       1.838   1.030   0.078  1.00  0.00     0.243 C 
BRANCH   4   5
HETATM    5  C1  UNL     1       2.851   0.300  -0.761  1.00  0.00     0.112 C 
HETATM    6 BR1  UNL     1       3.956  -0.856   0.330  1.00  0.00    -0.095 Br
ENDBRANCH   4   5
ENDBRANCH   1   4
BRANCH   1   7
HETATM    7  C3  UNL     1      -0.047  -0.470  -0.082  1.00  0.00     0.186 C 
HETATM    8  C4  UNL     1      -1.093  -1.047   0.842  1.00  0.00     0.033 C 
HETATM    9  C5  UNL     1      -2.430  -0.540   0.417  1.00  0.00     0.002 C 
HETATM   10  C6  UNL     1      -2.217   0.085  -0.933  1.00  0.00     0.002 C 
HETATM   11  C7  UNL     1      -0.779   0.544  -0.937  1.00  0.00     0.033 C 
ENDBRANCH   1   7
TORSDOF 3
