REMARK  8 active torsions:
REMARK  status: ('A' for Active; 'I' for Inactive)
REMARK    1  A    between atoms: C3_3  and  C4_4 
REMARK    2  A    between atoms: C4_4  and  C5_5 
REMARK    3  A    between atoms: C5_5  and  N1_6 
REMARK    4  A    between atoms: N1_6  and  C6_8 
REMARK    5  A    between atoms: C9_15  and  N4_16 
REMARK    6  A    between atoms: N4_16  and  C10_18 
REMARK    7  A    between atoms: C10_18  and  C11_19 
REMARK    8  A    between atoms: C11_19  and  N5_20 
ROOT
HETATM    1  C1  UNL     1       4.527   1.940  -1.219  1.00  0.00     0.112 C 
HETATM    2  C2  UNL     1       4.090   0.949  -0.217  1.00  0.00    -0.111 C 
HETATM    3  C3  UNL     1       3.721   0.132   0.588  1.00  0.00    -0.105 C 
ENDROOT
BRANCH   3   4
HETATM    4  C4  UNL     1       3.252  -0.881   1.558  1.00  0.00     0.113 C 
BRANCH   4   5
HETATM    5  C5  UNL     1       2.111  -1.612   0.911  1.00  0.00     0.133 C 
BRANCH   5   6
HETATM    6  N1  UNL     1       1.012  -0.719   0.571  1.00  0.00    -0.372 N 
ATOM      7  H1  UNL     1       1.089   0.288   0.714  1.00  0.00     0.161 HD
BRANCH   6   8
HETATM    8  C6  UNL     1      -0.062  -1.241   0.083  1.00  0.00     0.145 A 
HETATM    9  N2  UNL     1      -0.192  -2.583  -0.120  1.00  0.00    -0.348 N 
HETATM   10  C7  UNL     1      -1.298  -3.124  -0.624  1.00  0.00     0.107 A 
ATOM     11  H2  UNL     1       0.587  -3.195   0.123  1.00  0.00     0.167 HD
HETATM   12  C8  UNL     1      -2.357  -2.318  -0.957  1.00  0.00     0.107 A 
HETATM   13  N3  UNL     1      -2.279  -0.969  -0.774  1.00  0.00    -0.348 N 
HETATM   14  C9  UNL     1      -1.150  -0.458  -0.265  1.00  0.00     0.145 A 
ATOM     15  H3  UNL     1      -3.062  -0.363  -1.019  1.00  0.00     0.167 HD
BRANCH  14  16
HETATM   16  N4  UNL     1      -1.071   0.809  -0.091  1.00  0.00    -0.372 N 
ATOM     17  H4  UNL     1      -0.199   1.166   0.299  1.00  0.00     0.161 HD
BRANCH  16  18
HETATM   18  C10 UNL     1      -2.083   1.769  -0.389  1.00  0.00     0.148 C 
BRANCH  18  19
HETATM   19  C11 UNL     1      -3.148   1.851   0.685  1.00  0.00     0.249 C 
BRANCH  19  20
HETATM   20  N5  UNL     1      -4.162   2.822   0.373  1.00  0.00    -0.078 N 
ATOM     21  H53 UNL     1      -3.752   3.738   0.190  1.00  0.00     0.274 HD
ATOM     22  H52 UNL     1      -4.575   2.643  -0.542  1.00  0.00     0.274 HD
ATOM     23  H51 UNL     1      -4.879   2.877   1.096  1.00  0.00     0.274 HD
ENDBRANCH  19  20
ENDBRANCH  18  19
ENDBRANCH  16  18
ENDBRANCH  14  16
ENDBRANCH   6   8
ENDBRANCH   5   6
ENDBRANCH   4   5
ENDBRANCH   3   4
TORSDOF 8
