REMARK  6 active torsions:
REMARK  status: ('A' for Active; 'I' for Inactive)
REMARK    1  A    between atoms: N1_4  and  C4_5 
REMARK    2  A    between atoms: C4_5  and  C5_6 
REMARK    3  A    between atoms: C5_6  and  N2_8 
REMARK    4  A    between atoms: C5_6  and  C7_12 
REMARK    5  A    between atoms: C7_12  and  C8_13 
REMARK    6  A    between atoms: C8_13  and  N3_14 
ROOT
HETATM    1  C5  UNL     1      -1.648  -0.996  -0.232  1.00  0.00     0.138 C 
HETATM    2  C6  UNL     1      -2.823  -1.961  -0.215  1.00  0.00     0.048 C 
ENDROOT
BRANCH   1   3
HETATM    3  C4  UNL     1      -0.541  -1.532   0.647  1.00  0.00     0.166 C 
BRANCH   3   4
HETATM    4  N1  UNL     1       0.607  -0.693   0.696  1.00  0.00    -0.361 N 
HETATM    5  C3  UNL     1       1.615  -0.841  -0.185  1.00  0.00     0.115 A 
HETATM    6  C2  UNL     1       2.742  -0.044  -0.165  1.00  0.00     0.022 A 
HETATM    7  C1  UNL     1       3.849  -0.209  -1.135  1.00  0.00     0.070 C 
HETATM    8  N4  UNL     1       2.835   0.911   0.766  1.00  0.00    -0.362 N 
HETATM    9  C10 UNL     1       1.844   1.091   1.667  1.00  0.00     0.107 A 
HETATM   10  C11 UNL     1       3.994   1.757   0.814  1.00  0.00     0.155 C 
HETATM   11  C9  UNL     1       0.730   0.277   1.621  1.00  0.00     0.107 A 
ENDBRANCH   3   4
ENDBRANCH   1   3
BRANCH   1  12
HETATM   12  N2  UNL     1      -1.255  -0.814  -1.587  1.00  0.00    -0.069 N 
ATOM     13  H23 UNL     1      -0.427  -0.222  -1.647  1.00  0.00     0.275 HD
ATOM     14  H22 UNL     1      -0.873  -1.678  -1.972  1.00  0.00     0.275 HD
ATOM     15  H21 UNL     1      -2.002  -0.452  -2.180  1.00  0.00     0.275 HD
ENDBRANCH   1  12
BRANCH   1  16
HETATM   16  C7  UNL     1      -2.181   0.330   0.284  1.00  0.00     0.067 C 
BRANCH  16  17
HETATM   17  C8  UNL     1      -3.273   0.761  -0.668  1.00  0.00     0.232 C 
BRANCH  17  18
HETATM   18  N3  UNL     1      -3.878   2.005  -0.313  1.00  0.00    -0.079 N 
ATOM     19  H33 UNL     1      -4.225   1.978   0.646  1.00  0.00     0.274 HD
ATOM     20  H32 UNL     1      -3.173   2.736  -0.217  1.00  0.00     0.274 HD
ATOM     21  H31 UNL     1      -4.615   2.296  -0.955  1.00  0.00     0.274 HD
ENDBRANCH  17  18
ENDBRANCH  16  17
ENDBRANCH   1  16
TORSDOF 6
