REMARK  5 active torsions:
REMARK  status: ('A' for Active; 'I' for Inactive)
REMARK    1  A    between atoms: C3_8  and  C4_9 
REMARK    2  A    between atoms: C4_9  and  C5_10 
REMARK    3  A    between atoms: C5_10  and  C6_11 
REMARK    4  A    between atoms: C6_11  and  N4_12 
REMARK    5  A    between atoms: N4_12  and  C7_14 
ROOT
HETATM    1  C5  UNL     1       0.179  -0.957  -0.877  1.00  0.00     0.028 C 
ENDROOT
BRANCH   1   2
HETATM    2  C4  UNL     1      -0.941  -0.858   0.117  1.00  0.00     0.080 C 
BRANCH   2   3
HETATM    3  C3  UNL     1      -2.078  -0.127  -0.545  1.00  0.00     0.098 A 
HETATM    4  N1  UNL     1      -3.274   0.170   0.009  1.00  0.00    -0.335 N 
HETATM    5  C1  UNL     1      -3.703  -0.158   1.361  1.00  0.00     0.158 C 
HETATM    6  C2  UNL     1      -4.041   0.829  -0.875  1.00  0.00     0.200 A 
HETATM    7  N2  UNL     1      -3.287   0.927  -1.981  1.00  0.00    -0.295 N 
HETATM    8  N3  UNL     1      -2.109   0.359  -1.798  1.00  0.00    -0.288 N 
ATOM      9  H2  UNL     1      -3.584   1.379  -2.846  1.00  0.00     0.187 HD
ATOM     10  H3  UNL     1      -1.357   0.300  -2.485  1.00  0.00     0.188 HD
ENDBRANCH   2   3
ENDBRANCH   1   2
BRANCH   1  11
HETATM   11  C6  UNL     1       1.386  -1.678  -0.320  1.00  0.00     0.138 C 
BRANCH  11  12
HETATM   12  N4  UNL     1       1.911  -0.993   0.846  1.00  0.00    -0.226 N 
ATOM     13  H4  UNL     1       1.566  -1.238   1.774  1.00  0.00     0.177 HD
BRANCH  12  14
HETATM   14  C7  UNL     1       2.825  -0.062   0.719  1.00  0.00     0.677 A 
HETATM   15  N5  UNL     1       3.378   0.633   1.726  1.00  0.00    -0.201 N 
HETATM   16  C8  UNL     1       4.285   1.514   1.260  1.00  0.00     0.123 A 
ATOM     17  H5  UNL     1       3.143   0.511   2.711  1.00  0.00     0.183 HD
HETATM   18  C9  UNL     1       4.298   1.360  -0.118  1.00  0.00     0.123 A 
HETATM   19  N6  UNL     1       3.401   0.397  -0.406  1.00  0.00    -0.201 N 
ATOM     20  H6  UNL     1       3.189   0.063  -1.346  1.00  0.00     0.183 HD
ENDBRANCH  12  14
ENDBRANCH  11  12
ENDBRANCH   1  11
TORSDOF 5
