REMARK  9 active torsions:
REMARK  status: ('A' for Active; 'I' for Inactive)
REMARK    1  A    between atoms: C2_2  and  C4_4 
REMARK    2  A    between atoms: C4_4  and  C5_5 
REMARK    3  A    between atoms: C5_5  and  C6_6 
REMARK    4  A    between atoms: C7_7  and  C9_9 
REMARK    5  A    between atoms: C9_9  and  O1_10 
REMARK    6  A    between atoms: C9_9  and  C10_12 
REMARK    7  A    between atoms: C13_16  and  C14_17 
REMARK    8  A    between atoms: C20_24  and  O4_25 
REMARK    9  A    between atoms: C21_27  and  O5_28 
ROOT
HETATM    1  C10 UNL     1       1.156  -2.274  -0.915  1.00  0.00     0.306 C 
HETATM    2  O2  UNL     1       0.337  -1.369  -1.574  1.00  0.00    -0.314 OA
HETATM    3  C11 UNL     1      -0.876  -1.302  -0.876  1.00  0.00     0.109 A 
HETATM    4  C12 UNL     1      -1.924  -0.413  -0.833  1.00  0.00     0.054 A 
HETATM    5  C13 UNL     1      -3.047  -0.608   0.022  1.00  0.00     0.013 A 
HETATM    6  C20 UNL     1      -3.055  -1.721   0.804  1.00  0.00     0.112 A 
HETATM    7  C21 UNL     1      -2.004  -2.633   0.771  1.00  0.00     0.136 A 
HETATM    8  C22 UNL     1      -0.939  -2.403  -0.080  1.00  0.00     0.141 A 
HETATM    9  O6  UNL     1       0.197  -3.171  -0.287  1.00  0.00    -0.311 OA
ENDROOT
BRANCH   1  10
HETATM   10  C9  UNL     1       2.039  -1.918   0.186  1.00  0.00     0.203 C 
BRANCH  10  11
HETATM   11  C7  UNL     1       3.057  -0.843   0.001  1.00  0.00    -0.043 C 
HETATM   12  C6  UNL     1       4.341  -1.119   0.123  1.00  0.00     0.060 C 
HETATM   13  C8  UNL     1       2.537   0.527  -0.248  1.00  0.00     0.047 C 
BRANCH  12  14
HETATM   14  C5  UNL     1       5.476  -0.361   0.078  1.00  0.00    -0.127 C 
BRANCH  14  15
HETATM   15  C4  UNL     1       6.552   0.304   0.044  1.00  0.00     0.061 C 
BRANCH  15  16
HETATM   16  C2  UNL     1       6.723   1.737  -0.188  1.00  0.00    -0.064 C 
HETATM   17  C1  UNL     1       7.965   2.302  -0.077  1.00  0.00     0.019 C 
HETATM   18  C3  UNL     1       5.705   2.664  -0.715  1.00  0.00     0.048 C 
ENDBRANCH  15  16
ENDBRANCH  14  15
ENDBRANCH  12  14
ENDBRANCH  10  11
BRANCH  10  19
HETATM   19  O1  UNL     1       2.725  -3.128   0.551  1.00  0.00    -0.386 OA
ATOM     20  H1  UNL     1       2.077  -3.812   0.669  1.00  0.00     0.210 HD
ENDBRANCH  10  19
ENDBRANCH   1  10
BRANCH   7  21
HETATM   21  O5  UNL     1      -2.052  -3.733   1.594  1.00  0.00    -0.356 OA
ATOM     22  H5  UNL     1      -1.335  -4.355   1.571  1.00  0.00     0.218 HD
ENDBRANCH   7  21
BRANCH   5  23
HETATM   23  C14 UNL     1      -4.021   0.481   0.171  1.00  0.00     0.001 C 
HETATM   24  C15 UNL     1      -4.923   0.751  -0.975  1.00  0.00     0.043 C 
HETATM   25  C16 UNL     1      -6.285   1.229  -0.482  1.00  0.00     0.005 C 
HETATM   26  C17 UNL     1      -6.119   2.317   0.549  1.00  0.00     0.008 C 
HETATM   27  C18 UNL     1      -5.565   1.770   1.815  1.00  0.00     0.083 C 
HETATM   28  C19 UNL     1      -4.378   0.907   1.491  1.00  0.00     0.156 C 
HETATM   29  O3  UNL     1      -3.701   0.566   2.474  1.00  0.00    -0.293 OA
ENDBRANCH   5  23
BRANCH   6  30
HETATM   30  O4  UNL     1      -4.122  -2.064   1.706  1.00  0.00    -0.357 OA
ATOM     31  H4  UNL     1      -4.128  -2.841   2.252  1.00  0.00     0.217 HD
ENDBRANCH   6  30
TORSDOF 9
