REMARK  8 active torsions:
REMARK  status: ('A' for Active; 'I' for Inactive)
REMARK    1  A    between atoms: C2_2  and  C3_3 
REMARK    2  A    between atoms: C3_3  and  C5_5 
REMARK    3  A    between atoms: C6_7  and  O2_8 
REMARK    4  A    between atoms: C8_11  and  C9_12 
REMARK    5  A    between atoms: C9_12  and  N1_13 
REMARK    6  A    between atoms: C12_16  and  N2_17 
REMARK    7  A    between atoms: C13_18  and  O3_19 
REMARK    8  A    between atoms: C16_23  and  O4_24 
ROOT
HETATM    1  N1  UNL     1      -1.135   0.010   0.327  1.00  0.00    -0.389 N 
HETATM    2  C10 UNL     1      -0.651  -0.228  -0.997  1.00  0.00     0.124 C 
HETATM    3  C11 UNL     1       0.806  -0.361  -1.194  1.00  0.00     0.045 C 
HETATM    4  C12 UNL     1       1.550   0.102   0.041  1.00  0.00     0.097 C 
HETATM    5  C21 UNL     1       1.061  -0.849   1.133  1.00  0.00     0.045 C 
HETATM    6  C22 UNL     1      -0.347  -0.395   1.430  1.00  0.00     0.124 C 
ENDROOT
BRANCH   4   7
HETATM    7  N2  UNL     1       2.958   0.152  -0.079  1.00  0.00    -0.303 N 
HETATM    8  C13 UNL     1       3.765  -0.840  -0.404  1.00  0.00     0.151 A 
HETATM    9  C14 UNL     1       5.053  -0.391  -0.437  1.00  0.00     0.004 A 
HETATM   10  C15 UNL     1       5.011   0.934  -0.114  1.00  0.00     0.004 A 
HETATM   11  C20 UNL     1       6.358  -0.994  -0.720  1.00  0.00     0.044 C 
HETATM   12  C16 UNL     1       3.687   1.293   0.114  1.00  0.00     0.151 A 
HETATM   13  C17 UNL     1       6.233   1.763  -0.043  1.00  0.00     0.044 C 
HETATM   14  C18 UNL     1       7.486   0.969   0.292  1.00  0.00     0.005 C 
HETATM   15  C19 UNL     1       7.288  -0.500   0.403  1.00  0.00     0.005 C 
BRANCH   8  16
HETATM   16  O3  UNL     1       3.312  -2.145  -0.666  1.00  0.00    -0.345 OA
ATOM     17  H3  UNL     1       3.893  -2.859  -0.900  1.00  0.00     0.219 HD
ENDBRANCH   8  16
BRANCH  12  18
HETATM   18  O4  UNL     1       3.234   2.564   0.468  1.00  0.00    -0.345 OA
ATOM     19  H4  UNL     1       3.740   3.357   0.602  1.00  0.00     0.219 HD
ENDBRANCH  12  18
ENDBRANCH   4   7
BRANCH   1  20
HETATM   20  C9  UNL     1      -2.521  -0.191   0.440  1.00  0.00     0.099 C 
BRANCH  20  21
HETATM   21  C8  UNL     1      -3.325   0.837  -0.242  1.00  0.00     0.014 A 
HETATM   22  C5  UNL     1      -4.739   0.662  -0.402  1.00  0.00     0.071 A 
HETATM   23  O1  UNL     1      -5.176   1.686  -1.026  1.00  0.00    -0.291 OA
HETATM   24  C6  UNL     1      -4.222   2.546  -1.305  1.00  0.00     0.184 A 
HETATM   25  C7  UNL     1      -3.052   2.028  -0.823  1.00  0.00     0.079 A 
BRANCH  22  26
HETATM   26  C3  UNL     1      -5.346  -0.561   0.164  1.00  0.00     0.039 C 
HETATM   27  C4  UNL     1      -6.559  -0.002   1.020  1.00  0.00     0.017 C 
BRANCH  26  28
HETATM   28  C2  UNL     1      -6.026  -1.450  -0.865  1.00  0.00     0.006 C 
HETATM   29  C1  UNL     1      -6.782  -2.577  -0.209  1.00  0.00     0.006 C 
ENDBRANCH  26  28
ENDBRANCH  22  26
BRANCH  24  30
HETATM   30  O2  UNL     1      -4.307   3.774  -1.965  1.00  0.00    -0.341 OA
ATOM     31  H2  UNL     1      -3.617   4.396  -2.167  1.00  0.00     0.220 HD
ENDBRANCH  24  30
ENDBRANCH  20  21
ENDBRANCH   1  20
TORSDOF 8
