REMARK  4 active torsions:
REMARK  status: ('A' for Active; 'I' for Inactive)
REMARK    1  A    between atoms: N2_7  and  C3_8 
REMARK    2  A    between atoms: C9_14  and  C10_15 
REMARK    3  A    between atoms: C10_15  and  C11_16 
REMARK    4  A    between atoms: C11_16  and  C12_17 
ROOT
HETATM    1  O1  UNL     1       1.768  -3.204   1.093  1.00  0.00    -0.267 OA
HETATM    2  C1  UNL     1       2.655  -2.316   0.890  1.00  0.00     0.257 A 
HETATM    3  N1  UNL     1       3.917  -2.499   1.314  1.00  0.00    -0.275 N 
ATOM      4  H1  UNL     1       4.129  -3.370   1.800  1.00  0.00     0.173 HD
HETATM    5  C2  UNL     1       4.912  -1.628   1.147  1.00  0.00     0.329 A 
HETATM    6  O2  UNL     1       6.075  -1.875   1.577  1.00  0.00    -0.246 OA
HETATM    7  N2  UNL     1       4.682  -0.467   0.512  1.00  0.00    -0.304 N 
HETATM    8  C8  UNL     1       3.428  -0.236   0.067  1.00  0.00     0.108 A 
HETATM    9  C9  UNL     1       2.394  -1.137   0.239  1.00  0.00     0.026 A 
ENDROOT
BRANCH   9  10
HETATM   10  C10 UNL     1       1.015  -0.852  -0.259  1.00  0.00     0.046 C 
BRANCH  10  11
HETATM   11  C11 UNL     1       0.105  -0.453   0.879  1.00  0.00     0.009 C 
BRANCH  11  12
HETATM   12  C12 UNL     1      -1.293  -0.155   0.407  1.00  0.00    -0.014 C 
HETATM   13  C13 UNL     1      -1.987  -1.295  -0.252  1.00  0.00     0.004 C 
HETATM   14  C14 UNL     1      -3.081  -1.909   0.612  1.00  0.00     0.000 C 
HETATM   15  C15 UNL     1      -4.167  -2.565  -0.154  1.00  0.00     0.000 C 
HETATM   16  C16 UNL     1      -5.209  -1.705  -0.752  1.00  0.00     0.000 C 
HETATM   17  C17 UNL     1      -5.840  -0.690   0.138  1.00  0.00     0.000 C 
HETATM   18  C18 UNL     1      -6.039   0.656  -0.570  1.00  0.00     0.000 C 
HETATM   19  C19 UNL     1      -5.870   1.830   0.328  1.00  0.00     0.000 C 
HETATM   20  C20 UNL     1      -4.605   2.641   0.016  1.00  0.00     0.000 C 
HETATM   21  C21 UNL     1      -3.473   1.672   0.139  1.00  0.00     0.000 C 
HETATM   22  C22 UNL     1      -2.097   2.217   0.065  1.00  0.00     0.000 C 
HETATM   23  C23 UNL     1      -1.195   1.083  -0.456  1.00  0.00     0.004 C 
ENDBRANCH  11  12
ENDBRANCH  10  11
ENDBRANCH   9  10
BRANCH   7  24
HETATM   24  C3  UNL     1       5.676   0.544   0.280  1.00  0.00     0.094 C 
HETATM   25  C4  UNL     1       7.090   0.047   0.268  1.00  0.00     0.026 C 
HETATM   26  C5  UNL     1       7.824   1.183  -0.463  1.00  0.00     0.002 C 
HETATM   27  C6  UNL     1       6.809   1.831  -1.338  1.00  0.00     0.002 C 
HETATM   28  C7  UNL     1       5.519   1.066  -1.129  1.00  0.00     0.026 C 
ENDBRANCH   7  24
TORSDOF 4
