REMARK  4 active torsions:
REMARK  status: ('A' for Active; 'I' for Inactive)
REMARK    1  A    between atoms: C2_2  and  C3_3 
REMARK    2  A    between atoms: C3_3  and  C4_4 
REMARK    3  A    between atoms: C4_4  and  C5_6 
REMARK    4  A    between atoms: C6_9  and  C7_10 
ROOT
HETATM    1  C7  UNL     1       0.464  -1.155  -1.383  1.00  0.00    -0.001 C 
HETATM    2  C8  UNL     1       0.008  -2.178  -2.367  1.00  0.00     0.022 C 
HETATM    3  C9  UNL     1      -0.104  -1.512   0.006  1.00  0.00     0.021 C 
HETATM    4  C10 UNL     1      -1.354  -0.865  -0.492  1.00  0.00     0.000 C 
HETATM    5  C11 UNL     1      -0.432   0.062  -1.289  1.00  0.00     0.004 C 
HETATM    6  C12 UNL     1       0.058   1.210  -0.500  1.00  0.00     0.006 C 
HETATM    7  C13 UNL     1      -1.062   1.994   0.066  1.00  0.00     0.006 C 
HETATM    8  C14 UNL     1      -2.349   1.298   0.245  1.00  0.00    -0.006 C 
HETATM    9  C15 UNL     1      -3.322   1.678  -0.877  1.00  0.00     0.006 C 
HETATM   10  C16 UNL     1      -4.701   1.434  -0.307  1.00  0.00     0.009 C 
HETATM   11  C17 UNL     1      -4.799   0.106   0.384  1.00  0.00    -0.047 C 
HETATM   12  C18 UNL     1      -5.239   0.249   1.844  1.00  0.00     0.015 C 
HETATM   13  C19 UNL     1      -6.008  -0.598  -0.272  1.00  0.00     0.015 C 
HETATM   14  C20 UNL     1      -3.654  -0.798   0.195  1.00  0.00     0.018 C 
HETATM   15  C21 UNL     1      -2.272  -0.187   0.441  1.00  0.00    -0.036 C 
HETATM   16  C22 UNL     1      -1.976  -0.432   1.906  1.00  0.00     0.016 C 
ENDROOT
BRANCH   1  17
HETATM   17  C6  UNL     1       1.924  -0.914  -1.314  1.00  0.00    -0.001 C 
HETATM   18  N1  UNL     1       2.562   0.166  -1.530  1.00  0.00    -0.378 N 
HETATM   19  C5  UNL     1       3.966   0.035  -1.373  1.00  0.00     0.221 C 
ATOM     20  H1  UNL     1       2.108   1.041  -1.791  1.00  0.00     0.160 HD
HETATM   21  C24 UNL     1       4.198  -1.453  -1.347  1.00  0.00     0.162 C 
HETATM   22  C23 UNL     1       2.875  -2.000  -0.956  1.00  0.00     0.134 C 
HETATM   23  O2  UNL     1       5.254  -1.996  -1.601  1.00  0.00    -0.295 OA
BRANCH  19  24
HETATM   24  C4  UNL     1       4.484   0.585  -0.119  1.00  0.00     0.156 C 
HETATM   25  O1  UNL     1       3.723   1.098   0.673  1.00  0.00    -0.295 OA
BRANCH  24  26
HETATM   26  C3  UNL     1       5.925   0.536   0.218  1.00  0.00     0.080 C 
BRANCH  26  27
HETATM   27  C2  UNL     1       6.214   1.162   1.555  1.00  0.00     0.003 C 
HETATM   28  C1  UNL     1       7.697   1.072   1.823  1.00  0.00     0.005 C 
ENDBRANCH  26  27
ENDBRANCH  24  26
ENDBRANCH  19  24
ENDBRANCH   1  17
TORSDOF 4
