REMARK  5 active torsions:
REMARK  status: ('A' for Active; 'I' for Inactive)
REMARK    1  A    between atoms: O1_1  and  C1_3 
REMARK    2  A    between atoms: C1_3  and  C2_4 
REMARK    3  A    between atoms: C1_3  and  C9_11 
REMARK    4  A    between atoms: C12_14  and  C13_15 
REMARK    5  A    between atoms: N1_23  and  C21_24 
ROOT
HETATM    1  C13 UNL     1       0.829  -0.137  -1.337  1.00  0.00     0.042 C 
HETATM    2  C14 UNL     1       1.973  -1.065  -1.526  1.00  0.00     0.038 C 
HETATM    3  C15 UNL     1       3.279  -0.603  -1.075  1.00  0.00     0.002 C 
HETATM    4  C16 UNL     1       3.863   0.591  -1.211  1.00  0.00     0.042 A 
HETATM    5  C17 UNL     1       3.251   1.740  -1.890  1.00  0.00     0.174 A 
HETATM    6  C18 UNL     1       4.029   2.963  -2.066  1.00  0.00     0.066 A 
HETATM    7  C19 UNL     1       5.351   2.952  -1.431  1.00  0.00    -0.006 A 
HETATM    8  C20 UNL     1       5.826   1.920  -0.800  1.00  0.00     0.093 A 
HETATM    9  N1  UNL     1       5.149   0.681  -0.636  1.00  0.00    -0.324 N 
HETATM   10  O2  UNL     1       2.030   1.970  -1.188  1.00  0.00    -0.379 OA
HETATM   11  C27 UNL     1       1.060   1.257  -1.829  1.00  0.00     0.176 C 
ENDROOT
BRANCH   1  12
HETATM   12  C12 UNL     1       0.221  -0.165   0.053  1.00  0.00     0.128 C 
HETATM   13  C11 UNL     1      -0.288  -1.540   0.311  1.00  0.00     0.035 C 
HETATM   14  C10 UNL     1      -1.776  -1.291   0.565  1.00  0.00     0.037 C 
HETATM   15  C9  UNL     1      -1.798   0.147   0.951  1.00  0.00     0.151 C 
HETATM   16  O3  UNL     1      -0.841   0.696   0.071  1.00  0.00    -0.378 OA
BRANCH  15  17
HETATM   17  C1  UNL     1      -3.131   0.754   0.546  1.00  0.00     0.151 C 
BRANCH  17  18
HETATM   18  O1  UNL     1      -2.884   2.166   0.638  1.00  0.00    -0.393 OA
ATOM     19  H1  UNL     1      -2.162   2.364   0.053  1.00  0.00     0.210 HD
ENDBRANCH  17  18
BRANCH  17  20
HETATM   20  C2  UNL     1      -4.274   0.441   1.473  1.00  0.00     0.017 C 
HETATM   21  C3  UNL     1      -5.510   1.233   1.055  1.00  0.00     0.007 C 
HETATM   22  C4  UNL     1      -6.014   0.866  -0.306  1.00  0.00     0.000 C 
HETATM   23  C5  UNL     1      -6.574  -0.542  -0.347  1.00  0.00     0.000 C 
HETATM   24  C6  UNL     1      -7.112  -0.946   1.010  1.00  0.00     0.000 C 
HETATM   25  C7  UNL     1      -6.083  -1.144   2.057  1.00  0.00     0.000 C 
HETATM   26  C8  UNL     1      -4.648  -0.994   1.592  1.00  0.00     0.007 C 
ENDBRANCH  17  20
ENDBRANCH  15  17
ENDBRANCH   1  12
BRANCH   9  27
HETATM   27  C21 UNL     1       5.723  -0.404   0.053  1.00  0.00     0.039 A 
HETATM   28  C22 UNL     1       6.501  -1.307  -0.617  1.00  0.00     0.033 A 
HETATM   29  C23 UNL     1       7.077  -2.367   0.043  1.00  0.00     0.044 A 
HETATM   30  C24 UNL     1       6.850  -2.496   1.393  1.00  0.00     0.116 A 
HETATM   31  F1  UNL     1       7.439  -3.566   2.027  1.00  0.00    -0.206 F 
HETATM   32  C25 UNL     1       6.074  -1.607   2.097  1.00  0.00     0.044 A 
HETATM   33  C26 UNL     1       5.501  -0.539   1.401  1.00  0.00     0.033 A 
ENDBRANCH   9  27
TORSDOF 5
