REMARK  3 active torsions:
REMARK  status: ('A' for Active; 'I' for Inactive)
REMARK    1  A    between atoms: N1_1  and  O1_4 
REMARK    2  A    between atoms: O1_4  and  C1_5 
REMARK    3  A    between atoms: C1_5  and  C2_6 
ROOT
HETATM    1  C2  UNL     1       0.404   0.114  -0.377  1.00  0.00     0.013 C 
HETATM    2  C3  UNL     1       0.128   1.442   0.336  1.00  0.00     0.018 C 
HETATM    3  C4  UNL     1      -1.412   1.707   0.476  1.00  0.00     0.080 C 
HETATM    4  C5  UNL     1      -2.034   0.469   0.271  1.00  0.00    -0.183 C 
HETATM    5  C6  UNL     1      -2.613  -0.791   0.055  1.00  0.00     0.080 C 
HETATM    6  C7  UNL     1      -1.424  -1.752  -0.299  1.00  0.00     0.012 C 
HETATM    7  C8  UNL     1      -0.081  -1.143   0.091  1.00  0.00     0.007 C 
ENDROOT
BRANCH   1   8
HETATM    8  C1  UNL     1       1.956   0.063  -0.313  1.00  0.00     0.205 C 
BRANCH   8   9
HETATM    9  O1  UNL     1       2.345   0.079   1.045  1.00  0.00    -0.287 OA
BRANCH   9  10
HETATM   10  N1  UNL     1       3.697   0.033   1.036  1.00  0.00    -0.311 N 
ATOM     11  H12 UNL     1       4.297  -0.005   0.212  1.00  0.00     0.184 HD
ATOM     12  H11 UNL     1       3.978   0.045   2.017  1.00  0.00     0.184 HD
ENDBRANCH   9  10
ENDBRANCH   8   9
ENDBRANCH   1   8
TORSDOF 3
