REMARK  2 active torsions:
REMARK  status: ('A' for Active; 'I' for Inactive)
REMARK    1  A    between atoms: C2_2  and  N1_3 
REMARK    2  A    between atoms: N1_3  and  C3_6 
ROOT
HETATM    1  C3  UNL     1      -0.328  -0.309  -0.237  1.00  0.00     0.280 C 
HETATM    2  C4  UNL     1       0.352  -1.565  -0.772  1.00  0.00     0.054 C 
HETATM    3  C5  UNL     1       1.492  -1.770   0.209  1.00  0.00     0.006 C 
HETATM    4  C6  UNL     1       2.437  -0.627   0.091  1.00  0.00     0.024 C 
HETATM    5  C7  UNL     1       1.888   0.675  -0.333  1.00  0.00     0.074 C 
HETATM    6  C8  UNL     1       2.189   1.773   0.686  1.00  0.00     0.032 C 
HETATM    7  N2  UNL     1       0.508   0.772  -0.630  1.00  0.00    -0.392 N 
ATOM      8  H2  UNL     1       0.127   1.588  -1.109  1.00  0.00     0.155 HD
ENDROOT
BRANCH   1   9
HETATM    9  N1  UNL     1      -1.648  -0.123  -0.784  1.00  0.00    -0.055 N 
ATOM     10  H12 UNL     1      -2.010  -0.955  -1.250  1.00  0.00     0.279 HD
ATOM     11  H11 UNL     1      -1.663   0.496  -1.594  1.00  0.00     0.279 HD
BRANCH   9  12
HETATM   12  C2  UNL     1      -2.498   0.339   0.307  1.00  0.00     0.230 C 
HETATM   13  C1  UNL     1      -3.958   0.110   0.043  1.00  0.00     0.034 C 
ENDBRANCH   9  12
ENDBRANCH   1   9
TORSDOF 2
