REMARK  2 active torsions:
REMARK  status: ('A' for Active; 'I' for Inactive)
REMARK    1  A    between atoms: C2_2  and  N1_4 
REMARK    2  A    between atoms: C2_2  and  C4_8 
ROOT
HETATM    1  C4  UNL     1      -0.067   0.419  -0.217  1.00  0.00     0.046 C 
HETATM    2  C5  UNL     1       0.759   0.635   1.008  1.00  0.00     0.010 C 
HETATM    3  C6  UNL     1       2.129   1.095   0.486  1.00  0.00     0.028 C 
HETATM    4  C7  UNL     1       2.834  -0.101  -0.098  1.00  0.00     0.232 C 
HETATM    5  N2  UNL     1       1.855  -1.071  -0.542  1.00  0.00    -0.075 N 
ATOM      6  H21 UNL     1       1.576  -1.684   0.224  1.00  0.00     0.277 HD
ATOM      7  H22 UNL     1       2.280  -1.761  -1.161  1.00  0.00     0.277 HD
HETATM    8  C8  UNL     1       0.702  -0.463  -1.162  1.00  0.00     0.239 C 
ENDROOT
BRANCH   1   9
HETATM    9  C2  UNL     1      -1.408  -0.184   0.032  1.00  0.00     0.121 C 
HETATM   10  C1  UNL     1      -2.107  -0.332  -1.309  1.00  0.00     0.046 C 
HETATM   11  C3  UNL     1      -2.275   0.682   0.923  1.00  0.00     0.046 C 
BRANCH   9  12
HETATM   12  N1  UNL     1      -1.345  -1.491   0.630  1.00  0.00    -0.071 N 
ATOM     13  H13 UNL     1      -2.258  -1.940   0.704  1.00  0.00     0.275 HD
ATOM     14  H12 UNL     1      -0.905  -2.185   0.026  1.00  0.00     0.275 HD
ATOM     15  H11 UNL     1      -0.876  -1.392   1.530  1.00  0.00     0.275 HD
ENDBRANCH   9  12
ENDBRANCH   1   9
TORSDOF 2
