REMARK  3 active torsions:
REMARK  status: ('A' for Active; 'I' for Inactive)
REMARK    1  A    between atoms: C2_2  and  C4_4 
REMARK    2  A    between atoms: C4_4  and  C5_5 
REMARK    3  A    between atoms: C19_23  and  N2_24 
ROOT
HETATM    1  C5  UNL     1       1.334  -0.437   0.987  1.00  0.00    -0.016 C 
HETATM    2  C6  UNL     1       0.440   0.201   0.330  1.00  0.00    -0.039 C 
HETATM    3  C7  UNL     1       0.414   0.216  -1.177  1.00  0.00     0.058 C 
HETATM    4  C8  UNL     1       0.200   1.681  -1.516  1.00  0.00     0.196 A 
HETATM    5  O1  UNL     1       1.204   2.507  -1.062  1.00  0.00    -0.341 OA
HETATM    6  C9  UNL     1      -0.085   2.616  -0.550  1.00  0.00     0.189 A 
HETATM    7  C10 UNL     1      -0.792   3.914  -0.968  1.00  0.00     0.082 C 
HETATM    8  O2  UNL     1      -0.315   2.312   0.780  1.00  0.00    -0.335 OA
HETATM    9  C11 UNL     1      -0.696   1.011   0.863  1.00  0.00     0.127 C 
HETATM   10  C12 UNL     1      -1.970   0.807   0.047  1.00  0.00     0.077 C 
HETATM   11  C13 UNL     1      -1.856  -0.600  -0.500  1.00  0.00     0.038 C 
HETATM   12  C14 UNL     1      -3.193  -0.900  -1.182  1.00  0.00     0.039 C 
HETATM   13  C15 UNL     1      -0.737  -0.678  -1.530  1.00  0.00     0.020 C 
HETATM   14  C16 UNL     1      -1.257  -0.451  -2.930  1.00  0.00     0.013 C 
HETATM   15  N1  UNL     1      -1.649  -1.466   0.639  1.00  0.00    -0.345 N 
HETATM   16  C17 UNL     1      -1.869  -2.876   0.465  1.00  0.00     0.153 C 
HETATM   17  C18 UNL     1      -1.239  -1.003   1.920  1.00  0.00     0.254 C 
HETATM   18  O3  UNL     1      -1.026  -1.841   2.816  1.00  0.00    -0.271 OA
HETATM   19  C19 UNL     1      -1.067   0.465   2.194  1.00  0.00     0.313 C 
ENDROOT
BRANCH   1  20
HETATM   20  C4  UNL     1       2.418  -1.221   0.342  1.00  0.00     0.060 C 
BRANCH  20  21
HETATM   21  C2  UNL     1       3.762  -0.659   0.668  1.00  0.00    -0.090 C 
HETATM   22  C1  UNL     1       3.888   0.396   1.435  1.00  0.00     0.014 C 
HETATM   23  C3  UNL     1       4.957  -1.320   0.107  1.00  0.00     0.043 C 
ENDBRANCH  20  21
ENDBRANCH   1  20
BRANCH  19  24
HETATM   24  N2  UNL     1      -0.266   0.777   3.306  1.00  0.00    -0.063 N 
ATOM     25  H23 UNL     1       0.698   0.514   3.100  1.00  0.00     0.275 HD
ATOM     26  H22 UNL     1      -0.185   1.791   3.378  1.00  0.00     0.275 HD
ATOM     27  H21 UNL     1      -0.521   0.402   4.220  1.00  0.00     0.275 HD
ENDBRANCH  19  24
TORSDOF 3
