REMARK  5 active torsions:
REMARK  status: ('A' for Active; 'I' for Inactive)
REMARK    1  A    between atoms: C5_5  and  O1_6 
REMARK    2  A    between atoms: O1_6  and  C6_7 
REMARK    3  A    between atoms: C6_7  and  C7_9 
REMARK    4  A    between atoms: C12_14  and  C13_15 
REMARK    5  A    between atoms: C15_19  and  O5_21 
ROOT
HETATM    1  C1  UNL     1      -2.907  -2.909  -0.920  1.00  0.00     0.017 C 
HETATM    2  C2  UNL     1      -1.804  -2.219  -1.070  1.00  0.00    -0.051 C 
HETATM    3  C3  UNL     1      -0.536  -2.779  -1.614  1.00  0.00     0.039 C 
HETATM    4  C4  UNL     1       0.656  -2.420  -0.772  1.00  0.00     0.038 C 
HETATM    5  C5  UNL     1       0.606  -0.977  -0.351  1.00  0.00     0.144 C 
HETATM    6  C10 UNL     1      -0.703  -0.632   0.337  1.00  0.00     0.037 C 
HETATM    7  C11 UNL     1      -1.025  -1.690   1.410  1.00  0.00     0.022 C 
HETATM    8  C12 UNL     1      -0.637   0.698   1.031  1.00  0.00     0.134 C 
HETATM    9  C14 UNL     1      -1.775   1.598   0.726  1.00  0.00     0.174 C 
HETATM   10  O4  UNL     1      -2.061   2.462   1.535  1.00  0.00    -0.294 OA
HETATM   11  C15 UNL     1      -2.589   1.520  -0.498  1.00  0.00     0.144 C 
HETATM   12  C16 UNL     1      -2.030   2.554  -1.483  1.00  0.00     0.057 C 
HETATM   13  C17 UNL     1      -2.617   0.172  -1.110  1.00  0.00     0.204 A 
HETATM   14  O6  UNL     1      -1.479  -0.030  -1.947  1.00  0.00    -0.360 OA
HETATM   15  C18 UNL     1      -1.761  -0.773  -0.685  1.00  0.00     0.124 A 
ENDROOT
BRANCH   5  16
HETATM   16  O1  UNL     1       1.747  -0.510   0.261  1.00  0.00    -0.315 OA
BRANCH  16  17
HETATM   17  C6  UNL     1       2.658   0.409  -0.177  1.00  0.00     0.262 C 
HETATM   18  O2  UNL     1       2.432   0.903  -1.298  1.00  0.00    -0.265 OA
BRANCH  17  19
HETATM   19  C7  UNL     1       3.858   0.826   0.591  1.00  0.00     0.077 C 
HETATM   20  C8  UNL     1       3.520   1.433   1.912  1.00  0.00     0.020 C 
HETATM   21  C9  UNL     1       4.659   1.823  -0.214  1.00  0.00     0.020 C 
ENDBRANCH  17  19
ENDBRANCH  16  17
ENDBRANCH   5  16
BRANCH   8  22
HETATM   22  C13 UNL     1      -0.596   0.562   2.514  1.00  0.00     0.244 C 
HETATM   23  O3  UNL     1      -1.666   0.487   3.092  1.00  0.00    -0.306 OA
ENDBRANCH   8  22
BRANCH  11  24
HETATM   24  O5  UNL     1      -3.896   1.944  -0.190  1.00  0.00    -0.380 OA
ATOM     25  H5  UNL     1      -4.421   1.894  -0.980  1.00  0.00     0.211 HD
ENDBRANCH  11  24
TORSDOF 5
