REMARK  4 active torsions:
REMARK  status: ('A' for Active; 'I' for Inactive)
REMARK    1  A    between atoms: C8_11  and  C9_12 
REMARK    2  A    between atoms: C8_11  and  C15_18 
REMARK    3  A    between atoms: C18_21  and  O4_22 
REMARK    4  A    between atoms: C19_24  and  O5_25 
ROOT
HETATM    1  O1  UNL     1       0.620   1.100  -2.463  1.00  0.00    -0.261 OA
HETATM    2  C1  UNL     1       0.998   0.370  -1.505  1.00  0.00     0.309 C 
HETATM    3  O2  UNL     1       2.103  -0.446  -1.759  1.00  0.00    -0.273 OA
HETATM    4  C2  UNL     1       2.686  -1.164  -0.712  1.00  0.00     0.112 A 
HETATM    5  C3  UNL     1       3.795  -1.984  -0.958  1.00  0.00     0.040 A 
HETATM    6  C4  UNL     1       4.346  -2.673   0.084  1.00  0.00     0.003 A 
HETATM    7  C5  UNL     1       3.851  -2.591   1.365  1.00  0.00     0.003 A 
HETATM    8  C6  UNL     1       2.762  -1.777   1.571  1.00  0.00     0.040 A 
HETATM    9  C7  UNL     1       2.157  -1.048   0.544  1.00  0.00     0.105 A 
HETATM   10  O3  UNL     1       1.064  -0.245   0.812  1.00  0.00    -0.317 OA
HETATM   11  C8  UNL     1       0.306   0.385  -0.201  1.00  0.00     0.210 C 
ENDROOT
BRANCH  11  12
HETATM   12  C9  UNL     1       0.006   1.802   0.149  1.00  0.00    -0.009 A 
HETATM   13  C10 UNL     1       0.577   2.466   1.199  1.00  0.00     0.011 A 
HETATM   14  C11 UNL     1       0.286   3.779   1.514  1.00  0.00     0.001 A 
HETATM   15  C12 UNL     1      -0.631   4.420   0.710  1.00  0.00     0.000 A 
HETATM   16  C13 UNL     1      -1.230   3.790  -0.356  1.00  0.00     0.001 A 
HETATM   17  C14 UNL     1      -0.905   2.471  -0.634  1.00  0.00     0.011 A 
ENDBRANCH  11  12
BRANCH  11  18
HETATM   18  C15 UNL     1      -1.018  -0.310  -0.230  1.00  0.00    -0.006 A 
HETATM   19  C16 UNL     1      -1.730  -0.396   0.954  1.00  0.00     0.014 A 
HETATM   20  C17 UNL     1      -2.954  -1.030   0.952  1.00  0.00     0.040 A 
HETATM   21  C18 UNL     1      -3.451  -1.569  -0.225  1.00  0.00     0.098 A 
HETATM   22  C19 UNL     1      -2.728  -1.474  -1.398  1.00  0.00     0.099 A 
HETATM   23  C20 UNL     1      -1.505  -0.843  -1.404  1.00  0.00     0.050 A 
BRANCH  21  24
HETATM   24  O4  UNL     1      -4.685  -2.210  -0.235  1.00  0.00    -0.358 OA
ATOM     25  H4  UNL     1      -5.025  -2.579  -1.041  1.00  0.00     0.217 HD
ENDBRANCH  21  24
BRANCH  22  26
HETATM   26  O5  UNL     1      -3.269  -2.035  -2.569  1.00  0.00    -0.358 OA
ATOM     27  H5  UNL     1      -2.772  -1.970  -3.376  1.00  0.00     0.217 HD
ENDBRANCH  22  26
ENDBRANCH  11  18
TORSDOF 4
