REMARK  3 active torsions:
REMARK  status: ('A' for Active; 'I' for Inactive)
REMARK    1  A    between atoms: C7_8  and  N2_9 
REMARK    2  A    between atoms: C9_14  and  C10_15 
REMARK    3  A    between atoms: C14_19  and  O1_20 
ROOT
HETATM    1  N1  UNL     1      -4.382  -0.577   2.408  1.00  0.00    -0.191 NA
HETATM    2  C1  UNL     1      -4.002  -0.935   1.377  1.00  0.00     0.102 C 
HETATM    3  C2  UNL     1      -3.535  -1.362   0.065  1.00  0.00     0.071 A 
HETATM    4  C3  UNL     1      -3.938  -2.587  -0.422  1.00  0.00     0.025 A 
HETATM    5  C4  UNL     1      -3.520  -3.031  -1.656  1.00  0.00     0.002 A 
HETATM    6  C5  UNL     1      -2.688  -2.218  -2.393  1.00  0.00     0.002 A 
HETATM    7  C6  UNL     1      -2.273  -0.990  -1.923  1.00  0.00     0.031 A 
HETATM    8  C7  UNL     1      -2.705  -0.571  -0.688  1.00  0.00     0.070 A 
ENDROOT
BRANCH   8   9
HETATM    9  N2  UNL     1      -2.299   0.684  -0.175  1.00  0.00    -0.190 N 
HETATM   10  C8  UNL     1      -1.070   0.991   0.074  1.00  0.00     0.688 C 
HETATM   11  N3  UNL     1      -0.013   0.070  -0.156  1.00  0.00    -0.200 N 
HETATM   12  N5  UNL     1      -0.731   2.293   0.597  1.00  0.00    -0.143 N 
HETATM   13  C9  UNL     1       1.325   0.574  -0.343  1.00  0.00     0.234 C 
ATOM     14  H3  UNL     1      -0.198  -0.933  -0.188  1.00  0.00     0.180 HD
HETATM   15  N4  UNL     1       1.586   1.619   0.595  1.00  0.00    -0.350 N 
HETATM   16  C16 UNL     1       0.561   2.578   0.843  1.00  0.00     0.126 A 
ATOM     17  H4  UNL     1       2.484   1.678   1.076  1.00  0.00     0.163 HD
HETATM   18  C17 UNL     1       0.836   3.841   1.345  1.00  0.00     0.049 A 
HETATM   19  C18 UNL     1      -0.161   4.764   1.582  1.00  0.00     0.005 A 
HETATM   20  C19 UNL     1      -1.473   4.448   1.322  1.00  0.00     0.018 A 
HETATM   21  C20 UNL     1      -1.729   3.170   0.816  1.00  0.00     0.117 A 
ATOM     22  H2  UNL     1      -3.017   1.385   0.008  1.00  0.00     0.184 HD
BRANCH  13  23
HETATM   23  C10 UNL     1       2.340  -0.500  -0.313  1.00  0.00    -0.013 A 
HETATM   24  C11 UNL     1       3.368  -0.546  -1.258  1.00  0.00     0.011 A 
HETATM   25  C12 UNL     1       4.327  -1.531  -1.261  1.00  0.00     0.003 A 
HETATM   26  C13 UNL     1       4.290  -2.520  -0.301  1.00  0.00     0.036 A 
HETATM   27  C14 UNL     1       3.278  -2.513   0.665  1.00  0.00     0.066 A 
HETATM   28  C15 UNL     1       2.330  -1.504   0.634  1.00  0.00     0.047 A 
BRANCH  27  29
HETATM   29  O1  UNL     1       3.294  -3.524   1.594  1.00  0.00    -0.361 OA
ATOM     30  H1  UNL     1       2.607  -3.519   2.250  1.00  0.00     0.217 HD
ENDBRANCH  27  29
ENDBRANCH  13  23
ENDBRANCH   8   9
TORSDOF 3
