REMARK  3 active torsions:
REMARK  status: ('A' for Active; 'I' for Inactive)
REMARK    1  A    between atoms: C2_3  and  C3_4 
REMARK    2  A    between atoms: C3_4  and  C4_5 
REMARK    3  A    between atoms: C13_14  and  O1_15 
ROOT
HETATM    1  N1  UNL     1      -1.701   0.517   2.499  1.00  0.00    -0.195 NA
HETATM    2  C1  UNL     1      -1.463   0.182   1.391  1.00  0.00     0.090 C 
HETATM    3  C2  UNL     1      -1.206  -0.205  -0.020  1.00  0.00     0.197 C 
HETATM    4  C14 UNL     1      -1.423   0.984  -0.852  1.00  0.00     0.153 C 
HETATM    5  N2  UNL     1      -0.737   1.535  -1.738  1.00  0.00    -0.381 N 
ATOM      6  H21 UNL     1      -0.888   2.362  -2.316  1.00  0.00     0.158 HD
ATOM      7  H22 UNL     1       0.151   1.067  -1.919  1.00  0.00     0.158 HD
HETATM    8  O2  UNL     1      -2.667   1.639  -0.599  1.00  0.00    -0.295 OA
HETATM    9  C15 UNL     1      -3.816   0.975  -0.227  1.00  0.00     0.091 A 
HETATM   10  C16 UNL     1      -5.030   1.606   0.009  1.00  0.00     0.038 A 
HETATM   11  C17 UNL     1      -6.140   0.863   0.374  1.00  0.00     0.003 A 
HETATM   12  C18 UNL     1      -6.066  -0.518   0.512  1.00  0.00     0.001 A 
HETATM   13  C19 UNL     1      -4.873  -1.154   0.283  1.00  0.00     0.018 A 
HETATM   14  C20 UNL     1      -3.747  -0.393  -0.087  1.00  0.00     0.046 A 
HETATM   15  C21 UNL     1      -2.476  -1.035  -0.334  1.00  0.00     0.197 C 
HETATM   16  O3  UNL     1      -2.373  -2.180  -0.769  1.00  0.00    -0.289 OA
ENDROOT
BRANCH   3  17
HETATM   17  C3  UNL     1      -0.054  -1.063  -0.208  1.00  0.00     0.028 C 
BRANCH  17  18
HETATM   18  C4  UNL     1       1.295  -0.751   0.174  1.00  0.00    -0.003 A 
HETATM   19  C5  UNL     1       2.168  -0.250  -0.770  1.00  0.00     0.026 A 
HETATM   20  C6  UNL     1       3.466   0.084  -0.481  1.00  0.00    -0.025 A 
HETATM   21  C7  UNL     1       4.335   0.588  -1.436  1.00  0.00     0.012 A 
HETATM   22  C11 UNL     1       3.962  -0.073   0.805  1.00  0.00    -0.023 A 
HETATM   23  C8  UNL     1       5.642   0.923  -1.137  1.00  0.00     0.001 A 
HETATM   24  C9  UNL     1       6.127   0.764   0.145  1.00  0.00     0.001 A 
HETATM   25  C10 UNL     1       5.260   0.261   1.102  1.00  0.00     0.012 A 
HETATM   26  C12 UNL     1       3.084  -0.573   1.733  1.00  0.00     0.049 A 
HETATM   27  C13 UNL     1       1.781  -0.911   1.448  1.00  0.00     0.076 A 
BRANCH  27  28
HETATM   28  O1  UNL     1       1.013  -1.414   2.491  1.00  0.00    -0.360 OA
ATOM     29  H1  UNL     1       1.349  -1.525   3.373  1.00  0.00     0.217 HD
ENDBRANCH  27  28
ENDBRANCH  17  18
ENDBRANCH   3  17
TORSDOF 3
