REMARK  2 active torsions:
REMARK  status: ('A' for Active; 'I' for Inactive)
REMARK    1  A    between atoms: C5_5  and  C6_6 
REMARK    2  A    between atoms: C8_12  and  C9_13 
ROOT
HETATM    1  C6  UNL     1       0.194  -1.005   0.155  1.00  0.00     0.053 A 
HETATM    2  N1  UNL     1       0.730  -2.192   0.144  1.00  0.00    -0.316 N 
ATOM      3  H1  UNL     1       1.592  -2.379   0.656  1.00  0.00     0.170 HD
HETATM    4  C7  UNL     1       0.124  -3.162  -0.554  1.00  0.00     0.289 A 
HETATM    5  O1  UNL     1       0.518  -4.378  -0.670  1.00  0.00    -0.260 OA
HETATM    6  S1  UNL     1      -1.233  -2.379  -1.206  1.00  0.00    -0.027 SA
HETATM    7  C8  UNL     1      -0.970  -0.829  -0.555  1.00  0.00     0.037 A 
ENDROOT
BRANCH   7   8
HETATM    8  C9  UNL     1      -1.741   0.427  -0.697  1.00  0.00     0.034 C 
HETATM    9  C10 UNL     1      -3.036   0.461  -0.515  1.00  0.00     0.018 C 
HETATM   10  C11 UNL     1      -3.975  -0.628  -0.158  1.00  0.00     0.114 C 
HETATM   11  C13 UNL     1      -3.885   1.661  -0.624  1.00  0.00     0.253 C 
HETATM   12  C12 UNL     1      -5.173   0.050   0.416  1.00  0.00     0.084 C 
HETATM   13  S2  UNL     1      -6.228  -0.712   1.396  1.00  0.00    -0.065 SA
HETATM   14  N2  UNL     1      -5.156   1.382  -0.057  1.00  0.00    -0.317 N 
ATOM     15  H2  UNL     1      -5.934   2.039   0.000  1.00  0.00     0.169 HD
HETATM   16  O2  UNL     1      -3.542   2.751  -1.132  1.00  0.00    -0.268 OA
ENDBRANCH   7   8
BRANCH   1  17
HETATM   17  C5  UNL     1       0.775   0.162   0.878  1.00  0.00     0.039 C 
HETATM   18  C4  UNL     1       2.042   0.519   0.822  1.00  0.00    -0.045 C 
HETATM   19  C3  UNL     1       3.145  -0.063   0.102  1.00  0.00     0.021 C 
HETATM   20  C14 UNL     1       2.484   1.737   1.628  1.00  0.00     0.117 C 
HETATM   21  C2  UNL     1       4.134   0.731  -0.222  1.00  0.00    -0.025 C 
HETATM   22  C1  UNL     1       5.360   0.395  -0.945  1.00  0.00     0.056 C 
HETATM   23  S3  UNL     1       3.727   2.345   0.408  1.00  0.00    -0.130 SA
ENDBRANCH   1  17
TORSDOF 2
