REMARK  3 active torsions:
REMARK  status: ('A' for Active; 'I' for Inactive)
REMARK    1  A    between atoms: C2_2  and  N1_4 
REMARK    2  A    between atoms: N1_4  and  C3_6 
REMARK    3  A    between atoms: C3_6  and  C4_7 
ROOT
HETATM    1  C4  UNL     1       3.056   0.687  -0.495  1.00  0.00     0.003 C 
HETATM    2  C5  UNL     1       2.136   1.023   0.657  1.00  0.00     0.009 C 
HETATM    3  C6  UNL     1       0.729   1.200   0.211  1.00  0.00     0.044 C 
HETATM    4  C7  UNL     1       0.180  -0.002  -0.511  1.00  0.00     0.120 C 
HETATM    5  C8  UNL     1       1.164  -0.361  -1.612  1.00  0.00     0.044 C 
HETATM    6  C9  UNL     1       2.547  -0.634  -1.074  1.00  0.00     0.009 C 
HETATM    7  C10 UNL     1       0.001  -1.118   0.461  1.00  0.00     0.251 C 
HETATM    8  O1  UNL     1      -1.172  -1.104   1.159  1.00  0.00    -0.235 OA
HETATM    9  O2  UNL     1      -1.924  -0.068   0.980  1.00  0.00    -0.198 OA
HETATM   10  C11 UNL     1      -2.775  -0.375  -0.109  1.00  0.00     0.229 C 
HETATM   11  C12 UNL     1      -3.495   0.869  -0.529  1.00  0.00     0.074 C 
HETATM   12  C13 UNL     1      -4.355   1.408   0.568  1.00  0.00     0.006 C 
HETATM   13  C14 UNL     1      -5.769   0.928   0.388  1.00  0.00     0.000 C 
HETATM   14  C15 UNL     1      -5.916  -0.547   0.667  1.00  0.00     0.000 C 
HETATM   15  C16 UNL     1      -5.066  -1.392  -0.246  1.00  0.00     0.006 C 
HETATM   16  C17 UNL     1      -3.651  -1.509   0.260  1.00  0.00     0.074 C 
HETATM   17  O3  UNL     1      -1.868  -0.690  -1.150  1.00  0.00    -0.197 OA
HETATM   18  O4  UNL     1      -1.014   0.323  -1.152  1.00  0.00    -0.224 OA
ENDROOT
BRANCH   1  19
HETATM   19  C3  UNL     1       4.453   0.465   0.000  1.00  0.00     0.124 C 
BRANCH  19  20
HETATM   20  N1  UNL     1       5.312   0.143  -1.139  1.00  0.00    -0.384 N 
ATOM     21  H1  UNL     1       4.918   0.102  -2.079  1.00  0.00     0.160 HD
BRANCH  20  22
HETATM   22  C2  UNL     1       6.693  -0.113  -0.939  1.00  0.00     0.069 C 
HETATM   23  C1  UNL     1       7.273  -0.056   0.424  1.00  0.00     0.081 C 
HETATM   24  S1  UNL     1       7.663  -0.473  -2.194  1.00  0.00    -0.066 SA
ENDBRANCH  20  22
ENDBRANCH  19  20
ENDBRANCH   1  19
TORSDOF 3
