REMARK  4 active torsions:
REMARK  status: ('A' for Active; 'I' for Inactive)
REMARK    1  A    between atoms: N1_5  and  C5_6 
REMARK    2  A    between atoms: C8_9  and  C9_10 
REMARK    3  A    between atoms: C13_17  and  C14_18 
REMARK    4  A    between atoms: C14_18  and  C15_19 
ROOT
HETATM    1  C1  UNL     1       1.054   1.573  -2.013  1.00  0.00     0.024 C 
HETATM    2  C2  UNL     1      -0.014   1.162  -1.391  1.00  0.00    -0.029 A 
HETATM    3  C3  UNL     1      -1.189   1.853  -1.741  1.00  0.00     0.029 A 
HETATM    4  C4  UNL     1      -2.369   1.492  -1.138  1.00  0.00     0.101 A 
HETATM    5  N1  UNL     1      -2.388   0.504  -0.240  1.00  0.00    -0.289 N 
HETATM    6  C12 UNL     1      -1.293  -0.166   0.112  1.00  0.00     0.263 A 
HETATM    7  O3  UNL     1      -1.385  -1.109   0.988  1.00  0.00    -0.267 OA
HETATM    8  C13 UNL     1      -0.049   0.150  -0.466  1.00  0.00     0.043 A 
ENDROOT
BRANCH   8   9
HETATM    9  C14 UNL     1       0.950  -0.542  -0.072  1.00  0.00     0.029 C 
BRANCH   9  10
HETATM   10  C15 UNL     1       2.364  -0.630  -0.323  1.00  0.00    -0.034 A 
HETATM   11  C16 UNL     1       2.893  -1.484  -1.301  1.00  0.00     0.014 A 
HETATM   12  C17 UNL     1       4.254  -1.590  -1.484  1.00  0.00     0.031 A 
HETATM   13  C18 UNL     1       5.142  -0.859  -0.710  1.00  0.00     0.045 A 
HETATM   14  N2  UNL     1       6.469  -0.966  -0.893  1.00  0.00    -0.323 N 
HETATM   15  C22 UNL     1       4.657  -0.011   0.260  1.00  0.00    -0.008 A 
HETATM   16  C19 UNL     1       7.345  -0.264  -0.150  1.00  0.00     0.245 A 
ATOM     17  H2  UNL     1       6.822  -1.596  -1.614  1.00  0.00     0.169 HD
HETATM   18  O4  UNL     1       8.586  -0.396  -0.356  1.00  0.00    -0.268 OA
HETATM   19  C20 UNL     1       6.918   0.606   0.841  1.00  0.00     0.075 A 
HETATM   20  C21 UNL     1       5.556   0.719   1.032  1.00  0.00     0.019 A 
HETATM   21  C23 UNL     1       3.301   0.085   0.430  1.00  0.00     0.025 A 
ENDBRANCH   9  10
ENDBRANCH   8   9
BRANCH   5  22
HETATM   22  C5  UNL     1      -3.611   0.141   0.375  1.00  0.00     0.042 A 
HETATM   23  C6  UNL     1      -4.164   0.946   1.341  1.00  0.00     0.031 A 
HETATM   24  C7  UNL     1      -5.369   0.597   1.954  1.00  0.00     0.020 A 
HETATM   25  C8  UNL     1      -5.998  -0.568   1.576  1.00  0.00     0.041 A 
HETATM   26  C10 UNL     1      -5.450  -1.390   0.600  1.00  0.00     0.020 A 
HETATM   27  C11 UNL     1      -4.254  -1.008   0.018  1.00  0.00     0.031 A 
BRANCH  25  28
HETATM   28  C9  UNL     1      -7.246  -0.945   2.199  1.00  0.00     0.209 C 
HETATM   29  O1  UNL     1      -7.751  -0.222   3.073  1.00  0.00    -0.644 OA
HETATM   30  O2  UNL     1      -7.885  -2.115   1.824  1.00  0.00    -0.644 OA
ENDBRANCH  25  28
ENDBRANCH   5  22
TORSDOF 4
