REMARK  3 active torsions:
REMARK  status: ('A' for Active; 'I' for Inactive)
REMARK    1  A    between atoms: C2_2  and  N1_3 
REMARK    2  A    between atoms: C6_7  and  S1_8 
REMARK    3  A    between atoms: S1_8  and  C7_11 
ROOT
HETATM    1  N1  UNL     1       0.640   1.817   0.023  1.00  0.00    -0.365 N 
HETATM    2  C3  UNL     1       1.950   1.546   0.058  1.00  0.00     0.098 A 
HETATM    3  C4  UNL     1       2.408   0.248   0.288  1.00  0.00    -0.023 A 
HETATM    4  C5  UNL     1       1.450  -0.754   0.479  1.00  0.00     0.062 A 
HETATM    5  C6  UNL     1       0.091  -0.453   0.440  1.00  0.00     0.096 A 
HETATM    6  C14 UNL     1      -0.298   0.879   0.203  1.00  0.00     0.115 A 
HETATM    7  C15 UNL     1       1.926  -2.110   0.708  1.00  0.00     0.254 C 
HETATM    8  O4  UNL     1       1.137  -3.042   0.886  1.00  0.00    -0.268 OA
HETATM    9  N3  UNL     1       3.332  -2.398   0.732  1.00  0.00    -0.348 N 
ATOM     10  H3  UNL     1       3.690  -3.232   1.197  1.00  0.00     0.163 HD
HETATM   11  C16 UNL     1       4.225  -1.469   0.076  1.00  0.00     0.030 C 
HETATM   12  C17 UNL     1       4.283  -1.751  -1.433  1.00  0.00     0.038 C 
HETATM   13  C18 UNL     1       5.620  -1.721   0.593  1.00  0.00     0.038 C 
HETATM   14  C19 UNL     1       3.842  -0.050   0.341  1.00  0.00     0.071 C 
ENDROOT
BRANCH   5  15
HETATM   15  S1  UNL     1      -1.107  -1.679   0.667  1.00  0.00     0.215 S 
HETATM   16  O1  UNL     1      -1.201  -2.259   2.037  1.00  0.00    -0.217 OA
HETATM   17  O2  UNL     1      -1.194  -2.682  -0.441  1.00  0.00    -0.217 OA
BRANCH  15  18
HETATM   18  C7  UNL     1      -2.676  -0.836   0.558  1.00  0.00     0.138 A 
HETATM   19  C8  UNL     1      -3.251  -0.710  -0.690  1.00  0.00    -0.033 A 
HETATM   20  C9  UNL     1      -2.688  -1.212  -1.942  1.00  0.00     0.050 C 
HETATM   21  C10 UNL     1      -4.470  -0.035  -0.718  1.00  0.00     0.033 A 
HETATM   22  C11 UNL     1      -5.038   0.461   0.430  1.00  0.00     0.009 A 
HETATM   23  C12 UNL     1      -6.346   1.179   0.369  1.00  0.00     0.068 C 
HETATM   24  N2  UNL     1      -4.440   0.313   1.618  1.00  0.00    -0.326 N 
HETATM   25  C13 UNL     1      -3.262  -0.331   1.702  1.00  0.00     0.268 A 
ATOM     26  H2  UNL     1      -4.877   0.688   2.460  1.00  0.00     0.169 HD
HETATM   27  O3  UNL     1      -2.699  -0.466   2.846  1.00  0.00    -0.267 OA
ENDBRANCH  15  18
ENDBRANCH   5  15
BRANCH   1  28
HETATM   28  C2  UNL     1       0.218   3.199  -0.223  1.00  0.00     0.123 C 
HETATM   29  C1  UNL     1       0.077   3.961   1.074  1.00  0.00     0.027 C 
ENDBRANCH   1  28
TORSDOF 3
