REMARK  6 active torsions:
REMARK  status: ('A' for Active; 'I' for Inactive)
REMARK    1  A    between atoms: C4_8  and  C5_9 
REMARK    2  A    between atoms: C5_9  and  C6_10 
REMARK    3  A    between atoms: C9_13  and  O3_14 
REMARK    4  A    between atoms: C10_16  and  O4_17 
REMARK    5  A    between atoms: C11_19  and  C12_20 
REMARK    6  A    between atoms: C12_20  and  C13_21 
ROOT
HETATM    1  C6  UNL     1      -2.586  -0.594  -0.837  1.00  0.00    -0.026 A 
HETATM    2  C7  UNL     1      -3.330  -1.405  -1.698  1.00  0.00     0.015 A 
HETATM    3  C8  UNL     1      -3.682  -2.658  -1.307  1.00  0.00     0.040 A 
HETATM    4  C9  UNL     1      -3.316  -3.155  -0.059  1.00  0.00     0.099 A 
HETATM    5  C10 UNL     1      -2.587  -2.358   0.784  1.00  0.00     0.106 A 
HETATM    6  C11 UNL     1      -2.223  -1.083   0.396  1.00  0.00    -0.008 A 
ENDROOT
BRANCH   6   7
HETATM    7  C12 UNL     1      -1.426  -0.235   1.364  1.00  0.00     0.081 C 
BRANCH   7   8
HETATM    8  C13 UNL     1      -0.002  -0.141   0.994  1.00  0.00    -0.053 A 
HETATM    9  C14 UNL     1       0.817  -1.255   1.077  1.00  0.00     0.010 A 
HETATM   10  C15 UNL     1       2.183  -1.203   0.769  1.00  0.00     0.031 A 
HETATM   11  C16 UNL     1       2.755  -0.033   0.372  1.00  0.00     0.044 A 
HETATM   12  C17 UNL     1       1.959   1.088   0.283  1.00  0.00    -0.009 A 
HETATM   13  N2  UNL     1       4.071  -0.001   0.079  1.00  0.00    -0.354 N 
HETATM   14  C18 UNL     1       2.575   2.271  -0.126  1.00  0.00     0.015 A 
HETATM   15  C23 UNL     1       0.616   1.037   0.586  1.00  0.00     0.021 A 
HETATM   16  C19 UNL     1       3.923   2.283  -0.421  1.00  0.00     0.025 A 
HETATM   17  C20 UNL     1       4.695   1.143  -0.323  1.00  0.00     0.007 A 
HETATM   18  C21 UNL     1       6.139   1.165  -0.641  1.00  0.00     0.068 C 
HETATM   19  C22 UNL     1       4.872  -1.200   0.185  1.00  0.00     0.156 C 
ENDBRANCH   7   8
ENDBRANCH   6   7
BRANCH   1  20
HETATM   20  C5  UNL     1      -2.198   0.728  -1.271  1.00  0.00     0.032 C 
BRANCH  20  21
HETATM   21  C4  UNL     1      -2.773   1.887  -1.118  1.00  0.00     0.070 A 
HETATM   22  C2  UNL     1      -3.938   2.259  -0.499  1.00  0.00     0.062 A 
HETATM   23  C1  UNL     1      -4.822   1.514   0.108  1.00  0.00     0.046 C 
HETATM   24  N1  UNL     1      -4.074   3.624  -0.614  1.00  0.00    -0.257 N 
HETATM   25  O1  UNL     1      -3.062   4.070  -1.261  1.00  0.00    -0.194 OA
ATOM     26  H1  UNL     1      -4.845   4.182  -0.248  1.00  0.00     0.195 HD
HETATM   27  C3  UNL     1      -2.247   3.117  -1.595  1.00  0.00     0.317 A 
HETATM   28  O2  UNL     1      -1.191   3.235  -2.222  1.00  0.00    -0.257 OA
ENDBRANCH  20  21
ENDBRANCH   1  20
BRANCH   5  29
HETATM   29  O4  UNL     1      -2.209  -2.843   2.054  1.00  0.00    -0.357 OA
ATOM     30  H4  UNL     1      -1.704  -2.290   2.638  1.00  0.00     0.217 HD
ENDBRANCH   5  29
BRANCH   4  31
HETATM   31  O3  UNL     1      -3.680  -4.433   0.333  1.00  0.00    -0.358 OA
ATOM     32  H3  UNL     1      -3.430  -4.772   1.185  1.00  0.00     0.217 HD
ENDBRANCH   4  31
TORSDOF 6
