REMARK  5 active torsions:
REMARK  status: ('A' for Active; 'I' for Inactive)
REMARK    1  A    between atoms: C5_5  and  S1_6 
REMARK    2  A    between atoms: S1_6  and  N1_9 
REMARK    3  A    between atoms: N1_9  and  C6_11 
REMARK    4  A    between atoms: C11_16  and  S2_17 
REMARK    5  A    between atoms: S2_17  and  N2_18 
ROOT
HETATM    1  C6  UNL     1       0.304   0.036   0.180  1.00  0.00     0.115 A 
HETATM    2  C7  UNL     1       0.827   0.065   1.449  1.00  0.00     0.050 A 
HETATM    3  C8  UNL     1       2.195   0.094   1.627  1.00  0.00     0.017 A 
HETATM    4  C9  UNL     1       3.031   0.094   0.535  1.00  0.00    -0.008 A 
HETATM    5  C10 UNL     1       4.397   0.123   0.719  1.00  0.00     0.038 A 
HETATM    6  C11 UNL     1       5.237   0.124  -0.372  1.00  0.00     0.080 A 
HETATM    7  C12 UNL     1       4.691   0.094  -1.634  1.00  0.00     0.027 A 
HETATM    8  C13 UNL     1       3.309   0.065  -1.802  1.00  0.00     0.032 A 
HETATM    9  C14 UNL     1       2.455   0.065  -0.720  1.00  0.00     0.044 A 
HETATM   10  N3  UNL     1       1.125   0.036  -0.896  1.00  0.00    -0.341 N 
ATOM     11  H3  UNL     1       0.734   0.014  -1.838  1.00  0.00     0.167 HD
ENDROOT
BRANCH   1  12
HETATM   12  N1  UNL     1      -0.971   0.009   0.033  1.00  0.00    -0.266 N 
ATOM     13  H1  UNL     1      -1.327  -0.012  -0.923  1.00  0.00     0.180 HD
BRANCH  12  14
HETATM   14  S1  UNL     1      -2.120   0.005   1.287  1.00  0.00     0.264 S 
HETATM   15  O1  UNL     1      -1.895  -1.223   2.130  1.00  0.00    -0.200 OA
HETATM   16  O2  UNL     1      -1.986   1.203   2.216  1.00  0.00    -0.200 OA
BRANCH  14  17
HETATM   17  C5  UNL     1      -3.748  -0.021   0.597  1.00  0.00     0.079 A 
HETATM   18  C4  UNL     1      -4.426   1.143   0.307  1.00  0.00     0.026 A 
HETATM   19  C3  UNL     1      -5.700   1.100  -0.233  1.00  0.00     0.008 A 
HETATM   20  C2  UNL     1      -6.339  -0.091  -0.500  1.00  0.00    -0.062 A 
HETATM   21  C1  UNL     1      -7.716  -0.135  -1.083  1.00  0.00     0.048 C 
HETATM   22  C16 UNL     1      -5.664  -1.257  -0.211  1.00  0.00     0.008 A 
HETATM   23  C15 UNL     1      -4.390  -1.211   0.328  1.00  0.00     0.026 A 
ENDBRANCH  14  17
ENDBRANCH  12  14
ENDBRANCH   1  12
BRANCH   6  24
HETATM   24  S2  UNL     1       6.989   0.161  -0.155  1.00  0.00     0.256 S 
HETATM   25  O3  UNL     1       7.629  -0.546  -1.293  1.00  0.00    -0.201 OA
HETATM   26  O4  UNL     1       7.322  -0.540   1.131  1.00  0.00    -0.201 OA
BRANCH  24  27
HETATM   27  N2  UNL     1       7.516   1.803  -0.110  1.00  0.00    -0.324 N 
ATOM     28  H22 UNL     1       6.901   2.612  -0.196  1.00  0.00     0.169 HD
ATOM     29  H21 UNL     1       8.528   1.824   0.015  1.00  0.00     0.169 HD
ENDBRANCH  24  27
ENDBRANCH   6  24
TORSDOF 5
