REMARK  3 active torsions:
REMARK  status: ('A' for Active; 'I' for Inactive)
REMARK    1  A    between atoms: C2_2  and  O2_4 
REMARK    2  A    between atoms: O2_4  and  C3_5 
REMARK    3  A    between atoms: C17_21  and  O5_22 
ROOT
HETATM    1  C3  UNL     1       2.465   0.044  -0.025  1.00  0.00     0.194 C 
HETATM    2  C4  UNL     1       2.664   1.065   1.069  1.00  0.00     0.039 C 
HETATM    3  C5  UNL     1       1.709   2.195   1.017  1.00  0.00     0.012 C 
HETATM    4  C6  UNL     1       0.398   1.912   0.381  1.00  0.00    -0.036 C 
HETATM    5  C7  UNL     1       0.394   2.503  -0.995  1.00  0.00     0.015 C 
HETATM    6  C8  UNL     1      -0.665   2.679   1.183  1.00  0.00     0.015 C 
HETATM    7  C9  UNL     1       0.024   0.472   0.442  1.00  0.00     0.088 C 
HETATM    8  C10 UNL     1      -1.244   0.153  -0.294  1.00  0.00     0.139 C 
HETATM    9  O3  UNL     1      -2.399   0.454   0.353  1.00  0.00    -0.375 OA
HETATM   10  C11 UNL     1      -3.398  -0.398  -0.045  1.00  0.00     0.054 C 
HETATM   11  C12 UNL     1      -3.899  -1.130   1.194  1.00  0.00     0.045 C 
HETATM   12  C13 UNL     1      -4.564   0.278  -0.700  1.00  0.00     0.045 C 
HETATM   13  C14 UNL     1      -2.763  -1.444  -0.971  1.00  0.00     0.046 C 
HETATM   14  C15 UNL     1      -1.340  -1.377  -0.397  1.00  0.00     0.042 C 
HETATM   15  C16 UNL     1      -0.301  -1.829  -1.341  1.00  0.00     0.178 C 
HETATM   16  O4  UNL     1       0.760  -0.892  -1.332  1.00  0.00    -0.352 OA
HETATM   17  C17 UNL     1       1.063  -0.489  -0.026  1.00  0.00     0.195 C 
ENDROOT
BRANCH   1  18
HETATM   18  O2  UNL     1       3.364  -1.017   0.236  1.00  0.00    -0.311 OA
BRANCH  18  19
HETATM   19  C2  UNL     1       4.343  -1.385  -0.663  1.00  0.00     0.255 C 
HETATM   20  C1  UNL     1       5.276  -2.503  -0.368  1.00  0.00     0.126 C 
HETATM   21  O1  UNL     1       4.433  -0.755  -1.743  1.00  0.00    -0.266 OA
ENDBRANCH  18  19
ENDBRANCH   1  18
BRANCH  17  22
HETATM   22  O5  UNL     1       1.063  -1.639   0.798  1.00  0.00    -0.363 OA
ATOM     23  H5  UNL     1       0.175  -1.977   0.797  1.00  0.00     0.213 HD
ENDBRANCH  17  22
TORSDOF 3
