REMARK  4 active torsions:
REMARK  status: ('A' for Active; 'I' for Inactive)
REMARK    1  A    between atoms: C2_2  and  O2_4 
REMARK    2  A    between atoms: O2_4  and  C3_5 
REMARK    3  A    between atoms: C13_17  and  C15_19 
REMARK    4  A    between atoms: C15_19  and  O5_22 
ROOT
HETATM    1  C3  UNL     1       1.915   0.226  -0.336  1.00  0.00     0.134 C 
HETATM    2  C4  UNL     1       2.010  -1.255  -0.483  1.00  0.00     0.065 C 
HETATM    3  C5  UNL     1       0.697  -1.984  -0.306  1.00  0.00     0.134 C 
HETATM    4  O3  UNL     1      -0.106  -1.762  -1.394  1.00  0.00    -0.371 OA
HETATM    5  C6  UNL     1      -1.413  -1.371  -1.094  1.00  0.00     0.202 C 
HETATM    6  C7  UNL     1      -2.005  -2.216  -0.033  1.00  0.00     0.157 C 
HETATM    7  O4  UNL     1      -3.084  -2.709  -0.169  1.00  0.00    -0.295 OA
HETATM    8  C8  UNL     1      -1.175  -2.399   1.179  1.00  0.00     0.093 C 
HETATM    9  C9  UNL     1       0.032  -1.507   0.958  1.00  0.00    -0.006 C 
HETATM   10  C10 UNL     1       0.885  -1.556   2.168  1.00  0.00     0.018 C 
HETATM   11  C11 UNL     1      -0.397  -0.063   0.648  1.00  0.00     0.013 C 
HETATM   12  C12 UNL     1       0.862   0.727   0.592  1.00  0.00     0.039 C 
HETATM   13  C13 UNL     1      -1.317   0.048  -0.502  1.00  0.00     0.024 C 
HETATM   14  C14 UNL     1      -0.845   0.920  -1.633  1.00  0.00     0.022 C 
ENDROOT
BRANCH  13  15
HETATM   15  C15 UNL     1      -2.663   0.571  -0.076  1.00  0.00     0.061 C 
HETATM   16  C16 UNL     1      -3.661   0.655  -1.186  1.00  0.00     0.046 C 
HETATM   17  C17 UNL     1      -2.409   2.012   0.395  1.00  0.00     0.046 C 
BRANCH  15  18
HETATM   18  O5  UNL     1      -3.226  -0.079   0.992  1.00  0.00    -0.390 OA
ATOM     19  H5  UNL     1      -4.075   0.251   1.261  1.00  0.00     0.210 HD
ENDBRANCH  15  18
ENDBRANCH  13  15
BRANCH   1  20
HETATM   20  O2  UNL     1       3.160   0.769   0.139  1.00  0.00    -0.316 OA
BRANCH  20  21
HETATM   21  C2  UNL     1       3.961   1.602  -0.596  1.00  0.00     0.255 C 
HETATM   22  C1  UNL     1       5.251   2.164  -0.103  1.00  0.00     0.126 C 
HETATM   23  O1  UNL     1       3.544   1.894  -1.770  1.00  0.00    -0.266 OA
ENDBRANCH  20  21
ENDBRANCH   1  20
TORSDOF 4
