REMARK  6 active torsions:
REMARK  status: ('A' for Active; 'I' for Inactive)
REMARK    1  A    between atoms: N1_1  and  C1_5 
REMARK    2  A    between atoms: C1_5  and  C2_6 
REMARK    3  A    between atoms: C2_6  and  N2_7 
REMARK       I    between atoms: N2_7  and  C3_9 
REMARK    4  A    between atoms: C3_9  and  C4_11 
REMARK    5  A    between atoms: C12_19  and  C13_20 
REMARK    6  A    between atoms: C14_21  and  C15_22 
ROOT
HETATM    1  C4  UNL     1       1.235  -1.034   0.642  1.00  0.00     0.061 C 
HETATM    2  C5  UNL     1       2.399  -1.963   0.533  1.00  0.00     0.025 C 
HETATM    3  C6  UNL     1       1.935  -3.350   0.134  1.00  0.00    -0.013 C 
HETATM    4  C7  UNL     1       0.960  -3.920   1.097  1.00  0.00     0.010 C 
HETATM    5  C8  UNL     1      -0.430  -3.409   1.002  1.00  0.00    -0.008 C 
HETATM    6  C9  UNL     1      -0.911  -3.508  -0.455  1.00  0.00     0.011 C 
HETATM    7  C10 UNL     1       0.030  -2.459  -1.071  1.00  0.00     0.008 C 
HETATM    8  C11 UNL     1       1.343  -3.162  -1.269  1.00  0.00     0.011 C 
HETATM    9  C12 UNL     1       0.021  -1.379  -0.080  1.00  0.00     0.047 C 
HETATM   10  C20 UNL     1      -0.563  -1.931   1.228  1.00  0.00     0.013 C 
HETATM   11  C21 UNL     1       0.527  -1.246   1.964  1.00  0.00     0.027 C 
ENDROOT
BRANCH   1  12
HETATM   12  C3  UNL     1       1.701   0.389   0.548  1.00  0.00     0.228 C 
HETATM   13  N2  UNL     1       2.377   0.848  -0.609  1.00  0.00    -0.359 N 
ATOM     14  H2  UNL     1       2.522   0.162  -1.350  1.00  0.00     0.162 HD
HETATM   15  O1  UNL     1       1.496   1.189   1.496  1.00  0.00    -0.273 OA
BRANCH  13  16
HETATM   16  C2  UNL     1       2.875   2.154  -0.853  1.00  0.00     0.150 C 
BRANCH  16  17
HETATM   17  C1  UNL     1       1.789   3.195  -0.846  1.00  0.00     0.249 C 
BRANCH  17  18
HETATM   18  N1  UNL     1       2.319   4.522  -1.104  1.00  0.00    -0.078 N 
ATOM     19  H13 UNL     1       3.066   4.758  -0.451  1.00  0.00     0.274 HD
ATOM     20  H12 UNL     1       2.854   4.547  -1.972  1.00  0.00     0.274 HD
ATOM     21  H11 UNL     1       1.583   5.228  -1.099  1.00  0.00     0.274 HD
ENDBRANCH  17  18
ENDBRANCH  16  17
ENDBRANCH  13  16
ENDBRANCH   1  12
BRANCH   9  22
HETATM   22  C13 UNL     1      -0.738  -0.165  -0.474  1.00  0.00    -0.094 C 
HETATM   23  C14 UNL     1      -1.373   0.811  -0.786  1.00  0.00    -0.101 C 
BRANCH  23  24
HETATM   24  C15 UNL     1      -2.169   1.991  -1.159  1.00  0.00     0.065 C 
HETATM   25  C16 UNL     1      -3.641   1.650  -1.252  1.00  0.00     0.017 C 
HETATM   26  C17 UNL     1      -4.156   2.024   0.107  1.00  0.00     0.001 C 
HETATM   27  C18 UNL     1      -3.422   3.337   0.369  1.00  0.00     0.001 C 
HETATM   28  C19 UNL     1      -2.021   2.985  -0.037  1.00  0.00     0.017 C 
ENDBRANCH  23  24
ENDBRANCH   9  22
TORSDOF 6
