REMARK  4 active torsions:
REMARK  status: ('A' for Active; 'I' for Inactive)
REMARK    1  A    between atoms: C1_2  and  O2_3 
REMARK    2  A    between atoms: C1_2  and  C10_15 
REMARK    3  A    between atoms: O2_3  and  C2_4 
REMARK       I    between atoms: N2_18  and  C13_19 
REMARK       I    between atoms: C13_19  and  N3_21 
REMARK    4  A    between atoms: N3_21  and  C14_23 
ROOT
HETATM    1  O1  UNL     1      -0.729   2.205   0.020  1.00  0.00    -0.265 OA
HETATM    2  C1  UNL     1      -0.400   0.991   0.022  1.00  0.00     0.263 C 
ENDROOT
BRANCH   2   3
HETATM    3  O2  UNL     1      -1.432   0.080  -0.143  1.00  0.00    -0.316 OA
BRANCH   3   4
HETATM    4  C2  UNL     1      -2.796   0.439  -0.308  1.00  0.00     0.136 C 
HETATM    5  C3  UNL     1      -3.651  -0.022   0.821  1.00  0.00     0.065 C 
HETATM    6  C4  UNL     1      -4.592  -1.115   0.567  1.00  0.00     0.189 C 
HETATM    7  C5  UNL     1      -6.021  -0.709   0.962  1.00  0.00     0.033 C 
HETATM    8  N1  UNL     1      -4.724  -1.540  -0.807  1.00  0.00    -0.067 N 
HETATM    9  C6  UNL     1      -6.462   0.408   0.096  1.00  0.00     0.004 C 
HETATM   10  C7  UNL     1      -5.638   0.728  -1.073  1.00  0.00     0.033 C 
HETATM   11  C8  UNL     1      -4.750  -0.333  -1.607  1.00  0.00     0.189 C 
HETATM   12  C9  UNL     1      -3.302   0.109  -1.677  1.00  0.00     0.065 C 
ATOM     13  H12 UNL     1      -4.004  -2.202  -1.097  1.00  0.00     0.278 HD
ATOM     14  H11 UNL     1      -5.527  -2.149  -0.967  1.00  0.00     0.278 HD
ENDBRANCH   3   4
ENDBRANCH   2   3
BRANCH   2  15
HETATM   15  C10 UNL     1       1.016   0.574   0.193  1.00  0.00     0.088 C 
HETATM   16  C11 UNL     1       1.183  -0.288   1.413  1.00  0.00     0.034 C 
HETATM   17  C12 UNL     1       2.305  -1.266   1.133  1.00  0.00     0.128 C 
HETATM   18  N2  UNL     1       3.366  -0.661   0.365  1.00  0.00    -0.334 N 
HETATM   19  C13 UNL     1       4.674  -0.536   0.875  1.00  0.00     0.318 C 
HETATM   20  C17 UNL     1       3.066  -0.177  -0.955  1.00  0.00     0.128 C 
HETATM   21  O3  UNL     1       4.953  -0.955   2.034  1.00  0.00    -0.247 OA
HETATM   22  N3  UNL     1       5.684   0.059   0.095  1.00  0.00    -0.338 N 
ATOM     23  H3  UNL     1       5.473   0.402  -0.842  1.00  0.00     0.164 HD
HETATM   24  C18 UNL     1       1.538  -0.094  -1.058  1.00  0.00     0.034 C 
BRANCH  22  25
HETATM   25  C14 UNL     1       7.023   0.181   0.631  1.00  0.00     0.086 A 
HETATM   26  C15 UNL     1       7.793   1.459   0.321  1.00  0.00     0.027 A 
HETATM   27  C16 UNL     1       8.173   0.179  -0.312  1.00  0.00     0.027 A 
ENDBRANCH  22  25
ENDBRANCH   2  15
TORSDOF 4
