REMARK  3 active torsions:
REMARK  status: ('A' for Active; 'I' for Inactive)
REMARK    1  A    between atoms: N1_8  and  N2_9 
REMARK       I    between atoms: N2_9  and  C8_11 
REMARK    2  A    between atoms: C8_11  and  C9_13 
REMARK       I    between atoms: C9_13  and  N3_15 
REMARK    3  A    between atoms: N3_15  and  C10_17 
ROOT
HETATM    1  C9  UNL     1      -0.318  -0.127   0.028  1.00  0.00     0.311 C 
HETATM    2  O2  UNL     1      -0.425  -1.218   0.623  1.00  0.00    -0.262 OA
HETATM    3  N3  UNL     1      -1.432   0.650  -0.379  1.00  0.00    -0.344 N 
ATOM      4  H3  UNL     1      -1.255   1.530  -0.863  1.00  0.00     0.163 HD
ENDROOT
BRANCH   1   5
HETATM    5  C8  UNL     1       1.012   0.411  -0.287  1.00  0.00     0.327 C 
HETATM    6  N2  UNL     1       2.161  -0.298   0.085  1.00  0.00    -0.263 N 
ATOM      7  H2  UNL     1       2.048  -1.191   0.565  1.00  0.00     0.190 HD
HETATM    8  O1  UNL     1       1.147   1.504  -0.887  1.00  0.00    -0.261 OA
BRANCH   6   9
HETATM    9  N1  UNL     1       3.451   0.160  -0.170  1.00  0.00    -0.316 N 
HETATM   10  C2  UNL     1       4.062  -0.544  -1.205  1.00  0.00     0.098 C 
HETATM   11  C1  UNL     1       4.249   0.313  -2.478  1.00  0.00     0.034 C 
HETATM   12  C3  UNL     1       5.338  -1.280  -0.901  1.00  0.00     0.026 C 
HETATM   13  C4  UNL     1       5.966  -0.908   0.400  1.00  0.00     0.004 C 
HETATM   14  C5  UNL     1       4.955  -0.630   1.486  1.00  0.00     0.026 C 
HETATM   15  C6  UNL     1       4.091   0.494   1.018  1.00  0.00     0.098 C 
HETATM   16  C7  UNL     1       4.874   1.786   1.002  1.00  0.00     0.034 C 
ENDBRANCH   6   9
ENDBRANCH   1   5
BRANCH   3  17
HETATM   17  C10 UNL     1      -2.809   0.261  -0.144  1.00  0.00     0.034 C 
HETATM   18  C11 UNL     1      -3.657   1.385  -0.723  1.00  0.00     0.035 C 
HETATM   19  C12 UNL     1      -5.116   1.060  -0.548  1.00  0.00    -0.012 C 
HETATM   20  C13 UNL     1      -5.365  -0.250  -1.248  1.00  0.00     0.009 C 
HETATM   21  C17 UNL     1      -5.378   1.001   0.938  1.00  0.00     0.009 C 
HETATM   22  C14 UNL     1      -4.589  -1.377  -0.613  1.00  0.00    -0.012 C 
HETATM   23  C15 UNL     1      -4.958  -1.425   0.854  1.00  0.00     0.009 C 
HETATM   24  C19 UNL     1      -3.117  -1.050  -0.783  1.00  0.00     0.035 C 
HETATM   25  C16 UNL     1      -4.572  -0.128   1.515  1.00  0.00    -0.012 C 
HETATM   26  C18 UNL     1      -3.116   0.181   1.343  1.00  0.00     0.035 C 
ENDBRANCH   3  17
TORSDOF 3
