REMARK  5 active torsions:
REMARK  status: ('A' for Active; 'I' for Inactive)
REMARK    1  A    between atoms: C2_2  and  C3_3 
REMARK    2  A    between atoms: C2_2  and  N3_21 
REMARK       I    between atoms: C3_3  and  N1_5 
REMARK    3  A    between atoms: N1_5  and  C4_7 
REMARK    4  A    between atoms: C4_7  and  C5_8 
REMARK       I    between atoms: C5_8  and  N2_10 
REMARK    5  A    between atoms: N2_10  and  C6_12 
ROOT
HETATM    1  C4  UNL     1      -1.360   1.033  -0.406  1.00  0.00     0.114 C 
HETATM    2  C10 UNL     1      -2.173   1.779  -1.449  1.00  0.00     0.041 C 
HETATM    3  C11 UNL     1      -2.714   3.087  -0.989  1.00  0.00     0.003 C 
HETATM    4  C12 UNL     1      -1.738   4.008  -0.342  1.00  0.00     0.000 C 
HETATM    5  C13 UNL     1      -0.795   3.239   0.539  1.00  0.00     0.003 C 
HETATM    6  C14 UNL     1      -1.426   1.895   0.845  1.00  0.00     0.041 C 
ENDROOT
BRANCH   1   7
HETATM    7  N1  UNL     1       0.006   0.978  -0.821  1.00  0.00    -0.341 N 
HETATM    8  C3  UNL     1       1.088   0.456  -0.076  1.00  0.00     0.241 C 
HETATM    9  O1  UNL     1       0.857  -0.009   1.062  1.00  0.00    -0.271 OA
ATOM     10  H1  UNL     1       0.222   1.352  -1.745  1.00  0.00     0.163 HD
BRANCH   8  11
HETATM   11  C2  UNL     1       2.487   0.423  -0.557  1.00  0.00     0.171 C 
HETATM   12  C1  UNL     1       2.535  -0.209  -1.924  1.00  0.00     0.042 C 
BRANCH  11  13
HETATM   13  N3  UNL     1       3.378  -0.132   0.382  1.00  0.00    -0.380 N 
HETATM   14  C15 UNL     1       3.241  -1.479   0.755  1.00  0.00     0.059 C 
HETATM   15  C16 UNL     1       4.531  -2.209   1.029  1.00  0.00     0.044 C 
HETATM   16  C17 UNL     1       5.667  -1.818   0.161  1.00  0.00     0.007 C 
HETATM   17  C18 UNL     1       5.767  -0.352  -0.125  1.00  0.00     0.020 C 
HETATM   18  C19 UNL     1       4.662   0.452   0.472  1.00  0.00     0.123 C 
ENDBRANCH  11  13
ENDBRANCH   8  11
ENDBRANCH   1   7
BRANCH   1  19
HETATM   19  C5  UNL     1      -1.949  -0.307  -0.127  1.00  0.00     0.246 C 
HETATM   20  O2  UNL     1      -1.291  -1.369  -0.265  1.00  0.00    -0.271 OA
HETATM   21  N2  UNL     1      -3.281  -0.424   0.307  1.00  0.00    -0.351 N 
ATOM     22  H2  UNL     1      -3.832   0.426   0.426  1.00  0.00     0.163 HD
BRANCH  21  23
HETATM   23  C6  UNL     1      -3.902  -1.692   0.591  1.00  0.00     0.022 C 
HETATM   24  C7  UNL     1      -3.866  -2.516  -0.700  1.00  0.00     0.037 C 
HETATM   25  C8  UNL     1      -5.361  -1.541   0.961  1.00  0.00     0.037 C 
HETATM   26  C9  UNL     1      -3.217  -2.456   1.685  1.00  0.00     0.037 C 
ENDBRANCH  21  23
ENDBRANCH   1  19
TORSDOF 5
