REMARK  7 active torsions:
REMARK  status: ('A' for Active; 'I' for Inactive)
REMARK    1  A    between atoms: C2_2  and  O1_4 
REMARK    2  A    between atoms: C2_2  and  C4_6 
REMARK    3  A    between atoms: C4_6  and  C5_7 
REMARK    4  A    between atoms: C6_8  and  C7_9 
REMARK    5  A    between atoms: C7_9  and  N1_10 
REMARK       I    between atoms: N2_13  and  C10_14 
REMARK       I    between atoms: C10_14  and  N3_16 
REMARK    6  A    between atoms: N3_16  and  C11_18 
REMARK    7  A    between atoms: C11_18  and  C14_21 
ROOT
HETATM    1  N1  UNL     1       1.593  -0.263   1.173  1.00  0.00     0.102 N 
HETATM    2  C8  UNL     1       1.316   1.115   0.858  1.00  0.00     0.293 C 
HETATM    3  C9  UNL     1       0.371   1.298  -0.283  1.00  0.00     0.158 C 
HETATM    4  N2  UNL     1      -0.688   0.338  -0.290  1.00  0.00    -0.331 N 
HETATM    5  C10 UNL     1      -2.078   0.702  -0.461  1.00  0.00     0.319 C 
HETATM    6  O2  UNL     1      -2.273   1.922  -0.590  1.00  0.00    -0.247 OA
HETATM    7  N3  UNL     1      -3.034  -0.313  -0.466  1.00  0.00    -0.334 N 
ATOM      8  H3  UNL     1      -2.658  -1.256  -0.363  1.00  0.00     0.165 HD
HETATM    9  C18 UNL     1      -0.334  -1.055  -0.112  1.00  0.00     0.158 C 
HETATM   10  C19 UNL     1       1.151  -1.177   0.151  1.00  0.00     0.293 C 
ENDROOT
BRANCH   7  11
HETATM   11  C11 UNL     1      -4.458  -0.245  -0.592  1.00  0.00     0.034 C 
HETATM   12  C12 UNL     1      -4.972  -1.704  -0.842  1.00  0.00     0.039 C 
HETATM   13  C13 UNL     1      -4.937   0.614  -1.714  1.00  0.00     0.039 C 
BRANCH  11  14
HETATM   14  C14 UNL     1      -5.115   0.181   0.683  1.00  0.00    -0.027 C 
HETATM   15  C15 UNL     1      -4.787  -0.774   1.816  1.00  0.00     0.017 C 
HETATM   16  C16 UNL     1      -4.812   1.571   1.081  1.00  0.00     0.017 C 
HETATM   17  C17 UNL     1      -6.628   0.089   0.438  1.00  0.00     0.017 C 
ENDBRANCH  11  14
ENDBRANCH   7  11
BRANCH   1  18
HETATM   18  C7  UNL     1       2.915  -0.524   1.641  1.00  0.00     0.365 C 
BRANCH  18  19
HETATM   19  C6  UNL     1       3.940  -0.335   0.596  1.00  0.00    -0.076 C 
HETATM   20  C5  UNL     1       4.781  -0.202  -0.258  1.00  0.00    -0.102 C 
BRANCH  20  21
HETATM   21  C4  UNL     1       5.806  -0.067  -1.296  1.00  0.00     0.131 C 
BRANCH  21  22
HETATM   22  C2  UNL     1       7.116   0.183  -0.582  1.00  0.00     0.061 C 
HETATM   23  C1  UNL     1       7.084   1.422   0.250  1.00  0.00     0.046 C 
HETATM   24  C3  UNL     1       7.358  -1.044   0.303  1.00  0.00     0.046 C 
BRANCH  22  25
HETATM   25  O1  UNL     1       8.117   0.219  -1.559  1.00  0.00    -0.390 OA
ATOM     26  H1  UNL     1       8.137  -0.569  -2.088  1.00  0.00     0.210 HD
ENDBRANCH  22  25
ENDBRANCH  21  22
ENDBRANCH  20  21
ENDBRANCH  18  19
ENDBRANCH   1  18
TORSDOF 7
