REMARK  4 active torsions:
REMARK  status: ('A' for Active; 'I' for Inactive)
REMARK    1  A    between atoms: C2_2  and  C3_3 
REMARK    2  A    between atoms: C3_3  and  C4_4 
REMARK    3  A    between atoms: C6_6  and  N1_7 
REMARK    4  A    between atoms: C6_6  and  C7_11 
ROOT
HETATM    1  C7  UNL     1      -1.799   1.578   0.195  1.00  0.00     0.162 C 
HETATM    2  C8  UNL     1      -3.229   1.744  -0.039  1.00  0.00     0.061 C 
HETATM    3  N2  UNL     1      -4.369   1.857  -0.225  1.00  0.00    -0.197 NA
ENDROOT
BRANCH   1   4
HETATM    4  C6  UNL     1      -1.473   0.104   0.467  1.00  0.00     0.139 C 
HETATM    5  C5  UNL     1      -0.021  -0.078   0.706  1.00  0.00     0.072 C 
HETATM    6  C4  UNL     1       0.799  -0.335  -0.516  1.00  0.00     0.188 C 
HETATM    7  N3  UNL     1       0.113  -1.261  -1.412  1.00  0.00    -0.071 N 
HETATM    8  C10 UNL     1      -1.178  -0.759  -1.820  1.00  0.00     0.235 C 
ATOM      9  H32 UNL     1       0.692  -1.494  -2.219  1.00  0.00     0.277 HD
ATOM     10  H31 UNL     1       0.035  -2.190  -0.997  1.00  0.00     0.277 HD
HETATM   11  C9  UNL     1      -2.060  -0.783  -0.583  1.00  0.00     0.067 C 
BRANCH   6  12
HETATM   12  C3  UNL     1       2.108  -1.010  -0.186  1.00  0.00     0.033 C 
BRANCH  12  13
HETATM   13  C2  UNL     1       2.971  -0.204   0.734  1.00  0.00    -0.002 C 
HETATM   14  C1  UNL     1       3.346   1.136   0.184  1.00  0.00     0.005 C 
ENDBRANCH  12  13
ENDBRANCH   6  12
BRANCH   4  15
HETATM   15  N1  UNL     1      -2.168  -0.204   1.729  1.00  0.00    -0.069 N 
ATOM     16  H13 UNL     1      -1.937  -1.127   2.096  1.00  0.00     0.275 HD
ATOM     17  H12 UNL     1      -1.822   0.342   2.518  1.00  0.00     0.275 HD
ATOM     18  H11 UNL     1      -3.167  -0.079   1.565  1.00  0.00     0.275 HD
ENDBRANCH   4  15
ENDBRANCH   1   4
TORSDOF 4
