REMARK  4 active torsions:
REMARK  status: ('A' for Active; 'I' for Inactive)
REMARK    1  A    between atoms: C2_2  and  N1_3 
REMARK       I    between atoms: N1_3  and  C3_5 
REMARK       I    between atoms: C3_5  and  N4_12 
REMARK    2  A    between atoms: N2_6  and  N3_8 
REMARK    3  A    between atoms: N3_8  and  O1_10 
REMARK    4  A    between atoms: N4_12  and  C4_14 
ROOT
HETATM    1  N1  UNL     1       2.027  -0.481  -0.121  1.00  0.00    -0.225 N 
ATOM      2  H1  UNL     1       2.196  -1.335   0.411  1.00  0.00     0.177 HD
HETATM    3  C3  UNL     1       0.938  -0.463  -1.005  1.00  0.00     0.690 C 
HETATM    4  N2  UNL     1       0.831  -1.401  -1.912  1.00  0.00    -0.113 N 
ATOM      5  H2  UNL     1       0.041  -1.394  -2.558  1.00  0.00     0.207 HD
HETATM    6  N4  UNL     1      -0.088   0.518  -0.996  1.00  0.00    -0.220 N 
ATOM      7  H4  UNL     1      -0.104   1.257  -1.699  1.00  0.00     0.178 HD
ENDROOT
BRANCH   1   8
HETATM    8  C2  UNL     1       2.926   0.634   0.084  1.00  0.00     0.133 C 
HETATM    9  C1  UNL     1       3.987   0.281   1.102  1.00  0.00     0.027 C 
ENDBRANCH   1   8
BRANCH   4  10
HETATM   10  N3  UNL     1       1.788  -2.408  -2.001  1.00  0.00    -0.196 N 
ATOM     11  H3  UNL     1       2.650  -2.186  -2.500  1.00  0.00     0.216 HD
BRANCH  10  12
HETATM   12  O1  UNL     1       1.690  -3.535  -1.536  1.00  0.00    -0.274 OA
ATOM     13  H1  UNL     1       2.343  -4.222  -1.597  1.00  0.00     0.246 HD
ENDBRANCH  10  12
ENDBRANCH   4  10
BRANCH   6  14
HETATM   14  C4  UNL     1      -1.094   0.455   0.008  1.00  0.00     0.099 C 
HETATM   15  C5  UNL     1      -1.884  -0.848  -0.034  1.00  0.00     0.026 C 
HETATM   16  C6  UNL     1      -3.284  -0.490   0.451  1.00  0.00     0.002 C 
HETATM   17  C7  UNL     1      -3.198   0.979   0.871  1.00  0.00     0.002 C 
HETATM   18  C8  UNL     1      -2.200   1.471  -0.187  1.00  0.00     0.026 C 
ENDBRANCH   6  14
TORSDOF 4
