REMARK  4 active torsions:
REMARK  status: ('A' for Active; 'I' for Inactive)
REMARK       I    between atoms: C2_2  and  N1_4 
REMARK    1  A    between atoms: N1_4  and  C3_6 
REMARK    2  A    between atoms: C3_6  and  C4_7 
REMARK    3  A    between atoms: C4_7  and  S1_8 
REMARK    4  A    between atoms: S1_8  and  C5_9 
ROOT
HETATM    1  C3  UNL     1      -0.452  -0.823   0.994  1.00  0.00     0.133 C 
ENDROOT
BRANCH   1   2
HETATM    2  N1  UNL     1      -1.321   0.066   0.285  1.00  0.00    -0.361 N 
HETATM    3  C2  UNL     1      -2.705  -0.132   0.259  1.00  0.00     0.213 C 
HETATM    4  C1  UNL     1      -3.610   0.807  -0.489  1.00  0.00     0.117 C 
HETATM    5  O1  UNL     1      -3.284  -1.086   0.845  1.00  0.00    -0.274 OA
ATOM      6  H1  UNL     1      -0.922   0.862  -0.213  1.00  0.00     0.162 HD
ENDBRANCH   1   2
BRANCH   1   7
HETATM    7  C4  UNL     1       0.997  -0.428   0.893  1.00  0.00     0.101 C 
BRANCH   7   8
HETATM    8  S1  UNL     1       1.520  -0.427  -0.843  1.00  0.00    -0.102 SA
BRANCH   8   9
HETATM    9  C5  UNL     1       3.228   0.042  -0.921  1.00  0.00     0.149 C 
HETATM   10  N2  UNL     1       3.958   0.342   0.248  1.00  0.00    -0.082 NA
HETATM   11  S2  UNL     1       3.959   0.125  -2.365  1.00  0.00    -0.056 SA
ENDBRANCH   8   9
ENDBRANCH   7   8
ENDBRANCH   1   7
TORSDOF 4
