REMARK  13 active torsions:
REMARK  status: ('A' for Active; 'I' for Inactive)
REMARK    1  A    between atoms: C2_2  and  N1_5 
REMARK    2  A    between atoms: C6_7  and  C7_8 
REMARK    3  A    between atoms: C7_8  and  N2_9 
REMARK       I    between atoms: N2_9  and  C8_11 
REMARK    4  A    between atoms: C8_11  and  C9_13 
REMARK    5  A    between atoms: C14_19  and  N3_20 
REMARK    6  A    between atoms: N3_20  and  C15_22 
REMARK    7  A    between atoms: C15_22  and  N4_24 
REMARK    8  A    between atoms: N4_24  and  C16_26 
REMARK    9  A    between atoms: C16_26  and  C17_27 
REMARK   10  A    between atoms: C17_27  and  C18_28 
REMARK   11  A    between atoms: C18_28  and  C19_29 
REMARK   12  A    between atoms: C19_29  and  C20_30 
REMARK   13  A    between atoms: C20_30  and  C21_31 
ROOT
HETATM    1  C9  UNL     1      -0.937   2.420  -0.359  1.00  0.00     0.181 C 
HETATM    2  C10 UNL     1      -1.037   2.416   1.144  1.00  0.00     0.060 C 
HETATM    3  C11 UNL     1      -0.123   1.242   1.109  1.00  0.00     0.091 C 
HETATM    4  C12 UNL     1       1.248   1.427   1.734  1.00  0.00     0.043 C 
HETATM    5  C13 UNL     1       2.190   0.332   1.323  1.00  0.00     0.091 C 
HETATM    6 BR1  UNL     1       1.770  -1.188   2.491  1.00  0.00    -0.088 Br
HETATM    7  C14 UNL     1       2.085  -0.156  -0.069  1.00  0.00     0.190 C 
HETATM    8  C22 UNL     1       1.125   0.611  -0.890  1.00  0.00     0.244 C 
HETATM    9  O2  UNL     1       1.193   0.566  -2.166  1.00  0.00    -0.271 OA
HETATM   10  N5  UNL     1       0.117   1.408  -0.327  1.00  0.00    -0.332 N 
ENDROOT
BRANCH   1  11
HETATM   11  C8  UNL     1      -2.125   1.968  -1.093  1.00  0.00     0.241 C 
HETATM   12  N2  UNL     1      -3.220   2.839  -1.357  1.00  0.00    -0.355 N 
ATOM     13  H2  UNL     1      -3.151   3.798  -1.016  1.00  0.00     0.162 HD
HETATM   14  O1  UNL     1      -2.225   0.781  -1.524  1.00  0.00    -0.271 OA
BRANCH  12  15
HETATM   15  C7  UNL     1      -4.408   2.474  -2.063  1.00  0.00     0.164 C 
BRANCH  15  16
HETATM   16  C6  UNL     1      -5.390   1.700  -1.245  1.00  0.00    -0.006 A 
HETATM   17  C5  UNL     1      -5.485   0.336  -1.114  1.00  0.00     0.121 A 
HETATM   18  N1  UNL     1      -6.509   0.036  -0.291  1.00  0.00    -0.294 N 
HETATM   19  N6  UNL     1      -7.050   1.183   0.091  1.00  0.00    -0.309 N 
HETATM   20  C23 UNL     1      -6.408   2.219  -0.460  1.00  0.00     0.117 A 
ATOM     21  H6  UNL     1      -7.848   1.265   0.720  1.00  0.00     0.186 HD
BRANCH  18  22
HETATM   22  C2  UNL     1      -6.946  -1.301   0.107  1.00  0.00     0.042 C 
HETATM   23  C1  UNL     1      -8.350  -1.461  -0.491  1.00  0.00     0.039 C 
HETATM   24  C3  UNL     1      -6.046  -2.339  -0.521  1.00  0.00     0.039 C 
HETATM   25  C4  UNL     1      -7.062  -1.465   1.586  1.00  0.00     0.039 C 
ENDBRANCH  18  22
ENDBRANCH  15  16
ENDBRANCH  12  15
ENDBRANCH   1  11
BRANCH   7  26
HETATM   26  N3  UNL     1       1.871  -1.563  -0.140  1.00  0.00    -0.353 N 
ATOM     27  H3  UNL     1       0.898  -1.823  -0.299  1.00  0.00     0.162 HD
BRANCH  26  28
HETATM   28  C15 UNL     1       2.726  -2.644  -0.035  1.00  0.00     0.168 C 
HETATM   29  S1  UNL     1       1.919  -4.152  -0.155  1.00  0.00    -0.041 SA
BRANCH  28  30
HETATM   30  N4  UNL     1       4.111  -2.746   0.151  1.00  0.00    -0.367 N 
ATOM     31  H4  UNL     1       4.478  -3.696   0.203  1.00  0.00     0.161 HD
BRANCH  30  32
HETATM   32  C16 UNL     1       5.100  -1.683   0.280  1.00  0.00     0.122 C 
BRANCH  32  33
HETATM   33  C17 UNL     1       6.434  -2.335   0.458  1.00  0.00     0.020 C 
BRANCH  33  34
HETATM   34  C18 UNL     1       7.630  -1.545   0.684  1.00  0.00     0.002 C 
BRANCH  34  35
HETATM   35  C19 UNL     1       8.157  -0.553  -0.249  1.00  0.00     0.001 C 
BRANCH  35  36
HETATM   36  C20 UNL     1       7.370   0.652  -0.594  1.00  0.00     0.011 C 
BRANCH  36  37
HETATM   37  C21 UNL     1       8.219   1.515  -1.565  1.00  0.00     0.085 C 
HETATM   38 BR2  UNL     1       9.853   2.001  -0.687  1.00  0.00    -0.097 Br
ENDBRANCH  36  37
ENDBRANCH  35  36
ENDBRANCH  34  35
ENDBRANCH  33  34
ENDBRANCH  32  33
ENDBRANCH  30  32
ENDBRANCH  28  30
ENDBRANCH  26  28
ENDBRANCH   7  26
TORSDOF 13
