REMARK  6 active torsions:
REMARK  status: ('A' for Active; 'I' for Inactive)
REMARK    1  A    between atoms: C2_2  and  C3_3 
REMARK    2  A    between atoms: C3_3  and  C4_5 
REMARK    3  A    between atoms: N1_7  and  C6_8 
REMARK    4  A    between atoms: C6_8  and  C7_9 
REMARK    5  A    between atoms: C12_14  and  C13_15 
REMARK    6  A    between atoms: C13_15  and  C14_16 
ROOT
HETATM    1  C4  UNL     1       3.289   0.773  -0.090  1.00  0.00     0.112 A 
HETATM    2  C5  UNL     1       1.940   0.996  -0.004  1.00  0.00     0.146 A 
HETATM    3  N1  UNL     1       1.452   0.253   1.010  1.00  0.00    -0.286 N 
HETATM    4  N2  UNL     1       2.495  -0.384   1.497  1.00  0.00    -0.240 N 
ATOM      5  H2  UNL     1       2.440  -1.031   2.283  1.00  0.00     0.208 HD
HETATM    6  N3  UNL     1       3.601  -0.107   0.878  1.00  0.00    -0.281 N 
ATOM      7  H3  UNL     1       4.526  -0.483   1.085  1.00  0.00     0.188 HD
ENDROOT
BRANCH   3   8
HETATM    8  C6  UNL     1       0.077   0.257   1.365  1.00  0.00     0.154 C 
BRANCH   8   9
HETATM    9  C7  UNL     1      -0.787  -0.749   0.681  1.00  0.00     0.010 C 
HETATM   10  C8  UNL     1      -0.328  -2.175   0.957  1.00  0.00     0.007 C 
HETATM   11  C9  UNL     1      -1.230  -3.134   0.209  1.00  0.00     0.000 C 
HETATM   12  C10 UNL     1      -2.603  -2.978   0.788  1.00  0.00     0.000 C 
HETATM   13  C11 UNL     1      -2.690  -1.831   1.745  1.00  0.00     0.005 C 
HETATM   14  C12 UNL     1      -2.194  -0.524   1.082  1.00  0.00    -0.009 C 
BRANCH  14  15
HETATM   15  C13 UNL     1      -3.229  -0.145   0.133  1.00  0.00     0.009 C 
BRANCH  15  16
HETATM   16  C14 UNL     1      -3.230   1.066  -0.666  1.00  0.00    -0.022 C 
HETATM   17  C15 UNL     1      -2.079   1.222  -1.620  1.00  0.00     0.009 C 
HETATM   18  C16 UNL     1      -3.402   2.363   0.089  1.00  0.00     0.009 C 
ENDBRANCH  15  16
ENDBRANCH  14  15
ENDBRANCH   8   9
ENDBRANCH   3   8
BRANCH   1  19
HETATM   19  C3  UNL     1       4.258   1.341  -1.021  1.00  0.00     0.178 C 
HETATM   20  O1  UNL     1       3.843   2.153  -1.880  1.00  0.00    -0.291 OA
BRANCH  19  21
HETATM   21  C2  UNL     1       5.691   0.990  -0.976  1.00  0.00     0.081 C 
HETATM   22  C1  UNL     1       6.497   1.691  -2.023  1.00  0.00     0.013 C 
ENDBRANCH  19  21
ENDBRANCH   1  19
TORSDOF 6
