REMARK  5 active torsions:
REMARK  status: ('A' for Active; 'I' for Inactive)
REMARK    1  A    between atoms: C2_2  and  C3_3 
REMARK    2  A    between atoms: C3_3  and  C4_4 
REMARK    3  A    between atoms: C4_4  and  C5_5 
REMARK    4  A    between atoms: C7_7  and  C8_8 
REMARK    5  A    between atoms: C14_15  and  N2_16 
ROOT
HETATM    1  C8  UNL     1      -0.456   0.252   0.170  1.00  0.00     0.068 C 
HETATM    2  C9  UNL     1       0.076   0.888  -1.090  1.00  0.00     0.045 C 
HETATM    3  C10 UNL     1      -1.190  -1.012  -0.199  1.00  0.00     0.043 C 
HETATM    4  C11 UNL     1      -2.143  -0.726  -1.339  1.00  0.00     0.004 C 
HETATM    5  C12 UNL     1      -3.026  -1.951  -1.485  1.00  0.00     0.011 C 
HETATM    6  C13 UNL     1      -3.012   0.461  -1.122  1.00  0.00     0.155 C 
HETATM    7  N1  UNL     1      -2.661   1.227   0.070  1.00  0.00    -0.267 N 
HETATM    8  C14 UNL     1      -3.140   2.123   0.919  1.00  0.00     0.207 A 
HETATM    9  C15 UNL     1      -1.941   2.062   1.573  1.00  0.00     0.168 A 
HETATM   10  N3  UNL     1      -1.516   1.155   0.677  1.00  0.00    -0.282 N 
ENDROOT
BRANCH   1  11
HETATM   11  C7  UNL     1       0.545   0.136   1.211  1.00  0.00     0.012 C 
HETATM   12  C5  UNL     1       1.755  -0.626   1.100  1.00  0.00    -0.069 C 
HETATM   13  C6  UNL     1       2.017  -1.632   1.927  1.00  0.00     0.018 C 
BRANCH  12  14
HETATM   14  C4  UNL     1       2.777  -0.302   0.086  1.00  0.00     0.041 C 
BRANCH  14  15
HETATM   15  C3  UNL     1       4.025  -1.153   0.231  1.00  0.00     0.031 C 
BRANCH  15  16
HETATM   16  C2  UNL     1       4.994  -0.767  -0.803  1.00  0.00    -0.037 C 
HETATM   17  C1  UNL     1       4.758   0.165  -1.702  1.00  0.00     0.007 C 
ENDBRANCH  15  16
ENDBRANCH  14  15
ENDBRANCH  12  14
ENDBRANCH   1  11
BRANCH   8  18
HETATM   18  N2  UNL     1      -4.337   2.878   1.150  1.00  0.00    -0.095 N 
HETATM   19  O1  UNL     1      -4.439   3.673   2.101  1.00  0.00    -0.530 OA
HETATM   20  O2  UNL     1      -5.424   2.748   0.321  1.00  0.00    -0.530 OA
ENDBRANCH   8  18
TORSDOF 5
