REMARK  7 active torsions:
REMARK  status: ('A' for Active; 'I' for Inactive)
REMARK    1  A    between atoms: C1_2  and  C2_3 
REMARK    2  A    between atoms: C1_2  and  O2_9 
REMARK    3  A    between atoms: C2_3  and  C3_4 
REMARK    4  A    between atoms: O2_9  and  C7_10 
REMARK    5  A    between atoms: C7_10  and  C8_11 
REMARK    6  A    between atoms: C8_11  and  C9_12 
REMARK    7  A    between atoms: C9_12  and  C10_13 
ROOT
HETATM    1  O2  UNL     1       1.233   0.710   0.671  1.00  0.00    -0.321 OA
ENDROOT
BRANCH   1   2
HETATM    2  C1  UNL     1       2.335   0.077   0.150  1.00  0.00     0.259 C 
HETATM    3  O1  UNL     1       2.186  -0.766  -0.767  1.00  0.00    -0.265 OA
BRANCH   2   4
HETATM    4  C2  UNL     1       3.717   0.392   0.677  1.00  0.00     0.116 C 
BRANCH   4   5
HETATM    5  C3  UNL     1       4.717  -0.299  -0.175  1.00  0.00     0.005 C 
HETATM    6  C4  UNL     1       6.138  -0.085   0.308  1.00  0.00     0.016 C 
HETATM    7  C5  UNL     1       6.460   1.374   0.145  1.00  0.00     0.074 C 
HETATM    8  S1  UNL     1       5.806   1.622  -1.556  1.00  0.00    -0.169 SA
HETATM    9  C6  UNL     1       4.694   0.155  -1.614  1.00  0.00     0.079 C 
ENDBRANCH   4   5
ENDBRANCH   2   4
ENDBRANCH   1   2
BRANCH   1  10
HETATM   10  C7  UNL     1      -0.102   0.441   0.217  1.00  0.00     0.178 C 
BRANCH  10  11
HETATM   11  C8  UNL     1      -0.542  -0.947   0.490  1.00  0.00     0.027 C 
BRANCH  11  12
HETATM   12  C9  UNL     1      -1.881  -1.313  -0.013  1.00  0.00     0.007 C 
BRANCH  12  13
HETATM   13  C10 UNL     1      -3.101  -0.632   0.427  1.00  0.00    -0.014 C 
HETATM   14  C11 UNL     1      -3.162   0.811   0.085  1.00  0.00     0.004 C 
HETATM   15  C12 UNL     1      -4.564   1.189  -0.410  1.00  0.00     0.000 C 
HETATM   16  C13 UNL     1      -5.584   0.672   0.554  1.00  0.00     0.000 C 
HETATM   17  C14 UNL     1      -5.558  -0.847   0.560  1.00  0.00     0.000 C 
HETATM   18  C15 UNL     1      -4.337  -1.375  -0.124  1.00  0.00     0.004 C 
ENDBRANCH  12  13
ENDBRANCH  11  12
ENDBRANCH  10  11
ENDBRANCH   1  10
TORSDOF 7
