REMARK  9 active torsions:
REMARK  status: ('A' for Active; 'I' for Inactive)
REMARK    1  A    between atoms: N1_4  and  C4_5 
REMARK    2  A    between atoms: C4_5  and  C5_6 
REMARK    3  A    between atoms: C5_6  and  C6_7 
REMARK    4  A    between atoms: C6_7  and  C7_8 
REMARK    5  A    between atoms: N2_12  and  C11_13 
REMARK    6  A    between atoms: C11_13  and  C12_14 
REMARK    7  A    between atoms: C12_14  and  C13_15 
REMARK    8  A    between atoms: C13_15  and  C14_16 
REMARK    9  A    between atoms: C14_16  and  N3_17 
ROOT
HETATM    1  C7  UNL     1       1.614  -1.673   0.311  1.00  0.00    -0.043 A 
HETATM    2  C8  UNL     1       1.791  -2.308   1.522  1.00  0.00     0.010 A 
HETATM    3  C9  UNL     1       0.966  -2.057   2.595  1.00  0.00     0.018 A 
HETATM    4  C10 UNL     1      -0.058  -1.149   2.449  1.00  0.00     0.090 A 
HETATM    5  N2  UNL     1      -0.243  -0.516   1.256  1.00  0.00    -0.366 N 
HETATM    6  C18 UNL     1       0.576  -0.773   0.212  1.00  0.00     0.097 A 
ENDROOT
BRANCH   5   7
HETATM    7  C11 UNL     1      -1.323   0.447   1.090  1.00  0.00     0.128 C 
BRANCH   7   8
HETATM    8  C12 UNL     1      -2.528  -0.326   0.612  1.00  0.00     0.022 C 
BRANCH   8   9
HETATM    9  C13 UNL     1      -3.731   0.547   0.395  1.00  0.00     0.023 C 
BRANCH   9  10
HETATM   10  C14 UNL     1      -4.851  -0.388  -0.083  1.00  0.00     0.148 C 
BRANCH  10  11
HETATM   11  N3  UNL     1      -6.069   0.318  -0.330  1.00  0.00    -0.304 N 
HETATM   12  C15 UNL     1      -6.408   0.864  -1.521  1.00  0.00     0.111 A 
HETATM   13  C16 UNL     1      -7.640   1.449  -1.356  1.00  0.00     0.037 A 
HETATM   14  C17 UNL     1      -7.988   1.220  -0.041  1.00  0.00     0.108 A 
HETATM   15  N4  UNL     1      -7.009   0.527   0.561  1.00  0.00    -0.310 N 
ATOM     16  H4  UNL     1      -6.998   0.219   1.533  1.00  0.00     0.186 HD
ENDBRANCH  10  11
ENDBRANCH   9  10
ENDBRANCH   8   9
ENDBRANCH   7   8
ENDBRANCH   5   7
BRANCH   1  17
HETATM   17  C6  UNL     1       2.488  -1.955  -0.832  1.00  0.00     0.041 C 
BRANCH  17  18
HETATM   18  C5  UNL     1       3.681  -1.056  -0.791  1.00  0.00     0.025 C 
BRANCH  18  19
HETATM   19  C4  UNL     1       3.350   0.414  -0.847  1.00  0.00     0.128 C 
BRANCH  19  20
HETATM   20  N1  UNL     1       4.610   1.153  -0.814  1.00  0.00    -0.366 N 
HETATM   21  C3  UNL     1       5.237   1.457  -1.974  1.00  0.00     0.090 A 
HETATM   22  C2  UNL     1       6.427   2.153  -1.986  1.00  0.00     0.017 A 
HETATM   23  C1  UNL     1       7.009   2.556  -0.807  1.00  0.00     0.003 A 
HETATM   24  C20 UNL     1       6.362   2.242   0.389  1.00  0.00     0.017 A 
HETATM   25  C19 UNL     1       5.156   1.534   0.352  1.00  0.00     0.090 A 
ENDBRANCH  19  20
ENDBRANCH  18  19
ENDBRANCH  17  18
ENDBRANCH   1  17
TORSDOF 9
