REMARK  9 active torsions:
REMARK  status: ('A' for Active; 'I' for Inactive)
REMARK    1  A    between atoms: N3_7  and  C4_8 
REMARK    2  A    between atoms: C4_8  and  C5_9 
REMARK    3  A    between atoms: C5_9  and  C6_10 
REMARK    4  A    between atoms: C6_10  and  C7_11 
REMARK    5  A    between atoms: C7_11  and  N4_12 
REMARK    6  A    between atoms: C10_15  and  C11_16 
REMARK    7  A    between atoms: C11_16  and  C12_17 
REMARK    8  A    between atoms: C12_17  and  C13_18 
REMARK    9  A    between atoms: C13_18  and  C14_19 
ROOT
HETATM    1  N4  UNL     1       0.927  -0.916  -0.863  1.00  0.00    -0.366 N 
HETATM    2  C8  UNL     1      -0.118  -1.643  -0.369  1.00  0.00     0.091 A 
HETATM    3  C9  UNL     1      -1.373  -1.071  -0.389  1.00  0.00     0.024 A 
HETATM    4  C10 UNL     1      -1.596   0.192  -0.885  1.00  0.00    -0.056 A 
HETATM    5  C20 UNL     1      -0.495   0.862  -1.365  1.00  0.00     0.024 A 
HETATM    6  C21 UNL     1       0.776   0.303  -1.354  1.00  0.00     0.091 A 
ENDROOT
BRANCH   1   7
HETATM    7  C7  UNL     1       2.222  -1.567  -0.833  1.00  0.00     0.128 C 
BRANCH   7   8
HETATM    8  C6  UNL     1       2.912  -1.325   0.459  1.00  0.00     0.022 C 
BRANCH   8   9
HETATM    9  C5  UNL     1       3.253   0.074   0.806  1.00  0.00     0.022 C 
BRANCH   9  10
HETATM   10  C4  UNL     1       4.208   0.768  -0.109  1.00  0.00     0.131 C 
BRANCH  10  11
HETATM   11  N3  UNL     1       5.497   0.078  -0.164  1.00  0.00    -0.330 N 
HETATM   12  C1  UNL     1       6.557   0.301   0.634  1.00  0.00     0.194 A 
HETATM   13  N1  UNL     1       6.671   1.246   1.702  1.00  0.00    -0.063 NA
HETATM   14  N2  UNL     1       7.581  -0.524   0.294  1.00  0.00    -0.339 N 
HETATM   15  C2  UNL     1       7.174  -1.295  -0.742  1.00  0.00     0.108 A 
ATOM     16  H2  UNL     1       8.497  -0.557   0.741  1.00  0.00     0.168 HD
HETATM   17  C3  UNL     1       5.877  -0.899  -1.004  1.00  0.00     0.110 A 
ENDBRANCH  10  11
ENDBRANCH   9  10
ENDBRANCH   8   9
ENDBRANCH   7   8
ENDBRANCH   1   7
BRANCH   4  18
HETATM   18  C11 UNL     1      -2.971   0.729  -0.868  1.00  0.00     0.039 C 
BRANCH  18  19
HETATM   19  C12 UNL     1      -3.315   1.468   0.367  1.00  0.00     0.009 C 
BRANCH  19  20
HETATM   20  C13 UNL     1      -4.724   1.989   0.283  1.00  0.00     0.039 C 
BRANCH  20  21
HETATM   21  C14 UNL     1      -5.747   0.959   0.121  1.00  0.00    -0.058 A 
HETATM   22  C15 UNL     1      -6.206   0.538  -1.104  1.00  0.00     0.007 A 
HETATM   23  C16 UNL     1      -7.167  -0.433  -1.163  1.00  0.00     0.001 A 
HETATM   24  C17 UNL     1      -7.688  -1.003  -0.027  1.00  0.00     0.000 A 
HETATM   25  C18 UNL     1      -7.217  -0.571   1.194  1.00  0.00     0.001 A 
HETATM   26  C19 UNL     1      -6.263   0.393   1.285  1.00  0.00     0.007 A 
ENDBRANCH  20  21
ENDBRANCH  19  20
ENDBRANCH  18  19
ENDBRANCH   4  18
TORSDOF 9
