REMARK  7 active torsions:
REMARK  status: ('A' for Active; 'I' for Inactive)
REMARK    1  A    between atoms: C2_4  and  C3_5 
REMARK    2  A    between atoms: C2_4  and  N6_21 
REMARK    3  A    between atoms: C3_5  and  N2_6 
REMARK       I    between atoms: N2_6  and  C4_8 
REMARK       I    between atoms: C4_8  and  N4_12 
REMARK       I    between atoms: N4_12  and  C5_14 
REMARK    4  A    between atoms: C5_14  and  C6_16 
REMARK    5  A    between atoms: C6_16  and  N5_17 
REMARK    6  A    between atoms: N6_21  and  C7_23 
REMARK    7  A    between atoms: C7_23  and  N7_25 
ROOT
HETATM    1  N2  UNL     1       0.459   1.549   0.967  1.00  0.00    -0.219 N 
ATOM      2  H2  UNL     1       0.183   2.349   1.537  1.00  0.00     0.178 HD
HETATM    3  C4  UNL     1       1.387   1.696  -0.109  1.00  0.00     0.674 C 
HETATM    4  N3  UNL     1       1.030   1.761  -1.330  1.00  0.00    -0.235 N 
ATOM      5  H31 UNL     1       1.693   1.866  -2.098  1.00  0.00     0.174 HD
ATOM      6  H32 UNL     1       0.038   1.705  -1.559  1.00  0.00     0.174 HD
HETATM    7  N4  UNL     1       2.764   1.774   0.209  1.00  0.00    -0.159 N 
ATOM      8  H4  UNL     1       3.451   1.880  -0.537  1.00  0.00     0.187 HD
HETATM    9  C5  UNL     1       3.188   1.707   1.540  1.00  0.00     0.261 C 
HETATM   10  O1  UNL     1       2.390   1.577   2.505  1.00  0.00    -0.271 OA
ENDROOT
BRANCH   1  11
HETATM   11  C3  UNL     1      -0.077   0.230   1.222  1.00  0.00     0.214 C 
BRANCH  11  12
HETATM   12  C2  UNL     1      -0.980  -0.186   0.126  1.00  0.00     0.097 C 
HETATM   13  N1  UNL     1      -0.676  -1.211  -0.594  1.00  0.00    -0.383 N 
HETATM   14  C1  UNL     1       0.507  -2.008  -0.412  1.00  0.00     0.147 C 
ATOM     15  H1  UNL     1      -1.317  -1.474  -1.342  1.00  0.00     0.160 HD
BRANCH  12  16
HETATM   16  N6  UNL     1      -2.173   0.552  -0.115  1.00  0.00    -0.322 N 
ATOM     17  H6  UNL     1      -2.134   1.570  -0.155  1.00  0.00     0.169 HD
BRANCH  16  18
HETATM   18  C7  UNL     1      -3.411  -0.106  -0.300  1.00  0.00     0.179 C 
HETATM   19  S1  UNL     1      -4.778   0.724  -0.568  1.00  0.00    -0.040 SA
BRANCH  18  20
HETATM   20  N7  UNL     1      -3.460  -1.512  -0.248  1.00  0.00    -0.310 N 
HETATM   21  C8  UNL     1      -4.135  -2.158  -1.121  1.00  0.00     0.203 C 
HETATM   22  N8  UNL     1      -4.164  -3.571  -1.041  1.00  0.00    -0.066 NA
HETATM   23  N9  UNL     1      -4.829  -1.452  -2.133  1.00  0.00    -0.066 NA
ATOM     24  H7  UNL     1      -2.958  -2.014   0.484  1.00  0.00     0.170 HD
ENDBRANCH  18  20
ENDBRANCH  16  18
ENDBRANCH  12  16
ENDBRANCH  11  12
ENDBRANCH   1  11
BRANCH   9  25
HETATM   25  C6  UNL     1       4.627   1.789   1.863  1.00  0.00     0.332 C 
BRANCH  25  26
HETATM   26  N5  UNL     1       5.383   1.934   0.658  1.00  0.00    -0.071 N 
ATOM     27  H53 UNL     1       5.181   1.193  -0.014  1.00  0.00     0.274 HD
ATOM     28  H52 UNL     1       5.068   2.728   0.100  1.00  0.00     0.274 HD
ATOM     29  H51 UNL     1       6.377   1.991   0.881  1.00  0.00     0.274 HD
ENDBRANCH  25  26
ENDBRANCH   9  25
TORSDOF 7
