REMARK  4 active torsions:
REMARK  status: ('A' for Active; 'I' for Inactive)
REMARK       I    between atoms: C1_4  and  N3_6 
REMARK    1  A    between atoms: N3_6  and  N4_8 
REMARK       I    between atoms: N5_11  and  C4_12 
REMARK       I    between atoms: C4_12  and  N6_14 
REMARK    2  A    between atoms: N6_14  and  N7_16 
REMARK    3  A    between atoms: N7_16  and  S1_18 
REMARK    4  A    between atoms: S1_18  and  N8_19 
ROOT
HETATM    1  N4  UNL     1      -2.174   0.407  -0.925  1.00  0.00    -0.226 NA
HETATM    2  C2  UNL     1      -1.553  -0.759  -0.387  1.00  0.00     0.133 C 
HETATM    3  C3  UNL     1      -0.016  -0.657  -0.531  1.00  0.00     0.144 C 
HETATM    4  N5  UNL     1       0.454   0.446   0.287  1.00  0.00    -0.331 N 
HETATM    5  C4  UNL     1       1.728   0.565   0.857  1.00  0.00     0.337 C 
HETATM    6  O1  UNL     1       2.016   1.561   1.546  1.00  0.00    -0.245 OA
HETATM    7  N6  UNL     1       2.734  -0.451   0.671  1.00  0.00    -0.241 N 
ATOM      8  H6  UNL     1       2.559  -1.287   0.113  1.00  0.00     0.192 HD
HETATM    9  C5  UNL     1      -0.552   1.497   0.499  1.00  0.00     0.144 C 
HETATM   10  C6  UNL     1      -1.304   1.577  -0.818  1.00  0.00     0.133 C 
ENDROOT
BRANCH   7  11
HETATM   11  N7  UNL     1       3.975  -0.223   1.305  1.00  0.00    -0.206 N 
ATOM     12  H7  UNL     1       4.121  -0.248   2.314  1.00  0.00     0.201 HD
BRANCH  11  13
HETATM   13  S1  UNL     1       5.203   0.101   0.154  1.00  0.00     0.330 S 
HETATM   14  O2  UNL     1       6.234   1.041   0.659  1.00  0.00    -0.181 OA
HETATM   15  O3  UNL     1       4.639   0.712  -1.123  1.00  0.00    -0.181 OA
BRANCH  13  16
HETATM   16  N8  UNL     1       5.954  -1.398  -0.284  1.00  0.00    -0.310 N 
ATOM     17  H82 UNL     1       5.697  -2.312   0.089  1.00  0.00     0.170 HD
ATOM     18  H81 UNL     1       6.685  -1.205  -0.969  1.00  0.00     0.170 HD
ENDBRANCH  13  16
ENDBRANCH  11  13
ENDBRANCH   7  11
BRANCH   1  19
HETATM   19  N3  UNL     1      -3.441   0.713  -0.509  1.00  0.00    -0.293 N 
HETATM   20  C1  UNL     1      -4.462  -0.183  -0.132  1.00  0.00     0.196 C 
HETATM   21  N1  UNL     1      -4.284  -1.015   0.884  1.00  0.00    -0.373 N 
HETATM   22  N2  UNL     1      -5.722  -0.240  -0.775  1.00  0.00    -0.063 NA
ATOM     23  H12 UNL     1      -5.023  -1.663   1.157  1.00  0.00     0.158 HD
ATOM     24  H11 UNL     1      -3.376  -0.974   1.347  1.00  0.00     0.158 HD
ATOM     25  H3  UNL     1      -3.674   1.705  -0.467  1.00  0.00     0.183 HD
ENDBRANCH   1  19
TORSDOF 4
