REMARK  5 active torsions:
REMARK  status: ('A' for Active; 'I' for Inactive)
REMARK    1  A    between atoms: C2_2  and  N1_5 
REMARK       I    between atoms: N1_5  and  C5_7 
REMARK       I    between atoms: C5_7  and  N2_9 
REMARK    2  A    between atoms: N2_9  and  N3_11 
REMARK       I    between atoms: N3_11  and  C6_13 
REMARK    3  A    between atoms: C6_13  and  C7_15 
REMARK    4  A    between atoms: C7_15  and  N4_16 
REMARK       I    between atoms: C8_18  and  N6_20 
REMARK       I    between atoms: N6_20  and  C9_22 
REMARK    5  A    between atoms: C9_22  and  C10_24 
ROOT
HETATM    1  N3  UNL     1      -0.691   1.243  -0.727  1.00  0.00    -0.265 N 
ATOM      2  H3  UNL     1      -0.738   2.063  -0.122  1.00  0.00     0.190 HD
HETATM    3  C6  UNL     1       0.584   0.696  -1.008  1.00  0.00     0.253 C 
HETATM    4  O2  UNL     1       0.670  -0.310  -1.745  1.00  0.00    -0.270 OA
ENDROOT
BRANCH   3   5
HETATM    5  C7  UNL     1       1.799   1.312  -0.431  1.00  0.00     0.226 C 
BRANCH   5   6
HETATM    6  N4  UNL     1       3.005   0.645  -0.811  1.00  0.00    -0.356 N 
HETATM    7  C8  UNL     1       4.074   0.748  -0.116  1.00  0.00     0.191 C 
HETATM    8  N5  UNL     1       4.070   1.545   1.063  1.00  0.00    -0.063 NA
HETATM    9  N6  UNL     1       5.269   0.077  -0.510  1.00  0.00    -0.293 N 
HETATM   10  C9  UNL     1       6.446   0.188   0.252  1.00  0.00     0.312 C 
ATOM     11  H6  UNL     1       5.270  -0.492  -1.357  1.00  0.00     0.172 HD
HETATM   12  O3  UNL     1       6.448   0.886   1.295  1.00  0.00    -0.262 OA
ATOM     13  H4  UNL     1       3.013   0.074  -1.656  1.00  0.00     0.162 HD
BRANCH  10  14
HETATM   14  C10 UNL     1       7.676  -0.501  -0.150  1.00  0.00     0.322 C 
HETATM   15  N7  UNL     1       8.846  -0.391   0.615  1.00  0.00    -0.053 NA
HETATM   16  O4  UNL     1       7.683  -1.205  -1.203  1.00  0.00    -0.266 OA
ENDBRANCH  10  14
ENDBRANCH   5   6
ENDBRANCH   3   5
BRANCH   1  17
HETATM   17  N2  UNL     1      -1.883   0.729  -1.226  1.00  0.00    -0.249 N 
HETATM   18  C5  UNL     1      -2.948   0.313  -0.377  1.00  0.00     0.335 C 
HETATM   19  N1  UNL     1      -4.162  -0.210  -0.854  1.00  0.00    -0.334 N 
HETATM   20  O1  UNL     1      -2.774   0.426   0.856  1.00  0.00    -0.246 OA
ATOM     21  H1  UNL     1      -4.317  -0.308  -1.857  1.00  0.00     0.165 HD
ATOM     22  H2  UNL     1      -1.999   0.647  -2.236  1.00  0.00     0.192 HD
BRANCH  19  23
HETATM   23  C2  UNL     1      -5.189  -0.608   0.077  1.00  0.00     0.023 C 
HETATM   24  C1  UNL     1      -4.631  -1.701   0.955  1.00  0.00     0.037 C 
HETATM   25  C3  UNL     1      -6.440  -1.085  -0.625  1.00  0.00     0.037 C 
HETATM   26  C4  UNL     1      -5.548   0.591   0.960  1.00  0.00     0.037 C 
ENDBRANCH  19  23
ENDBRANCH   1  17
TORSDOF 5
