REMARK  6 active torsions:
REMARK  status: ('A' for Active; 'I' for Inactive)
REMARK       I    between atoms: N1_2  and  C3_4 
REMARK       I    between atoms: C3_4  and  N2_6 
REMARK    1  A    between atoms: C4_8  and  N3_9 
REMARK    2  A    between atoms: C4_8  and  C6_14 
REMARK    3  A    between atoms: C6_14  and  N6_15 
REMARK    4  A    between atoms: C6_14  and  C8_20 
REMARK    5  A    between atoms: C8_20  and  O2_21 
REMARK    6  A    between atoms: N9_23  and  O3_25 
ROOT
HETATM    1  C1  UNL     1       3.118   0.362   1.177  1.00  0.00     0.154 C 
HETATM    2  N1  UNL     1       2.928  -0.702   0.227  1.00  0.00    -0.343 N 
HETATM    3  C2  UNL     1       3.645  -1.942   0.385  1.00  0.00     0.154 C 
HETATM    4  C3  UNL     1       2.053  -0.549  -0.852  1.00  0.00     0.323 C 
HETATM    5  O1  UNL     1       1.899  -1.478  -1.665  1.00  0.00    -0.247 OA
HETATM    6  N2  UNL     1       1.338   0.655  -1.031  1.00  0.00    -0.296 N 
ATOM      7  H2  UNL     1       1.868   1.483  -1.303  1.00  0.00     0.172 HD
HETATM    8  C4  UNL     1       0.081   0.785  -0.878  1.00  0.00     0.118 C 
ENDROOT
BRANCH   8   9
HETATM    9  N3  UNL     1      -0.549   2.021  -1.077  1.00  0.00    -0.320 N 
HETATM   10  C5  UNL     1      -0.368   3.086  -0.409  1.00  0.00     0.202 C 
HETATM   11  N4  UNL     1      -1.134   4.242  -0.801  1.00  0.00    -0.066 NA
HETATM   12  N5  UNL     1       0.509   3.251   0.679  1.00  0.00    -0.066 NA
ATOM     13  H3  UNL     1      -1.225   2.071  -1.839  1.00  0.00     0.169 HD
ENDBRANCH   8   9
BRANCH   8  14
HETATM   14  C6  UNL     1      -0.769  -0.376  -0.479  1.00  0.00     0.228 C 
BRANCH  14  15
HETATM   15  N6  UNL     1      -1.785  -0.661  -1.475  1.00  0.00    -0.348 N 
HETATM   16  C7  UNL     1      -2.310  -1.850  -1.492  1.00  0.00     0.197 C 
HETATM   17  N7  UNL     1      -1.905  -2.860  -0.557  1.00  0.00    -0.067 NA
HETATM   18  N8  UNL     1      -3.305  -2.204  -2.432  1.00  0.00    -0.067 NA
ATOM     19  H6  UNL     1      -2.079   0.052  -2.143  1.00  0.00     0.163 HD
ENDBRANCH  14  15
BRANCH  14  20
HETATM   20  C8  UNL     1      -1.403  -0.083   0.849  1.00  0.00     0.166 C 
HETATM   21  N9  UNL     1      -1.197  -0.827   1.872  1.00  0.00    -0.249 N 
ATOM     22  H9  UNL     1      -0.589  -1.643   1.799  1.00  0.00     0.196 HD
BRANCH  20  23
HETATM   23  O2  UNL     1      -2.234   1.018   0.982  1.00  0.00    -0.346 OA
ATOM     24  H2  UNL     1      -2.635   1.204   1.823  1.00  0.00     0.219 HD
ENDBRANCH  20  23
BRANCH  21  25
HETATM   25  O3  UNL     1      -1.795  -0.522   3.059  1.00  0.00    -0.288 OA
ATOM     26  H3  UNL     1      -1.642  -1.073   3.817  1.00  0.00     0.244 HD
ENDBRANCH  21  25
ENDBRANCH  14  20
ENDBRANCH   8  14
TORSDOF 6
