REMARK  14 active torsions:
REMARK  status: ('A' for Active; 'I' for Inactive)
REMARK    1  A    between atoms: C2_2  and  O2_4 
REMARK    2  A    between atoms: O2_4  and  C3_5 
REMARK    3  A    between atoms: C3_5  and  C4_6 
REMARK    4  A    between atoms: C5_7  and  C6_8 
REMARK    5  A    between atoms: C7_12  and  N2_13 
REMARK       I    between atoms: C8_15  and  N4_17 
REMARK    6  A    between atoms: N4_17  and  N5_19 
REMARK    7  A    between atoms: C10_26  and  N8_27 
REMARK       I    between atoms: N8_27  and  C11_29 
REMARK    8  A    between atoms: C11_29  and  C12_31 
REMARK    9  A    between atoms: C12_31  and  N9_32 
REMARK   10  A    between atoms: C12_31  and  C13_36 
REMARK   11  A    between atoms: C13_36  and  C14_37 
REMARK   12  A    between atoms: C14_37  and  O6_38 
REMARK   13  A    between atoms: C14_37  and  C16_42 
REMARK   14  A    between atoms: O6_38  and  C15_39 
ROOT
HETATM    1  C4  UNL     1      -2.932   0.355  -1.873  1.00  0.00    -0.019 C 
HETATM    2  C5  UNL     1      -3.674  -0.409  -1.081  1.00  0.00     0.134 C 
HETATM    3  N1  UNL     1      -2.979  -1.128  -0.011  1.00  0.00    -0.152 N 
HETATM    4  C7  UNL     1      -3.245  -1.441   1.320  1.00  0.00     0.701 C 
HETATM    5  N6  UNL     1      -2.259  -2.138   1.776  1.00  0.00    -0.134 N 
ATOM      6  H6  UNL     1      -2.207  -2.496   2.730  1.00  0.00     0.201 HD
HETATM    7  N7  UNL     1      -1.275  -2.344   0.812  1.00  0.00    -0.097 NA
HETATM    8  C9  UNL     1      -1.634  -1.620  -0.358  1.00  0.00     0.245 C 
HETATM    9  C10 UNL     1      -0.854  -0.351  -0.599  1.00  0.00     0.130 C 
HETATM   10  C18 UNL     1      -1.444   0.372  -1.749  1.00  0.00     0.067 C 
ENDROOT
BRANCH   9  11
HETATM   11  N8  UNL     1       0.542  -0.566  -0.833  1.00  0.00    -0.351 N 
HETATM   12  C11 UNL     1       1.569   0.281  -0.335  1.00  0.00     0.248 C 
HETATM   13  O5  UNL     1       1.200   1.278   0.341  1.00  0.00    -0.271 OA
ATOM     14  H8  UNL     1       0.816  -1.375  -1.390  1.00  0.00     0.163 HD
BRANCH  12  15
HETATM   15  C12 UNL     1       3.016   0.044  -0.574  1.00  0.00     0.277 C 
BRANCH  15  16
HETATM   16  N9  UNL     1       3.317  -1.241  -1.115  1.00  0.00    -0.066 N 
ATOM     17  H93 UNL     1       2.928  -1.977  -0.525  1.00  0.00     0.275 HD
ATOM     18  H92 UNL     1       2.783  -1.402  -1.969  1.00  0.00     0.275 HD
ATOM     19  H91 UNL     1       4.310  -1.404  -1.279  1.00  0.00     0.275 HD
ENDBRANCH  15  16
BRANCH  15  20
HETATM   20  C13 UNL     1       3.859   0.319   0.620  1.00  0.00     0.082 C 
BRANCH  20  21
HETATM   21  C14 UNL     1       5.318   0.103   0.464  1.00  0.00     0.194 C 
BRANCH  21  22
HETATM   22  O6  UNL     1       5.758  -1.166   0.155  1.00  0.00    -0.294 OA
BRANCH  22  23
HETATM   23  C15 UNL     1       6.470  -1.548  -0.968  1.00  0.00     0.373 C 
HETATM   24  N10 UNL     1       6.886  -2.879  -1.211  1.00  0.00    -0.032 NA
HETATM   25  O7  UNL     1       6.754  -0.672  -1.803  1.00  0.00    -0.242 OA
ENDBRANCH  22  23
ENDBRANCH  21  22
BRANCH  21  26
HETATM   26  C16 UNL     1       5.994   0.713   1.667  1.00  0.00     0.099 A 
HETATM   27  N11 UNL     1       6.492   1.945   1.775  1.00  0.00    -0.293 N 
HETATM   28  N12 UNL     1       7.040   2.314   2.857  1.00  0.00    -0.279 N 
ATOM     29  H11 UNL     1       6.432   2.590   0.987  1.00  0.00     0.187 HD
HETATM   30  C17 UNL     1       7.107   1.453   3.878  1.00  0.00     0.158 A 
ATOM     31  H12 UNL     1       7.424   3.254   2.948  1.00  0.00     0.189 HD
HETATM   32  N13 UNL     1       7.631   1.641   5.067  1.00  0.00    -0.379 N 
HETATM   33  S1  UNL     1       6.343   0.075   3.213  1.00  0.00    -0.036 SA
ATOM     34 2H13 UNL     1       8.087   2.463   5.464  1.00  0.00     0.158 HD
ATOM     35 1H13 UNL     1       7.682   0.984   5.846  1.00  0.00     0.158 HD
ENDBRANCH  21  26
ENDBRANCH  20  21
ENDBRANCH  15  20
ENDBRANCH  12  15
ENDBRANCH   9  11
BRANCH   1  36
HETATM   36  C3  UNL     1      -3.494   1.195  -2.929  1.00  0.00     0.215 C 
BRANCH  36  37
HETATM   37  O2  UNL     1      -3.185   2.583  -2.704  1.00  0.00    -0.317 OA
BRANCH  37  38
HETATM   38  C2  UNL     1      -3.639   3.522  -3.606  1.00  0.00     0.255 C 
HETATM   39  C1  UNL     1      -3.385   4.983  -3.474  1.00  0.00     0.126 C 
HETATM   40  O1  UNL     1      -4.317   3.160  -4.618  1.00  0.00    -0.266 OA
ENDBRANCH  37  38
ENDBRANCH  36  37
ENDBRANCH   1  36
BRANCH   2  41
HETATM   41  C6  UNL     1      -5.101  -0.525  -1.146  1.00  0.00     0.228 C 
HETATM   42  O3  UNL     1      -5.882   0.104  -1.919  1.00  0.00    -0.643 OA
HETATM   43  O4  UNL     1      -5.766  -1.424  -0.290  1.00  0.00    -0.643 OA
ENDBRANCH   2  41
BRANCH   4  44
HETATM   44  N2  UNL     1      -4.407  -1.013   2.039  1.00  0.00    -0.161 N 
HETATM   45  C8  UNL     1      -4.633  -1.517   3.203  1.00  0.00     0.221 C 
HETATM   46  N3  UNL     1      -3.777  -2.476   3.799  1.00  0.00    -0.061 NA
HETATM   47  N4  UNL     1      -5.796  -1.063   3.865  1.00  0.00    -0.280 N 
ATOM     48  H4  UNL     1      -5.717  -0.526   4.729  1.00  0.00     0.189 HD
ATOM     49  H2  UNL     1      -5.043  -0.323   1.638  1.00  0.00     0.187 HD
BRANCH  47  50
HETATM   50  N5  UNL     1      -7.042  -1.349   3.337  1.00  0.00    -0.343 N 
ATOM     51  H52 UNL     1      -7.104  -1.887   2.472  1.00  0.00     0.176 HD
ATOM     52  H51 UNL     1      -7.881  -1.021   3.815  1.00  0.00     0.176 HD
ENDBRANCH  47  50
ENDBRANCH   4  44
TORSDOF 14
