REMARK  4 active torsions:
REMARK  status: ('A' for Active; 'I' for Inactive)
REMARK    1  A    between atoms: C2_2  and  C3_3 
REMARK    2  A    between atoms: C3_3  and  C5_5 
REMARK    3  A    between atoms: C5_5  and  N1_8 
REMARK    4  A    between atoms: N1_8  and  C8_10 
ROOT
HETATM    1  N1  UNL     1       0.100   0.283   0.023  1.00  0.00    -0.218 N 
ATOM      2  H1  UNL     1      -0.172   1.153  -0.435  1.00  0.00     0.178 HD
ENDROOT
BRANCH   1   3
HETATM    3  C5  UNL     1      -0.886  -0.755   0.191  1.00  0.00     0.043 C 
HETATM    4  C6  UNL     1      -0.892  -1.393   1.554  1.00  0.00     0.039 C 
HETATM    5  C7  UNL     1      -0.411  -1.890  -0.751  1.00  0.00     0.039 C 
BRANCH   3   6
HETATM    6  C3  UNL     1      -2.226  -0.372  -0.308  1.00  0.00     0.009 C 
HETATM    7  C4  UNL     1      -2.119   0.145  -1.728  1.00  0.00     0.012 C 
BRANCH   6   8
HETATM    8  C2  UNL     1      -3.013   0.588   0.497  1.00  0.00     0.002 C 
HETATM    9  C1  UNL     1      -2.462   1.983   0.595  1.00  0.00     0.005 C 
ENDBRANCH   6   8
ENDBRANCH   3   6
ENDBRANCH   1   3
BRANCH   1  10
HETATM   10  C8  UNL     1       1.457   0.130   0.482  1.00  0.00     0.672 C 
HETATM   11  N2  UNL     1       1.888  -0.290   1.610  1.00  0.00    -0.225 N 
HETATM   12  C9  UNL     1       3.322  -0.293   1.680  1.00  0.00     0.158 C 
ATOM     13  H2  UNL     1       1.282  -0.589   2.374  1.00  0.00     0.177 HD
HETATM   14  C10 UNL     1       3.755   0.582   0.529  1.00  0.00     0.161 C 
HETATM   15  N3  UNL     1       2.581   0.464  -0.351  1.00  0.00    -0.221 N 
HETATM   16  C11 UNL     1       2.585   0.653  -1.775  1.00  0.00     0.168 C 
ENDBRANCH   1  10
TORSDOF 4
