REMARK  3 active torsions:
REMARK  status: ('A' for Active; 'I' for Inactive)
REMARK    1  A    between atoms: C4_4  and  C5_5 
REMARK    2  A    between atoms: C5_5  and  O1_6 
REMARK    3  A    between atoms: O1_6  and  N1_7 
ROOT
HETATM    1  N1  UNL     1      -0.803  -0.132   0.775  1.00  0.00    -0.275 N 
ATOM      2  H1  UNL     1      -0.557  -0.512   1.689  1.00  0.00     0.193 HD
HETATM    3  C6  UNL     1      -2.023   0.160   0.581  1.00  0.00     0.013 C 
HETATM    4  C7  UNL     1      -3.002  -0.057   1.653  1.00  0.00     0.082 C 
HETATM    5  C8  UNL     1      -4.123  -0.905   1.068  1.00  0.00     0.238 C 
HETATM    6  N2  UNL     1      -4.453  -0.527  -0.293  1.00  0.00    -0.074 N 
ATOM      7  H21 UNL     1      -5.456  -0.610  -0.456  1.00  0.00     0.277 HD
ATOM      8  H22 UNL     1      -4.115  -1.227  -0.953  1.00  0.00     0.277 HD
HETATM    9  C9  UNL     1      -3.985   0.784  -0.658  1.00  0.00     0.238 C 
HETATM   10  C10 UNL     1      -2.464   0.712  -0.705  1.00  0.00     0.082 C 
ENDROOT
BRANCH   1  11
HETATM   11  O1  UNL     1       0.204   0.016  -0.124  1.00  0.00    -0.280 OA
BRANCH  11  12
HETATM   12  C5  UNL     1       1.394  -0.716   0.064  1.00  0.00     0.205 C 
BRANCH  12  13
HETATM   13  C4  UNL     1       2.382  -0.397  -1.058  1.00  0.00     0.012 C 
HETATM   14  C3  UNL     1       2.716   1.069  -1.072  1.00  0.00     0.007 C 
HETATM   15  C2  UNL     1       3.612   1.212   0.129  1.00  0.00     0.000 C 
HETATM   16  C1  UNL     1       4.175  -0.148   0.436  1.00  0.00     0.000 C 
HETATM   17  C11 UNL     1       3.701  -1.060  -0.675  1.00  0.00     0.007 C 
ENDBRANCH  12  13
ENDBRANCH  11  12
ENDBRANCH   1  11
TORSDOF 3
