REMARK  3 active torsions:
REMARK  status: ('A' for Active; 'I' for Inactive)
REMARK    1  A    between atoms: O1_2  and  S1_3 
REMARK    2  A    between atoms: S1_3  and  N1_6 
REMARK    3  A    between atoms: N1_6  and  C2_8 
ROOT
HETATM    1  N1  UNL     1       0.660  -0.463  -0.931  1.00  0.00    -0.292 N 
ATOM      2  H1  UNL     1       0.285  -0.355  -1.873  1.00  0.00     0.174 HD
ENDROOT
BRANCH   1   3
HETATM    3  S1  UNL     1       2.233  -1.031  -0.607  1.00  0.00     0.357 S 
HETATM    4  O2  UNL     1       2.742  -1.939  -1.690  1.00  0.00    -0.176 OA
HETATM    5  O3  UNL     1       2.278  -1.802   0.678  1.00  0.00    -0.176 OA
BRANCH   3   6
HETATM    6  O1  UNL     1       3.267   0.299  -0.556  1.00  0.00    -0.265 OA
HETATM    7  C1  UNL     1       3.917   0.348   0.681  1.00  0.00     0.227 C 
ENDBRANCH   3   6
ENDBRANCH   1   3
BRANCH   1   8
HETATM    8  C2  UNL     1      -0.094  -0.147   0.273  1.00  0.00     0.095 C 
HETATM    9  C3  UNL     1      -1.209  -1.143   0.372  1.00  0.00     0.026 C 
HETATM   10  C4  UNL     1      -2.415  -0.775  -0.450  1.00  0.00     0.002 C 
HETATM   11  C5  UNL     1      -2.882   0.555   0.050  1.00  0.00     0.000 C 
HETATM   12  C6  UNL     1      -1.864   1.636  -0.045  1.00  0.00     0.002 C 
HETATM   13  C7  UNL     1      -0.475   1.270   0.261  1.00  0.00     0.026 C 
ENDBRANCH   1   8
TORSDOF 3
