REMARK  2 active torsions:
REMARK  status: ('A' for Active; 'I' for Inactive)
REMARK    1  A    between atoms: C2_2  and  C3_3 
REMARK    2  A    between atoms: N1_11  and  C9_12 
ROOT
HETATM    1  C3  UNL     1       2.294   0.411   0.489  1.00  0.00     0.174 C 
HETATM    2  O1  UNL     1       1.845   1.341  -0.437  1.00  0.00    -0.377 OA
HETATM    3  C4  UNL     1       0.446   1.446  -0.288  1.00  0.00     0.196 C 
HETATM    4  C5  UNL     1      -0.005   0.282   0.522  1.00  0.00     0.135 C 
HETATM    5  C6  UNL     1       1.184  -0.649   0.373  1.00  0.00     0.178 C 
HETATM    6  O2  UNL     1       1.208  -1.089  -0.928  1.00  0.00    -0.379 OA
HETATM    7  C7  UNL     1       0.087  -1.804  -1.245  1.00  0.00     0.187 C 
HETATM    8  C8  UNL     1      -1.205  -1.042  -1.091  1.00  0.00     0.144 C 
HETATM    9  N1  UNL     1      -1.209  -0.349   0.161  1.00  0.00    -0.397 N 
ENDROOT
BRANCH   9  10
HETATM   10  C9  UNL     1      -2.390   0.389   0.436  1.00  0.00     0.080 A 
HETATM   11  C10 UNL     1      -3.709  -0.314   0.247  1.00  0.00     0.027 A 
HETATM   12  C11 UNL     1      -3.313   0.832  -0.638  1.00  0.00     0.027 A 
ENDBRANCH   9  10
BRANCH   1  13
HETATM   13  C2  UNL     1       3.602  -0.094   0.099  1.00  0.00    -0.003 C 
HETATM   14  C1  UNL     1       4.539   0.722  -0.351  1.00  0.00     0.009 C 
ENDBRANCH   1  13
TORSDOF 2
