REMARK  2 active torsions:
REMARK  status: ('A' for Active; 'I' for Inactive)
REMARK    1  A    between atoms: C2_2  and  C3_3 
REMARK    2  A    between atoms: C7_8  and  C8_9 
ROOT
HETATM    1  C3  UNL     1       1.045  -0.560   0.743  1.00  0.00     0.051 C 
HETATM    2  C4  UNL     1       1.485   0.614   1.612  1.00  0.00     0.282 C 
HETATM    3  N1  UNL     1       0.894   1.798   1.005  1.00  0.00     0.090 N 
HETATM    4  C5  UNL     1       1.442   1.978  -0.341  1.00  0.00     0.273 C 
HETATM    5  C6  UNL     1       0.818   0.888  -1.197  1.00  0.00     0.047 C 
HETATM    6  C7  UNL     1       0.074   0.094  -0.187  1.00  0.00     0.046 C 
HETATM    7  C11 UNL     1      -0.441   1.244   0.699  1.00  0.00     0.287 C 
ENDROOT
BRANCH   6   8
HETATM    8  C8  UNL     1      -1.036  -0.730  -0.661  1.00  0.00     0.270 C 
HETATM    9  O1  UNL     1      -1.851  -0.027  -1.500  1.00  0.00    -0.358 OA
HETATM   10  C9  UNL     1      -3.143  -0.083  -1.042  1.00  0.00     0.197 C 
HETATM   11  C10 UNL     1      -3.035  -0.657   0.347  1.00  0.00     0.197 C 
HETATM   12  O2  UNL     1      -1.781  -1.191   0.411  1.00  0.00    -0.358 OA
ENDBRANCH   6   8
BRANCH   1  13
HETATM   13  C2  UNL     1       2.270  -1.064   0.058  1.00  0.00    -0.030 C 
HETATM   14  C1  UNL     1       2.571  -2.354   0.105  1.00  0.00     0.007 C 
ENDBRANCH   1  13
TORSDOF 2
