REMARK  2 active torsions:
REMARK  status: ('A' for Active; 'I' for Inactive)
REMARK    1  A    between atoms: C2_3  and  O1_4 
REMARK    2  A    between atoms: O1_4  and  C3_5 
ROOT
HETATM    1  N1  UNL     1       5.340   1.845   1.263  1.00  0.00    -0.195 NA
HETATM    2  C1  UNL     1       4.486   1.129   1.013  1.00  0.00     0.085 C 
HETATM    3  C2  UNL     1       3.408   0.229   0.698  1.00  0.00     0.291 C 
ENDROOT
BRANCH   3   4
HETATM    4  O1  UNL     1       2.251   0.909   0.249  1.00  0.00    -0.372 OA
BRANCH   4   5
HETATM    5  C3  UNL     1       1.308  -0.043  -0.015  1.00  0.00     0.129 C 
HETATM    6  C4  UNL     1       0.745  -0.023  -1.393  1.00  0.00     0.039 C 
HETATM    7  C5  UNL     1      -0.690  -0.554  -1.265  1.00  0.00     0.021 C 
HETATM    8  C6  UNL     1      -1.596   0.634  -1.521  1.00  0.00     0.277 C 
HETATM    9  C9  UNL     1      -0.794  -0.987   0.178  1.00  0.00     0.001 C 
HETATM   10  N2  UNL     1      -1.864   1.242  -0.225  1.00  0.00     0.089 N 
HETATM   11  C7  UNL     1      -2.836   0.390   0.427  1.00  0.00     0.273 C 
HETATM   12  C11 UNL     1      -0.659   1.410   0.545  1.00  0.00     0.280 C 
HETATM   13  C8  UNL     1      -2.180  -0.924   0.723  1.00  0.00     0.036 C 
HETATM   14  C10 UNL     1       0.047   0.116   0.840  1.00  0.00     0.047 C 
ENDBRANCH   4   5
ENDBRANCH   3   4
TORSDOF 2
