REMARK  2 active torsions:
REMARK  status: ('A' for Active; 'I' for Inactive)
REMARK    1  A    between atoms: C1_1  and  N2_9 
REMARK    2  A    between atoms: N1_2  and  C2_4 
ROOT
HETATM    1  C1  UNL     1       0.576   0.408  -0.089  1.00  0.00     0.174 C 
HETATM    2  N1  UNL     1       0.120  -0.468   0.718  1.00  0.00    -0.379 N 
ATOM      3  H1  UNL     1      -0.888  -0.575   0.832  1.00  0.00     0.160 HD
ENDROOT
BRANCH   1   4
HETATM    4  N2  UNL     1      -0.301   1.227  -0.823  1.00  0.00    -0.373 N 
HETATM    5  C6  UNL     1      -1.386   0.638  -1.546  1.00  0.00     0.149 C 
HETATM    6  C7  UNL     1      -2.574   1.596  -1.468  1.00  0.00     0.187 C 
HETATM    7  O2  UNL     1      -2.431   2.461  -0.377  1.00  0.00    -0.388 OA
HETATM    8  C8  UNL     1      -1.414   3.363  -0.710  1.00  0.00     0.187 C 
HETATM    9  C9  UNL     1      -0.086   2.654  -0.832  1.00  0.00     0.149 C 
ENDBRANCH   1   4
BRANCH   2  10
HETATM   10  C2  UNL     1       1.008  -1.301   1.464  1.00  0.00     0.108 C 
HETATM   11  C3  UNL     1       1.983  -1.999   0.549  1.00  0.00     0.053 C 
HETATM   12  C4  UNL     1       2.000  -3.405   1.036  1.00  0.00     0.169 C 
HETATM   13  O1  UNL     1       1.106  -3.545   2.061  1.00  0.00    -0.389 OA
HETATM   14  C5  UNL     1       0.284  -2.453   2.111  1.00  0.00     0.192 C 
ENDBRANCH   2  10
TORSDOF 2
