REMARK  10 active torsions:
REMARK  status: ('A' for Active; 'I' for Inactive)
REMARK    1  A    between atoms: C2_2  and  C3_3 
REMARK    2  A    between atoms: C3_3  and  N1_4 
REMARK       I    between atoms: N1_4  and  C4_6 
REMARK    3  A    between atoms: C4_6  and  C5_8 
REMARK    4  A    between atoms: C5_8  and  C6_9 
REMARK    5  A    between atoms: C5_8  and  C22_30 
REMARK    6  A    between atoms: C6_9  and  C7_10 
REMARK    7  A    between atoms: C7_10  and  C8_11 
REMARK    8  A    between atoms: C8_11  and  C10_13 
REMARK    9  A    between atoms: C15_18  and  O2_19 
REMARK   10  A    between atoms: C16_22  and  O4_23 
ROOT
HETATM    1  C10 UNL     1       0.568   0.466   0.984  1.00  0.00    -0.002 C 
HETATM    2  C11 UNL     1       0.842   1.948   1.426  1.00  0.00     0.006 C 
HETATM    3  C12 UNL     1       1.675   2.457   0.266  1.00  0.00     0.006 C 
HETATM    4  C13 UNL     1       2.079   1.227  -0.468  1.00  0.00     0.003 C 
HETATM    5  C14 UNL     1       3.202   1.250  -1.319  1.00  0.00     0.054 C 
HETATM    6  C15 UNL     1       4.477   1.961  -1.054  1.00  0.00     0.265 C 
HETATM    7  O3  UNL     1       5.085   1.704  -2.327  1.00  0.00    -0.331 OA
HETATM    8  C16 UNL     1       5.102   0.285  -2.233  1.00  0.00     0.264 C 
HETATM    9  C17 UNL     1       3.710  -0.093  -1.777  1.00  0.00     0.050 C 
HETATM   10  C18 UNL     1       3.651  -1.114  -0.713  1.00  0.00     0.011 C 
HETATM   11  C19 UNL     1       2.294  -1.123  -0.016  1.00  0.00     0.010 C 
HETATM   12  C20 UNL     1       1.954   0.140   0.648  1.00  0.00    -0.036 C 
HETATM   13  C21 UNL     1       2.913   0.561   1.730  1.00  0.00     0.016 C 
ENDROOT
BRANCH   1  14
HETATM   14  C8  UNL     1      -0.332  -0.195   1.916  1.00  0.00    -0.014 C 
HETATM   15  C9  UNL     1       0.195  -0.346   3.341  1.00  0.00     0.010 C 
BRANCH  14  16
HETATM   16  C7  UNL     1      -0.697  -1.585   1.526  1.00  0.00     0.005 C 
BRANCH  16  17
HETATM   17  C6  UNL     1      -1.345  -1.869   0.233  1.00  0.00     0.015 C 
BRANCH  17  18
HETATM   18  C5  UNL     1      -2.735  -1.482  -0.040  1.00  0.00     0.081 C 
BRANCH  18  19
HETATM   19  C4  UNL     1      -3.048  -0.073   0.018  1.00  0.00     0.226 C 
HETATM   20  N1  UNL     1      -3.901   0.507   1.008  1.00  0.00    -0.337 N 
ATOM     21  H1  UNL     1      -4.303  -0.137   1.689  1.00  0.00     0.168 HD
HETATM   22  O1  UNL     1      -2.580   0.772  -0.820  1.00  0.00    -0.273 OA
BRANCH  20  23
HETATM   23  C3  UNL     1      -4.251   1.865   1.153  1.00  0.00     0.090 C 
BRANCH  23  24
HETATM   24  C2  UNL     1      -4.995   2.481   0.065  1.00  0.00     0.007 C 
HETATM   25  C1  UNL     1      -5.453   1.982  -1.050  1.00  0.00     0.012 C 
ENDBRANCH  23  24
ENDBRANCH  20  23
ENDBRANCH  18  19
BRANCH  18  26
HETATM   26  C22 UNL     1      -3.320  -2.124  -1.275  1.00  0.00    -0.010 C 
HETATM   27  C23 UNL     1      -2.992  -3.589  -1.388  1.00  0.00     0.010 C 
HETATM   28  C24 UNL     1      -4.827  -2.047  -1.180  1.00  0.00     0.010 C 
ENDBRANCH  18  26
ENDBRANCH  17  18
ENDBRANCH  16  17
ENDBRANCH  14  16
ENDBRANCH   1  14
BRANCH   6  29
HETATM   29  O2  UNL     1       5.388   1.318  -0.219  1.00  0.00    -0.371 OA
ATOM     30  H2  UNL     1       6.204   1.773  -0.049  1.00  0.00     0.212 HD
ENDBRANCH   6  29
BRANCH   8  31
HETATM   31  O4  UNL     1       5.242  -0.147  -3.573  1.00  0.00    -0.371 OA
ATOM     32  H4  UNL     1       5.253  -1.095  -3.510  1.00  0.00     0.212 HD
ENDBRANCH   8  31
TORSDOF 10
