REMARK  9 active torsions:
REMARK  status: ('A' for Active; 'I' for Inactive)
REMARK    1  A    between atoms: O1_2  and  C2_3 
REMARK    2  A    between atoms: C2_3  and  C3_4 
REMARK    3  A    between atoms: C3_4  and  N1_5 
REMARK       I    between atoms: N1_5  and  C4_6 
REMARK    4  A    between atoms: N1_5  and  C17_28 
REMARK       I    between atoms: C4_6  and  N2_8 
REMARK    5  A    between atoms: N2_8  and  C5_10 
REMARK    6  A    between atoms: N4_15  and  C8_17 
REMARK    7  A    between atoms: C8_17  and  C10_19 
REMARK    8  A    between atoms: C10_19  and  O3_20 
REMARK    9  A    between atoms: C11_22  and  C12_23 
ROOT
HETATM    1  C5  UNL     1       1.095   0.007  -0.084  1.00  0.00     0.058 A 
HETATM    2  C6  UNL     1       1.796   1.186  -0.144  1.00  0.00     0.119 A 
HETATM    3  N3  UNL     1       3.147   1.256  -0.162  1.00  0.00    -0.350 N 
ATOM      4  H3  UNL     1       3.630   2.153  -0.205  1.00  0.00     0.166 HD
HETATM    5  C7  UNL     1       3.819   0.113  -0.121  1.00  0.00     0.108 A 
HETATM    6  N4  UNL     1       5.122   0.140  -0.134  1.00  0.00    -0.369 N 
ATOM      7  H4  UNL     1       5.605  -0.758  -0.101  1.00  0.00     0.161 HD
HETATM    8  C11 UNL     1       3.173  -1.146  -0.059  1.00  0.00    -0.002 A 
HETATM    9  C15 UNL     1       1.816  -1.203  -0.037  1.00  0.00    -0.023 A 
HETATM   10  C16 UNL     1       1.162  -2.510   0.118  1.00  0.00     0.051 C 
ENDROOT
BRANCH   1  11
HETATM   11  N2  UNL     1      -0.313  -0.049  -0.125  1.00  0.00    -0.307 N 
HETATM   12  C4  UNL     1      -1.252   0.976  -0.035  1.00  0.00     0.323 C 
HETATM   13  N1  UNL     1      -2.688   0.811  -0.091  1.00  0.00    -0.327 N 
HETATM   14  O2  UNL     1      -0.880   2.166   0.109  1.00  0.00    -0.247 OA
ATOM     15  H2  UNL     1      -0.704  -0.984  -0.238  1.00  0.00     0.170 HD
BRANCH  13  16
HETATM   16  C3  UNL     1      -3.455   2.062   0.035  1.00  0.00     0.154 C 
BRANCH  16  17
HETATM   17  C2  UNL     1      -3.678   2.371   1.475  1.00  0.00     0.187 C 
BRANCH  17  18
HETATM   18  O1  UNL     1      -4.397   3.564   1.672  1.00  0.00    -0.394 OA
HETATM   19  C1  UNL     1      -5.650   3.547   1.115  1.00  0.00     0.201 C 
ENDBRANCH  17  18
ENDBRANCH  16  17
ENDBRANCH  13  16
BRANCH  13  20
HETATM   20  C17 UNL     1      -3.315  -0.440  -0.324  1.00  0.00     0.089 C 
HETATM   21  C18 UNL     1      -4.146  -0.475  -1.605  1.00  0.00     0.025 C 
HETATM   22  C19 UNL     1      -4.939  -1.788  -1.570  1.00  0.00     0.002 C 
HETATM   23  C20 UNL     1      -6.105  -1.682  -0.599  1.00  0.00     0.000 C 
HETATM   24  C21 UNL     1      -5.673  -0.752   0.512  1.00  0.00     0.002 C 
HETATM   25  C22 UNL     1      -4.200  -0.978   0.762  1.00  0.00     0.025 C 
ENDBRANCH  13  20
ENDBRANCH   1  11
BRANCH   8  26
HETATM   26  C12 UNL     1       4.086  -2.274  -0.042  1.00  0.00     0.023 A 
HETATM   27  C13 UNL     1       3.887  -3.662  -0.368  1.00  0.00     0.010 A 
HETATM   28  C14 UNL     1       4.525  -2.790  -1.416  1.00  0.00     0.010 A 
ENDBRANCH   8  26
BRANCH   6  29
HETATM   29  C8  UNL     1       5.932   1.307  -0.190  1.00  0.00     0.102 C 
HETATM   30  C9  UNL     1       7.342   0.880  -0.619  1.00  0.00     0.034 C 
BRANCH  29  31
HETATM   31  C10 UNL     1       6.102   1.788   1.257  1.00  0.00     0.188 C 
BRANCH  31  32
HETATM   32  O3  UNL     1       6.880   2.929   1.326  1.00  0.00    -0.399 OA
ATOM     33  H3  UNL     1       6.985   3.227   2.222  1.00  0.00     0.209 HD
ENDBRANCH  31  32
ENDBRANCH  29  31
ENDBRANCH   6  29
TORSDOF 9
