REMARK  0 active torsions:
REMARK  status: ('A' for Active; 'I' for Inactive)
ROOT
HETATM    1  C1  UNL     1      -3.541  -0.048   1.252  1.00  0.00     0.017 C 
HETATM    2  C2  UNL     1      -2.635  -0.670   0.202  1.00  0.00    -0.021 C 
HETATM    3  C3  UNL     1      -3.441  -1.867  -0.343  1.00  0.00     0.017 C 
HETATM    4  C4  UNL     1      -1.467  -1.251   0.921  1.00  0.00     0.055 C 
HETATM    5  C5  UNL     1      -0.301  -1.658   0.135  1.00  0.00     0.061 C 
HETATM    6  N1  UNL     1       0.771  -0.812  -0.134  1.00  0.00    -0.372 N 
HETATM    7  C6  UNL     1       1.369  -1.073  -1.426  1.00  0.00     0.124 C 
HETATM    8  C7  UNL     1       2.524  -2.041  -1.282  1.00  0.00     0.020 C 
HETATM    9  C8  UNL     1       3.575  -1.320  -0.459  1.00  0.00     0.005 C 
HETATM   10  C9  UNL     1       2.989  -1.076   0.907  1.00  0.00     0.047 C 
HETATM   11  C10 UNL     1       1.662  -0.348   0.844  1.00  0.00     0.184 C 
HETATM   12  N2  UNL     1       1.992   1.083   0.700  1.00  0.00    -0.352 N 
ATOM     13  H2  UNL     1       2.938   1.410   0.896  1.00  0.00     0.163 HD
HETATM   14  C11 UNL     1       0.980   2.016   0.283  1.00  0.00     0.146 A 
HETATM   15  N3  UNL     1      -0.233   1.542   0.025  1.00  0.00    -0.318 N 
ATOM     16  H3  UNL     1      -0.396   0.541   0.130  1.00  0.00     0.169 HD
HETATM   17  C12 UNL     1      -1.232   2.301  -0.358  1.00  0.00     0.179 A 
HETATM   18  C13 UNL     1      -1.027   3.648  -0.503  1.00  0.00     0.132 A 
HETATM   19 BR1  UNL     1      -2.502   4.727  -1.064  1.00  0.00    -0.026 Br
HETATM   20  N4  UNL     1       0.200   4.203  -0.254  1.00  0.00    -0.332 N 
ATOM     21  H4  UNL     1       0.364   5.204  -0.359  1.00  0.00     0.168 HD
HETATM   22  C14 UNL     1       1.179   3.368   0.135  1.00  0.00     0.161 A 
HETATM   23  N5  UNL     1       2.505   3.841   0.424  1.00  0.00    -0.079 NA
HETATM   24  O1  UNL     1      -2.468   1.655  -0.596  1.00  0.00    -0.333 OA
HETATM   25  C15 UNL     1      -2.429   0.265  -0.903  1.00  0.00     0.186 C 
ENDROOT
TORSDOF 0
