REMARK  2 active torsions:
REMARK  status: ('A' for Active; 'I' for Inactive)
REMARK    1  A    between atoms: C10_11  and  C11_12 
REMARK    2  A    between atoms: C11_12  and  O2_13 
ROOT
HETATM    1  C1  UNL     1       4.107  -0.258   0.484  1.00  0.00     0.048 C 
HETATM    2  C2  UNL     1       3.134   0.648  -0.193  1.00  0.00     0.079 C 
HETATM    3  C3  UNL     1       3.923   1.525  -1.173  1.00  0.00     0.048 C 
HETATM    4  C4  UNL     1       2.400   1.554   0.771  1.00  0.00     0.209 C 
HETATM    5  O1  UNL     1       1.300   0.800   1.082  1.00  0.00    -0.352 OA
HETATM    6  C5  UNL     1       0.987  -0.011  -0.005  1.00  0.00     0.168 C 
HETATM    7  C6  UNL     1       0.837  -1.398   0.470  1.00  0.00     0.077 C 
HETATM    8  C7  UNL     1      -0.575  -1.883   0.697  1.00  0.00    -0.034 C 
HETATM    9  C8  UNL     1      -0.520  -3.385   0.539  1.00  0.00     0.015 C 
HETATM   10  C9  UNL     1      -0.953  -1.657   2.172  1.00  0.00     0.015 C 
HETATM   11  C10 UNL     1      -1.571  -1.266  -0.210  1.00  0.00     0.057 C 
HETATM   12  C12 UNL     1      -1.470   0.250  -0.180  1.00  0.00     0.125 C 
HETATM   13  C13 UNL     1      -0.129   0.576  -0.801  1.00  0.00     0.112 C 
HETATM   14  O3  UNL     1      -1.329   0.652   1.194  1.00  0.00    -0.321 OA
HETATM   15  C14 UNL     1      -1.627   1.942   1.621  1.00  0.00     0.136 C 
HETATM   16  N1  UNL     1      -1.366   2.366   2.804  1.00  0.00    -0.382 N 
ATOM     17  H11 UNL     1      -1.584   3.312   3.117  1.00  0.00     0.158 HD
ATOM     18  H12 UNL     1      -0.922   1.789   3.518  1.00  0.00     0.158 HD
HETATM   19  C15 UNL     1      -2.279   2.788   0.573  1.00  0.00     0.254 C 
HETATM   20  O4  UNL     1      -3.175   1.982  -0.059  1.00  0.00    -0.354 OA
HETATM   21  C16 UNL     1      -2.627   0.949  -0.824  1.00  0.00     0.166 C 
HETATM   22  C17 UNL     1      -2.335   1.554  -2.164  1.00  0.00     0.067 C 
HETATM   23 CL1  UNL     1      -4.035  -0.165  -1.028  1.00  0.00    -0.085 Cl
HETATM   24  O5  UNL     1       2.117   0.025  -0.857  1.00  0.00    -0.343 OA
ENDROOT
BRANCH  11  25
HETATM   25  C11 UNL     1      -1.461  -1.827  -1.580  1.00  0.00     0.172 C 
BRANCH  25  26
HETATM   26  O2  UNL     1      -1.693  -3.185  -1.687  1.00  0.00    -0.400 OA
ATOM     27  H2  UNL     1      -1.623  -3.544  -2.564  1.00  0.00     0.209 HD
ENDBRANCH  25  26
ENDBRANCH  11  25
TORSDOF 2
