REMARK  3 active torsions:
REMARK  status: ('A' for Active; 'I' for Inactive)
REMARK    1  A    between atoms: C3_4  and  C4_5 
REMARK    2  A    between atoms: C7_8  and  C8_9 
REMARK    3  A    between atoms: C9_10  and  C10_11 
ROOT
HETATM    1  N1  UNL     1       9.485  -0.621  -0.131  1.00  0.00    -0.182 NA
HETATM    2  C1  UNL     1       8.336  -0.629  -0.159  1.00  0.00     0.152 C 
HETATM    3  C2  UNL     1       6.917  -0.622  -0.177  1.00  0.00     0.018 C 
HETATM    4  C3  UNL     1       5.711  -0.596  -0.192  1.00  0.00    -0.051 C 
ENDROOT
BRANCH   4   5
HETATM    5  C4  UNL     1       4.267  -0.541  -0.219  1.00  0.00     0.020 A 
HETATM    6  C5  UNL     1       3.486  -1.620  -0.554  1.00  0.00     0.022 A 
HETATM    7  C6  UNL     1       2.115  -1.499  -0.560  1.00  0.00     0.024 A 
HETATM    8  C7  UNL     1       1.462  -0.321  -0.238  1.00  0.00     0.038 A 
HETATM    9  C16 UNL     1       2.244   0.764   0.099  1.00  0.00     0.064 A 
HETATM   10  C17 UNL     1       1.619   2.021   0.445  1.00  0.00     0.101 C 
HETATM   11  C18 UNL     1       3.631   0.643   0.105  1.00  0.00     0.044 A 
HETATM   12  N6  UNL     1       1.134   3.043   0.723  1.00  0.00    -0.191 NA
BRANCH   8  13
HETATM   13  C8  UNL     1       0.017  -0.243  -0.258  1.00  0.00    -0.062 C 
HETATM   14  C9  UNL     1      -1.191  -0.199  -0.272  1.00  0.00    -0.052 C 
BRANCH  14  15
HETATM   15  C10 UNL     1      -2.665  -0.165  -0.275  1.00  0.00     0.202 C 
HETATM   16  C11 UNL     1      -3.128  -0.790  -1.524  1.00  0.00     0.106 C 
HETATM   17  N2  UNL     1      -3.488  -1.301  -2.511  1.00  0.00    -0.193 NA
HETATM   18  C12 UNL     1      -3.120  -1.029   0.872  1.00  0.00     0.072 C 
HETATM   19  C13 UNL     1      -4.600  -1.192   0.977  1.00  0.00     0.087 C 
HETATM   20  S1  UNL     1      -5.263   0.459   1.433  1.00  0.00    -0.093 SA
HETATM   21  C14 UNL     1      -4.236   1.628   0.552  1.00  0.00     0.151 C 
HETATM   22  N3  UNL     1      -4.575   2.867   0.641  1.00  0.00    -0.379 N 
HETATM   23  N4  UNL     1      -3.114   1.186  -0.196  1.00  0.00    -0.229 N 
ATOM     24  H32 UNL     1      -5.381   3.185   1.179  1.00  0.00     0.158 HD
ATOM     25  H31 UNL     1      -3.989   3.534   0.138  1.00  0.00     0.158 HD
HETATM   26  C15 UNL     1      -2.400   2.153  -0.908  1.00  0.00     0.188 C 
HETATM   27  N5  UNL     1      -1.824   2.968  -1.499  1.00  0.00    -0.172 NA
ENDBRANCH  14  15
ENDBRANCH   8  13
ENDBRANCH   4   5
TORSDOF 3
