REMARK  3 active torsions:
REMARK  status: ('A' for Active; 'I' for Inactive)
REMARK    1  A    between atoms: C4_6  and  N2_7 
REMARK       I    between atoms: N2_7  and  C5_9 
REMARK    2  A    between atoms: C5_9  and  C6_11 
REMARK    3  A    between atoms: C10_16  and  C11_17 
ROOT
HETATM    1  C1  UNL     1       4.938  -2.551   0.619  1.00  0.00     0.019 C 
HETATM    2  C2  UNL     1       3.934  -1.924   0.329  1.00  0.00    -0.058 C 
HETATM    3  C3  UNL     1       2.734  -1.154  -0.019  1.00  0.00     0.110 A 
HETATM    4  N1  UNL     1       1.544  -1.683  -0.012  1.00  0.00    -0.328 N 
ATOM      5  H1  UNL     1       1.406  -2.662   0.239  1.00  0.00     0.168 HD
HETATM    6  C4  UNL     1       0.509  -0.906  -0.343  1.00  0.00     0.153 A 
HETATM    7  S1  UNL     1       1.241   0.601  -0.671  1.00  0.00    -0.046 SA
HETATM    8  C10 UNL     1       2.857   0.158  -0.363  1.00  0.00     0.108 A 
ENDROOT
BRANCH   8   9
HETATM    9  C11 UNL     1       4.062   1.001  -0.455  1.00  0.00     0.274 C 
HETATM   10  N3  UNL     1       3.933   2.360  -0.841  1.00  0.00    -0.057 NA
HETATM   11  O2  UNL     1       5.193   0.557  -0.203  1.00  0.00    -0.270 OA
ENDBRANCH   8   9
BRANCH   6  12
HETATM   12  N2  UNL     1      -0.763  -1.251  -0.395  1.00  0.00    -0.306 N 
HETATM   13  C5  UNL     1      -1.744  -0.313  -0.765  1.00  0.00     0.231 C 
HETATM   14  O1  UNL     1      -1.741   0.149  -1.935  1.00  0.00    -0.272 OA
ATOM     15  H2  UNL     1      -1.038  -2.206  -0.165  1.00  0.00     0.171 HD
BRANCH  13  16
HETATM   16  C6  UNL     1      -2.803   0.180   0.149  1.00  0.00     0.030 C 
HETATM   17  C7  UNL     1      -3.685  -0.941   0.652  1.00  0.00     0.025 C 
HETATM   18  C8  UNL     1      -3.705   1.186  -0.530  1.00  0.00     0.025 C 
HETATM   19  C9  UNL     1      -2.096   0.856   1.312  1.00  0.00     0.025 C 
ENDBRANCH  13  16
ENDBRANCH   6  12
TORSDOF 3
