REMARK  2 active torsions:
REMARK  status: ('A' for Active; 'I' for Inactive)
REMARK    1  A    between atoms: C2_2  and  C4_4 
REMARK    2  A    between atoms: C5_5  and  C6_6 
ROOT
HETATM    1  C4  UNL     1       0.550   0.197   0.363  1.00  0.00     0.047 C 
HETATM    2  C5  UNL     1      -0.794  -0.259   0.759  1.00  0.00     0.014 C 
HETATM    3  C7  UNL     1      -1.717  -0.387  -0.404  1.00  0.00     0.086 C 
HETATM    4  C8  UNL     1      -3.139  -0.466   0.038  1.00  0.00     0.037 C 
HETATM    5  C9  UNL     1      -1.414  -1.376  -1.430  1.00  0.00     0.037 C 
HETATM    6  S1  UNL     1      -1.450   1.286  -1.028  1.00  0.00     0.165 S 
HETATM    7  O2  UNL     1      -1.636   1.310  -2.490  1.00  0.00    -0.226 OA
HETATM    8  O3  UNL     1      -2.280   2.243  -0.267  1.00  0.00    -0.226 OA
HETATM    9  C10 UNL     1       0.289   1.368  -0.537  1.00  0.00     0.066 C 
HETATM   10  C11 UNL     1       0.419   2.703   0.217  1.00  0.00     0.032 C 
HETATM   11  C12 UNL     1       1.029   1.496  -1.794  1.00  0.00     0.032 C 
ENDROOT
BRANCH   1  12
HETATM   12  C2  UNL     1       1.543  -0.762  -0.140  1.00  0.00    -0.013 C 
HETATM   13  C1  UNL     1       1.950  -1.903   0.703  1.00  0.00     0.010 C 
HETATM   14  C3  UNL     1       2.857  -0.002  -0.364  1.00  0.00     0.010 C 
ENDBRANCH   1  12
BRANCH   2  15
HETATM   15  C6  UNL     1      -0.923  -1.282   1.784  1.00  0.00     0.259 C 
HETATM   16  N1  UNL     1      -0.421  -1.069   3.076  1.00  0.00    -0.058 NA
HETATM   17  O1  UNL     1      -1.500  -2.380   1.500  1.00  0.00    -0.272 OA
ENDBRANCH   2  15
TORSDOF 2
