REMARK  2 active torsions:
REMARK  status: ('A' for Active; 'I' for Inactive)
REMARK    1  A    between atoms: C3_5  and  N1_6 
REMARK       I    between atoms: N1_6  and  C4_8 
REMARK    2  A    between atoms: C4_8  and  C5_10 
ROOT
HETATM    1  C1  UNL     1      -3.936   0.496  -1.193  1.00  0.00     0.026 C 
HETATM    2  C2  UNL     1      -2.992   0.707  -0.067  1.00  0.00     0.114 C 
HETATM    3  S1  UNL     1      -1.452   1.442  -0.574  1.00  0.00     0.072 S 
HETATM    4  O1  UNL     1      -1.340   3.040  -0.119  1.00  0.00    -0.254 OA
HETATM    5  C3  UNL     1      -0.418   0.393   0.463  1.00  0.00     0.382 C 
HETATM    6  N2  UNL     1      -1.205  -0.807   0.419  1.00  0.00    -0.033 N 
ATOM      7  H21 UNL     1      -0.854  -1.514   1.065  1.00  0.00     0.281 HD
ATOM      8  H22 UNL     1      -1.069  -1.317  -0.454  1.00  0.00     0.281 HD
HETATM    9  C9  UNL     1      -2.563  -0.517   0.649  1.00  0.00     0.136 C 
HETATM   10  C10 UNL     1      -3.375  -1.743   0.213  1.00  0.00     0.047 C 
HETATM   11  C11 UNL     1      -2.785  -0.413   2.163  1.00  0.00     0.047 C 
ENDROOT
BRANCH   5  12
HETATM   12  N1  UNL     1       0.855   0.165  -0.119  1.00  0.00    -0.323 N 
HETATM   13  C4  UNL     1       2.035   0.473   0.598  1.00  0.00     0.227 C 
HETATM   14  O2  UNL     1       2.000   0.953   1.760  1.00  0.00    -0.273 OA
ATOM     15  H1  UNL     1       0.920  -0.223  -1.060  1.00  0.00     0.165 HD
BRANCH  13  16
HETATM   16  C5  UNL     1       3.381   0.245   0.016  1.00  0.00     0.030 C 
HETATM   17  C6  UNL     1       4.484   0.639   0.942  1.00  0.00     0.024 C 
HETATM   18  C7  UNL     1       3.570   0.931  -1.303  1.00  0.00     0.024 C 
HETATM   19  C8  UNL     1       3.501  -1.265  -0.209  1.00  0.00     0.024 C 
ENDBRANCH  13  16
ENDBRANCH   5  12
TORSDOF 2
