REMARK  2 active torsions:
REMARK  status: ('A' for Active; 'I' for Inactive)
REMARK    1  A    between atoms: C2_2  and  C3_3 
REMARK       I    between atoms: C3_3  and  N1_5 
REMARK    2  A    between atoms: N1_5  and  C4_7 
ROOT
HETATM    1  C4  UNL     1      -0.539  -1.062   0.021  1.00  0.00     0.161 C 
HETATM    2  N2  UNL     1       0.102  -2.021   0.570  1.00  0.00    -0.260 N 
ATOM      3  H2  UNL     1      -0.410  -2.653   1.185  1.00  0.00     0.181 HD
HETATM    4  S1  UNL     1       1.783  -2.304   0.328  1.00  0.00     0.266 S 
HETATM    5  O2  UNL     1       1.983  -3.068  -0.966  1.00  0.00    -0.200 OA
HETATM    6  O3  UNL     1       2.335  -3.093   1.482  1.00  0.00    -0.200 OA
HETATM    7  C5  UNL     1       2.591  -0.773   0.218  1.00  0.00     0.097 A 
HETATM    8  C6  UNL     1       3.876  -0.665   0.760  1.00  0.00     0.027 A 
HETATM    9  C7  UNL     1       4.511   0.534   0.668  1.00  0.00     0.002 A 
HETATM   10  C8  UNL     1       3.908   1.620   0.057  1.00  0.00     0.001 A 
HETATM   11  C9  UNL     1       2.638   1.479  -0.468  1.00  0.00     0.020 A 
HETATM   12  C10 UNL     1       1.955   0.284  -0.399  1.00  0.00     0.031 A 
HETATM   13  S2  UNL     1       0.298   0.111  -1.078  1.00  0.00    -0.052 SA
ENDROOT
BRANCH   1  14
HETATM   14  N1  UNL     1      -1.924  -0.921   0.290  1.00  0.00    -0.307 N 
HETATM   15  C3  UNL     1      -2.722   0.104  -0.266  1.00  0.00     0.223 C 
HETATM   16  O1  UNL     1      -2.185   0.929  -1.033  1.00  0.00    -0.273 OA
ATOM     17  H1  UNL     1      -2.367  -1.593   0.916  1.00  0.00     0.171 HD
BRANCH  15  18
HETATM   18  C2  UNL     1      -4.159   0.227   0.030  1.00  0.00     0.099 C 
HETATM   19  C1  UNL     1      -4.758   1.407  -0.697  1.00  0.00     0.014 C 
ENDBRANCH  15  18
ENDBRANCH   1  14
TORSDOF 2
