REMARK  3 active torsions:
REMARK  status: ('A' for Active; 'I' for Inactive)
REMARK    1  A    between atoms: C2_2  and  O1_3 
REMARK    2  A    between atoms: C4_6  and  C6_8 
REMARK    3  A    between atoms: C11_14  and  O3_16 
ROOT
HETATM    1  C1  UNL     1      -1.653  -2.300   0.694  1.00  0.00     0.078 C 
HETATM    2  C2  UNL     1      -1.083  -1.656  -0.518  1.00  0.00     0.160 C 
HETATM    3  C3  UNL     1       0.408  -1.493  -0.524  1.00  0.00     0.084 C 
HETATM    4  C4  UNL     1       1.035  -0.641   0.463  1.00  0.00     0.013 C 
HETATM    5  C5  UNL     1       1.457  -1.551   1.642  1.00  0.00     0.023 C 
HETATM    6  C10 UNL     1       0.275   0.460   1.084  1.00  0.00     0.056 C 
HETATM    7  C11 UNL     1      -0.693   1.241   0.318  1.00  0.00     0.086 C 
HETATM    8  C12 UNL     1      -0.007   2.175  -0.687  1.00  0.00     0.049 C 
HETATM    9  C13 UNL     1      -1.859   0.539  -0.272  1.00  0.00     0.088 C 
HETATM   10  C14 UNL     1      -2.971   0.418   0.784  1.00  0.00     0.049 C 
HETATM   11  C15 UNL     1      -2.459   1.579  -1.256  1.00  0.00     0.049 C 
HETATM   12  O4  UNL     1      -1.671  -0.557  -0.995  1.00  0.00    -0.342 OA
ENDROOT
BRANCH   4  13
HETATM   13  C6  UNL     1       2.342  -0.119  -0.082  1.00  0.00     0.061 A 
HETATM   14  C7  UNL     1       2.710   0.109  -1.382  1.00  0.00     0.035 A 
HETATM   15  C8  UNL     1       4.001   0.581  -1.324  1.00  0.00     0.027 A 
HETATM   16  C9  UNL     1       4.381   0.627   0.003  1.00  0.00     0.142 A 
HETATM   17  O2  UNL     1       3.370   0.203   0.719  1.00  0.00    -0.326 OA
ENDBRANCH   4  13
BRANCH   2  18
HETATM   18  O1  UNL     1      -1.289  -2.633  -1.547  1.00  0.00    -0.366 OA
ATOM     19  H1  UNL     1      -0.925  -2.221  -2.322  1.00  0.00     0.213 HD
ENDBRANCH   2  18
BRANCH   7  20
HETATM   20  O3  UNL     1      -1.267   2.153   1.257  1.00  0.00    -0.387 OA
ATOM     21  H3  UNL     1      -1.897   2.661   0.759  1.00  0.00     0.210 HD
ENDBRANCH   7  20
TORSDOF 3
