REMARK  2 active torsions:
REMARK  status: ('A' for Active; 'I' for Inactive)
REMARK    1  A    between atoms: C5_9  and  N2_10 
REMARK    2  A    between atoms: N2_10  and  C6_12 
ROOT
HETATM    1  C1  UNL     1       5.338   1.032  -0.121  1.00  0.00     0.057 C 
HETATM    2  C2  UNL     1       3.832   0.931  -0.037  1.00  0.00    -0.012 A 
HETATM    3  S1  UNL     1       2.687   2.185  -0.110  1.00  0.00    -0.076 SA
HETATM    4  C3  UNL     1       1.258   1.249   0.055  1.00  0.00     0.092 A 
HETATM    5  N1  UNL     1      -0.013   1.751   0.073  1.00  0.00    -0.338 N 
ATOM      6  H1  UNL     1      -0.125   2.683  -0.326  1.00  0.00     0.167 HD
HETATM    7  C4  UNL     1      -1.145   1.176   0.550  1.00  0.00     0.145 C 
HETATM    8  S2  UNL     1      -2.224   2.195   1.190  1.00  0.00    -0.056 SA
HETATM    9  C5  UNL     1      -1.402  -0.181   0.527  1.00  0.00     0.143 C 
HETATM   10  N3  UNL     1      -0.439  -1.153   0.696  1.00  0.00    -0.306 N 
ATOM     11  H3  UNL     1      -0.742  -2.001   1.176  1.00  0.00     0.170 HD
HETATM   12  C9  UNL     1       0.848  -1.127   0.310  1.00  0.00     0.260 C 
HETATM   13  O1  UNL     1       1.301  -2.272   0.047  1.00  0.00    -0.267 OA
HETATM   14  C10 UNL     1       1.732  -0.031   0.163  1.00  0.00     0.073 A 
HETATM   15  C11 UNL     1       3.065  -0.193   0.115  1.00  0.00    -0.031 A 
HETATM   16  C12 UNL     1       3.750  -1.545   0.228  1.00  0.00     0.050 C 
ENDROOT
BRANCH   9  17
HETATM   17  N2  UNL     1      -2.567  -0.540   0.332  1.00  0.00    -0.370 N 
ATOM     18  H2  UNL     1      -2.599  -1.559   0.342  1.00  0.00     0.161 HD
BRANCH  17  19
HETATM   19  C6  UNL     1      -3.842  -0.061   0.105  1.00  0.00     0.075 C 
HETATM   20  C7  UNL     1      -4.898  -1.196   0.043  1.00  0.00     0.031 C 
HETATM   21  C8  UNL     1      -3.906   0.697  -1.231  1.00  0.00     0.031 C 
ENDBRANCH  17  19
ENDBRANCH   9  17
TORSDOF 2
