REMARK  2 active torsions:
REMARK  status: ('A' for Active; 'I' for Inactive)
REMARK    1  A    between atoms: C2_2  and  N1_5 
REMARK       I    between atoms: N1_5  and  C5_7 
REMARK    2  A    between atoms: C5_7  and  C6_9 
ROOT
HETATM    1  C6  UNL     1       0.420  -0.004   0.159  1.00  0.00     0.097 A 
HETATM    2  S1  UNL     1       1.219  -1.497  -0.075  1.00  0.00    -0.086 SA
HETATM    3  C7  UNL     1       2.826  -0.980   0.113  1.00  0.00     0.001 A 
HETATM    4  C8  UNL     1       2.703   0.358   0.356  1.00  0.00    -0.018 A 
HETATM    5  C9  UNL     1       1.449   0.868   0.380  1.00  0.00     0.076 A 
HETATM    6  N2  UNL     1       1.144   2.275   0.625  1.00  0.00    -0.100 NA
HETATM    7  C10 UNL     1       4.012   1.107   0.571  1.00  0.00     0.052 C 
HETATM    8  C11 UNL     1       4.808   1.092  -0.718  1.00  0.00     0.079 C 
HETATM    9  S2  UNL     1       5.305  -0.653  -0.985  1.00  0.00    -0.164 SA
HETATM   10  C12 UNL     1       4.188  -1.649   0.065  1.00  0.00     0.120 C 
ENDROOT
BRANCH   1  11
HETATM   11  C5  UNL     1      -1.036   0.275   0.128  1.00  0.00     0.261 C 
HETATM   12  N1  UNL     1      -1.913  -0.814  -0.125  1.00  0.00    -0.348 N 
ATOM     13  H1  UNL     1      -1.521  -1.744  -0.276  1.00  0.00     0.163 HD
HETATM   14  O1  UNL     1      -1.391   1.446   0.327  1.00  0.00    -0.267 OA
BRANCH  12  15
HETATM   15  C2  UNL     1      -3.342  -0.637  -0.173  1.00  0.00     0.022 C 
HETATM   16  C1  UNL     1      -3.814  -0.107   1.162  1.00  0.00     0.037 C 
HETATM   17  C3  UNL     1      -4.059  -1.925  -0.514  1.00  0.00     0.037 C 
HETATM   18  C4  UNL     1      -3.748   0.379  -1.239  1.00  0.00     0.037 C 
ENDBRANCH  12  15
ENDBRANCH   1  11
TORSDOF 2
