REMARK  1 active torsions:
REMARK  status: ('A' for Active; 'I' for Inactive)
REMARK    1  A    between atoms: N1_2  and  C2_5 
ROOT
HETATM    1  C2  UNL     1       1.178  -0.123  -0.362  1.00  0.00     0.190 C 
HETATM    2  C3  UNL     1       0.447   0.874   0.467  1.00  0.00     0.042 C 
HETATM    3  C4  UNL     1      -0.988   0.846  -0.047  1.00  0.00    -0.042 C 
HETATM    4  C5  UNL     1      -1.477   2.234  -0.325  1.00  0.00     0.015 C 
HETATM    5  C6  UNL     1      -1.820   0.079   0.920  1.00  0.00     0.009 C 
HETATM    6  C7  UNL     1      -1.834  -1.410   0.667  1.00  0.00     0.001 C 
HETATM    7  C8  UNL     1      -0.506  -1.921   0.168  1.00  0.00     0.007 C 
HETATM    8  C9  UNL     1       0.099  -1.047  -0.878  1.00  0.00     0.017 C 
HETATM    9  C10 UNL     1      -0.925   0.006  -1.329  1.00  0.00     0.015 C 
ENDROOT
BRANCH   1  10
HETATM   10  N1  UNL     1       2.286  -0.769   0.230  1.00  0.00    -0.074 N 
HETATM   11  C1  UNL     1       3.336   0.188   0.472  1.00  0.00     0.267 C 
ATOM     12  H12 UNL     1       2.609  -1.562  -0.325  1.00  0.00     0.277 HD
ATOM     13  H11 UNL     1       2.027  -1.277   1.076  1.00  0.00     0.277 HD
ENDBRANCH   1  10
TORSDOF 1
