REMARK  3 active torsions:
REMARK  status: ('A' for Active; 'I' for Inactive)
REMARK    1  A    between atoms: C4_4  and  N1_5 
REMARK    2  A    between atoms: C8_12  and  C9_13 
REMARK    3  A    between atoms: C9_13  and  N2_14 
ROOT
HETATM    1  C1  UNL     1      -0.883   2.275  -0.289  1.00  0.00     0.016 C 
HETATM    2  C2  UNL     1      -0.505   0.975   0.318  1.00  0.00    -0.034 C 
HETATM    3  C3  UNL     1      -1.539   0.395   1.251  1.00  0.00     0.042 C 
HETATM    4  C4  UNL     1      -1.654  -1.065   0.940  1.00  0.00     0.185 C 
HETATM    5  C5  UNL     1      -1.006  -1.275  -0.415  1.00  0.00     0.043 C 
HETATM    6  C6  UNL     1      -0.048  -0.117  -0.578  1.00  0.00    -0.030 C 
HETATM    7  C7  UNL     1       0.187   0.288  -2.004  1.00  0.00     0.016 C 
HETATM    8  C8  UNL     1       1.163  -0.316   0.270  1.00  0.00     0.020 C 
HETATM    9  C10 UNL     1       0.897   1.031   0.907  1.00  0.00     0.017 C 
ENDROOT
BRANCH   8  10
HETATM   10  C9  UNL     1       2.476  -0.400  -0.478  1.00  0.00     0.235 C 
BRANCH  10  11
HETATM   11  N2  UNL     1       3.545  -0.592   0.488  1.00  0.00    -0.079 N 
ATOM     12  H23 UNL     1       3.552   0.126   1.212  1.00  0.00     0.274 HD
ATOM     13  H22 UNL     1       3.386  -1.398   1.093  1.00  0.00     0.274 HD
ATOM     14  H21 UNL     1       4.430  -0.649  -0.016  1.00  0.00     0.274 HD
ENDBRANCH  10  11
ENDBRANCH   8  10
BRANCH   4  15
HETATM   15  N1  UNL     1      -3.030  -1.510   0.820  1.00  0.00    -0.075 N 
ATOM     16  H13 UNL     1      -3.565  -1.272   1.655  1.00  0.00     0.274 HD
ATOM     17  H12 UNL     1      -3.536  -0.950   0.134  1.00  0.00     0.274 HD
ATOM     18  H11 UNL     1      -3.108  -2.505   0.608  1.00  0.00     0.274 HD
ENDBRANCH   4  15
TORSDOF 3
