REMARK  1 active torsions:
REMARK  status: ('A' for Active; 'I' for Inactive)
REMARK    1  A    between atoms: N1_2  and  C2_4 
ROOT
HETATM    1  C2  UNL     1      -1.408  -0.644   0.347  1.00  0.00     0.076 A 
HETATM    2  C3  UNL     1      -0.702  -1.517  -0.655  1.00  0.00     0.029 A 
HETATM    3  C4  UNL     1       0.406  -0.712  -1.267  1.00  0.00    -0.007 A 
HETATM    4  C5  UNL     1       1.790  -0.975  -0.692  1.00  0.00     0.014 A 
HETATM    5  C6  UNL     1       1.707   0.373  -0.031  1.00  0.00    -0.043 A 
HETATM    6  C7  UNL     1       1.711   0.224   1.468  1.00  0.00     0.015 C 
HETATM    7  C8  UNL     1       2.840   1.277  -0.456  1.00  0.00     0.015 C 
HETATM    8  C9  UNL     1       0.374   0.659  -0.659  1.00  0.00    -0.001 A 
HETATM    9  C10 UNL     1      -0.804   0.723   0.271  1.00  0.00     0.030 A 
ENDROOT
BRANCH   1  10
HETATM   10  N1  UNL     1      -2.812  -0.695   0.056  1.00  0.00    -0.421 N 
HETATM   11  C1  UNL     1      -3.537   0.500   0.360  1.00  0.00     0.140 C 
ATOM     12  H1  UNL     1      -3.260  -1.522  -0.338  1.00  0.00     0.153 HD
ENDBRANCH   1  10
TORSDOF 1
