REMARK  2 active torsions:
REMARK  status: ('A' for Active; 'I' for Inactive)
REMARK    1  A    between atoms: N1_1  and  C1_5 
REMARK    2  A    between atoms: C8_12  and  N2_13 
ROOT
HETATM    1  C1  UNL     1      -1.024  -1.264  -0.055  1.00  0.00     0.191 C 
HETATM    2  C2  UNL     1      -0.405  -0.758   1.220  1.00  0.00     0.019 C 
HETATM    3  C3  UNL     1      -0.799   0.641   1.567  1.00  0.00     0.011 C 
HETATM    4  C4  UNL     1      -0.390   1.590   0.445  1.00  0.00    -0.011 C 
HETATM    5  C5  UNL     1      -1.195   1.137  -0.776  1.00  0.00     0.011 C 
HETATM    6  C6  UNL     1      -0.800  -0.259  -1.143  1.00  0.00     0.019 C 
HETATM    7  C7  UNL     1       0.691  -0.249  -1.439  1.00  0.00     0.045 C 
HETATM    8  C8  UNL     1       1.448   0.096  -0.198  1.00  0.00     0.125 C 
HETATM    9  C9  UNL     1       1.089   1.536   0.171  1.00  0.00     0.043 C 
HETATM   10  C10 UNL     1       1.111  -0.756   0.986  1.00  0.00     0.045 C 
ENDROOT
BRANCH   1  11
HETATM   11  N1  UNL     1      -2.382  -1.689   0.087  1.00  0.00    -0.074 N 
ATOM     12  H13 UNL     1      -2.463  -2.387   0.826  1.00  0.00     0.274 HD
ATOM     13  H12 UNL     1      -2.950  -0.944   0.490  1.00  0.00     0.274 HD
ATOM     14  H11 UNL     1      -2.802  -2.032  -0.777  1.00  0.00     0.274 HD
ENDBRANCH   1  11
BRANCH   8  15
HETATM   15  N2  UNL     1       2.874  -0.029  -0.453  1.00  0.00    -0.070 N 
ATOM     16  H23 UNL     1       3.123  -0.950  -0.814  1.00  0.00     0.275 HD
ATOM     17  H22 UNL     1       3.173   0.526  -1.255  1.00  0.00     0.275 HD
ATOM     18  H21 UNL     1       3.391   0.207   0.394  1.00  0.00     0.275 HD
ENDBRANCH   8  15
TORSDOF 2
