REMARK  4 active torsions:
REMARK  status: ('A' for Active; 'I' for Inactive)
REMARK    1  A    between atoms: C4_4  and  C5_5 
REMARK    2  A    between atoms: C6_6  and  C7_7 
REMARK    3  A    between atoms: C7_7  and  N1_9 
REMARK    4  A    between atoms: N1_9  and  C9_11 
ROOT
HETATM    1  C7  UNL     1      -1.106  -0.357  -0.965  1.00  0.00     0.102 C 
HETATM    2  C8  UNL     1      -1.881   0.586  -0.075  1.00  0.00     0.036 C 
ENDROOT
BRANCH   1   3
HETATM    3  C6  UNL     1       0.051   0.381  -1.520  1.00  0.00    -0.002 C 
HETATM    4  C5  UNL     1       1.116   0.665  -0.810  1.00  0.00    -0.002 C 
BRANCH   4   5
HETATM    5  C4  UNL     1       1.243   0.270   0.602  1.00  0.00     0.002 C 
HETATM    6  C2  UNL     1       2.325   0.574   1.280  1.00  0.00    -0.088 C 
HETATM    7  C1  UNL     1       3.452   1.312   0.685  1.00  0.00     0.043 C 
HETATM    8  C3  UNL     1       2.412   0.151   2.713  1.00  0.00     0.043 C 
ENDBRANCH   4   5
ENDBRANCH   1   3
BRANCH   1   9
HETATM    9  N1  UNL     1      -1.960  -0.872  -2.029  1.00  0.00    -0.362 N 
ATOM     10  H1  UNL     1      -1.693  -0.693  -2.997  1.00  0.00     0.162 HD
BRANCH   9  11
HETATM   11  C9  UNL     1      -3.131  -1.602  -1.783  1.00  0.00     0.181 C 
HETATM   12  N2  UNL     1      -3.549  -1.878  -0.456  1.00  0.00    -0.070 NA
HETATM   13  S1  UNL     1      -4.055  -2.158  -3.007  1.00  0.00    -0.044 SA
ENDBRANCH   9  11
ENDBRANCH   1   9
TORSDOF 4
