REMARK  4 active torsions:
REMARK  status: ('A' for Active; 'I' for Inactive)
REMARK    1  A    between atoms: C3_3  and  C4_4 
REMARK    2  A    between atoms: C4_4  and  C5_5 
REMARK    3  A    between atoms: C7_7  and  C8_8 
REMARK    4  A    between atoms: C12_12  and  N1_13 
ROOT
HETATM    1  C5  UNL     1       0.517   0.089   0.571  1.00  0.00     0.020 C 
HETATM    2  C6  UNL     1      -0.705   0.934   0.544  1.00  0.00     0.012 C 
HETATM    3  C7  UNL     1      -1.803   0.155  -0.131  1.00  0.00    -0.008 C 
HETATM    4  C11 UNL     1      -1.420  -1.278   0.153  1.00  0.00     0.038 C 
HETATM    5  C12 UNL     1       0.106  -1.251  -0.001  1.00  0.00     0.188 C 
ENDROOT
BRANCH   1   6
HETATM    6  C4  UNL     1       1.608   0.766  -0.216  1.00  0.00     0.033 C 
BRANCH   6   7
HETATM    7  C3  UNL     1       2.874  -0.012  -0.232  1.00  0.00    -0.031 C 
HETATM    8  C2  UNL     1       3.963   0.553   0.269  1.00  0.00    -0.035 C 
HETATM    9  C1  UNL     1       5.236  -0.216   0.258  1.00  0.00     0.036 C 
ENDBRANCH   6   7
ENDBRANCH   1   6
BRANCH   5  10
HETATM   10  N1  UNL     1       0.480  -1.396  -1.382  1.00  0.00    -0.075 N 
ATOM     11  H13 UNL     1       0.114  -0.628  -1.945  1.00  0.00     0.274 HD
ATOM     12  H12 UNL     1       1.478  -1.232  -1.512  1.00  0.00     0.274 HD
ATOM     13  H11 UNL     1       0.203  -2.299  -1.767  1.00  0.00     0.274 HD
ENDBRANCH   5  10
BRANCH   3  14
HETATM   14  C8  UNL     1      -3.096   0.554   0.494  1.00  0.00    -0.010 A 
HETATM   15  C9  UNL     1      -4.393  -0.013   0.070  1.00  0.00     0.005 A 
HETATM   16  C10 UNL     1      -4.010   1.357  -0.438  1.00  0.00     0.005 A 
ENDBRANCH   3  14
TORSDOF 4
