REMARK  3 active torsions:
REMARK  status: ('A' for Active; 'I' for Inactive)
REMARK    1  A    between atoms: C2_2  and  C3_4 
REMARK    2  A    between atoms: C4_5  and  N2_7 
REMARK    3  A    between atoms: N2_7  and  C6_9 
ROOT
HETATM    1  N2  UNL     1      -0.191   0.565   1.170  1.00  0.00    -0.389 N 
ATOM      2  H2  UNL     1      -0.027   1.381   1.759  1.00  0.00     0.159 HD
ENDROOT
BRANCH   1   3
HETATM    3  C4  UNL     1      -1.488  -0.070   1.187  1.00  0.00     0.003 C 
HETATM    4  C3  UNL     1      -2.551   0.631   1.532  1.00  0.00     0.050 C 
HETATM    5  C5  UNL     1      -1.529  -1.500   0.807  1.00  0.00     0.068 C 
BRANCH   4   6
HETATM    6  C2  UNL     1      -3.912   0.181   1.608  1.00  0.00     0.038 C 
HETATM    7  C1  UNL     1      -4.905   0.995   1.973  1.00  0.00     0.039 C 
HETATM    8  N1  UNL     1      -4.256  -1.151   1.297  1.00  0.00    -0.103 NA
ENDBRANCH   4   6
ENDBRANCH   1   3
BRANCH   1   9
HETATM    9  C6  UNL     1       0.857   0.078   0.352  1.00  0.00     0.081 C 
HETATM   10  C7  UNL     1       2.115   0.968   0.460  1.00  0.00     0.025 C 
HETATM   11  C8  UNL     1       3.239   0.114  -0.066  1.00  0.00     0.006 C 
HETATM   12  C9  UNL     1       3.029  -0.262  -1.486  1.00  0.00    -0.019 C 
HETATM   13  C10 UNL     1       3.396   0.875  -2.399  1.00  0.00     0.010 C 
HETATM   14  C11 UNL     1       1.653  -0.760  -1.809  1.00  0.00     0.006 C 
HETATM   15  C12 UNL     1       0.556  -0.002  -1.107  1.00  0.00     0.025 C 
ENDBRANCH   1   9
TORSDOF 3
