REMARK  4 active torsions:
REMARK  status: ('A' for Active; 'I' for Inactive)
REMARK    1  A    between atoms: C3_3  and  C5_5 
REMARK    2  A    between atoms: C5_5  and  C6_6 
REMARK    3  A    between atoms: C6_6  and  N1_7 
REMARK    4  A    between atoms: C6_6  and  C8_10 
ROOT
HETATM    1  C1  UNL     1       2.983  -1.900  -1.180  1.00  0.00     0.012 C 
HETATM    2  C2  UNL     1       2.875  -0.929  -0.473  1.00  0.00    -0.113 C 
HETATM    3  C3  UNL     1       2.755   0.280   0.387  1.00  0.00     0.062 C 
HETATM    4  C4  UNL     1       3.529  -0.063   1.687  1.00  0.00     0.023 C 
ENDROOT
BRANCH   3   5
HETATM    5  C5  UNL     1       1.326   0.375   0.804  1.00  0.00     0.041 C 
BRANCH   5   6
HETATM    6  C6  UNL     1       0.324   0.535  -0.256  1.00  0.00     0.081 C 
BRANCH   6   7
HETATM    7  N1  UNL     1       0.414   1.701  -1.013  1.00  0.00    -0.421 N 
HETATM    8  C7  UNL     1       1.455   2.070  -1.849  1.00  0.00     0.140 C 
ATOM      9  H1  UNL     1      -0.369   2.351  -0.944  1.00  0.00     0.153 HD
ENDBRANCH   6   7
BRANCH   6  10
HETATM   10  C8  UNL     1      -1.109   0.358   0.252  1.00  0.00     0.008 C 
HETATM   11  C9  UNL     1      -2.077   0.531  -0.885  1.00  0.00     0.007 C 
HETATM   12  C10 UNL     1      -2.853  -0.766  -1.101  1.00  0.00     0.000 C 
HETATM   13  C11 UNL     1      -3.642  -0.983   0.178  1.00  0.00     0.000 C 
HETATM   14  C12 UNL     1      -2.684  -1.286   1.276  1.00  0.00     0.000 C 
HETATM   15  C13 UNL     1      -1.252  -0.927   0.995  1.00  0.00     0.007 C 
ENDBRANCH   6  10
ENDBRANCH   5   6
ENDBRANCH   3   5
TORSDOF 4
