REMARK  3 active torsions:
REMARK  status: ('A' for Active; 'I' for Inactive)
REMARK    1  A    between atoms: N1_1  and  C1_5 
REMARK    2  A    between atoms: C1_5  and  C2_6 
REMARK    3  A    between atoms: C2_6  and  C3_7 
ROOT
HETATM    1  C3  UNL     1       0.478   0.127  -0.326  1.00  0.00    -0.035 A 
HETATM    2  C4  UNL     1       0.782  -0.988  -1.342  1.00  0.00     0.010 A 
HETATM    3  C5  UNL     1       0.312  -1.988  -0.356  1.00  0.00     0.006 A 
HETATM    4  C6  UNL     1      -0.040  -0.854   0.592  1.00  0.00    -0.006 A 
HETATM    5  C7  UNL     1      -1.420  -0.810   1.095  1.00  0.00     0.010 C 
HETATM    6  C8  UNL     1      -2.533  -0.369   0.290  1.00  0.00    -0.013 C 
HETATM    7  C9  UNL     1      -2.546   1.169   0.225  1.00  0.00     0.009 C 
HETATM    8  C10 UNL     1      -1.805   0.957  -1.106  1.00  0.00    -0.013 C 
HETATM    9  C11 UNL     1      -2.449  -0.346  -1.186  1.00  0.00     0.009 C 
HETATM   10  C12 UNL     1      -0.395   1.152  -0.927  1.00  0.00     0.014 C 
ENDROOT
BRANCH   1  11
HETATM   11  C2  UNL     1       1.781   0.802   0.061  1.00  0.00     0.037 C 
BRANCH  11  12
HETATM   12  C1  UNL     1       2.815  -0.033   0.675  1.00  0.00     0.230 C 
BRANCH  12  13
HETATM   13  N1  UNL     1       3.968   0.856   0.938  1.00  0.00    -0.079 N 
ATOM     14  H13 UNL     1       4.291   1.356   0.109  1.00  0.00     0.274 HD
ATOM     15  H12 UNL     1       3.728   1.676   1.494  1.00  0.00     0.274 HD
ATOM     16  H11 UNL     1       4.688   0.274   1.366  1.00  0.00     0.274 HD
ENDBRANCH  12  13
ENDBRANCH  11  12
ENDBRANCH   1  11
TORSDOF 3
