REMARK  12 active torsions:
REMARK  status: ('A' for Active; 'I' for Inactive)
REMARK    1  A    between atoms: C2_2  and  C3_3 
REMARK    2  A    between atoms: C3_3  and  O1_4 
REMARK    3  A    between atoms: O1_4  and  C4_5 
REMARK    4  A    between atoms: C4_5  and  C5_7 
REMARK    5  A    between atoms: C5_7  and  O3_8 
REMARK    6  A    between atoms: C5_7  and  C6_10 
REMARK    7  A    between atoms: C17_22  and  C19_24 
REMARK    8  A    between atoms: C19_24  and  C20_25 
REMARK    9  A    between atoms: C22_27  and  C23_28 
REMARK   10  A    between atoms: C23_28  and  O5_30 
REMARK   11  A    between atoms: O5_30  and  C24_31 
REMARK   12  A    between atoms: C28_39  and  O6_40 
ROOT
HETATM    1  C6  UNL     1       4.546  -0.854  -0.961  1.00  0.00     0.018 C 
HETATM    2  C7  UNL     1       3.926   0.327  -0.933  1.00  0.00    -0.069 C 
HETATM    3  C8  UNL     1       4.366   1.381  -1.829  1.00  0.00     0.035 C 
HETATM    4  C9  UNL     1       3.918   2.767  -1.570  1.00  0.00     0.008 C 
HETATM    5  C10 UNL     1       2.790   2.914  -0.592  1.00  0.00     0.046 C 
HETATM    6  C11 UNL     1       1.959   1.649  -0.542  1.00  0.00     0.122 C 
HETATM    7  F1  UNL     1       1.794   1.306  -1.905  1.00  0.00    -0.241 F 
HETATM    8  C12 UNL     1       2.800   0.561   0.017  1.00  0.00     0.016 C 
HETATM    9  C13 UNL     1       3.508   0.884   1.317  1.00  0.00     0.023 C 
HETATM   10  C14 UNL     1       2.047  -0.763   0.099  1.00  0.00     0.017 C 
HETATM   11  C15 UNL     1       0.535  -0.569   0.075  1.00  0.00     0.007 C 
HETATM   12  C16 UNL     1       0.222   0.665   0.838  1.00  0.00     0.008 C 
HETATM   13  C17 UNL     1      -1.131   0.630   1.516  1.00  0.00    -0.008 C 
HETATM   14  C18 UNL     1      -1.013  -0.423   2.604  1.00  0.00     0.018 C 
HETATM   15  C28 UNL     1      -1.450   1.928   2.166  1.00  0.00     0.127 C 
HETATM   16  C29 UNL     1      -0.852   3.168   1.566  1.00  0.00     0.033 C 
HETATM   17  C30 UNL     1       0.501   3.048   0.974  1.00  0.00     0.015 C 
HETATM   18  C31 UNL     1       0.596   1.849   0.058  1.00  0.00    -0.002 C 
HETATM   19  C32 UNL     1      -0.312   2.192  -1.113  1.00  0.00     0.019 C 
ENDROOT
BRANCH  13  20
HETATM   20  C19 UNL     1      -2.196   0.112   0.597  1.00  0.00     0.070 C 
BRANCH  20  21
HETATM   21  C20 UNL     1      -3.545  -0.015   1.138  1.00  0.00     0.029 A 
HETATM   22  C21 UNL     1      -4.682  -0.331   0.358  1.00  0.00     0.063 A 
HETATM   23  C22 UNL     1      -5.747  -0.393   1.204  1.00  0.00     0.125 A 
HETATM   24  N1  UNL     1      -5.319  -0.134   2.438  1.00  0.00    -0.295 N 
HETATM   25  N2  UNL     1      -4.004   0.089   2.382  1.00  0.00    -0.304 N 
ATOM     26  H1  UNL     1      -5.895  -0.110   3.279  1.00  0.00     0.187 HD
ATOM     27  H2  UNL     1      -3.424   0.311   3.191  1.00  0.00     0.186 HD
BRANCH  23  28
HETATM   28  C23 UNL     1      -7.155  -0.684   0.867  1.00  0.00     0.312 C 
HETATM   29  O4  UNL     1      -8.001  -0.703   1.771  1.00  0.00    -0.258 OA
BRANCH  28  30
HETATM   30  O5  UNL     1      -7.573  -0.937  -0.421  1.00  0.00    -0.306 OA
BRANCH  30  31
HETATM   31  C24 UNL     1      -8.899  -1.218  -0.794  1.00  0.00     0.060 C 
HETATM   32  C25 UNL     1      -9.471  -2.441  -0.146  1.00  0.00     0.046 C 
HETATM   33  C26 UNL     1      -9.825  -0.059  -0.461  1.00  0.00     0.046 C 
HETATM   34  C27 UNL     1      -8.917  -1.413  -2.294  1.00  0.00     0.046 C 
ENDBRANCH  30  31
ENDBRANCH  28  30
ENDBRANCH  23  28
ENDBRANCH  20  21
ENDBRANCH  13  20
BRANCH  15  35
HETATM   35  O6  UNL     1      -1.100   1.953   3.521  1.00  0.00    -0.395 OA
ATOM     36  H6  UNL     1      -1.304   2.783   3.936  1.00  0.00     0.210 HD
ENDBRANCH  15  35
BRANCH   1  37
HETATM   37  C5  UNL     1       5.674  -1.205  -1.845  1.00  0.00     0.240 C 
BRANCH  37  38
HETATM   38  C4  UNL     1       6.977  -1.247  -1.151  1.00  0.00     0.291 C 
HETATM   39  O2  UNL     1       7.406  -0.239  -0.501  1.00  0.00    -0.262 OA
BRANCH  38  40
HETATM   40  O1  UNL     1       7.745  -2.415  -1.214  1.00  0.00    -0.316 OA
BRANCH  40  41
HETATM   41  C3  UNL     1       8.995  -2.409  -0.529  1.00  0.00     0.205 C 
BRANCH  41  42
HETATM   42  C2  UNL     1       9.723  -3.687  -0.661  1.00  0.00    -0.011 C 
HETATM   43  C1  UNL     1       9.207  -4.686  -1.355  1.00  0.00     0.009 C 
ENDBRANCH  41  42
ENDBRANCH  40  41
ENDBRANCH  38  40
ENDBRANCH  37  38
BRANCH  37  44
HETATM   44  O3  UNL     1       5.459  -2.487  -2.405  1.00  0.00    -0.382 OA
ATOM     45  H3  UNL     1       4.621  -2.460  -2.851  1.00  0.00     0.211 HD
ENDBRANCH  37  44
ENDBRANCH   1  37
TORSDOF 12
