REMARK  9 active torsions:
REMARK  status: ('A' for Active; 'I' for Inactive)
REMARK    1  A    between atoms: C2_2  and  O1_3 
REMARK    2  A    between atoms: O1_3  and  C3_4 
REMARK       I    between atoms: C3_4  and  N1_6 
REMARK    3  A    between atoms: N1_6  and  C4_8 
REMARK    4  A    between atoms: C6_10  and  C7_11 
REMARK    5  A    between atoms: C23_32  and  O5_33 
REMARK    6  A    between atoms: O5_33  and  C24_34 
REMARK    7  A    between atoms: C24_34  and  C25_35 
REMARK    8  A    between atoms: C25_35  and  O6_36 
REMARK    9  A    between atoms: C25_35  and  C26_38 
ROOT
HETATM    1  C4  UNL     1      -2.196   0.428  -0.043  1.00  0.00     0.072 A 
HETATM    2  C5  UNL     1      -1.079   1.097   0.352  1.00  0.00     0.042 A 
HETATM    3  C6  UNL     1       0.207   0.531   0.375  1.00  0.00    -0.028 A 
HETATM    4  C21 UNL     1       0.330  -0.768  -0.024  1.00  0.00     0.031 A 
HETATM    5  C22 UNL     1      -0.759  -1.502  -0.435  1.00  0.00     0.047 A 
HETATM    6 BR1  UNL     1      -0.541  -3.327  -0.989  1.00  0.00    -0.048 Br
HETATM    7  C23 UNL     1      -1.998  -0.899  -0.439  1.00  0.00     0.113 A 
ENDROOT
BRANCH   3   8
HETATM    8  C7  UNL     1       1.366   1.355   0.826  1.00  0.00     0.144 C 
HETATM    9  N2  UNL     1       1.257   2.625   0.190  1.00  0.00    -0.405 N 
HETATM   10  C8  UNL     1       2.198   2.922  -0.834  1.00  0.00     0.077 C 
ATOM     11  H2  UNL     1       0.534   3.293   0.458  1.00  0.00     0.154 HD
HETATM   12  C9  UNL     1       3.372   3.667  -0.232  1.00  0.00     0.032 C 
HETATM   13  C10 UNL     1       2.654   1.716  -1.625  1.00  0.00     0.063 C 
HETATM   14  C11 UNL     1       3.301   0.803  -0.649  1.00  0.00    -0.047 A 
HETATM   15  C12 UNL     1       4.486   0.149  -0.910  1.00  0.00     0.018 A 
HETATM   16  C16 UNL     1       2.633   0.651   0.556  1.00  0.00    -0.022 A 
HETATM   17  C13 UNL     1       5.053  -0.684   0.018  1.00  0.00    -0.018 A 
HETATM   18  C14 UNL     1       4.393  -0.841   1.219  1.00  0.00     0.113 A 
HETATM   19  C20 UNL     1       6.306  -1.407  -0.197  1.00  0.00     0.082 C 
HETATM   20  C15 UNL     1       3.196  -0.190   1.505  1.00  0.00     0.050 A 
HETATM   21  O3  UNL     1       5.014  -1.701   2.130  1.00  0.00    -0.196 OA
HETATM   22  O4  UNL     1       6.323  -1.755   2.206  1.00  0.00    -0.224 OA
HETATM   23  C17 UNL     1       7.034  -1.756   1.050  1.00  0.00     0.093 C 
HETATM   24  C18 UNL     1       7.763  -3.081   0.806  1.00  0.00     0.049 C 
HETATM   25  C19 UNL     1       8.157  -0.717   1.215  1.00  0.00     0.049 C 
ENDBRANCH   3   8
BRANCH   1  26
HETATM   26  N1  UNL     1      -3.492   0.960  -0.094  1.00  0.00    -0.300 N 
HETATM   27  C3  UNL     1      -3.938   2.225   0.270  1.00  0.00     0.365 C 
HETATM   28  O2  UNL     1      -3.185   3.107   0.721  1.00  0.00    -0.238 OA
ATOM     29  H1  UNL     1      -4.210   0.329  -0.449  1.00  0.00     0.171 HD
BRANCH  27  30
HETATM   30  O1  UNL     1      -5.286   2.617   0.159  1.00  0.00    -0.304 OA
BRANCH  30  31
HETATM   31  C2  UNL     1      -5.714   3.911   0.537  1.00  0.00     0.176 C 
HETATM   32  C1  UNL     1      -5.043   5.000  -0.232  1.00  0.00     0.034 C 
ENDBRANCH  30  31
ENDBRANCH  27  30
ENDBRANCH   1  26
BRANCH   7  33
HETATM   33  O5  UNL     1      -3.071  -1.660  -0.853  1.00  0.00    -0.345 OA
BRANCH  33  34
HETATM   34  C24 UNL     1      -3.784  -2.438   0.096  1.00  0.00     0.207 C 
BRANCH  34  35
HETATM   35  C25 UNL     1      -4.905  -3.225  -0.507  1.00  0.00     0.145 C 
BRANCH  35  36
HETATM   36  O6  UNL     1      -4.470  -4.100  -1.501  1.00  0.00    -0.393 OA
ATOM     37  H6  UNL     1      -5.182  -4.600  -1.884  1.00  0.00     0.210 HD
ENDBRANCH  35  36
BRANCH  35  38
HETATM   38  C26 UNL     1      -6.036  -2.400  -1.045  1.00  0.00     0.008 C 
HETATM   39  C27 UNL     1      -6.718  -1.550  -0.025  1.00  0.00     0.012 C 
HETATM   40  C28 UNL     1      -7.008  -3.369  -1.712  1.00  0.00     0.012 C 
ENDBRANCH  35  38
ENDBRANCH  34  35
ENDBRANCH  33  34
ENDBRANCH   7  33
TORSDOF 9
