REMARK  6 active torsions:
REMARK  status: ('A' for Active; 'I' for Inactive)
REMARK    1  A    between atoms: N1_1  and  C1_5 
REMARK    2  A    between atoms: C1_5  and  N2_6 
REMARK    3  A    between atoms: C1_5  and  C2_10 
REMARK    4  A    between atoms: C2_10  and  O1_11 
REMARK    5  A    between atoms: C2_10  and  C3_13 
REMARK    6  A    between atoms: C5_21  and  N4_22 
ROOT
HETATM    1  C3  UNL     1       0.416   0.069  -0.534  1.00  0.00     0.097 C 
HETATM    2  C4  UNL     1       1.066   0.873  -1.615  1.00  0.00     0.203 C 
HETATM    3  O2  UNL     1       0.144   1.768  -2.220  1.00  0.00    -0.259 OA
HETATM    4  S1  UNL     1      -0.178   2.917  -1.000  1.00  0.00     0.359 S 
HETATM    5  O3  UNL     1      -1.035   4.019  -1.485  1.00  0.00    -0.176 OA
HETATM    6  O4  UNL     1       1.142   3.396  -0.480  1.00  0.00    -0.176 OA
HETATM    7  N3  UNL     1      -0.928   1.980   0.272  1.00  0.00    -0.264 N 
ATOM      8  H3  UNL     1      -1.287   2.319   1.164  1.00  0.00     0.176 HD
HETATM    9  C5  UNL     1      -0.928   0.624  -0.216  1.00  0.00     0.342 C 
ENDROOT
BRANCH   1  10
HETATM   10  C2  UNL     1       1.281  -0.214   0.636  1.00  0.00     0.185 C 
BRANCH  10  11
HETATM   11  C1  UNL     1       2.513  -1.007   0.287  1.00  0.00     0.406 C 
BRANCH  11  12
HETATM   12  N1  UNL     1       3.283  -0.508  -0.800  1.00  0.00    -0.048 N 
ATOM     13  H13 UNL     1       3.737   0.377  -0.576  1.00  0.00     0.276 HD
ATOM     14  H12 UNL     1       4.122  -1.065  -0.965  1.00  0.00     0.276 HD
ATOM     15  H11 UNL     1       2.696  -0.440  -1.632  1.00  0.00     0.276 HD
ENDBRANCH  11  12
BRANCH  11  16
HETATM   16  N2  UNL     1       3.349  -1.104   1.472  1.00  0.00    -0.048 N 
ATOM     17  H23 UNL     1       4.188  -1.661   1.307  1.00  0.00     0.276 HD
ATOM     18  H22 UNL     1       3.803  -0.219   1.696  1.00  0.00     0.276 HD
ATOM     19  H21 UNL     1       2.797  -1.462   2.251  1.00  0.00     0.276 HD
ENDBRANCH  11  16
ENDBRANCH  10  11
BRANCH  10  20
HETATM   20  O1  UNL     1       0.644  -0.816   1.694  1.00  0.00    -0.391 OA
ATOM     21  H1  UNL     1      -0.133  -0.316   1.914  1.00  0.00     0.210 HD
ENDBRANCH  10  20
ENDBRANCH   1  10
BRANCH   9  22
HETATM   22  N4  UNL     1      -1.783  -0.265   0.555  1.00  0.00     0.122 N 
HETATM   23  C6  UNL     1      -2.031  -1.411  -0.210  1.00  0.00     0.286 C 
HETATM   24  C7  UNL     1      -3.239  -2.156   0.277  1.00  0.00     0.106 C 
HETATM   25  S2  UNL     1      -4.361  -0.732   0.585  1.00  0.00    -0.138 SA
HETATM   26  C8  UNL     1      -2.989   0.468   0.812  1.00  0.00     0.349 C 
ENDBRANCH   9  22
TORSDOF 6
