REMARK  5 active torsions:
REMARK  status: ('A' for Active; 'I' for Inactive)
REMARK    1  A    between atoms: C3_3  and  O1_4 
REMARK    2  A    between atoms: C5_7  and  N1_8 
REMARK    3  A    between atoms: N4_18  and  O4_19 
REMARK    4  A    between atoms: O4_19  and  C9_20 
REMARK    5  A    between atoms: C9_20  and  C10_22 
ROOT
HETATM    1  C1  UNL     1       0.578  -4.125   0.256  1.00  0.00     0.016 C 
HETATM    2  C2  UNL     1       0.570  -2.993  -0.184  1.00  0.00    -0.060 C 
HETATM    3  C3  UNL     1       0.582  -1.626  -0.718  1.00  0.00     0.203 C 
HETATM    4  C4  UNL     1      -0.817  -1.146  -1.032  1.00  0.00     0.100 C 
HETATM    5  C5  UNL     1      -1.237  -0.476   0.229  1.00  0.00     0.134 C 
HETATM    6  C8  UNL     1       0.044   0.089   0.778  1.00  0.00     0.153 C 
HETATM    7  N4  UNL     1       1.079  -0.789   0.339  1.00  0.00    -0.139 NA
ENDROOT
BRANCH   3   8
HETATM    8  O1  UNL     1       1.442  -1.550  -1.805  1.00  0.00    -0.363 OA
ATOM      9  H1  UNL     1       1.450  -0.665  -2.151  1.00  0.00     0.213 HD
ENDBRANCH   3   8
BRANCH   7  10
HETATM   10  O4  UNL     1       2.127  -0.019  -0.138  1.00  0.00    -0.220 OA
BRANCH  10  11
HETATM   11  C9  UNL     1       2.732   0.966   0.627  1.00  0.00     0.289 C 
HETATM   12  O5  UNL     1       2.311   1.158   1.793  1.00  0.00    -0.263 OA
BRANCH  11  13
HETATM   13  C10 UNL     1       3.860   1.770   0.064  1.00  0.00     0.236 C 
HETATM   14  C11 UNL     1       5.084   0.970  -0.001  1.00  0.00     0.069 C 
HETATM   15  N5  UNL     1       6.052   0.340  -0.061  1.00  0.00    -0.197 NA
ENDBRANCH  11  13
ENDBRANCH  10  11
ENDBRANCH   7  10
BRANCH   5  16
HETATM   16  N1  UNL     1      -2.281   0.505   0.101  1.00  0.00    -0.232 N 
HETATM   17  N2  UNL     1      -3.508   0.312   0.608  1.00  0.00    -0.245 N 
HETATM   18  C6  UNL     1      -4.250   1.408   0.348  1.00  0.00     0.343 A 
ATOM     19  H2  UNL     1      -3.825  -0.520   1.105  1.00  0.00     0.192 HD
HETATM   20  O2  UNL     1      -5.463   1.582   0.679  1.00  0.00    -0.245 OA
HETATM   21  N3  UNL     1      -3.509   2.307  -0.326  1.00  0.00    -0.258 N 
HETATM   22  C7  UNL     1      -2.284   1.708  -0.463  1.00  0.00     0.345 A 
ATOM     23  H3  UNL     1      -3.795   3.227  -0.660  1.00  0.00     0.175 HD
HETATM   24  O3  UNL     1      -1.321   2.245  -1.043  1.00  0.00    -0.245 OA
ENDBRANCH   5  16
TORSDOF 5
