REMARK  5 active torsions:
REMARK  status: ('A' for Active; 'I' for Inactive)
REMARK    1  A    between atoms: C1_2  and  C2_3 
REMARK       I    between atoms: C1_2  and  N5_19 
REMARK    2  A    between atoms: C2_3  and  C3_4 
REMARK    3  A    between atoms: C5_7  and  N1_8 
REMARK       I    between atoms: N1_8  and  C6_10 
REMARK       I    between atoms: C6_10  and  N2_12 
REMARK    4  A    between atoms: N2_12  and  N3_14 
REMARK    5  A    between atoms: N5_19  and  C7_21 
ROOT
HETATM    1  C3  UNL     1      -0.016   0.116   0.616  1.00  0.00     0.026 A 
HETATM    2  C4  UNL     1      -0.624   0.175   1.838  1.00  0.00     0.078 A 
HETATM    3  S1  UNL     1      -2.233  -0.232   1.467  1.00  0.00    -0.064 SA
HETATM    4  C5  UNL     1      -2.054  -0.455  -0.212  1.00  0.00     0.152 A 
HETATM    5  N4  UNL     1      -0.760  -0.207  -0.422  1.00  0.00    -0.339 N 
ATOM      6  H4  UNL     1      -0.359  -0.266  -1.358  1.00  0.00     0.168 HD
ENDROOT
BRANCH   1   7
HETATM    7  C2  UNL     1       1.473   0.409   0.438  1.00  0.00     0.161 C 
BRANCH   7   8
HETATM    8  C1  UNL     1       2.260  -0.816   0.557  1.00  0.00     0.241 C 
HETATM    9  O1  UNL     1       1.645  -1.931   0.756  1.00  0.00    -0.272 OA
HETATM   10  N5  UNL     1       3.644  -0.968   0.485  1.00  0.00    -0.157 N 
ATOM     11  H5  UNL     1       3.976  -1.892   0.761  1.00  0.00     0.187 HD
BRANCH  10  12
HETATM   12  C7  UNL     1       4.560  -0.176   0.142  1.00  0.00     0.716 A 
HETATM   13  N6  UNL     1       5.872  -0.592   0.163  1.00  0.00    -0.115 N 
HETATM   14  N7  UNL     1       6.628   0.409  -0.237  1.00  0.00    -0.213 N 
ATOM     15  H6  UNL     1       6.202  -1.516   0.441  1.00  0.00     0.207 HD
HETATM   16  N8  UNL     1       5.860   1.438  -0.510  1.00  0.00    -0.213 N 
ATOM     17  H7  UNL     1       7.644   0.388  -0.321  1.00  0.00     0.210 HD
HETATM   18  N9  UNL     1       4.603   1.079  -0.278  1.00  0.00    -0.115 N 
ATOM     19  H8  UNL     1       6.173   2.351  -0.841  1.00  0.00     0.210 HD
ATOM     20  H9  UNL     1       3.790   1.682  -0.405  1.00  0.00     0.207 HD
ENDBRANCH  10  12
ENDBRANCH   7   8
ENDBRANCH   1   7
BRANCH   4  21
HETATM   21  N1  UNL     1      -2.965  -0.791  -1.107  1.00  0.00    -0.287 N 
HETATM   22  C6  UNL     1      -4.295  -1.019  -0.725  1.00  0.00     0.345 C 
HETATM   23  O2  UNL     1      -4.575  -2.109  -0.137  1.00  0.00    -0.245 OA
HETATM   24  N2  UNL     1      -5.366  -0.117  -0.947  1.00  0.00    -0.191 N 
ATOM     25  H2  UNL     1      -5.168   0.766  -1.417  1.00  0.00     0.198 HD
ATOM     26  H1  UNL     1      -2.698  -0.886  -2.087  1.00  0.00     0.172 HD
BRANCH  24  27
HETATM   27  N3  UNL     1      -6.675  -0.381  -0.553  1.00  0.00    -0.035 N 
HETATM   28  O3  UNL     1      -7.326  -1.366  -0.915  1.00  0.00    -0.516 OA
HETATM   29  O4  UNL     1      -7.278   0.511   0.291  1.00  0.00    -0.516 OA
ENDBRANCH  24  27
ENDBRANCH   4  21
TORSDOF 5
