REMARK  4 active torsions:
REMARK  status: ('A' for Active; 'I' for Inactive)
REMARK    1  A    between atoms: C1_2  and  C2_4 
REMARK       I    between atoms: C2_4  and  N1_6 
REMARK    2  A    between atoms: N1_6  and  O4_8 
REMARK    3  A    between atoms: O4_8  and  C3_9 
REMARK    4  A    between atoms: C4_11  and  C5_12 
ROOT
HETATM    1  C3  UNL     1      -0.092   0.475  -0.036  1.00  0.00     0.372 C 
HETATM    2  O5  UNL     1      -1.016  -0.333   0.615  1.00  0.00    -0.314 OA
HETATM    3  C4  UNL     1      -2.294  -0.282   0.099  1.00  0.00     0.337 C 
HETATM    4  N2  UNL     1      -3.057   0.854   0.656  1.00  0.00    -0.273 N 
ATOM      5  H2  UNL     1      -3.647   0.877   1.488  1.00  0.00     0.176 HD
HETATM    6  S1  UNL     1      -2.698   2.154  -0.466  1.00  0.00     0.290 S 
HETATM    7  O8  UNL     1      -2.407   3.428   0.265  1.00  0.00    -0.194 OA
HETATM    8  O9  UNL     1      -3.759   2.289  -1.487  1.00  0.00    -0.194 OA
HETATM    9  S2  UNL     1      -0.871   1.509  -1.331  1.00  0.00     0.047 SA
ENDROOT
BRANCH   1  10
HETATM   10  O4  UNL     1       0.924  -0.301  -0.537  1.00  0.00    -0.232 OA
BRANCH  10  11
HETATM   11  N1  UNL     1       2.082   0.057   0.055  1.00  0.00    -0.222 N 
HETATM   12  C2  UNL     1       3.276  -0.588  -0.350  1.00  0.00     0.341 C 
HETATM   13  O3  UNL     1       3.190  -1.477  -1.258  1.00  0.00    -0.259 OA
ATOM     14  H1  UNL     1       2.097   0.776   0.778  1.00  0.00     0.198 HD
BRANCH  12  15
HETATM   15  C1  UNL     1       4.571  -0.303   0.196  1.00  0.00     0.272 C 
HETATM   16  O1  UNL     1       4.702   0.562   1.091  1.00  0.00    -0.640 OA
HETATM   17  O2  UNL     1       5.686  -0.972  -0.252  1.00  0.00    -0.640 OA
ENDBRANCH  12  15
ENDBRANCH  10  11
ENDBRANCH   1  10
BRANCH   3  18
HETATM   18  C5  UNL     1      -3.011  -1.540   0.372  1.00  0.00     0.225 C 
HETATM   19  O6  UNL     1      -4.088  -1.520   0.989  1.00  0.00    -0.645 OA
HETATM   20  O7  UNL     1      -2.488  -2.735  -0.057  1.00  0.00    -0.645 OA
ENDBRANCH   3  18
TORSDOF 4
