REMARK  11 active torsions:
REMARK  status: ('A' for Active; 'I' for Inactive)
REMARK    1  A    between atoms: C2_2  and  S1_4 
REMARK    2  A    between atoms: S1_4  and  N1_7 
REMARK    3  A    between atoms: N2_10  and  C6_11 
REMARK    4  A    between atoms: C6_11  and  O3_12 
REMARK    5  A    between atoms: C6_11  and  C7_14 
REMARK    6  A    between atoms: C7_14  and  N3_15 
REMARK    7  A    between atoms: N3_15  and  C8_17 
REMARK    8  A    between atoms: C8_17  and  O4_18 
REMARK    9  A    between atoms: C8_17  and  C9_20 
REMARK   10  A    between atoms: C11_22  and  O5_23 
REMARK   11  A    between atoms: N4_25  and  C12_26 
ROOT
HETATM    1  N3  UNL     1      -1.550  -0.864  -0.439  1.00  0.00    -0.389 N 
ATOM      2  H3  UNL     1      -1.952  -1.566  -1.061  1.00  0.00     0.156 HD
ENDROOT
BRANCH   1   3
HETATM    3  C7  UNL     1      -0.190  -0.452  -0.540  1.00  0.00     0.180 C 
BRANCH   3   4
HETATM    4  C6  UNL     1       0.629  -0.911   0.605  1.00  0.00     0.374 C 
BRANCH   4   5
HETATM    5  N2  UNL     1       2.039  -0.651   0.456  1.00  0.00     0.128 N 
HETATM    6  C5  UNL     1       2.667  -1.311  -0.645  1.00  0.00     0.321 C 
HETATM    7  C4  UNL     1       4.153  -1.120  -0.614  1.00  0.00     0.109 C 
HETATM    8  N1  UNL     1       4.646  -0.096   0.180  1.00  0.00    -0.248 N 
HETATM    9  C20 UNL     1       3.825   0.843   0.803  1.00  0.00     0.213 C 
HETATM   10  C19 UNL     1       2.364   0.757   0.346  1.00  0.00     0.343 C 
HETATM   11  C21 UNL     1       3.762   0.719   2.321  1.00  0.00     0.080 C 
HETATM   12  F1  UNL     1       4.244   2.127   0.510  1.00  0.00    -0.217 F 
BRANCH   8  13
HETATM   13  S1  UNL     1       6.276  -0.153   0.525  1.00  0.00     0.238 S 
HETATM   14  O1  UNL     1       6.776   0.956   1.405  1.00  0.00    -0.205 OA
HETATM   15  O2  UNL     1       6.643  -1.506   1.117  1.00  0.00    -0.205 OA
BRANCH  13  16
HETATM   16  C2  UNL     1       7.221  -0.041  -1.001  1.00  0.00     0.121 C 
HETATM   17  C1  UNL     1       6.852   1.328  -1.587  1.00  0.00     0.027 C 
HETATM   18  C3  UNL     1       8.673   0.048  -0.595  1.00  0.00     0.027 C 
ENDBRANCH  13  16
ENDBRANCH   8  13
ENDBRANCH   4   5
BRANCH   4  19
HETATM   19  O3  UNL     1       0.256  -0.460   1.854  1.00  0.00    -0.366 OA
ATOM     20  H3  UNL     1      -0.673  -0.631   1.952  1.00  0.00     0.212 HD
ENDBRANCH   4  19
ENDBRANCH   3   4
ENDBRANCH   1   3
BRANCH   1  21
HETATM   21  C8  UNL     1      -2.313  -0.234   0.584  1.00  0.00     0.249 C 
BRANCH  21  22
HETATM   22  O4  UNL     1      -2.184   1.159   0.401  1.00  0.00    -0.373 OA
ATOM     23  H4  UNL     1      -2.693   1.580   1.084  1.00  0.00     0.212 HD
ENDBRANCH  21  22
BRANCH  21  24
HETATM   24  C9  UNL     1      -3.779  -0.508   0.377  1.00  0.00     0.010 A 
HETATM   25  C10 UNL     1      -4.317  -1.737   0.110  1.00  0.00     0.069 A 
HETATM   26  C11 UNL     1      -5.687  -1.538  -0.015  1.00  0.00     0.147 A 
HETATM   27  N4  UNL     1      -5.990  -0.252   0.165  1.00  0.00    -0.302 N 
HETATM   28  C18 UNL     1      -4.821   0.389   0.407  1.00  0.00     0.111 A 
BRANCH  26  29
HETATM   29  O5  UNL     1      -6.583  -2.579  -0.292  1.00  0.00    -0.346 OA
ATOM     30  H5  UNL     1      -7.519  -2.443  -0.377  1.00  0.00     0.219 HD
ENDBRANCH  26  29
BRANCH  27  31
HETATM   31  C12 UNL     1      -7.290   0.333   0.109  1.00  0.00     0.044 A 
HETATM   32  C13 UNL     1      -7.568   1.406   0.924  1.00  0.00     0.054 A 
HETATM   33  C14 UNL     1      -8.808   2.016   0.910  1.00  0.00     0.037 A 
HETATM   34 CL1  UNL     1      -9.152   3.382   1.951  1.00  0.00    -0.084 Cl
HETATM   35  C15 UNL     1      -9.796   1.554   0.072  1.00  0.00     0.048 A 
HETATM   36  C16 UNL     1      -9.520   0.476  -0.748  1.00  0.00     0.037 A 
HETATM   37 CL2  UNL     1     -10.788  -0.108  -1.817  1.00  0.00    -0.084 Cl
HETATM   38  C17 UNL     1      -8.283  -0.123  -0.727  1.00  0.00     0.054 A 
ENDBRANCH  27  31
ENDBRANCH  21  24
ENDBRANCH   1  21
TORSDOF 11
