REMARK  8 active torsions:
REMARK  status: ('A' for Active; 'I' for Inactive)
REMARK    1  A    between atoms: C2_2  and  C18_30 
REMARK    2  A    between atoms: C3_3  and  C4_5 
REMARK       I    between atoms: C4_5  and  N1_7 
REMARK    3  A    between atoms: N1_7  and  C5_9 
REMARK    4  A    between atoms: N2_12  and  C8_13 
REMARK    5  A    between atoms: C8_13  and  C9_14 
REMARK    6  A    between atoms: C9_14  and  N3_15 
REMARK       I    between atoms: N3_15  and  C10_17 
REMARK    7  A    between atoms: C10_17  and  C11_19 
REMARK    8  A    between atoms: C12_21  and  O4_22 
ROOT
HETATM    1  C5  UNL     1      -1.945  -0.474   0.558  1.00  0.00     0.091 C 
HETATM    2  C6  UNL     1      -1.655  -1.502  -0.512  1.00  0.00     0.045 C 
HETATM    3  C7  UNL     1      -0.277  -1.254  -1.076  1.00  0.00     0.124 C 
HETATM    4  N2  UNL     1       0.535  -0.564  -0.145  1.00  0.00    -0.392 N 
HETATM    5  C16 UNL     1       0.163   0.742   0.231  1.00  0.00     0.060 C 
HETATM    6  C17 UNL     1      -1.360   0.862   0.179  1.00  0.00     0.069 C 
ENDROOT
BRANCH   1   7
HETATM    7  N1  UNL     1      -3.404  -0.377   0.714  1.00  0.00    -0.350 N 
HETATM    8  C4  UNL     1      -3.998  -0.738   1.918  1.00  0.00     0.281 C 
HETATM    9  O1  UNL     1      -3.169  -1.128   2.835  1.00  0.00    -0.265 OA
ATOM     10  H1  UNL     1      -3.979  -0.045  -0.060  1.00  0.00     0.163 HD
BRANCH   8  11
HETATM   11  C3  UNL     1      -5.379  -0.717   2.234  1.00  0.00     0.190 C 
HETATM   12  C2  UNL     1      -6.432  -0.451   1.551  1.00  0.00    -0.007 C 
HETATM   13  C1  UNL     1      -7.784  -0.352   2.264  1.00  0.00     0.052 C 
HETATM   14  F1  UNL     1      -5.644  -0.902   3.615  1.00  0.00    -0.200 F 
BRANCH  12  15
HETATM   15  C18 UNL     1      -6.566  -0.352   0.113  1.00  0.00    -0.025 A 
HETATM   16  C19 UNL     1      -6.304  -1.439  -0.725  1.00  0.00     0.014 A 
HETATM   17  C20 UNL     1      -6.427  -1.354  -2.089  1.00  0.00     0.026 A 
HETATM   18  C21 UNL     1      -6.824  -0.153  -2.664  1.00  0.00     0.055 A 
HETATM   19 CL1  UNL     1      -7.001   0.029  -4.392  1.00  0.00    -0.083 Cl
HETATM   20  C22 UNL     1      -7.084   0.925  -1.834  1.00  0.00     0.056 A 
HETATM   21 CL2  UNL     1      -7.586   2.446  -2.560  1.00  0.00    -0.083 Cl
HETATM   22  C23 UNL     1      -6.958   0.831  -0.468  1.00  0.00     0.037 A 
ENDBRANCH  12  15
ENDBRANCH   8  11
ENDBRANCH   1   7
BRANCH   4  23
HETATM   23  C8  UNL     1       1.336  -1.334   0.730  1.00  0.00     0.141 C 
BRANCH  23  24
HETATM   24  C9  UNL     1       2.183  -0.565   1.687  1.00  0.00     0.142 C 
BRANCH  24  25
HETATM   25  N3  UNL     1       3.079   0.298   0.976  1.00  0.00    -0.357 N 
HETATM   26  C10 UNL     1       4.060  -0.167   0.068  1.00  0.00     0.257 C 
HETATM   27  O2  UNL     1       4.203  -1.381  -0.163  1.00  0.00    -0.270 OA
ATOM     28  H3  UNL     1       3.006   1.303   1.133  1.00  0.00     0.162 HD
BRANCH  26  29
HETATM   29  C11 UNL     1       4.952   0.788  -0.638  1.00  0.00     0.278 C 
HETATM   30  O3  UNL     1       5.826   0.094  -1.472  1.00  0.00    -0.335 OA
HETATM   31  C12 UNL     1       6.826   0.936  -1.877  1.00  0.00     0.276 C 
HETATM   32  C13 UNL     1       7.616   1.348  -0.624  1.00  0.00     0.053 C 
HETATM   33  C14 UNL     1       8.274   2.673  -0.828  1.00  0.00     0.032 C 
HETATM   34  C15 UNL     1       8.534   0.265  -0.157  1.00  0.00     0.032 C 
HETATM   35  S1  UNL     1       6.181   1.528   0.519  1.00  0.00    -0.114 SA
BRANCH  31  36
HETATM   36  O4  UNL     1       7.661   0.258  -2.727  1.00  0.00    -0.370 OA
ATOM     37  H4  UNL     1       8.355   0.842  -3.008  1.00  0.00     0.212 HD
ENDBRANCH  31  36
ENDBRANCH  26  29
ENDBRANCH  24  25
ENDBRANCH  23  24
ENDBRANCH   4  23
TORSDOF 8
