REMARK  12 active torsions:
REMARK  status: ('A' for Active; 'I' for Inactive)
REMARK    1  A    between atoms: C2_2  and  C3_3 
REMARK    2  A    between atoms: C4_4  and  C5_5 
REMARK    3  A    between atoms: N2_11  and  C9_12 
REMARK    4  A    between atoms: C9_12  and  C10_13 
REMARK    5  A    between atoms: C10_13  and  C11_14 
REMARK    6  A    between atoms: C11_14  and  C12_15 
REMARK    7  A    between atoms: C12_15  and  C13_16 
REMARK       I    between atoms: C13_16  and  N3_18 
REMARK    8  A    between atoms: N3_18  and  N4_20 
REMARK    9  A    between atoms: N4_20  and  N5_21 
REMARK   10  A    between atoms: C15_25  and  O2_26 
REMARK   11  A    between atoms: C21_34  and  O3_35 
REMARK   12  A    between atoms: C21_34  and  C22_37 
ROOT
HETATM    1  C10 UNL     1      -1.063   0.050   0.455  1.00  0.00     0.004 C 
HETATM    2  C14 UNL     1      -0.682  -0.473   1.885  1.00  0.00     0.048 C 
HETATM    3  C15 UNL     1      -1.605  -1.639   2.175  1.00  0.00     0.134 C 
HETATM    4  C16 UNL     1      -2.890  -1.084   1.662  1.00  0.00     0.059 C 
HETATM    5  C17 UNL     1      -3.462  -0.150   2.625  1.00  0.00     0.025 C 
HETATM    6  C18 UNL     1      -2.376  -0.619   0.343  1.00  0.00     0.059 C 
HETATM    7  C19 UNL     1      -3.555  -0.239  -0.351  1.00  0.00     0.152 C 
HETATM    8  C20 UNL     1      -3.487  -0.154  -1.861  1.00  0.00     0.056 C 
HETATM    9  F1  UNL     1      -4.347   0.790   0.079  1.00  0.00    -0.239 F 
HETATM   10  C21 UNL     1      -4.364  -1.567  -0.128  1.00  0.00     0.249 C 
HETATM   11  C23 UNL     1      -3.912  -2.063   1.226  1.00  0.00     0.297 C 
HETATM   12  F2  UNL     1      -3.438  -3.367   1.156  1.00  0.00    -0.201 F 
HETATM   13  F3  UNL     1      -4.978  -2.015   2.138  1.00  0.00    -0.201 F 
ENDROOT
BRANCH   1  14
HETATM   14  C9  UNL     1      -0.146  -0.623  -0.482  1.00  0.00     0.103 C 
BRANCH  14  15
HETATM   15  N2  UNL     1       1.258  -0.594  -0.442  1.00  0.00    -0.235 N 
HETATM   16  N1  UNL     1       1.992  -1.334   0.391  1.00  0.00    -0.303 N 
HETATM   17  C8  UNL     1       3.306  -1.296   0.461  1.00  0.00     0.116 A 
ATOM     18  H1  UNL     1       1.501  -1.973   1.017  1.00  0.00     0.186 HD
HETATM   19  C4  UNL     1       4.081  -0.463  -0.345  1.00  0.00    -0.026 A 
HETATM   20  C3  UNL     1       3.373   0.309  -1.214  1.00  0.00     0.019 A 
HETATM   21  C24 UNL     1       1.961   0.217  -1.236  1.00  0.00     0.272 A 
HETATM   22  O6  UNL     1       1.409   0.982  -2.100  1.00  0.00    -0.266 OA
BRANCH  19  23
HETATM   23  C5  UNL     1       5.534  -0.396  -0.257  1.00  0.00     0.012 C 
HETATM   24  C6  UNL     1       6.108  -1.549   0.576  1.00  0.00     0.015 C 
HETATM   25  C7  UNL     1       6.046   0.924   0.281  1.00  0.00     0.015 C 
ENDBRANCH  19  23
BRANCH  20  26
HETATM   26  C2  UNL     1       4.027   1.214  -2.144  1.00  0.00     0.040 C 
HETATM   27  C1  UNL     1       4.638   0.467  -3.342  1.00  0.00     0.010 C 
ENDBRANCH  20  26
ENDBRANCH  14  15
ENDBRANCH   1  14
BRANCH   1  28
HETATM   28  C11 UNL     1      -1.005   1.505   0.538  1.00  0.00     0.025 C 
BRANCH  28  29
HETATM   29  C12 UNL     1      -1.299   2.444  -0.532  1.00  0.00     0.106 C 
BRANCH  29  30
HETATM   30  C13 UNL     1      -1.058   3.853   0.017  1.00  0.00     0.247 C 
HETATM   31  O1  UNL     1      -0.681   4.012   1.198  1.00  0.00    -0.271 OA
HETATM   32  N3  UNL     1      -1.254   4.996  -0.796  1.00  0.00    -0.183 N 
ATOM     33  H3  UNL     1      -2.169   5.196  -1.200  1.00  0.00     0.207 HD
BRANCH  32  34
HETATM   34  N4  UNL     1      -0.299   5.742  -1.005  1.00  0.00    -0.241 NA
BRANCH  34  35
HETATM   35  N5  UNL     1       0.631   6.559  -1.114  1.00  0.00    -0.260 N 
ATOM     36  H52 UNL     1       0.200   6.940  -0.271  1.00  0.00     0.193 HD
ATOM     37  H51 UNL     1       1.423   7.178  -1.287  1.00  0.00     0.193 HD
ENDBRANCH  34  35
ENDBRANCH  32  34
ENDBRANCH  29  30
ENDBRANCH  28  29
ENDBRANCH   1  28
BRANCH   3  38
HETATM   38  O2  UNL     1      -1.175  -2.805   1.607  1.00  0.00    -0.395 OA
ATOM     39  H2  UNL     1      -1.754  -3.536   1.789  1.00  0.00     0.210 HD
ENDBRANCH   3  38
BRANCH  10  40
HETATM   40  O3  UNL     1      -3.938  -2.505  -1.063  1.00  0.00    -0.371 OA
ATOM     41  H3  UNL     1      -4.427  -3.308  -0.928  1.00  0.00     0.211 HD
ENDBRANCH  10  40
BRANCH  10  42
HETATM   42  C22 UNL     1      -5.787  -1.346  -0.263  1.00  0.00     0.219 C 
HETATM   43  O4  UNL     1      -6.479  -0.553   0.432  1.00  0.00    -0.645 OA
HETATM   44  O5  UNL     1      -6.489  -2.049  -1.231  1.00  0.00    -0.645 OA
ENDBRANCH  10  42
TORSDOF 12
