REMARK  10 active torsions:
REMARK  status: ('A' for Active; 'I' for Inactive)
REMARK    1  A    between atoms: C2_2  and  C4_4 
REMARK    2  A    between atoms: C4_4  and  C5_6 
REMARK    3  A    between atoms: C5_6  and  C6_7 
REMARK    4  A    between atoms: C8_10  and  C9_11 
REMARK    5  A    between atoms: C9_11  and  N1_12 
REMARK    6  A    between atoms: N1_12  and  C10_14 
REMARK    7  A    between atoms: C10_14  and  C11_15 
REMARK    8  A    between atoms: C11_15  and  O3_16 
REMARK    9  A    between atoms: C17_22  and  O4_23 
REMARK   10  A    between atoms: C25_33  and  O6_34 
ROOT
HETATM    1  C6  UNL     1       2.126  -1.364  -0.171  1.00  0.00     0.075 C 
HETATM    2  C7  UNL     1       2.138  -0.135   0.601  1.00  0.00     0.142 C 
HETATM    3  O2  UNL     1       2.526   0.211   1.680  1.00  0.00    -0.297 OA
HETATM    4  C8  UNL     1       1.448   0.797  -0.384  1.00  0.00     0.103 C 
HETATM    5  C13 UNL     1       0.291  -0.030  -0.768  1.00  0.00    -0.053 C 
HETATM    6  C14 UNL     1      -1.072   0.397  -0.366  1.00  0.00    -0.041 C 
HETATM    7  C15 UNL     1      -1.399   0.626   1.050  1.00  0.00     0.040 C 
HETATM    8  C16 UNL     1      -2.743   0.163   1.539  1.00  0.00     0.044 C 
HETATM    9  C17 UNL     1      -3.851   0.121   0.571  1.00  0.00     0.078 C 
HETATM   10  C18 UNL     1      -5.005   1.086   0.896  1.00  0.00     0.086 C 
HETATM   11  C19 UNL     1      -5.506   0.780   2.292  1.00  0.00     0.021 C 
HETATM   12  C20 UNL     1      -6.122   0.662  -0.030  1.00  0.00     0.133 C 
HETATM   13  O5  UNL     1      -7.234   1.052   0.299  1.00  0.00    -0.297 OA
HETATM   14  C21 UNL     1      -5.907  -0.154  -1.236  1.00  0.00     0.080 C 
HETATM   15  C22 UNL     1      -4.547  -0.032  -1.840  1.00  0.00     0.023 C 
HETATM   16  C23 UNL     1      -3.470   0.378  -0.848  1.00  0.00     0.023 C 
HETATM   17  C24 UNL     1      -3.362   1.882  -1.031  1.00  0.00     0.022 C 
HETATM   18  C25 UNL     1      -2.130  -0.305  -1.184  1.00  0.00     0.092 C 
HETATM   19  C26 UNL     1      -2.155  -1.749  -1.206  1.00  0.00     0.043 C 
HETATM   20  C27 UNL     1      -1.489  -2.621  -0.226  1.00  0.00     0.004 C 
HETATM   21  C28 UNL     1      -0.148  -2.306   0.279  1.00  0.00     0.014 C 
HETATM   22  C29 UNL     1       0.694  -1.469  -0.621  1.00  0.00    -0.009 C 
HETATM   23  C30 UNL     1       0.744  -2.229  -1.955  1.00  0.00     0.021 C 
ENDROOT
BRANCH   4  24
HETATM   24  C9  UNL     1       1.340   2.160   0.076  1.00  0.00     0.130 C 
BRANCH  24  25
HETATM   25  N1  UNL     1       2.629   2.778   0.327  1.00  0.00    -0.418 N 
ATOM     26  H1  UNL     1       2.949   3.015   1.266  1.00  0.00     0.153 HD
BRANCH  25  27
HETATM   27  C10 UNL     1       3.416   3.030  -0.835  1.00  0.00     0.140 C 
BRANCH  27  28
HETATM   28  C11 UNL     1       4.733   3.725  -0.465  1.00  0.00     0.186 C 
BRANCH  28  29
HETATM   29  O3  UNL     1       4.427   4.919   0.150  1.00  0.00    -0.394 OA
HETATM   30  C12 UNL     1       5.523   5.649   0.534  1.00  0.00     0.201 C 
ENDBRANCH  28  29
ENDBRANCH  27  28
ENDBRANCH  25  27
ENDBRANCH  24  25
ENDBRANCH   4  24
BRANCH   1  31
HETATM   31  C5  UNL     1       2.746  -2.565   0.404  1.00  0.00     0.096 C 
BRANCH  31  32
HETATM   32  C4  UNL     1       4.184  -2.437   0.713  1.00  0.00     0.155 C 
HETATM   33  O1  UNL     1       4.818  -1.394   0.504  1.00  0.00    -0.293 OA
BRANCH  32  34
HETATM   34  C2  UNL     1       4.900  -3.554   1.282  1.00  0.00    -0.025 C 
HETATM   35  C1  UNL     1       4.338  -4.718   1.551  1.00  0.00     0.022 C 
HETATM   36  C3  UNL     1       6.361  -3.388   1.587  1.00  0.00     0.051 C 
ENDBRANCH  32  34
ENDBRANCH  31  32
ENDBRANCH   1  31
BRANCH  18  37
HETATM   37  O6  UNL     1      -1.985   0.142  -2.533  1.00  0.00    -0.384 OA
ATOM     38  H6  UNL     1      -2.650  -0.300  -3.048  1.00  0.00     0.211 HD
ENDBRANCH  18  37
BRANCH   9  39
HETATM   39  O4  UNL     1      -4.500  -1.133   0.725  1.00  0.00    -0.388 OA
ATOM     40  H4  UNL     1      -5.215  -1.160   0.100  1.00  0.00     0.210 HD
ENDBRANCH   9  39
TORSDOF 10
