REMARK  8 active torsions:
REMARK  status: ('A' for Active; 'I' for Inactive)
REMARK    1  A    between atoms: C4_4  and  C5_5 
REMARK    2  A    between atoms: C5_5  and  C6_6 
REMARK    3  A    between atoms: C6_6  and  N1_7 
REMARK    4  A    between atoms: C9_10  and  O1_11 
REMARK    5  A    between atoms: C9_10  and  C10_13 
REMARK    6  A    between atoms: C10_13  and  N2_14 
REMARK    7  A    between atoms: N2_14  and  S1_16 
REMARK    8  A    between atoms: S1_16  and  C11_19 
ROOT
HETATM    1  C1  UNL     1      -1.078   0.805  -2.324  1.00  0.00     0.046 C 
HETATM    2  C2  UNL     1      -2.388   0.387  -1.798  1.00  0.00    -0.058 C 
HETATM    3  C3  UNL     1      -2.433  -0.327  -0.650  1.00  0.00     0.028 C 
HETATM    4  C4  UNL     1      -1.150  -0.611  -0.052  1.00  0.00     0.004 C 
HETATM    5  N3  UNL     1      -3.615  -0.838  -0.056  1.00  0.00    -0.375 N 
HETATM    6  C15 UNL     1      -3.377  -1.570   1.144  1.00  0.00     0.123 C 
HETATM    7  C16 UNL     1      -4.021  -0.821   2.289  1.00  0.00     0.020 C 
HETATM    8  C17 UNL     1      -5.467  -0.738   2.073  1.00  0.00     0.009 C 
HETATM    9  C18 UNL     1      -5.877  -0.256   0.699  1.00  0.00     0.019 C 
HETATM   10  C19 UNL     1      -7.347  -0.525   0.640  1.00  0.00     0.087 C 
HETATM   11  S2  UNL     1      -8.016  -0.906  -0.974  1.00  0.00    -0.116 SA
HETATM   12  C20 UNL     1      -6.699  -0.900  -2.173  1.00  0.00     0.046 C 
HETATM   13  N4  UNL     1      -6.875  -1.398  -3.318  1.00  0.00    -0.397 N 
ATOM     14  H41 UNL     1      -6.121  -1.395  -4.005  1.00  0.00     0.156 HD
ATOM     15  H42 UNL     1      -7.740  -1.827  -3.646  1.00  0.00     0.156 HD
HETATM   16  C21 UNL     1      -5.426  -0.268  -1.690  1.00  0.00     0.065 C 
HETATM   17  C22 UNL     1      -4.466  -0.397  -2.839  1.00  0.00     0.018 C 
HETATM   18  C23 UNL     1      -3.536   0.815  -2.643  1.00  0.00     0.037 C 
HETATM   19  C24 UNL     1      -5.041  -0.812  -0.401  1.00  0.00     0.099 C 
ENDROOT
BRANCH   4  20
HETATM   20  C5  UNL     1      -0.681   0.070   1.162  1.00  0.00     0.059 C 
BRANCH  20  21
HETATM   21  C6  UNL     1       0.726  -0.508   1.452  1.00  0.00     0.276 C 
BRANCH  21  22
HETATM   22  N1  UNL     1       1.649  -0.283   0.389  1.00  0.00     0.091 N 
HETATM   23  C7  UNL     1       2.012   1.099   0.203  1.00  0.00     0.275 C 
HETATM   24  C8  UNL     1       3.547   1.157   0.210  1.00  0.00     0.071 C 
HETATM   25  C9  UNL     1       3.830   0.070   1.232  1.00  0.00     0.102 C 
HETATM   26  C14 UNL     1       2.872  -1.002   0.764  1.00  0.00     0.311 C 
BRANCH  25  27
HETATM   27  O1  UNL     1       3.497   0.601   2.470  1.00  0.00    -0.386 OA
ATOM     28  H1  UNL     1       3.674  -0.079   3.109  1.00  0.00     0.210 HD
ENDBRANCH  25  27
BRANCH  25  29
HETATM   29  C10 UNL     1       5.259  -0.398   1.177  1.00  0.00     0.171 C 
BRANCH  29  30
HETATM   30  N2  UNL     1       6.204   0.646   1.423  1.00  0.00    -0.316 N 
ATOM     31  H2  UNL     1       5.978   1.621   1.618  1.00  0.00     0.172 HD
BRANCH  30  32
HETATM   32  S1  UNL     1       7.792  -0.025   1.333  1.00  0.00     0.230 S 
HETATM   33  O2  UNL     1       8.801   1.017   1.681  1.00  0.00    -0.206 OA
HETATM   34  O3  UNL     1       7.876  -1.199   2.289  1.00  0.00    -0.206 OA
BRANCH  32  35
HETATM   35  C11 UNL     1       8.089  -0.684  -0.305  1.00  0.00     0.129 A 
HETATM   36  C12 UNL     1       8.611   0.290  -1.358  1.00  0.00     0.023 A 
HETATM   37  C13 UNL     1       9.516  -0.751  -0.757  1.00  0.00     0.023 A 
ENDBRANCH  32  35
ENDBRANCH  30  32
ENDBRANCH  29  30
ENDBRANCH  25  29
ENDBRANCH  21  22
ENDBRANCH  20  21
ENDBRANCH   4  20
TORSDOF 8
