REMARK  10 active torsions:
REMARK  status: ('A' for Active; 'I' for Inactive)
REMARK    1  A    between atoms: C2_2  and  N1_3 
REMARK    2  A    between atoms: N1_3  and  C3_4 
REMARK       I    between atoms: N1_3  and  C5_6 
REMARK    3  A    between atoms: C5_6  and  C6_8 
REMARK    4  A    between atoms: N2_10  and  C8_11 
REMARK    5  A    between atoms: C8_11  and  C9_12 
REMARK    6  A    between atoms: C22_25  and  C23_26 
REMARK    7  A    between atoms: N3_29  and  C24_30 
REMARK    8  A    between atoms: C24_30  and  C25_31 
REMARK    9  A    between atoms: C25_31  and  O4_32 
REMARK   10  A    between atoms: N4_34  and  O5_36 
ROOT
HETATM    1  C6  UNL     1      -0.696  -2.026  -0.023  1.00  0.00     0.056 A 
HETATM    2  C7  UNL     1       0.418  -1.706   0.744  1.00  0.00     0.108 A 
HETATM    3  N2  UNL     1       0.669  -0.384   0.631  1.00  0.00    -0.357 N 
HETATM    4  C19 UNL     1      -0.248   0.135  -0.181  1.00  0.00     0.032 A 
HETATM    5  C20 UNL     1      -1.098  -0.863  -0.594  1.00  0.00    -0.015 A 
HETATM    6  C21 UNL     1      -2.189  -0.503  -1.508  1.00  0.00     0.072 C 
HETATM    7  C22 UNL     1      -2.739   0.881  -1.316  1.00  0.00     0.168 C 
HETATM    8  N3  UNL     1      -1.825   1.855  -0.884  1.00  0.00    -0.268 NA
HETATM    9  C27 UNL     1      -0.476   1.490  -0.661  1.00  0.00     0.153 C 
ENDROOT
BRANCH   3  10
HETATM   10  C8  UNL     1       1.774   0.254   1.315  1.00  0.00     0.138 C 
BRANCH  10  11
HETATM   11  C9  UNL     1       3.051   0.272   0.551  1.00  0.00    -0.023 C 
HETATM   12  C10 UNL     1       3.005   0.979  -0.759  1.00  0.00     0.015 C 
HETATM   13  C11 UNL     1       4.386   0.973  -1.373  1.00  0.00    -0.013 C 
HETATM   14  C12 UNL     1       5.387   1.714  -0.503  1.00  0.00     0.009 C 
HETATM   15  C16 UNL     1       4.923  -0.413  -1.584  1.00  0.00     0.009 C 
HETATM   16  C13 UNL     1       5.442   1.005   0.827  1.00  0.00    -0.013 C 
HETATM   17  C14 UNL     1       5.902  -0.431   0.691  1.00  0.00     0.009 C 
HETATM   18  C18 UNL     1       4.075   0.988   1.442  1.00  0.00     0.015 C 
HETATM   19  C15 UNL     1       4.958  -1.124  -0.250  1.00  0.00    -0.013 C 
HETATM   20  C17 UNL     1       3.560  -1.135   0.306  1.00  0.00     0.015 C 
ENDBRANCH  10  11
ENDBRANCH   3  10
BRANCH   1  21
HETATM   21  C5  UNL     1      -1.287  -3.360  -0.155  1.00  0.00     0.255 C 
HETATM   22  N1  UNL     1      -2.268  -3.884   0.704  1.00  0.00    -0.349 N 
HETATM   23  O1  UNL     1      -0.880  -4.098  -1.118  1.00  0.00    -0.267 OA
BRANCH  22  24
HETATM   24  C2  UNL     1      -2.791  -5.204   0.490  1.00  0.00     0.121 C 
HETATM   25  C1  UNL     1      -2.017  -6.274   1.212  1.00  0.00     0.026 C 
ENDBRANCH  22  24
BRANCH  22  26
HETATM   26  C3  UNL     1      -2.750  -3.093   1.811  1.00  0.00     0.121 C 
HETATM   27  C4  UNL     1      -3.932  -2.240   1.501  1.00  0.00     0.026 C 
ENDBRANCH  22  26
ENDBRANCH   1  21
BRANCH   8  28
HETATM   28  C24 UNL     1      -2.253   2.640   0.226  1.00  0.00     0.118 C 
BRANCH  28  29
HETATM   29  C25 UNL     1      -3.351   3.564   0.021  1.00  0.00     0.170 C 
HETATM   30  N4  UNL     1      -3.213   4.854   0.201  1.00  0.00    -0.245 N 
ATOM     31  H4  UNL     1      -2.316   5.242   0.494  1.00  0.00     0.196 HD
BRANCH  29  32
HETATM   32  O4  UNL     1      -4.593   3.075  -0.381  1.00  0.00    -0.344 OA
ATOM     33  H4  UNL     1      -5.313   3.681  -0.515  1.00  0.00     0.219 HD
ENDBRANCH  29  32
BRANCH  30  34
HETATM   34  O5  UNL     1      -4.305   5.687  -0.013  1.00  0.00    -0.283 OA
HETATM   35  C26 UNL     1      -4.424   6.908   0.690  1.00  0.00     0.237 C 
ENDBRANCH  30  34
ENDBRANCH  28  29
ENDBRANCH   8  28
BRANCH   7  36
HETATM   36  C23 UNL     1      -3.324   1.261  -2.626  1.00  0.00     0.192 C 
HETATM   37  O2  UNL     1      -4.176   0.514  -3.150  1.00  0.00    -0.647 OA
HETATM   38  O3  UNL     1      -2.949   2.416  -3.274  1.00  0.00    -0.647 OA
ENDBRANCH   7  36
TORSDOF 10
