REMARK  13 active torsions:
REMARK  status: ('A' for Active; 'I' for Inactive)
REMARK    1  A    between atoms: C2_2  and  C3_3 
REMARK    2  A    between atoms: C4_4  and  O1_5 
REMARK    3  A    between atoms: C5_7  and  N1_8 
REMARK    4  A    between atoms: N1_8  and  C6_9 
REMARK    5  A    between atoms: C6_9  and  O2_10 
REMARK    6  A    between atoms: C6_9  and  N2_12 
REMARK    7  A    between atoms: N2_12  and  N3_14 
REMARK    8  A    between atoms: N4_19  and  C10_20 
REMARK    9  A    between atoms: N6_32  and  C20_33 
REMARK   10  A    between atoms: C20_33  and  C21_34 
REMARK   11  A    between atoms: C21_34  and  N7_35 
REMARK   12  A    between atoms: N7_35  and  C22_36 
REMARK   13  A    between atoms: N7_35  and  C24_38 
ROOT
HETATM    1  C6  UNL     1       0.391  -1.092   0.874  1.00  0.00     0.315 C 
ENDROOT
BRANCH   1   2
HETATM    2  N1  UNL     1       1.591  -1.426   0.633  1.00  0.00    -0.341 NA
BRANCH   2   3
HETATM    3  C5  UNL     1       2.741  -1.673   0.376  1.00  0.00     0.232 A 
HETATM    4  C4  UNL     1       3.281  -2.961   0.663  1.00  0.00     0.137 A 
HETATM    5  C3  UNL     1       4.552  -3.321   0.345  1.00  0.00     0.049 A 
HETATM    6  C26 UNL     1       5.334  -2.363  -0.287  1.00  0.00     0.271 A 
HETATM    7  N6  UNL     1       4.843  -1.146  -0.561  1.00  0.00    -0.253 N 
HETATM    8  O3  UNL     1       6.515  -2.691  -0.585  1.00  0.00    -0.266 OA
HETATM    9  N5  UNL     1       3.612  -0.814  -0.248  1.00  0.00    -0.267 N 
ATOM     10  H5  UNL     1       3.288   0.125  -0.479  1.00  0.00     0.190 HD
BRANCH   4  11
HETATM   11  O1  UNL     1       2.448  -3.862   1.296  1.00  0.00    -0.356 OA
ATOM     12  H1  UNL     1       1.559  -3.610   1.518  1.00  0.00     0.218 HD
ENDBRANCH   4  11
BRANCH   5  13
HETATM   13  C2  UNL     1       5.068  -4.681   0.678  1.00  0.00     0.043 C 
HETATM   14  C1  UNL     1       4.501  -5.720  -0.271  1.00  0.00     0.010 C 
ENDBRANCH   5  13
BRANCH   7  15
HETATM   15  C20 UNL     1       5.679  -0.185  -1.245  1.00  0.00     0.183 C 
BRANCH  15  16
HETATM   16  C21 UNL     1       6.599   0.387  -0.169  1.00  0.00     0.294 C 
BRANCH  16  17
HETATM   17  N7  UNL     1       7.489   1.382  -0.664  1.00  0.00     0.089 N 
BRANCH  17  18
HETATM   18  C22 UNL     1       8.583   1.649   0.267  1.00  0.00     0.268 C 
HETATM   19  C23 UNL     1       9.536   0.505   0.283  1.00  0.00     0.037 C 
ENDBRANCH  17  18
BRANCH  17  20
HETATM   20  C24 UNL     1       6.803   2.649  -0.945  1.00  0.00     0.268 C 
HETATM   21  C25 UNL     1       6.344   3.361   0.287  1.00  0.00     0.037 C 
ENDBRANCH  17  20
ENDBRANCH  16  17
ENDBRANCH  15  16
ENDBRANCH   7  15
ENDBRANCH   2   3
ENDBRANCH   1   2
BRANCH   1  22
HETATM   22  O2  UNL     1      -0.576  -1.924   0.475  1.00  0.00    -0.320 OA
ATOM     23  H2  UNL     1      -1.475  -1.674   0.655  1.00  0.00     0.222 HD
ENDBRANCH   1  22
BRANCH   1  24
HETATM   24  N2  UNL     1      -0.115   0.099   1.549  1.00  0.00    -0.253 N 
ATOM     25  H2  UNL     1       0.501   0.830   1.903  1.00  0.00     0.191 HD
BRANCH  24  26
HETATM   26  N3  UNL     1      -1.487   0.164   1.673  1.00  0.00    -0.303 N 
HETATM   27  C7  UNL     1      -2.251   0.938   1.100  1.00  0.00     0.033 C 
HETATM   28  C8  UNL     1      -2.045   2.031   0.129  1.00  0.00     0.086 C 
HETATM   29  C19 UNL     1      -3.758   0.866   1.256  1.00  0.00     0.327 C 
HETATM   30  C9  UNL     1      -3.466   2.309  -0.437  1.00  0.00     0.279 C 
HETATM   31  N4  UNL     1      -4.074   1.025  -0.208  1.00  0.00     0.098 N 
ATOM     32  H3  UNL     1      -1.916  -0.505   2.312  1.00  0.00     0.186 HD
BRANCH  31  33
HETATM   33  C10 UNL     1      -5.519   0.962  -0.305  1.00  0.00     0.223 C 
HETATM   34  C11 UNL     1      -6.037   1.376  -1.639  1.00  0.00     0.036 C 
HETATM   35  C12 UNL     1      -7.382   2.009  -1.661  1.00  0.00     0.002 C 
HETATM   36  C13 UNL     1      -8.093   2.247  -0.381  1.00  0.00     0.000 C 
HETATM   37  C14 UNL     1      -8.713   1.142   0.341  1.00  0.00     0.000 C 
HETATM   38  C15 UNL     1      -9.034  -0.101  -0.396  1.00  0.00     0.000 C 
HETATM   39  C16 UNL     1      -8.176  -1.242   0.116  1.00  0.00     0.000 C 
HETATM   40  C17 UNL     1      -6.873  -1.185  -0.690  1.00  0.00     0.002 C 
HETATM   41  C18 UNL     1      -5.790  -0.501   0.014  1.00  0.00     0.036 C 
ENDBRANCH  31  33
ENDBRANCH  24  26
ENDBRANCH   1  24
TORSDOF 13
