REMARK  13 active torsions:
REMARK  status: ('A' for Active; 'I' for Inactive)
REMARK    1  A    between atoms: C2_2  and  C4_4 
REMARK    2  A    between atoms: C4_4  and  O1_5 
REMARK    3  A    between atoms: C4_4  and  C10_14 
REMARK    4  A    between atoms: O1_5  and  C5_6 
REMARK       I    between atoms: C5_6  and  N1_8 
REMARK    5  A    between atoms: N1_8  and  C6_10 
REMARK       I    between atoms: C10_14  and  N2_16 
REMARK    6  A    between atoms: N2_16  and  C11_18 
REMARK    7  A    between atoms: C11_18  and  C12_19 
REMARK    8  A    between atoms: C11_18  and  C22_34 
REMARK    9  A    between atoms: C12_19  and  N3_20 
REMARK   10  A    between atoms: C15_23  and  N4_24 
REMARK       I    between atoms: N4_24  and  C16_26 
REMARK   11  A    between atoms: C16_26  and  O5_28 
REMARK   12  A    between atoms: O5_28  and  C17_29 
REMARK   13  A    between atoms: C22_34  and  C23_36 
ROOT
HETATM    1  C11 UNL     1      -0.149   0.275  -1.479  1.00  0.00     0.183 C 
ENDROOT
BRANCH   1   2
HETATM    2  N2  UNL     1      -1.192   0.877  -0.621  1.00  0.00    -0.346 N 
HETATM    3  C10 UNL     1      -2.153   0.126   0.045  1.00  0.00     0.248 C 
HETATM    4  O3  UNL     1      -2.161  -1.117  -0.070  1.00  0.00    -0.271 OA
ATOM      5  H2  UNL     1      -1.207   1.891  -0.513  1.00  0.00     0.163 HD
BRANCH   3   6
HETATM    6  C4  UNL     1      -3.200   0.701   0.892  1.00  0.00     0.228 C 
BRANCH   6   7
HETATM    7  C2  UNL     1      -2.739   1.284   2.201  1.00  0.00     0.016 C 
HETATM    8  C1  UNL     1      -3.830   2.036   2.916  1.00  0.00     0.012 C 
HETATM    9  C3  UNL     1      -1.475   2.016   2.247  1.00  0.00     0.012 C 
ENDBRANCH   6   7
BRANCH   6  10
HETATM   10  O1  UNL     1      -4.258  -0.236   1.148  1.00  0.00    -0.289 OA
BRANCH  10  11
HETATM   11  C5  UNL     1      -5.548   0.018   0.719  1.00  0.00     0.362 C 
HETATM   12  O2  UNL     1      -5.712   1.116   0.098  1.00  0.00    -0.238 OA
HETATM   13  N1  UNL     1      -6.631  -0.845   0.933  1.00  0.00    -0.329 N 
ATOM     14  H1  UNL     1      -6.482  -1.723   1.430  1.00  0.00     0.165 HD
BRANCH  13  15
HETATM   15  C6  UNL     1      -7.955  -0.511   0.461  1.00  0.00     0.024 C 
HETATM   16  C7  UNL     1      -8.019  -0.326  -1.040  1.00  0.00     0.037 C 
HETATM   17  C8  UNL     1      -8.467   0.712   1.210  1.00  0.00     0.037 C 
HETATM   18  C9  UNL     1      -8.943  -1.640   0.773  1.00  0.00     0.037 C 
ENDBRANCH  13  15
ENDBRANCH  10  11
ENDBRANCH   6  10
ENDBRANCH   3   6
ENDBRANCH   1   2
BRANCH   1  19
HETATM   19  C12 UNL     1       1.055   1.143  -1.302  1.00  0.00     0.305 C 
BRANCH  19  20
HETATM   20  N3  UNL     1       1.550   1.250   0.039  1.00  0.00     0.092 N 
HETATM   21  C13 UNL     1       2.599   2.262   0.053  1.00  0.00     0.274 C 
HETATM   22  C14 UNL     1       3.763   1.560  -0.557  1.00  0.00     0.057 C 
HETATM   23  C15 UNL     1       3.676   0.167   0.079  1.00  0.00     0.116 C 
HETATM   24  C21 UNL     1       2.257   0.082   0.513  1.00  0.00     0.297 C 
BRANCH  23  25
HETATM   25  N4  UNL     1       4.641   0.084   1.163  1.00  0.00    -0.331 N 
HETATM   26  C16 UNL     1       5.880  -0.620   1.028  1.00  0.00     0.361 C 
HETATM   27  O4  UNL     1       6.155  -1.205  -0.078  1.00  0.00    -0.238 OA
ATOM     28  H4  UNL     1       4.428   0.542   2.049  1.00  0.00     0.165 HD
BRANCH  26  29
HETATM   29  O5  UNL     1       6.802  -0.697   2.030  1.00  0.00    -0.294 OA
BRANCH  29  30
HETATM   30  C17 UNL     1       8.043  -1.342   2.004  1.00  0.00     0.061 C 
HETATM   31  C18 UNL     1       8.712  -1.126   3.351  1.00  0.00     0.046 C 
HETATM   32  C19 UNL     1       7.958  -2.835   1.757  1.00  0.00     0.046 C 
HETATM   33  C20 UNL     1       8.962  -0.781   0.943  1.00  0.00     0.046 C 
ENDBRANCH  29  30
ENDBRANCH  26  29
ENDBRANCH  23  25
ENDBRANCH  19  20
ENDBRANCH   1  19
BRANCH   1  34
HETATM   34  C22 UNL     1      -0.656   0.209  -2.871  1.00  0.00     0.158 C 
HETATM   35  O6  UNL     1      -1.666   0.830  -3.144  1.00  0.00    -0.295 OA
BRANCH  34  36
HETATM   36  C23 UNL     1      -0.027  -0.555  -3.929  1.00  0.00     0.012 C 
HETATM   37  C24 UNL     1       1.365  -0.112  -4.282  1.00  0.00     0.022 C 
HETATM   38  C25 UNL     1       0.041  -2.053  -3.599  1.00  0.00     0.022 C 
HETATM   39  C26 UNL     1      -0.839  -0.389  -5.226  1.00  0.00     0.022 C 
ENDBRANCH  34  36
ENDBRANCH   1  34
TORSDOF 13
