REMARK  11 active torsions:
REMARK  status: ('A' for Active; 'I' for Inactive)
REMARK    1  A    between atoms: C2_2  and  O1_4 
REMARK    2  A    between atoms: C2_2  and  C4_6 
REMARK    3  A    between atoms: C4_6  and  C5_7 
REMARK    4  A    between atoms: C5_7  and  N1_8 
REMARK    5  A    between atoms: C5_7  and  C13_26 
REMARK    6  A    between atoms: N1_8  and  S1_10 
REMARK    7  A    between atoms: S1_10  and  C6_13 
REMARK    8  A    between atoms: C7_19  and  O4_20 
REMARK    9  A    between atoms: O4_20  and  C8_21 
REMARK   10  A    between atoms: C13_26  and  O5_27 
REMARK   11  A    between atoms: C13_26  and  N5_29 
ROOT
HETATM    1  C5  UNL     1      -0.087  -1.097  -0.768  1.00  0.00     0.073 C 
ENDROOT
BRANCH   1   2
HETATM    2  C4  UNL     1       0.631  -2.123  -1.541  1.00  0.00     0.099 C 
BRANCH   2   3
HETATM    3  C2  UNL     1      -0.106  -2.928  -2.563  1.00  0.00     0.056 C 
HETATM    4  C1  UNL     1      -1.199  -3.738  -1.970  1.00  0.00     0.045 C 
HETATM    5  C3  UNL     1       0.928  -3.918  -3.134  1.00  0.00     0.045 C 
BRANCH   3   6
HETATM    6  O1  UNL     1      -0.508  -2.177  -3.664  1.00  0.00    -0.390 OA
ATOM      7  H1  UNL     1       0.192  -1.658  -4.044  1.00  0.00     0.210 HD
ENDBRANCH   3   6
ENDBRANCH   2   3
ENDBRANCH   1   2
BRANCH   1   8
HETATM    8  N1  UNL     1      -1.168  -1.420   0.050  1.00  0.00    -0.279 N 
ATOM      9  H1  UNL     1      -0.969  -2.010   0.858  1.00  0.00     0.179 HD
BRANCH   8  10
HETATM   10  S1  UNL     1      -2.720  -0.954  -0.149  1.00  0.00     0.284 S 
HETATM   11  O2  UNL     1      -3.706  -2.130  -0.043  1.00  0.00    -0.199 OA
HETATM   12  O3  UNL     1      -3.083  -0.283  -1.437  1.00  0.00    -0.199 OA
BRANCH  10  13
HETATM   13  C6  UNL     1      -3.297   0.134   1.128  1.00  0.00     0.214 A 
HETATM   14  N2  UNL     1      -2.630   0.530   2.213  1.00  0.00    -0.269 N 
HETATM   15  N3  UNL     1      -3.382   1.325   2.954  1.00  0.00    -0.019 NA
ATOM     16  H2  UNL     1      -1.673   0.257   2.439  1.00  0.00     0.185 HD
HETATM   17  N4  UNL     1      -4.552   1.444   2.337  1.00  0.00    -0.261 N 
HETATM   18  C7  UNL     1      -4.541   0.731   1.215  1.00  0.00     0.198 A 
ATOM     19  H4  UNL     1      -5.340   1.998   2.673  1.00  0.00     0.186 HD
BRANCH  18  20
HETATM   20  O4  UNL     1      -5.516   0.542   0.245  1.00  0.00    -0.327 OA
BRANCH  20  21
HETATM   21  C8  UNL     1      -6.749   1.177   0.405  1.00  0.00     0.130 C 
HETATM   22  C9  UNL     1      -7.923   0.237   0.392  1.00  0.00     0.032 C 
HETATM   23  C10 UNL     1      -9.094   1.171   0.183  1.00  0.00     0.002 C 
HETATM   24  C11 UNL     1      -8.519   2.464  -0.393  1.00  0.00     0.002 C 
HETATM   25  C12 UNL     1      -7.076   2.097  -0.764  1.00  0.00     0.032 C 
ENDBRANCH  20  21
ENDBRANCH  18  20
ENDBRANCH  10  13
ENDBRANCH   8  10
ENDBRANCH   1   8
BRANCH   1  26
HETATM   26  C13 UNL     1       0.793  -0.033  -0.283  1.00  0.00     0.162 C 
BRANCH  26  27
HETATM   27  O5  UNL     1       0.107   0.989   0.156  1.00  0.00    -0.345 OA
ATOM     28  H5  UNL     1       0.678   1.680   0.471  1.00  0.00     0.219 HD
ENDBRANCH  26  27
BRANCH  26  29
HETATM   29  N5  UNL     1       2.165   0.162  -0.176  1.00  0.00    -0.360 N 
HETATM   30  C14 UNL     1       3.259  -0.717  -0.429  1.00  0.00     0.125 C 
HETATM   31  C15 UNL     1       4.416  -0.643   0.539  1.00  0.00     0.029 C 
HETATM   32  C16 UNL     1       4.853   0.711   0.946  1.00  0.00    -0.037 C 
HETATM   33  C17 UNL     1       5.748   0.622   2.137  1.00  0.00     0.010 C 
HETATM   34  C21 UNL     1       5.562   1.460  -0.169  1.00  0.00     0.010 C 
HETATM   35  C22 UNL     1       3.582   1.460   1.379  1.00  0.00     0.029 C 
HETATM   36  C18 UNL     1       6.655   1.821   2.281  1.00  0.00     0.001 C 
HETATM   37  C19 UNL     1       7.548   2.050   1.108  1.00  0.00     0.000 C 
HETATM   38  C20 UNL     1       7.051   1.197  -0.056  1.00  0.00     0.001 C 
HETATM   39  C23 UNL     1       2.655   1.538   0.218  1.00  0.00     0.125 C 
ENDBRANCH  26  29
ENDBRANCH   1  26
TORSDOF 11
