REMARK  12 active torsions:
REMARK  status: ('A' for Active; 'I' for Inactive)
REMARK    1  A    between atoms: O1_1  and  C1_3 
REMARK    2  A    between atoms: C1_3  and  N1_4 
REMARK    3  A    between atoms: C1_3  and  C5_9 
REMARK    4  A    between atoms: N1_4  and  C2_6 
REMARK    5  A    between atoms: C7_12  and  C8_13 
REMARK       I    between atoms: N2_16  and  C11_17 
REMARK    6  A    between atoms: C11_17  and  O3_19 
REMARK    7  A    between atoms: O3_19  and  C12_20 
REMARK    8  A    between atoms: C12_20  and  C13_21 
REMARK    9  A    between atoms: C20_31  and  C21_32 
REMARK   10  A    between atoms: C21_32  and  N4_33 
REMARK   11  A    between atoms: C25_37  and  C26_38 
REMARK   12  A    between atoms: C26_38  and  O4_39 
ROOT
HETATM    1  C5  UNL     1      -3.338   2.663   0.651  1.00  0.00     0.063 A 
HETATM    2  S1  UNL     1      -2.126   3.805   1.067  1.00  0.00    -0.120 SA
HETATM    3  C6  UNL     1      -0.758   2.875   0.867  1.00  0.00     0.119 A 
HETATM    4  C7  UNL     1      -1.252   1.608   0.458  1.00  0.00    -0.030 A 
HETATM    5  C20 UNL     1      -2.583   1.517   0.344  1.00  0.00     0.003 A 
ENDROOT
BRANCH   4   6
HETATM    6  C8  UNL     1      -0.150   0.617   0.291  1.00  0.00    -0.051 C 
HETATM    7  C9  UNL     1       1.044   0.996  -0.223  1.00  0.00     0.001 C 
HETATM    8  C10 UNL     1       2.135  -0.001  -0.385  1.00  0.00     0.155 C 
HETATM    9  N2  UNL     1       2.312  -0.706   0.855  1.00  0.00    -0.324 N 
HETATM   10  C11 UNL     1       3.599  -1.180   1.240  1.00  0.00     0.363 C 
HETATM   11  C18 UNL     1       1.158  -0.925   1.700  1.00  0.00     0.133 C 
HETATM   12  O2  UNL     1       3.784  -1.803   2.315  1.00  0.00    -0.238 OA
HETATM   13  C19 UNL     1      -0.147  -0.753   0.868  1.00  0.00     0.059 C 
BRANCH  10  14
HETATM   14  O3  UNL     1       4.673  -0.954   0.420  1.00  0.00    -0.304 OA
BRANCH  14  15
HETATM   15  C12 UNL     1       5.995  -1.401   0.739  1.00  0.00     0.185 C 
BRANCH  15  16
HETATM   16  C13 UNL     1       6.897  -0.967  -0.379  1.00  0.00     0.013 C 
HETATM   17  C14 UNL     1       6.853   0.543  -0.486  1.00  0.00     0.034 C 
HETATM   18  C15 UNL     1       7.486   1.010  -1.771  1.00  0.00     0.232 C 
HETATM   19  N3  UNL     1       8.554   0.083  -2.089  1.00  0.00    -0.075 N 
HETATM   20  C16 UNL     1       9.208  -0.378  -0.885  1.00  0.00     0.232 C 
ATOM     21  H32 UNL     1       8.222  -0.694  -2.660  1.00  0.00     0.277 HD
ATOM     22  H31 UNL     1       9.219   0.485  -2.750  1.00  0.00     0.277 HD
HETATM   23  C17 UNL     1       8.333  -1.380  -0.141  1.00  0.00     0.034 C 
ENDBRANCH  15  16
ENDBRANCH  14  15
ENDBRANCH  10  14
ENDBRANCH   4   6
BRANCH   5  24
HETATM   24  C21 UNL     1      -3.390   0.333  -0.137  1.00  0.00     0.073 C 
BRANCH  24  25
HETATM   25  N4  UNL     1      -2.777  -0.793  -0.665  1.00  0.00    -0.285 NA
HETATM   26  C22 UNL     1      -2.311  -0.513  -2.023  1.00  0.00     0.095 C 
HETATM   27  C23 UNL     1      -3.234  -1.295  -2.934  1.00  0.00     0.017 C 
HETATM   28  C24 UNL     1      -3.642  -2.489  -2.099  1.00  0.00     0.023 C 
HETATM   29  C25 UNL     1      -3.495  -2.006  -0.673  1.00  0.00     0.086 C 
BRANCH  29  30
HETATM   30  C26 UNL     1      -4.840  -2.006  -0.027  1.00  0.00     0.184 C 
BRANCH  30  31
HETATM   31  O4  UNL     1      -5.357  -3.316  -0.161  1.00  0.00    -0.399 OA
ATOM     32  H4  UNL     1      -6.213  -3.316   0.250  1.00  0.00     0.209 HD
ENDBRANCH  30  31
ENDBRANCH  29  30
ENDBRANCH  24  25
ENDBRANCH   5  24
BRANCH   1  33
HETATM   33  C1  UNL     1      -4.782   2.906   0.649  1.00  0.00     0.154 C 
BRANCH  33  34
HETATM   34  O1  UNL     1      -5.061   4.160   0.995  1.00  0.00    -0.345 OA
ATOM     35  H1  UNL     1      -4.304   4.701   1.187  1.00  0.00     0.219 HD
ENDBRANCH  33  34
BRANCH  33  36
HETATM   36  N1  UNL     1      -5.875   2.124   0.372  1.00  0.00    -0.365 N 
ATOM     37  H1  UNL     1      -5.764   1.148   0.098  1.00  0.00     0.162 HD
BRANCH  36  38
HETATM   38  C2  UNL     1      -7.225   2.737   0.481  1.00  0.00     0.083 A 
HETATM   39  C3  UNL     1      -8.377   1.876   0.770  1.00  0.00     0.027 A 
HETATM   40  C4  UNL     1      -8.171   2.334  -0.652  1.00  0.00     0.027 A 
ENDBRANCH  36  38
ENDBRANCH  33  36
ENDBRANCH   1  33
TORSDOF 12
