REMARK  10 active torsions:
REMARK  status: ('A' for Active; 'I' for Inactive)
REMARK    1  A    between atoms: C2_2  and  C3_3 
REMARK    2  A    between atoms: C4_6  and  N2_7 
REMARK    3  A    between atoms: N2_7  and  C5_9 
REMARK    4  A    between atoms: C5_9  and  C6_10 
REMARK    5  A    between atoms: C6_10  and  C7_11 
REMARK    6  A    between atoms: C13_19  and  N4_20 
REMARK    7  A    between atoms: C18_27  and  S1_28 
REMARK    8  A    between atoms: S1_28  and  N5_31 
REMARK    9  A    between atoms: N5_31  and  C19_33 
REMARK   10  A    between atoms: C24_38  and  N6_39 
ROOT
HETATM    1  C3  UNL     1       0.361   1.213  -0.644  1.00  0.00     0.053 A 
HETATM    2  N1  UNL     1       1.387   0.352  -0.404  1.00  0.00    -0.194 N 
ATOM      3  H1  UNL     1       2.214   0.728   0.061  1.00  0.00     0.184 HD
HETATM    4  C4  UNL     1       1.402  -0.936  -0.724  1.00  0.00     0.683 A 
HETATM    5  N3  UNL     1       0.309  -1.398  -1.331  1.00  0.00    -0.174 N 
ATOM      6  H3  UNL     1       0.279  -2.383  -1.594  1.00  0.00     0.186 HD
HETATM    7  C13 UNL     1      -0.788  -0.605  -1.621  1.00  0.00     0.153 A 
HETATM    8  C18 UNL     1      -0.800   0.699  -1.288  1.00  0.00     0.147 A 
ENDROOT
BRANCH   8   9
HETATM    9  S1  UNL     1      -2.068   1.798  -1.523  1.00  0.00     0.264 S 
HETATM   10  O3  UNL     1      -1.664   3.120  -2.139  1.00  0.00    -0.200 OA
HETATM   11  O4  UNL     1      -2.979   1.229  -2.640  1.00  0.00    -0.200 OA
BRANCH   9  12
HETATM   12  N5  UNL     1      -3.096   2.067  -0.231  1.00  0.00    -0.308 N 
ATOM     13  H5  UNL     1      -3.115   3.007   0.165  1.00  0.00     0.172 HD
BRANCH  12  14
HETATM   14  C19 UNL     1      -3.924   1.117   0.345  1.00  0.00     0.123 C 
HETATM   15  C20 UNL     1      -5.411   1.513   0.220  1.00  0.00     0.028 C 
HETATM   16  C21 UNL     1      -6.193   0.224   0.319  1.00  0.00     0.002 C 
HETATM   17  C22 UNL     1      -6.082  -0.155   1.810  1.00  0.00     0.002 C 
HETATM   18  C23 UNL     1      -4.653  -0.399   2.132  1.00  0.00     0.035 C 
HETATM   19  C24 UNL     1      -3.731   0.772   1.801  1.00  0.00     0.206 C 
BRANCH  19  20
HETATM   20  N6  UNL     1      -2.385   0.221   2.044  1.00  0.00    -0.073 N 
ATOM     21  H63 UNL     1      -2.192  -0.578   1.440  1.00  0.00     0.274 HD
ATOM     22  H62 UNL     1      -1.656   0.850   1.708  1.00  0.00     0.274 HD
ATOM     23  H61 UNL     1      -2.255  -0.012   3.028  1.00  0.00     0.274 HD
ENDBRANCH  19  20
ENDBRANCH  12  14
ENDBRANCH   9  12
ENDBRANCH   8   9
BRANCH   1  24
HETATM   24  C2  UNL     1       0.473   2.633  -0.348  1.00  0.00     0.055 C 
HETATM   25  C1  UNL     1      -0.237   3.212   0.809  1.00  0.00     0.011 C 
ENDBRANCH   1  24
BRANCH   7  26
HETATM   26  N4  UNL     1      -1.779  -1.282  -2.383  1.00  0.00    -0.277 N 
HETATM   27  C14 UNL     1      -1.719  -1.341  -3.830  1.00  0.00     0.138 C 
HETATM   28  C15 UNL     1      -2.990  -1.704  -4.481  1.00  0.00     0.047 C 
HETATM   29  C16 UNL     1      -3.907  -2.628  -3.767  1.00  0.00     0.182 C 
HETATM   30  O1  UNL     1      -3.977  -2.354  -2.372  1.00  0.00    -0.304 OA
HETATM   31  C17 UNL     1      -2.775  -2.013  -1.717  1.00  0.00     0.368 C 
HETATM   32  O2  UNL     1      -2.679  -2.411  -0.523  1.00  0.00    -0.238 OA
ENDBRANCH   7  26
BRANCH   4  33
HETATM   33  N2  UNL     1       2.408  -1.693  -0.467  1.00  0.00    -0.205 N 
ATOM     34  H2  UNL     1       2.286  -2.661  -0.766  1.00  0.00     0.183 HD
BRANCH  33  35
HETATM   35  C5  UNL     1       3.636  -1.439   0.144  1.00  0.00     0.079 C 
BRANCH  35  36
HETATM   36  C6  UNL     1       3.971  -0.012   0.484  1.00  0.00     0.049 C 
BRANCH  36  37
HETATM   37  C7  UNL     1       5.347   0.059   1.133  1.00  0.00    -0.010 C 
HETATM   38  C8  UNL     1       5.344  -0.767   2.384  1.00  0.00     0.005 C 
HETATM   39  C9  UNL     1       6.537  -0.394   3.264  1.00  0.00     0.000 C 
HETATM   40  C10 UNL     1       7.641   0.127   2.383  1.00  0.00     0.000 C 
HETATM   41  C11 UNL     1       7.665  -0.642   1.070  1.00  0.00     0.000 C 
HETATM   42  C12 UNL     1       6.477  -0.210   0.208  1.00  0.00     0.005 C 
ENDBRANCH  36  37
ENDBRANCH  35  36
ENDBRANCH  33  35
ENDBRANCH   4  33
TORSDOF 10
