REMARK  10 active torsions:
REMARK  status: ('A' for Active; 'I' for Inactive)
REMARK    1  A    between atoms: C12_13  and  C13_14 
REMARK    2  A    between atoms: C13_14  and  C14_15 
REMARK    3  A    between atoms: C14_15  and  C15_16 
REMARK    4  A    between atoms: C15_16  and  C16_17 
REMARK    5  A    between atoms: C16_17  and  C17_18 
REMARK    6  A    between atoms: C17_18  and  N1_19 
REMARK    7  A    between atoms: C20_22  and  C21_23 
REMARK    8  A    between atoms: C22_25  and  N2_26 
REMARK       I    between atoms: N2_26  and  C23_28 
REMARK    9  A    between atoms: C23_28  and  C24_30 
REMARK   10  A    between atoms: C25_31  and  C26_32 
ROOT
HETATM    1  C1  UNL     1      -1.223  -5.051   0.604  1.00  0.00     0.011 C 
HETATM    2  C2  UNL     1      -1.425  -3.606   0.963  1.00  0.00    -0.009 C 
HETATM    3  C3  UNL     1      -2.819  -3.245   1.297  1.00  0.00     0.008 C 
HETATM    4  C4  UNL     1      -3.624  -2.583   0.278  1.00  0.00     0.046 C 
HETATM    5  C5  UNL     1      -3.231  -1.442  -0.512  1.00  0.00     0.121 C 
HETATM    6  C6  UNL     1      -3.335  -1.889  -1.988  1.00  0.00     0.046 C 
HETATM    7  C7  UNL     1      -2.250  -2.945  -2.034  1.00  0.00     0.004 C 
HETATM    8  C8  UNL     1      -0.962  -2.746  -1.375  1.00  0.00     0.011 C 
HETATM    9  C9  UNL     1      -0.706  -2.645   0.034  1.00  0.00    -0.024 C 
HETATM   10  C10 UNL     1       0.756  -3.204   0.203  1.00  0.00     0.089 C 
HETATM   11  C11 UNL     1       1.124  -2.614   1.487  1.00  0.00     0.132 C 
HETATM   12  O1  UNL     1       1.455  -3.002   2.556  1.00  0.00    -0.298 OA
HETATM   13  C12 UNL     1       0.945  -1.116   1.023  1.00  0.00     0.062 C 
HETATM   14  C20 UNL     1      -0.568  -1.325   0.781  1.00  0.00     0.037 C 
HETATM   15  C21 UNL     1      -1.284  -0.209   0.142  1.00  0.00     0.151 C 
HETATM   16  O2  UNL     1      -2.112  -0.801  -0.675  1.00  0.00    -0.365 OA
HETATM   17  C22 UNL     1      -2.111   0.796   0.900  1.00  0.00     0.121 C 
HETATM   18  C27 UNL     1      -3.527   0.280   1.166  1.00  0.00     0.109 C 
HETATM   19  C28 UNL     1      -4.093  -0.296  -0.120  1.00  0.00     0.163 C 
HETATM   20  O6  UNL     1      -5.020   0.131  -0.637  1.00  0.00    -0.295 OA
ENDROOT
BRANCH  17  21
HETATM   21  N2  UNL     1      -2.328   2.020   0.232  1.00  0.00    -0.350 N 
HETATM   22  C23 UNL     1      -1.553   2.925  -0.515  1.00  0.00     0.241 C 
HETATM   23  O3  UNL     1      -0.360   2.645  -0.687  1.00  0.00    -0.269 OA
ATOM     24  H2  UNL     1      -3.297   2.328   0.312  1.00  0.00     0.163 HD
BRANCH  22  25
HETATM   25  C24 UNL     1      -2.076   4.140  -1.069  1.00  0.00     0.081 C 
HETATM   26  C25 UNL     1      -1.520   5.050  -1.806  1.00  0.00     0.090 C 
BRANCH  26  27
HETATM   27  C26 UNL     1      -0.216   5.208  -2.345  1.00  0.00     0.198 C 
HETATM   28  O4  UNL     1       0.731   4.433  -2.224  1.00  0.00    -0.645 OA
HETATM   29  O5  UNL     1       0.082   6.372  -3.111  1.00  0.00    -0.645 OA
ENDBRANCH  26  27
ENDBRANCH  22  25
ENDBRANCH  17  21
BRANCH  13  30
HETATM   30  C13 UNL     1       1.345  -0.352   2.204  1.00  0.00     0.013 C 
BRANCH  30  31
HETATM   31  C14 UNL     1       1.490   1.097   2.096  1.00  0.00     0.001 C 
BRANCH  31  32
HETATM   32  C15 UNL     1       2.650   1.667   1.336  1.00  0.00     0.002 C 
BRANCH  32  33
HETATM   33  C16 UNL     1       2.877   1.258  -0.046  1.00  0.00     0.030 C 
BRANCH  33  34
HETATM   34  C17 UNL     1       3.913   1.961  -0.844  1.00  0.00     0.271 C 
BRANCH  34  35
HETATM   35  N1  UNL     1       5.273   1.925  -0.426  1.00  0.00     0.080 N 
HETATM   36  C18 UNL     1       6.012   2.624  -1.515  1.00  0.00     0.309 C 
HETATM   37  C19 UNL     1       5.596   2.554   0.815  1.00  0.00     0.309 C 
ENDBRANCH  34  35
ENDBRANCH  33  34
ENDBRANCH  32  33
ENDBRANCH  31  32
ENDBRANCH  30  31
ENDBRANCH  13  30
TORSDOF 10
