REMARK  4 active torsions:
REMARK  status: ('A' for Active; 'I' for Inactive)
REMARK    1  A    between atoms: C2_2  and  N2_6 
REMARK    2  A    between atoms: N2_6  and  N3_7 
REMARK    3  A    between atoms: N2_6  and  N4_10 
REMARK    4  A    between atoms: N5_12  and  N6_14 
ROOT
HETATM    1  N4  UNL     1      -1.215  -0.115   0.253  1.00  0.00    -0.206 N 
ATOM      2  H4  UNL     1      -1.082   0.881   0.430  1.00  0.00     0.212 HD
HETATM    3  N5  UNL     1      -0.225  -0.885   0.041  1.00  0.00    -0.229 N 
ATOM      4  H5  UNL     1      -0.413  -1.873  -0.130  1.00  0.00     0.209 HD
ENDROOT
BRANCH   1   5
HETATM    5  N2  UNL     1      -2.480  -0.678   0.235  1.00  0.00    -0.176 N 
BRANCH   5   6
HETATM    6  C2  UNL     1      -3.465  -0.163  -0.621  1.00  0.00     0.112 C 
HETATM    7  C1  UNL     1      -4.205   1.050  -0.240  1.00  0.00     0.092 C 
HETATM    8  N1  UNL     1      -3.717  -0.749  -1.729  1.00  0.00    -0.386 N 
ATOM      9  H12 UNL     1      -4.433  -0.375  -2.351  1.00  0.00     0.157 HD
ATOM     10  H11 UNL     1      -3.204  -1.590  -1.993  1.00  0.00     0.157 HD
ENDBRANCH   5   6
BRANCH   5  11
HETATM   11  N3  UNL     1      -2.751  -1.748   1.072  1.00  0.00    -0.322 N 
ATOM     12  H32 UNL     1      -3.683  -2.163   1.059  1.00  0.00     0.179 HD
ATOM     13  H31 UNL     1      -2.035  -2.122   1.694  1.00  0.00     0.179 HD
ENDBRANCH   5  11
ENDBRANCH   1   5
BRANCH   3  14
HETATM   14  N6  UNL     1       1.086  -0.462   0.029  1.00  0.00    -0.312 N 
HETATM   15  C3  UNL     1       1.762  -0.187  -1.203  1.00  0.00     0.144 C 
HETATM   16  C4  UNL     1       3.273  -0.081  -0.958  1.00  0.00     0.021 C 
HETATM   17  C5  UNL     1       3.596   0.904   0.137  1.00  0.00     0.003 C 
HETATM   18  C6  UNL     1       2.502   1.069   1.152  1.00  0.00     0.021 C 
HETATM   19  C7  UNL     1       1.801  -0.287   1.262  1.00  0.00     0.144 C 
ENDBRANCH   3  14
TORSDOF 4
