REMARK  5 active torsions:
REMARK  status: ('A' for Active; 'I' for Inactive)
REMARK    1  A    between atoms: N1_2  and  O1_3 
REMARK    2  A    between atoms: N1_2  and  O2_5 
REMARK    3  A    between atoms: O2_5  and  C2_6 
REMARK       I    between atoms: C2_6  and  N2_8 
REMARK    4  A    between atoms: N2_8  and  C3_10 
REMARK    5  A    between atoms: C3_10  and  C4_11 
ROOT
HETATM    1  C2  UNL     1       2.171  -0.135  -0.089  1.00  0.00     0.395 C 
HETATM    2  O3  UNL     1       1.713   0.508  -1.088  1.00  0.00    -0.235 OA
HETATM    3  N2  UNL     1       1.260  -0.649   0.922  1.00  0.00    -0.268 N 
ATOM      4  H2  UNL     1       1.675  -1.156   1.704  1.00  0.00     0.180 HD
ENDROOT
BRANCH   3   5
HETATM    5  C3  UNL     1      -0.067  -0.518   0.921  1.00  0.00    -0.033 C 
BRANCH   5   6
HETATM    6  C4  UNL     1      -1.455  -0.381   0.921  1.00  0.00     0.273 C 
HETATM    7  C5  UNL     1      -2.130   0.347  -0.251  1.00  0.00     0.048 C 
HETATM    8  C6  UNL     1      -3.469   0.769   0.286  1.00  0.00     0.030 C 
HETATM    9  C7  UNL     1      -3.435   0.269   1.717  1.00  0.00     0.234 C 
HETATM   10  N3  UNL     1      -2.013   0.458   2.025  1.00  0.00    -0.060 N 
ATOM     11  H32 UNL     1      -1.714   0.228   2.973  1.00  0.00     0.278 HD
ATOM     12  H31 UNL     1      -1.680   1.420   2.084  1.00  0.00     0.278 HD
ENDBRANCH   5   6
ENDBRANCH   3   5
BRANCH   1  13
HETATM   13  O2  UNL     1       3.528  -0.313  -0.016  1.00  0.00    -0.153 OA
BRANCH  13  14
HETATM   14  N1  UNL     1       4.352   0.195  -0.986  1.00  0.00    -0.139 N 
HETATM   15  C1  UNL     1       5.337  -0.524  -1.386  1.00  0.00     0.186 C 
BRANCH  14  16
HETATM   16  O1  UNL     1       4.157   1.434  -1.527  1.00  0.00    -0.264 OA
ATOM     17  H1  UNL     1       3.428   1.966  -1.231  1.00  0.00     0.247 HD
ENDBRANCH  14  16
ENDBRANCH  13  14
ENDBRANCH   1  13
TORSDOF 5
