REMARK  3 active torsions:
REMARK  status: ('A' for Active; 'I' for Inactive)
REMARK    1  A    between atoms: C1_1  and  C6_13 
REMARK    2  A    between atoms: N1_2  and  N2_4 
REMARK    3  A    between atoms: N2_4  and  C2_6 
ROOT
HETATM    1  N2  UNL     1      -0.152  -0.008   0.992  1.00  0.00    -0.330 N 
ATOM      2  H2  UNL     1       0.210   0.850   1.409  1.00  0.00     0.180 HD
ENDROOT
BRANCH   1   3
HETATM    3  N1  UNL     1       0.343  -1.235   1.402  1.00  0.00    -0.313 N 
HETATM    4  C1  UNL     1       1.522  -1.624   1.123  1.00  0.00     0.143 C 
ATOM      5  H1  UNL     1      -0.260  -1.850   1.948  1.00  0.00     0.185 HD
BRANCH   4   6
HETATM    6  C6  UNL     1       2.396  -0.757   0.345  1.00  0.00     0.091 A 
HETATM    7  C7  UNL     1       3.695  -0.998  -0.054  1.00  0.00     0.040 A 
HETATM    8  C8  UNL     1       4.130   0.090  -0.766  1.00  0.00     0.027 A 
HETATM    9  C9  UNL     1       3.079   0.974  -0.784  1.00  0.00     0.142 A 
HETATM   10  O1  UNL     1       2.099   0.446  -0.132  1.00  0.00    -0.321 OA
ENDBRANCH   4   6
ENDBRANCH   1   3
BRANCH   1  11
HETATM   11  C2  UNL     1      -1.167   0.064  -0.013  1.00  0.00     0.126 C 
HETATM   12  C3  UNL     1      -2.416  -0.691   0.461  1.00  0.00     0.056 C 
HETATM   13  C4  UNL     1      -3.462  -0.073  -0.435  1.00  0.00     0.234 C 
HETATM   14  N3  UNL     1      -3.124   1.319  -0.489  1.00  0.00    -0.073 N 
HETATM   15  C5  UNL     1      -1.738   1.459  -0.164  1.00  0.00     0.258 C 
ATOM     16  H32 UNL     1      -3.362   1.746  -1.384  1.00  0.00     0.277 HD
ATOM     17  H31 UNL     1      -3.726   1.892   0.103  1.00  0.00     0.277 HD
ENDBRANCH   1  11
TORSDOF 3
