REMARK  4 active torsions:
REMARK  status: ('A' for Active; 'I' for Inactive)
REMARK    1  A    between atoms: C4_4  and  C5_5 
REMARK    2  A    between atoms: C5_5  and  N1_6 
REMARK    3  A    between atoms: N1_6  and  C6_8 
REMARK    4  A    between atoms: C10_16  and  C11_17 
ROOT
HETATM    1  C6  UNL     1      -3.147  -1.387  -0.877  1.00  0.00     0.114 A 
HETATM    2  N2  UNL     1      -3.629  -1.491  -2.118  1.00  0.00    -0.338 N 
ATOM      3  H2  UNL     1      -4.614  -1.723  -2.246  1.00  0.00     0.168 HD
HETATM    4  C7  UNL     1      -2.856  -1.299  -3.211  1.00  0.00     0.182 A 
HETATM    5  N3  UNL     1      -1.563  -0.994  -3.040  1.00  0.00    -0.352 N 
ATOM      6  H3  UNL     1      -0.983  -0.850  -3.867  1.00  0.00     0.166 HD
HETATM    7  C8  UNL     1      -0.997  -0.870  -1.833  1.00  0.00     0.047 A 
HETATM    8  C9  UNL     1       0.326  -0.558  -1.627  1.00  0.00     0.042 A 
HETATM    9  C10 UNL     1       0.897  -0.433  -0.374  1.00  0.00    -0.022 A 
HETATM   10  C22 UNL     1       0.047  -0.643   0.718  1.00  0.00     0.013 A 
HETATM   11  C23 UNL     1      -1.284  -0.957   0.540  1.00  0.00     0.018 A 
HETATM   12  C24 UNL     1      -1.797  -1.068  -0.736  1.00  0.00     0.034 A 
ENDROOT
BRANCH   9  13
HETATM   13  C11 UNL     1       2.295  -0.103  -0.181  1.00  0.00    -0.010 A 
HETATM   14  C12 UNL     1       3.008  -0.561   0.898  1.00  0.00     0.016 A 
HETATM   15  C13 UNL     1       4.339  -0.248   1.082  1.00  0.00     0.031 A 
HETATM   16  C14 UNL     1       4.967   0.548   0.152  1.00  0.00     0.042 A 
HETATM   17  C15 UNL     1       6.351   0.946   0.230  1.00  0.00    -0.009 A 
HETATM   18  N4  UNL     1       4.264   1.009  -0.926  1.00  0.00    -0.364 N 
HETATM   19  C16 UNL     1       7.149   0.542   1.268  1.00  0.00     0.013 A 
HETATM   20  C20 UNL     1       6.912   1.742  -0.733  1.00  0.00     0.013 A 
HETATM   21  C17 UNL     1       8.489   0.923   1.350  1.00  0.00     0.001 A 
HETATM   22  C18 UNL     1       9.027   1.722   0.372  1.00  0.00     0.000 A 
HETATM   23  C19 UNL     1       8.236   2.136  -0.678  1.00  0.00     0.001 A 
HETATM   24  C21 UNL     1       2.966   0.688  -1.082  1.00  0.00     0.100 A 
ATOM     25  H4  UNL     1       4.726   1.600  -1.617  1.00  0.00     0.165 HD
ENDBRANCH   9  13
BRANCH   1  26
HETATM   26  N1  UNL     1      -3.844  -1.561   0.162  1.00  0.00    -0.371 N 
ATOM     27  H1  UNL     1      -3.367  -1.455   1.057  1.00  0.00     0.161 HD
BRANCH  26  28
HETATM   28  C5  UNL     1      -5.231  -1.891   0.209  1.00  0.00     0.160 C 
BRANCH  28  29
HETATM   29  C4  UNL     1      -6.048  -0.661   0.451  1.00  0.00    -0.041 A 
HETATM   30  C3  UNL     1      -6.542   0.099  -0.568  1.00  0.00     0.009 A 
HETATM   31  C2  UNL     1      -7.294   1.229  -0.290  1.00  0.00     0.001 A 
HETATM   32  C1  UNL     1      -7.568   1.623   1.004  1.00  0.00     0.000 A 
HETATM   33  C26 UNL     1      -7.074   0.863   2.027  1.00  0.00     0.001 A 
HETATM   34  C25 UNL     1      -6.327  -0.260   1.742  1.00  0.00     0.009 A 
ENDBRANCH  28  29
ENDBRANCH  26  28
ENDBRANCH   1  26
TORSDOF 4
