REMARK  6 active torsions:
REMARK  status: ('A' for Active; 'I' for Inactive)
REMARK    1  A    between atoms: N1_2  and  C2_4 
REMARK    2  A    between atoms: C3_7  and  N3_8 
REMARK    3  A    between atoms: N3_8  and  C4_10 
REMARK    4  A    between atoms: C4_10  and  C5_11 
REMARK    5  A    between atoms: C5_11  and  C6_12 
REMARK    6  A    between atoms: C6_12  and  N4_13 
ROOT
HETATM    1  C2  UNL     1      -1.098  -2.119  -0.208  1.00  0.00     0.124 A 
HETATM    2  N2  UNL     1       0.014  -1.585   0.331  1.00  0.00    -0.176 N 
ATOM      3  H2  UNL     1       0.545  -2.127   1.012  1.00  0.00     0.186 HD
HETATM    4  C3  UNL     1       0.441  -0.365  -0.002  1.00  0.00     0.679 A 
HETATM    5  N5  UNL     1      -0.275   0.335  -0.903  1.00  0.00    -0.195 N 
ATOM      6  H5  UNL     1       0.040   1.269  -1.166  1.00  0.00     0.184 HD
HETATM    7  C11 UNL     1      -1.406  -0.165  -1.474  1.00  0.00     0.036 A 
HETATM    8  C12 UNL     1      -1.864  -1.416  -1.150  1.00  0.00     0.009 A 
HETATM    9  C13 UNL     1      -3.054  -2.085  -1.706  1.00  0.00     0.044 C 
HETATM   10  C14 UNL     1      -4.379  -1.618  -1.270  1.00  0.00     0.005 C 
HETATM   11  C15 UNL     1      -4.540  -1.261   0.175  1.00  0.00     0.000 C 
HETATM   12  C16 UNL     1      -5.800  -0.437   0.302  1.00  0.00     0.000 C 
HETATM   13  C17 UNL     1      -5.711   0.667   1.306  1.00  0.00     0.000 C 
HETATM   14  C18 UNL     1      -4.545   1.581   1.148  1.00  0.00     0.000 C 
HETATM   15  C19 UNL     1      -4.316   2.074  -0.260  1.00  0.00     0.000 C 
HETATM   16  C20 UNL     1      -2.812   2.119  -0.452  1.00  0.00     0.000 C 
HETATM   17  C21 UNL     1      -2.364   2.107  -1.867  1.00  0.00     0.006 C 
HETATM   18  C22 UNL     1      -2.067   0.742  -2.444  1.00  0.00     0.058 C 
ENDROOT
BRANCH   4  19
HETATM   19  N3  UNL     1       1.513   0.121   0.532  1.00  0.00    -0.226 N 
ATOM     20  H3  UNL     1       2.019  -0.451   1.208  1.00  0.00     0.177 HD
BRANCH  19  21
HETATM   21  C4  UNL     1       2.023   1.416   0.223  1.00  0.00     0.140 C 
BRANCH  21  22
HETATM   22  C5  UNL     1       3.458   1.559   0.690  1.00  0.00     0.050 C 
BRANCH  22  23
HETATM   23  C6  UNL     1       4.270   0.499  -0.045  1.00  0.00     0.274 C 
BRANCH  23  24
HETATM   24  N4  UNL     1       5.644   0.549   0.316  1.00  0.00     0.092 N 
HETATM   25  C7  UNL     1       5.956   0.161   1.652  1.00  0.00     0.298 C 
HETATM   26  C8  UNL     1       7.450   0.383   1.846  1.00  0.00     0.198 C 
HETATM   27  O1  UNL     1       8.179  -0.349   0.907  1.00  0.00    -0.388 OA
HETATM   28  C9  UNL     1       7.946   0.225  -0.341  1.00  0.00     0.198 C 
HETATM   29  C10 UNL     1       6.478  -0.047  -0.676  1.00  0.00     0.298 C 
ENDBRANCH  23  24
ENDBRANCH  22  23
ENDBRANCH  21  22
ENDBRANCH  19  21
ENDBRANCH   4  19
BRANCH   1  30
HETATM   30  N1  UNL     1      -1.477  -3.284   0.133  1.00  0.00    -0.380 N 
HETATM   31  C1  UNL     1      -0.705  -4.027   1.103  1.00  0.00     0.147 C 
ATOM     32  H1  UNL     1      -2.319  -3.691  -0.275  1.00  0.00     0.160 HD
ENDBRANCH   1  30
TORSDOF 6
