REMARK  1 active torsions:
REMARK  status: ('A' for Active; 'I' for Inactive)
REMARK    1  A    between atoms: C4_5  and  O2_6 
ROOT
HETATM    1  C1  UNL     1       3.082  -0.373   0.025  1.00  0.00     0.042 C 
HETATM    2  C2  UNL     1       1.932   0.551  -0.297  1.00  0.00     0.150 C 
HETATM    3  O1  UNL     1       0.978  -0.027  -1.169  1.00  0.00    -0.373 OA
HETATM    4  C3  UNL     1       0.533  -0.759  -0.065  1.00  0.00     0.182 C 
HETATM    5  C4  UNL     1      -0.959  -0.973  -0.001  1.00  0.00     0.160 C 
HETATM    6  C5  UNL     1      -1.620   0.247  -0.548  1.00  0.00     0.096 C 
HETATM    7  C6  UNL     1      -2.917   0.658   0.063  1.00  0.00     0.183 C 
HETATM    8  O3  UNL     1      -2.242   1.701   0.706  1.00  0.00    -0.360 OA
HETATM    9  C7  UNL     1      -1.044   1.489  -0.019  1.00  0.00     0.269 C 
HETATM   10  O4  UNL     1       0.002   1.436   0.805  1.00  0.00    -0.350 OA
HETATM   11  C8  UNL     1       0.862   0.418   0.795  1.00  0.00     0.184 C 
ENDROOT
BRANCH   5  12
HETATM   12  O2  UNL     1      -1.377  -2.153  -0.556  1.00  0.00    -0.392 OA
ATOM     13  H2  UNL     1      -2.317  -2.288  -0.516  1.00  0.00     0.210 HD
ENDBRANCH   5  12
TORSDOF 1
