REMARK  8 active torsions:
REMARK  status: ('A' for Active; 'I' for Inactive)
REMARK    1  A    between atoms: N2_5  and  C3_6 
REMARK    2  A    between atoms: C3_6  and  C4_7 
REMARK    3  A    between atoms: C4_7  and  C5_8 
REMARK    4  A    between atoms: C5_8  and  O1_9 
REMARK    5  A    between atoms: C7_13  and  C8_14 
REMARK    6  A    between atoms: C8_14  and  C9_16 
REMARK    7  A    between atoms: C9_16  and  N3_17 
REMARK    8  A    between atoms: C12_21  and  N4_22 
ROOT
HETATM    1  N3  UNL     1      -1.428  -1.008   0.889  1.00  0.00    -0.322 N 
HETATM    2  C10 UNL     1      -2.363  -0.477   0.090  1.00  0.00     0.036 A 
HETATM    3  C11 UNL     1      -3.580  -0.227   0.660  1.00  0.00     0.018 A 
HETATM    4  S1  UNL     1      -3.385  -0.732   2.273  1.00  0.00    -0.056 SA
HETATM    5  C12 UNL     1      -1.775  -1.239   2.155  1.00  0.00     0.145 A 
HETATM    6  C13 UNL     1      -4.786   0.329  -0.035  1.00  0.00    -0.012 C 
HETATM    7  C14 UNL     1      -6.010  -0.209   0.645  1.00  0.00     0.021 C 
HETATM    8  C15 UNL     1      -4.830   1.833  -0.001  1.00  0.00     0.021 C 
HETATM    9  C16 UNL     1      -4.672  -0.127  -1.486  1.00  0.00     0.015 C 
HETATM   10  C17 UNL     1      -3.402   0.504  -1.947  1.00  0.00     0.016 C 
HETATM   11  C18 UNL     1      -2.201  -0.173  -1.388  1.00  0.00    -0.004 C 
HETATM   12  C19 UNL     1      -2.021  -1.461  -2.167  1.00  0.00     0.021 C 
HETATM   13  C20 UNL     1      -1.046   0.785  -1.658  1.00  0.00     0.021 C 
ENDROOT
BRANCH   1  14
HETATM   14  C9  UNL     1      -0.017  -1.345   0.519  1.00  0.00     0.215 C 
BRANCH  14  15
HETATM   15  C8  UNL     1       0.905  -0.296   0.939  1.00  0.00     0.185 C 
HETATM   16  O3  UNL     1       0.511   0.713   1.541  1.00  0.00    -0.290 OA
BRANCH  15  17
HETATM   17  C7  UNL     1       2.318  -0.423   0.658  1.00  0.00     0.104 A 
HETATM   18  C2  UNL     1       3.257  -1.039   1.495  1.00  0.00     0.041 A 
HETATM   19  C1  UNL     1       2.939  -1.659   2.789  1.00  0.00     0.071 C 
HETATM   20  N1  UNL     1       4.479  -0.979   0.943  1.00  0.00    -0.299 N 
HETATM   21  N2  UNL     1       4.382  -0.348  -0.225  1.00  0.00    -0.257 N 
ATOM     22  H1  UNL     1       5.336  -1.353   1.349  1.00  0.00     0.187 HD
HETATM   23  C6  UNL     1       3.072  -0.003  -0.412  1.00  0.00     0.278 A 
HETATM   24  O2  UNL     1       2.649   0.604  -1.416  1.00  0.00    -0.265 OA
BRANCH  21  25
HETATM   25  C3  UNL     1       5.503  -0.099  -1.077  1.00  0.00     0.154 C 
BRANCH  25  26
HETATM   26  C4  UNL     1       6.193   1.184  -0.731  1.00  0.00     0.048 C 
BRANCH  26  27
HETATM   27  C5  UNL     1       5.318   2.392  -0.831  1.00  0.00     0.165 C 
BRANCH  27  28
HETATM   28  O1  UNL     1       6.082   3.525  -0.499  1.00  0.00    -0.401 OA
ATOM     29  H1  UNL     1       5.526   4.293  -0.563  1.00  0.00     0.209 HD
ENDBRANCH  27  28
ENDBRANCH  26  27
ENDBRANCH  25  26
ENDBRANCH  21  25
ENDBRANCH  15  17
ENDBRANCH  14  15
ENDBRANCH   1  14
BRANCH   5  30
HETATM   30  N4  UNL     1      -1.024  -1.753   3.112  1.00  0.00    -0.379 N 
ATOM     31  H42 UNL     1      -0.053  -2.059   3.041  1.00  0.00     0.158 HD
ATOM     32  H41 UNL     1      -1.290  -1.930   4.081  1.00  0.00     0.158 HD
ENDBRANCH   5  30
TORSDOF 8
