REMARK  8 active torsions:
REMARK  status: ('A' for Active; 'I' for Inactive)
REMARK    1  A    between atoms: C2_2  and  C3_7 
REMARK    2  A    between atoms: N1_3  and  O1_5 
REMARK    3  A    between atoms: C6_11  and  C7_12 
REMARK    4  A    between atoms: C7_12  and  S1_13 
REMARK    5  A    between atoms: S1_13  and  C8_14 
REMARK    6  A    between atoms: C9_15  and  C10_16 
REMARK    7  A    between atoms: C12_22  and  C13_23 
REMARK    8  A    between atoms: C13_23  and  O6_25 
ROOT
HETATM    1  C8  UNL     1      -0.661   0.322   1.706  1.00  0.00     0.018 C 
HETATM    2  C9  UNL     1      -1.250  -0.649   2.411  1.00  0.00     0.128 C 
HETATM    3  N2  UNL     1      -2.269  -1.193   1.619  1.00  0.00    -0.304 N 
HETATM    4  C11 UNL     1      -3.249  -2.043   1.056  1.00  0.00     0.233 C 
HETATM    5  O5  UNL     1      -4.044  -2.941   1.408  1.00  0.00    -0.272 OA
HETATM    6  C12 UNL     1      -2.949  -1.403  -0.253  1.00  0.00     0.130 C 
HETATM    7  C15 UNL     1      -2.644  -0.218   0.598  1.00  0.00     0.117 C 
HETATM    8  C16 UNL     1      -1.304   0.462   0.382  1.00  0.00     0.048 C 
HETATM    9  C17 UNL     1      -1.644   1.906   0.032  1.00  0.00     0.018 C 
ENDROOT
BRANCH   1  10
HETATM   10  S1  UNL     1       0.699   1.256   2.353  1.00  0.00    -0.127 SA
BRANCH  10  11
HETATM   11  C7  UNL     1       1.424   2.425   1.268  1.00  0.00     0.121 C 
BRANCH  11  12
HETATM   12  C6  UNL     1       2.204   1.858   0.170  1.00  0.00    -0.010 A 
HETATM   13  C4  UNL     1       2.764   2.684  -0.848  1.00  0.00     0.057 A 
HETATM   14  O2  UNL     1       3.415   1.964  -1.692  1.00  0.00    -0.312 OA
HETATM   15  C5  UNL     1       2.583   4.162  -0.869  1.00  0.00     0.077 C 
HETATM   16  C3  UNL     1       3.366   0.666  -1.354  1.00  0.00     0.106 A 
HETATM   17  C18 UNL     1       2.614   0.607  -0.193  1.00  0.00    -0.017 A 
HETATM   18  C19 UNL     1       2.387  -0.650   0.559  1.00  0.00     0.052 C 
BRANCH  16  19
HETATM   19  C2  UNL     1       4.003  -0.392  -2.129  1.00  0.00     0.062 C 
HETATM   20  C1  UNL     1       3.919  -1.822  -1.865  1.00  0.00     0.073 C 
HETATM   21  N1  UNL     1       4.700  -0.028  -3.191  1.00  0.00    -0.271 N 
ATOM     22  H1  UNL     1       4.803   0.956  -3.438  1.00  0.00     0.194 HD
BRANCH  21  23
HETATM   23  O1  UNL     1       5.277  -1.003  -3.946  1.00  0.00    -0.290 OA
ATOM     24  H1  UNL     1       5.778  -0.741  -4.709  1.00  0.00     0.244 HD
ENDBRANCH  21  23
ENDBRANCH  16  19
ENDBRANCH  11  12
ENDBRANCH  10  11
ENDBRANCH   1  10
BRANCH   2  25
HETATM   25  C10 UNL     1      -0.925  -1.113   3.762  1.00  0.00     0.228 C 
HETATM   26  O3  UNL     1       0.022  -0.543   4.353  1.00  0.00    -0.643 OA
HETATM   27  O4  UNL     1      -1.615  -2.131   4.380  1.00  0.00    -0.643 OA
ENDBRANCH   2  25
BRANCH   6  28
HETATM   28  C13 UNL     1      -4.111  -1.156  -1.154  1.00  0.00     0.129 C 
HETATM   29  C14 UNL     1      -4.833  -2.419  -1.527  1.00  0.00     0.040 C 
BRANCH  28  30
HETATM   30  O6  UNL     1      -4.972  -0.193  -0.627  1.00  0.00    -0.395 OA
ATOM     31  H6  UNL     1      -5.712  -0.036  -1.201  1.00  0.00     0.210 HD
ENDBRANCH  28  30
ENDBRANCH   6  28
TORSDOF 8
