REMARK  10 active torsions:
REMARK  status: ('A' for Active; 'I' for Inactive)
REMARK    1  A    between atoms: C5_5  and  O1_6 
REMARK    2  A    between atoms: O1_6  and  C6_7 
REMARK    3  A    between atoms: C6_7  and  C7_9 
REMARK    4  A    between atoms: C7_9  and  C10_12 
REMARK    5  A    between atoms: C10_12  and  C11_13 
REMARK    6  A    between atoms: C11_13  and  C12_14 
REMARK    7  A    between atoms: C12_14  and  O3_15 
REMARK    8  A    between atoms: C12_14  and  C13_17 
REMARK    9  A    between atoms: C13_17  and  O4_20 
REMARK   10  A    between atoms: C21_28  and  O5_29 
ROOT
HETATM    1  C1  UNL     1      -5.136  -2.838  -1.433  1.00  0.00     0.046 C 
HETATM    2  C2  UNL     1      -4.634  -1.425  -1.093  1.00  0.00     0.063 C 
HETATM    3  C3  UNL     1      -5.156  -0.439  -2.133  1.00  0.00     0.046 C 
HETATM    4  C4  UNL     1      -3.156  -1.423  -1.126  1.00  0.00     0.075 C 
HETATM    5  C5  UNL     1      -2.466  -0.822   0.074  1.00  0.00     0.170 C 
HETATM    6  C16 UNL     1      -3.340   0.081   0.844  1.00  0.00     0.009 A 
HETATM    7  C17 UNL     1      -2.782   1.113   1.552  1.00  0.00     0.035 A 
HETATM    8  C18 UNL     1      -3.550   2.009   2.306  1.00  0.00     0.048 A 
HETATM    9  C19 UNL     1      -2.963   3.087   3.045  1.00  0.00     0.099 C 
HETATM   10  N1  UNL     1      -2.496   3.975   3.632  1.00  0.00    -0.191 NA
HETATM   11  C20 UNL     1      -4.913   1.848   2.336  1.00  0.00     0.062 A 
HETATM   12  C21 UNL     1      -5.487   0.806   1.622  1.00  0.00     0.101 A 
HETATM   13  C22 UNL     1      -4.717  -0.071   0.882  1.00  0.00     0.111 A 
HETATM   14  O6  UNL     1      -5.222  -1.122   0.153  1.00  0.00    -0.337 OA
ENDROOT
BRANCH  12  15
HETATM   15  O5  UNL     1      -6.870   0.626   1.641  1.00  0.00    -0.358 OA
ATOM     16  H5  UNL     1      -7.263  -0.087   1.152  1.00  0.00     0.217 HD
ENDBRANCH  12  15
BRANCH   5  17
HETATM   17  O1  UNL     1      -1.310  -0.111  -0.296  1.00  0.00    -0.310 OA
BRANCH  17  18
HETATM   18  C6  UNL     1      -0.034  -0.459   0.113  1.00  0.00     0.267 C 
HETATM   19  O2  UNL     1       0.054  -1.468   0.856  1.00  0.00    -0.264 OA
BRANCH  18  20
HETATM   20  C7  UNL     1       1.208   0.255  -0.256  1.00  0.00     0.041 C 
HETATM   21  C8  UNL     1       1.341   0.244  -1.773  1.00  0.00     0.025 C 
HETATM   22  C9  UNL     1       1.054   1.679   0.202  1.00  0.00     0.025 C 
BRANCH  20  23
HETATM   23  C10 UNL     1       2.370  -0.456   0.328  1.00  0.00     0.022 C 
BRANCH  23  24
HETATM   24  C11 UNL     1       3.706   0.157   0.035  1.00  0.00     0.036 C 
BRANCH  24  25
HETATM   25  C12 UNL     1       4.777  -0.683   0.698  1.00  0.00     0.151 C 
BRANCH  25  26
HETATM   26  O3  UNL     1       4.634  -0.765   2.064  1.00  0.00    -0.393 OA
ATOM     27  H3  UNL     1       5.306  -1.292   2.480  1.00  0.00     0.210 HD
ENDBRANCH  25  26
BRANCH  25  28
HETATM   28  C13 UNL     1       6.165  -0.212   0.317  1.00  0.00     0.076 C 
HETATM   29  C14 UNL     1       6.279  -0.205  -1.201  1.00  0.00     0.048 C 
HETATM   30  C15 UNL     1       6.417   1.187   0.797  1.00  0.00     0.048 C 
BRANCH  28  31
HETATM   31  O4  UNL     1       7.126  -1.095   0.797  1.00  0.00    -0.388 OA
ATOM     32  H4  UNL     1       7.997  -0.800   0.558  1.00  0.00     0.210 HD
ENDBRANCH  28  31
ENDBRANCH  25  28
ENDBRANCH  24  25
ENDBRANCH  23  24
ENDBRANCH  20  23
ENDBRANCH  18  20
ENDBRANCH  17  18
ENDBRANCH   5  17
TORSDOF 10
