REMARK  8 active torsions:
REMARK  status: ('A' for Active; 'I' for Inactive)
REMARK    1  A    between atoms: C4_9  and  C5_10 
REMARK    2  A    between atoms: C5_10  and  C6_12 
REMARK    3  A    between atoms: C6_12  and  C7_13 
REMARK    4  A    between atoms: C7_13  and  C8_14 
REMARK    5  A    between atoms: C10_16  and  C11_17 
REMARK    6  A    between atoms: C11_17  and  N3_18 
REMARK    7  A    between atoms: N4_21  and  C14_22 
REMARK    8  A    between atoms: C14_22  and  C15_23 
ROOT
HETATM    1  C8  UNL     1      -2.101  -1.222   0.976  1.00  0.00     0.054 A 
HETATM    2  C9  UNL     1      -1.119  -0.447   0.431  1.00  0.00     0.044 A 
HETATM    3  C10 UNL     1      -0.259  -1.239  -0.355  1.00  0.00    -0.009 A 
HETATM    4  C20 UNL     1      -0.813  -2.523  -0.208  1.00  0.00     0.057 A 
HETATM    5  C21 UNL     1      -0.283  -3.761  -0.820  1.00  0.00     0.077 C 
HETATM    6  O5  UNL     1      -1.859  -2.485   0.545  1.00  0.00    -0.319 OA
ENDROOT
BRANCH   1   7
HETATM    7  C7  UNL     1      -3.259  -1.017   1.845  1.00  0.00     0.073 C 
BRANCH   7   8
HETATM    8  C6  UNL     1      -4.589  -1.016   1.205  1.00  0.00     0.092 C 
BRANCH   8   9
HETATM    9  C5  UNL     1      -4.975   0.084   0.351  1.00  0.00     0.178 C 
HETATM   10  O2  UNL     1      -4.165   1.025   0.110  1.00  0.00    -0.291 OA
BRANCH   9  11
HETATM   11  C4  UNL     1      -6.296   0.157  -0.244  1.00  0.00     0.105 A 
HETATM   12  C2  UNL     1      -6.944   1.177  -0.921  1.00  0.00     0.040 A 
HETATM   13  C1  UNL     1      -6.304   2.483  -1.270  1.00  0.00     0.071 C 
HETATM   14  N1  UNL     1      -8.192   0.814  -1.176  1.00  0.00    -0.310 N 
HETATM   15  C3  UNL     1      -8.408  -0.403  -0.704  1.00  0.00     0.325 A 
ATOM     16  H1  UNL     1      -8.882   1.386  -1.663  1.00  0.00     0.170 HD
HETATM   17  O1  UNL     1      -9.479  -1.086  -0.765  1.00  0.00    -0.247 OA
HETATM   18  N2  UNL     1      -7.241  -0.801  -0.132  1.00  0.00    -0.304 N 
ATOM     19  H2  UNL     1      -7.098  -1.703   0.322  1.00  0.00     0.171 HD
ENDBRANCH   9  11
ENDBRANCH   8   9
ENDBRANCH   7   8
ENDBRANCH   1   7
BRANCH   3  20
HETATM   20  C11 UNL     1       0.724  -0.800  -1.338  1.00  0.00     0.167 C 
BRANCH  20  21
HETATM   21  N3  UNL     1       1.980  -0.301  -0.858  1.00  0.00    -0.338 N 
HETATM   22  C12 UNL     1       2.303   0.925  -0.327  1.00  0.00     0.146 C 
HETATM   23  C13 UNL     1       3.422   0.891   0.732  1.00  0.00     0.146 C 
HETATM   24  N4  UNL     1       4.538   0.083   0.395  1.00  0.00    -0.342 N 
HETATM   25  C18 UNL     1       4.309  -1.131  -0.308  1.00  0.00     0.311 C 
HETATM   26  O3  UNL     1       5.199  -2.018  -0.383  1.00  0.00    -0.262 OA
HETATM   27  C19 UNL     1       3.030  -1.338  -0.937  1.00  0.00     0.312 C 
HETATM   28  O4  UNL     1       2.789  -2.384  -1.567  1.00  0.00    -0.262 OA
BRANCH  24  29
HETATM   29  C14 UNL     1       5.898   0.402   0.696  1.00  0.00     0.130 C 
BRANCH  29  30
HETATM   30  C15 UNL     1       6.606   1.298  -0.307  1.00  0.00    -0.005 C 
HETATM   31  C16 UNL     1       5.965   2.664  -0.391  1.00  0.00     0.011 C 
HETATM   32  C17 UNL     1       8.036   1.483   0.201  1.00  0.00     0.011 C 
ENDBRANCH  29  30
ENDBRANCH  24  29
ENDBRANCH  20  21
ENDBRANCH   3  20
TORSDOF 8
