REMARK  10 active torsions:
REMARK  status: ('A' for Active; 'I' for Inactive)
REMARK    1  A    between atoms: C4_4  and  C5_5 
REMARK    2  A    between atoms: C5_5  and  O2_7 
REMARK    3  A    between atoms: O2_7  and  C6_8 
REMARK    4  A    between atoms: C10_14  and  C11_15 
REMARK    5  A    between atoms: C11_15  and  C12_16 
REMARK    6  A    between atoms: C12_16  and  C13_17 
REMARK       I    between atoms: C13_17  and  N2_19 
REMARK    7  A    between atoms: N2_19  and  C15_21 
REMARK    8  A    between atoms: C15_21  and  C16_22 
REMARK    9  A    between atoms: C16_22  and  C17_23 
REMARK       I    between atoms: C17_23  and  N3_25 
REMARK   10  A    between atoms: N3_25  and  C18_27 
ROOT
HETATM    1  C1  UNL     1      -3.825   1.083  -2.181  1.00  0.00     0.018 C 
HETATM    2  C2  UNL     1      -3.835   0.655  -1.051  1.00  0.00    -0.075 C 
HETATM    3  C3  UNL     1      -3.870   0.145   0.300  1.00  0.00     0.058 A 
HETATM    4  C4  UNL     1      -4.998  -0.261   1.018  1.00  0.00     0.128 A 
HETATM    5  N1  UNL     1      -4.553  -0.650   2.203  1.00  0.00    -0.353 N 
ATOM      6  H1  UNL     1      -5.148  -1.004   2.953  1.00  0.00     0.166 HD
HETATM    7  C8  UNL     1      -3.211  -0.519   2.293  1.00  0.00     0.013 A 
HETATM    8  C9  UNL     1      -2.374  -0.858   3.468  1.00  0.00     0.068 C 
HETATM    9  C10 UNL     1      -2.748  -0.014   1.094  1.00  0.00    -0.014 A 
ENDROOT
BRANCH   4  10
HETATM   10  C5  UNL     1      -6.350  -0.222   0.473  1.00  0.00     0.311 C 
HETATM   11  O1  UNL     1      -7.315  -0.616   1.200  1.00  0.00    -0.258 OA
BRANCH  10  12
HETATM   12  O2  UNL     1      -6.669   0.213  -0.778  1.00  0.00    -0.317 OA
BRANCH  12  13
HETATM   13  C6  UNL     1      -7.971   0.255  -1.314  1.00  0.00     0.175 C 
HETATM   14  C7  UNL     1      -8.919   1.106  -0.553  1.00  0.00     0.034 C 
ENDBRANCH  12  13
ENDBRANCH  10  12
ENDBRANCH   4  10
BRANCH   9  15
HETATM   15  C11 UNL     1      -1.343   0.290   0.726  1.00  0.00     0.051 C 
BRANCH  15  16
HETATM   16  C12 UNL     1      -0.731  -0.744  -0.154  1.00  0.00     0.107 C 
BRANCH  16  17
HETATM   17  C13 UNL     1       0.673  -0.370  -0.488  1.00  0.00     0.219 C 
HETATM   18  O3  UNL     1       1.088   0.753  -0.121  1.00  0.00    -0.273 OA
HETATM   19  N2  UNL     1       1.544  -1.219  -1.193  1.00  0.00    -0.356 N 
HETATM   20  C14 UNL     1       1.093  -2.520  -1.619  1.00  0.00     0.152 C 
BRANCH  19  21
HETATM   21  C15 UNL     1       2.889  -0.808  -1.510  1.00  0.00     0.134 C 
BRANCH  21  22
HETATM   22  C16 UNL     1       3.795  -1.212  -0.345  1.00  0.00     0.123 C 
BRANCH  22  23
HETATM   23  C17 UNL     1       5.179  -0.812  -0.624  1.00  0.00     0.224 C 
HETATM   24  O4  UNL     1       5.459  -0.305  -1.736  1.00  0.00    -0.273 OA
HETATM   25  N3  UNL     1       6.229  -0.975   0.320  1.00  0.00    -0.312 N 
ATOM     26  H3  UNL     1       6.368  -1.874   0.781  1.00  0.00     0.170 HD
BRANCH  25  27
HETATM   27  C18 UNL     1       7.009   0.022   0.593  1.00  0.00     0.130 A 
HETATM   28  C19 UNL     1       7.002   1.300   0.097  1.00  0.00     0.084 A 
HETATM   29  C20 UNL     1       8.045   1.958   0.717  1.00  0.00     0.076 A 
HETATM   30  C21 UNL     1       8.479   3.353   0.545  1.00  0.00     0.079 C 
HETATM   31  O5  UNL     1       8.609   1.101   1.517  1.00  0.00    -0.241 OA
HETATM   32  N4  UNL     1       8.022  -0.046   1.466  1.00  0.00    -0.245 N 
ATOM     33  H4  UNL     1       8.287  -0.871   2.004  1.00  0.00     0.196 HD
ENDBRANCH  25  27
ENDBRANCH  22  23
ENDBRANCH  21  22
ENDBRANCH  19  21
ENDBRANCH  16  17
ENDBRANCH  15  16
ENDBRANCH   9  15
TORSDOF 10
