REMARK  9 active torsions:
REMARK  status: ('A' for Active; 'I' for Inactive)
REMARK    1  A    between atoms: C2_2  and  C3_3 
REMARK       I    between atoms: N1_6  and  C6_7 
REMARK       I    between atoms: C6_7  and  N6_25 
REMARK    2  A    between atoms: N2_8  and  C7_10 
REMARK    3  A    between atoms: C7_10  and  N3_12 
REMARK    4  A    between atoms: N3_12  and  N4_14 
REMARK    5  A    between atoms: N4_14  and  C8_16 
REMARK    6  A    between atoms: C8_16  and  N5_18 
REMARK    7  A    between atoms: N5_18  and  C9_20 
REMARK    8  A    between atoms: C9_20  and  C10_21 
REMARK    9  A    between atoms: C10_21  and  C11_22 
ROOT
HETATM    1  C7  UNL     1       0.146  -0.098  -0.948  1.00  0.00     0.205 C 
HETATM    2  S1  UNL     1      -0.107   1.025  -2.101  1.00  0.00    -0.039 SA
ENDROOT
BRANCH   1   3
HETATM    3  N2  UNL     1       1.448  -0.447  -0.577  1.00  0.00    -0.165 N 
HETATM    4  C6  UNL     1       2.385   0.418  -0.408  1.00  0.00     0.678 C 
HETATM    5  N1  UNL     1       3.700   0.033  -0.031  1.00  0.00    -0.217 N 
HETATM    6  N6  UNL     1       2.062   1.787  -0.614  1.00  0.00    -0.230 N 
HETATM    7  C5  UNL     1       4.803   0.927   0.249  1.00  0.00     0.141 C 
HETATM    8  C15 UNL     1       4.162  -1.330   0.141  1.00  0.00     0.145 C 
HETATM    9  C4  UNL     1       5.531   0.181   1.340  1.00  0.00     0.027 C 
HETATM   10  C3  UNL     1       5.483  -1.233   0.873  1.00  0.00     0.005 C 
HETATM   11  C14 UNL     1       1.463   2.649   0.371  1.00  0.00     0.165 C 
ATOM     12  H6  UNL     1       2.270   2.189  -1.528  1.00  0.00     0.177 HD
ATOM     13  H2  UNL     1       1.665  -1.433  -0.434  1.00  0.00     0.186 HD
BRANCH  10  14
HETATM   14  C2  UNL     1       6.574  -1.602  -0.102  1.00  0.00     0.002 C 
HETATM   15  C1  UNL     1       7.953  -1.424   0.479  1.00  0.00     0.005 C 
ENDBRANCH  10  14
ENDBRANCH   1   3
BRANCH   1  16
HETATM   16  N3  UNL     1      -0.995  -0.710  -0.334  1.00  0.00    -0.274 N 
ATOM     17  H3  UNL     1      -0.853  -1.416   0.389  1.00  0.00     0.189 HD
BRANCH  16  18
HETATM   18  N4  UNL     1      -2.298  -0.363  -0.702  1.00  0.00    -0.274 N 
ATOM     19  H4  UNL     1      -2.853   0.218  -0.074  1.00  0.00     0.189 HD
BRANCH  18  20
HETATM   20  C8  UNL     1      -2.870  -0.798  -1.929  1.00  0.00     0.186 C 
HETATM   21  S2  UNL     1      -1.908  -1.731  -2.909  1.00  0.00    -0.040 SA
BRANCH  20  22
HETATM   22  N5  UNL     1      -4.180  -0.466  -2.305  1.00  0.00    -0.366 N 
ATOM     23  H5  UNL     1      -4.527  -0.791  -3.207  1.00  0.00     0.161 HD
BRANCH  22  24
HETATM   24  C9  UNL     1      -5.049   0.309  -1.476  1.00  0.00     0.122 C 
BRANCH  24  25
HETATM   25  C10 UNL     1      -5.553  -0.405  -0.245  1.00  0.00     0.023 C 
BRANCH  25  26
HETATM   26  C11 UNL     1      -6.442   0.571   0.515  1.00  0.00    -0.021 C 
HETATM   27  C12 UNL     1      -6.923  -0.199   1.743  1.00  0.00     0.009 C 
HETATM   28  C13 UNL     1      -7.626   0.910  -0.351  1.00  0.00     0.009 C 
ENDBRANCH  25  26
ENDBRANCH  24  25
ENDBRANCH  22  24
ENDBRANCH  20  22
ENDBRANCH  18  20
ENDBRANCH  16  18
ENDBRANCH   1  16
TORSDOF 9
