REMARK  5 active torsions:
REMARK  status: ('A' for Active; 'I' for Inactive)
REMARK    1  A    between atoms: C2_2  and  C3_4 
REMARK    2  A    between atoms: C3_4  and  C4_5 
REMARK    3  A    between atoms: C4_5  and  C5_6 
REMARK    4  A    between atoms: C4_5  and  N2_8 
REMARK       I    between atoms: N2_8  and  C7_10 
REMARK       I    between atoms: C7_10  and  N3_12 
REMARK    5  A    between atoms: N3_12  and  C8_14 
REMARK       I    between atoms: N6_24  and  C14_25 
REMARK       I    between atoms: C14_25  and  N7_27 
ROOT
HETATM    1  C8  UNL     1       0.104  -0.457   0.954  1.00  0.00     0.134 A 
HETATM    2  N4  UNL     1      -0.349  -1.581   0.403  1.00  0.00    -0.285 N 
ATOM      3  H4  UNL     1      -1.309  -1.921   0.463  1.00  0.00     0.188 HD
HETATM    4  N5  UNL     1       0.633  -2.186  -0.231  1.00  0.00    -0.301 N 
ATOM      5  H5  UNL     1       0.551  -3.067  -0.738  1.00  0.00     0.186 HD
HETATM    6  C9  UNL     1       1.763  -1.463  -0.108  1.00  0.00     0.056 A 
HETATM    7  C10 UNL     1       1.458  -0.367   0.634  1.00  0.00     0.041 A 
HETATM    8  C11 UNL     1       2.665   0.432   0.791  1.00  0.00     0.063 C 
HETATM    9  C12 UNL     1       2.388   1.904   0.574  1.00  0.00     0.044 C 
HETATM   10  C13 UNL     1       3.295   0.291   2.164  1.00  0.00     0.044 C 
HETATM   11  N6  UNL     1       3.612  -0.094  -0.171  1.00  0.00    -0.315 N 
HETATM   12  C14 UNL     1       4.722   0.655  -0.665  1.00  0.00     0.321 C 
HETATM   13  O2  UNL     1       4.858   1.868  -0.259  1.00  0.00    -0.247 OA
HETATM   14  N7  UNL     1       5.691   0.200  -1.556  1.00  0.00    -0.343 N 
HETATM   15  C15 UNL     1       6.742   1.176  -1.944  1.00  0.00     0.154 C 
HETATM   16  C16 UNL     1       5.766  -1.117  -2.110  1.00  0.00     0.154 C 
HETATM   17  C17 UNL     1       3.221  -1.424  -0.496  1.00  0.00     0.188 C 
ENDROOT
BRANCH   1  18
HETATM   18  N3  UNL     1      -0.540   0.427   1.662  1.00  0.00    -0.293 N 
HETATM   19  C7  UNL     1      -1.899   0.209   1.905  1.00  0.00     0.322 C 
HETATM   20  N2  UNL     1      -2.891   0.104   0.910  1.00  0.00    -0.335 N 
HETATM   21  O1  UNL     1      -2.262   0.097   3.120  1.00  0.00    -0.247 OA
ATOM     22  H2  UNL     1      -2.623   0.190  -0.070  1.00  0.00     0.164 HD
ATOM     23  H3  UNL     1      -0.067   1.253   2.028  1.00  0.00     0.172 HD
BRANCH  20  24
HETATM   24  C4  UNL     1      -4.306  -0.127   1.249  1.00  0.00     0.110 C 
BRANCH  24  25
HETATM   25  C3  UNL     1      -5.129   1.047   0.957  1.00  0.00     0.024 C 
BRANCH  25  26
HETATM   26  C2  UNL     1      -5.496   1.467  -0.366  1.00  0.00     0.035 C 
HETATM   27  C1  UNL     1      -4.921   2.573  -0.883  1.00  0.00     0.039 C 
HETATM   28  N1  UNL     1      -6.479   0.884  -1.211  1.00  0.00    -0.104 NA
ENDBRANCH  25  26
ENDBRANCH  24  25
BRANCH  24  29
HETATM   29  C5  UNL     1      -4.713  -1.493   0.847  1.00  0.00     0.025 C 
HETATM   30  C6  UNL     1      -4.852  -1.784  -0.616  1.00  0.00     0.007 C 
ENDBRANCH  24  29
ENDBRANCH  20  24
ENDBRANCH   1  18
TORSDOF 5
