REMARK  7 active torsions:
REMARK  status: ('A' for Active; 'I' for Inactive)
REMARK    1  A    between atoms: C5_6  and  N1_7 
REMARK    2  A    between atoms: N2_10  and  C8_11 
REMARK    3  A    between atoms: C8_11  and  C9_12 
REMARK    4  A    between atoms: C9_12  and  C10_13 
REMARK    5  A    between atoms: C10_13  and  C11_14 
REMARK    6  A    between atoms: C11_14  and  N3_15 
REMARK       I    between atoms: N3_15  and  C12_17 
REMARK       I    between atoms: C12_17  and  N4_19 
REMARK    7  A    between atoms: N4_19  and  C13_21 
ROOT
HETATM    1  C9  UNL     1      -1.667   0.941   2.372  1.00  0.00     0.032 C 
ENDROOT
BRANCH   1   2
HETATM    2  C8  UNL     1      -2.556  -0.130   1.811  1.00  0.00     0.272 C 
BRANCH   2   3
HETATM    3  N2  UNL     1      -2.093  -0.528   0.501  1.00  0.00     0.091 N 
HETATM    4  C7  UNL     1      -2.881  -1.637  -0.013  1.00  0.00     0.292 C 
HETATM    5  C6  UNL     1      -3.612  -1.331  -1.264  1.00  0.00     0.153 C 
HETATM    6  N1  UNL     1      -4.232  -0.033  -1.194  1.00  0.00    -0.377 N 
HETATM    7  C23 UNL     1      -3.368   1.087  -0.819  1.00  0.00     0.153 C 
HETATM    8  C22 UNL     1      -2.005   0.544  -0.453  1.00  0.00     0.292 C 
BRANCH   6   9
HETATM    9  C5  UNL     1      -5.590   0.234  -1.482  1.00  0.00     0.041 A 
HETATM   10  C4  UNL     1      -5.823   1.068  -2.572  1.00  0.00     0.054 A 
HETATM   11  C3  UNL     1      -7.125   1.355  -2.912  1.00  0.00     0.045 A 
HETATM   12  C2  UNL     1      -8.171   0.825  -2.184  1.00  0.00    -0.001 A 
HETATM   13 CL1  UNL     1      -7.470   2.399  -4.277  1.00  0.00    -0.084 Cl
HETATM   14  C1  UNL     1      -9.583   1.129  -2.543  1.00  0.00     0.053 C 
HETATM   15  C26 UNL     1      -7.903   0.004  -1.112  1.00  0.00     0.132 A 
HETATM   16  C24 UNL     1      -6.595  -0.316  -0.730  1.00  0.00     0.004 A 
HETATM   17  F1  UNL     1      -8.913  -0.537  -0.372  1.00  0.00    -0.205 F 
HETATM   18  C25 UNL     1      -6.376  -1.192   0.432  1.00  0.00     0.054 C 
ENDBRANCH   6   9
ENDBRANCH   2   3
ENDBRANCH   1   2
BRANCH   1  19
HETATM   19  C10 UNL     1      -0.228   0.437   2.480  1.00  0.00     0.021 C 
BRANCH  19  20
HETATM   20  C11 UNL     1       0.661   1.498   3.047  1.00  0.00     0.124 C 
BRANCH  20  21
HETATM   21  N3  UNL     1       2.008   1.008   3.160  1.00  0.00    -0.343 N 
HETATM   22  C12 UNL     1       2.780   0.617   2.044  1.00  0.00     0.316 C 
HETATM   23  O1  UNL     1       2.334   0.695   0.864  1.00  0.00    -0.247 OA
HETATM   24  N4  UNL     1       4.108   0.117   2.248  1.00  0.00    -0.339 N 
ATOM     25  H4  UNL     1       4.483   0.044   3.194  1.00  0.00     0.164 HD
ATOM     26  H3  UNL     1       2.425   0.940   4.088  1.00  0.00     0.164 HD
BRANCH  24  27
HETATM   27  C13 UNL     1       4.922  -0.286   1.116  1.00  0.00     0.086 C 
HETATM   28  C14 UNL     1       5.197  -1.749   1.112  1.00  0.00     0.025 C 
HETATM   29  C15 UNL     1       6.316  -2.227   0.260  1.00  0.00     0.002 C 
HETATM   30  C16 UNL     1       6.009  -2.195  -1.185  1.00  0.00     0.000 C 
HETATM   31  C17 UNL     1       6.358  -0.984  -1.959  1.00  0.00     0.000 C 
HETATM   32  C18 UNL     1       7.558  -0.217  -1.552  1.00  0.00     0.000 C 
HETATM   33  C19 UNL     1       7.307   1.195  -1.130  1.00  0.00     0.000 C 
HETATM   34  C20 UNL     1       6.094   1.425  -0.285  1.00  0.00     0.002 C 
HETATM   35  C21 UNL     1       6.099   0.618   0.989  1.00  0.00     0.025 C 
ENDBRANCH  24  27
ENDBRANCH  20  21
ENDBRANCH  19  20
ENDBRANCH   1  19
TORSDOF 7
