REMARK  9 active torsions:
REMARK  status: ('A' for Active; 'I' for Inactive)
REMARK    1  A    between atoms: C2_2  and  C3_3 
REMARK    2  A    between atoms: C3_3  and  C4_4 
REMARK    3  A    between atoms: C4_4  and  C5_5 
REMARK    4  A    between atoms: C5_5  and  O1_6 
REMARK    5  A    between atoms: C5_5  and  C6_8 
REMARK    6  A    between atoms: C5_5  and  C11_13 
REMARK    7  A    between atoms: C11_13  and  C12_16 
REMARK    8  A    between atoms: C15_19  and  C16_20 
REMARK       I    between atoms: C16_20  and  N1_22 
REMARK    9  A    between atoms: C25_31  and  C26_32 
ROOT
HETATM    1  C12 UNL     1      -0.677   0.190   0.029  1.00  0.00     0.017 A 
HETATM    2  C13 UNL     1      -0.173  -0.103   1.276  1.00  0.00     0.014 A 
HETATM    3  C14 UNL     1       0.918  -0.966   1.424  1.00  0.00     0.019 A 
HETATM    4  C15 UNL     1       1.502  -1.545   0.321  1.00  0.00     0.047 A 
HETATM    5  C25 UNL     1       1.031  -1.283  -0.940  1.00  0.00     0.045 A 
HETATM    6  C27 UNL     1      -0.047  -0.421  -1.053  1.00  0.00     0.031 A 
ENDROOT
BRANCH   1   7
HETATM    7  C11 UNL     1      -1.767   1.113  -0.176  1.00  0.00     0.301 C 
HETATM    8  F1  UNL     1      -1.647   1.619  -1.452  1.00  0.00    -0.197 F 
HETATM    9  F2  UNL     1      -1.489   2.294   0.628  1.00  0.00    -0.197 F 
BRANCH   7  10
HETATM   10  C5  UNL     1      -3.171   0.783   0.227  1.00  0.00     0.131 C 
BRANCH  10  11
HETATM   11  C4  UNL     1      -3.994   2.074   0.222  1.00  0.00     0.045 C 
BRANCH  11  12
HETATM   12  C3  UNL     1      -4.226   2.837  -0.977  1.00  0.00     0.003 C 
BRANCH  12  13
HETATM   13  C2  UNL     1      -5.153   4.044  -0.769  1.00  0.00    -0.004 C 
HETATM   14  C1  UNL     1      -6.514   3.648  -0.299  1.00  0.00     0.005 C 
ENDBRANCH  12  13
ENDBRANCH  11  12
ENDBRANCH  10  11
BRANCH  10  15
HETATM   15  O1  UNL     1      -3.143   0.325   1.493  1.00  0.00    -0.383 OA
ATOM     16  H1  UNL     1      -2.632  -0.476   1.496  1.00  0.00     0.210 HD
ENDBRANCH  10  15
BRANCH  10  17
HETATM   17  C6  UNL     1      -3.865  -0.217  -0.665  1.00  0.00     0.026 C 
HETATM   18  C7  UNL     1      -5.323  -0.416  -0.380  1.00  0.00     0.008 C 
HETATM   19  C8  UNL     1      -5.518  -1.353   0.757  1.00  0.00     0.001 C 
HETATM   20  C9  UNL     1      -4.257  -2.156   0.757  1.00  0.00     0.001 C 
HETATM   21  C10 UNL     1      -3.394  -1.645  -0.421  1.00  0.00     0.008 C 
ENDBRANCH  10  17
ENDBRANCH   7  10
ENDBRANCH   1   7
BRANCH   5  22
HETATM   22  C26 UNL     1       1.627  -1.893  -2.105  1.00  0.00     0.266 C 
HETATM   23  N2  UNL     1       1.083  -1.565  -3.385  1.00  0.00    -0.057 NA
HETATM   24  O3  UNL     1       2.563  -2.662  -2.049  1.00  0.00    -0.271 OA
ENDBRANCH   5  22
BRANCH   4  25
HETATM   25  C16 UNL     1       2.681  -2.439   0.476  1.00  0.00     0.255 C 
HETATM   26  O2  UNL     1       2.457  -3.670   0.645  1.00  0.00    -0.267 OA
HETATM   27  N1  UNL     1       4.003  -1.953   0.434  1.00  0.00    -0.343 N 
HETATM   28  C17 UNL     1       5.246  -2.711   0.542  1.00  0.00     0.127 C 
HETATM   29  C24 UNL     1       4.371  -0.530   0.272  1.00  0.00     0.091 C 
HETATM   30  C18 UNL     1       6.249  -1.922  -0.290  1.00  0.00     0.026 C 
HETATM   31  C19 UNL     1       5.584  -0.622  -0.626  1.00  0.00     0.010 C 
HETATM   32  C20 UNL     1       6.461   0.570  -0.629  1.00  0.00     0.007 C 
HETATM   33  C21 UNL     1       6.585   1.262   0.678  1.00  0.00     0.001 C 
HETATM   34  C22 UNL     1       6.059   0.456   1.837  1.00  0.00     0.002 C 
HETATM   35  C23 UNL     1       4.618   0.094   1.588  1.00  0.00     0.026 C 
ENDBRANCH   4  25
TORSDOF 9
