REMARK  2 active torsions:
REMARK  status: ('A' for Active; 'I' for Inactive)
REMARK    1  A    between atoms: N1_4  and  N2_5 
REMARK    2  A    between atoms: N2_5  and  C4_7 
ROOT
HETATM    1  N2  UNL     1       1.083  -0.782   0.559  1.00  0.00    -0.294 N 
ATOM      2  H2  UNL     1       1.193  -1.701   0.987  1.00  0.00     0.188 HD
ENDROOT
BRANCH   1   3
HETATM    3  N1  UNL     1      -0.101  -0.447  -0.095  1.00  0.00    -0.289 N 
HETATM    4  C2  UNL     1      -1.505  -0.076   0.090  1.00  0.00     0.039 A 
HETATM    5  C1  UNL     1      -2.532   0.176   0.876  1.00  0.00     0.041 C 
HETATM    6  C3  UNL     1      -0.930  -0.193  -1.275  1.00  0.00     0.206 A 
ENDBRANCH   1   3
BRANCH   1   7
HETATM    7  C4  UNL     1       2.133   0.168   0.623  1.00  0.00     0.190 C 
HETATM    8  N3  UNL     1       2.542   0.673  -0.486  1.00  0.00    -0.394 N 
ATOM      9  H32 UNL     1       2.117   0.390  -1.369  1.00  0.00     0.156 HD
ATOM     10  H31 UNL     1       3.298   1.357  -0.440  1.00  0.00     0.156 HD
ENDBRANCH   1   7
TORSDOF 2
