REMARK  2 active torsions:
REMARK  status: ('A' for Active; 'I' for Inactive)
REMARK    1  A    between atoms: C1_4  and  N2_5 
REMARK    2  A    between atoms: N2_5  and  C2_7 
ROOT
HETATM    1  C2  UNL     1      -0.322   0.223   0.494  1.00  0.00     0.133 C 
HETATM    2  C3  UNL     1      -1.370   1.017  -0.256  1.00  0.00     0.259 C 
HETATM    3  N3  UNL     1      -2.310  -0.041   0.082  1.00  0.00    -0.071 N 
ATOM      4  H31 UNL     1      -3.158  -0.196  -0.463  1.00  0.00     0.277 HD
ATOM      5  H32 UNL     1      -2.895   0.011   0.916  1.00  0.00     0.277 HD
HETATM    6  C4  UNL     1      -1.168  -0.956   0.001  1.00  0.00     0.259 C 
ENDROOT
BRANCH   1   7
HETATM    7  N2  UNL     1       0.998   0.276  -0.067  1.00  0.00    -0.379 N 
ATOM      8  H2  UNL     1       1.129   0.833  -0.911  1.00  0.00     0.160 HD
BRANCH   7   9
HETATM    9  C1  UNL     1       2.125  -0.382   0.459  1.00  0.00     0.169 C 
HETATM   10  N1  UNL     1       3.051   0.323   0.976  1.00  0.00    -0.396 N 
ATOM     11  H12 UNL     1       2.962   1.339   1.000  1.00  0.00     0.156 HD
ATOM     12  H11 UNL     1       3.868  -0.154   1.357  1.00  0.00     0.156 HD
ENDBRANCH   7   9
ENDBRANCH   1   7
TORSDOF 2
