REMARK  14 active torsions:
REMARK  status: ('A' for Active; 'I' for Inactive)
REMARK    1  A    between atoms: N1_1  and  C1_4 
REMARK    2  A    between atoms: C2_7  and  C3_8 
REMARK    3  A    between atoms: C3_8  and  C4_9 
REMARK    4  A    between atoms: C4_9  and  C5_10 
REMARK    5  A    between atoms: C5_10  and  C6_11 
REMARK    6  A    between atoms: C6_11  and  C7_12 
REMARK    7  A    between atoms: C7_12  and  C8_13 
REMARK    8  A    between atoms: C8_13  and  N3_14 
REMARK    9  A    between atoms: N3_14  and  C9_17 
REMARK   10  A    between atoms: C10_19  and  C11_20 
REMARK   11  A    between atoms: C11_20  and  O2_21 
REMARK   12  A    between atoms: C12_23  and  O3_24 
REMARK   13  A    between atoms: C13_26  and  O4_27 
REMARK   14  A    between atoms: C14_31  and  N5_32 
ROOT
HETATM    1  C5  UNL     1       2.212  -0.012  -0.632  1.00  0.00     0.000 C 
ENDROOT
BRANCH   1   2
HETATM    2  C4  UNL     1       2.825  -1.363  -0.698  1.00  0.00     0.007 C 
BRANCH   2   3
HETATM    3  C3  UNL     1       4.201  -1.331  -1.338  1.00  0.00     0.077 C 
BRANCH   3   4
HETATM    4  C2  UNL     1       5.148  -0.477  -0.593  1.00  0.00     0.113 A 
HETATM    5  N2  UNL     1       5.871  -1.028   0.393  1.00  0.00    -0.180 N 
HETATM    6  C1  UNL     1       6.755  -0.305   1.099  1.00  0.00     0.691 A 
ATOM      7  H2  UNL     1       5.747  -2.017   0.611  1.00  0.00     0.185 HD
HETATM    8  N6  UNL     1       6.898   0.990   0.793  1.00  0.00    -0.023 N 
HETATM    9  C14 UNL     1       6.179   1.528  -0.185  1.00  0.00     0.691 A 
ATOM     10  H6  UNL     1       7.561   1.565   1.312  1.00  0.00     0.203 HD
HETATM   11  N4  UNL     1       5.291   0.823  -0.902  1.00  0.00    -0.180 N 
ATOM     12  H4  UNL     1       4.748   1.255  -1.649  1.00  0.00     0.185 HD
BRANCH   6  13
HETATM   13  N1  UNL     1       7.452  -0.820   2.042  1.00  0.00    -0.234 N 
ATOM     14  H12 UNL     1       7.343  -1.807   2.275  1.00  0.00     0.174 HD
ATOM     15  H11 UNL     1       8.124  -0.271   2.578  1.00  0.00     0.174 HD
ENDBRANCH   6  13
BRANCH   9  16
HETATM   16  N5  UNL     1       6.362   2.787  -0.436  1.00  0.00    -0.234 N 
ATOM     17  H52 UNL     1       5.810   3.200  -1.187  1.00  0.00     0.174 HD
ATOM     18  H51 UNL     1       7.037   3.323   0.109  1.00  0.00     0.174 HD
ENDBRANCH   9  16
ENDBRANCH   3   4
ENDBRANCH   2   3
ENDBRANCH   1   2
BRANCH   1  19
HETATM   19  C6  UNL     1       0.855  -0.087   0.018  1.00  0.00     0.002 C 
BRANCH  19  20
HETATM   20  C7  UNL     1      -0.043  -0.974  -0.774  1.00  0.00     0.027 C 
BRANCH  20  21
HETATM   21  C8  UNL     1      -1.439  -1.060  -0.167  1.00  0.00     0.235 C 
BRANCH  21  22
HETATM   22  N3  UNL     1      -2.082   0.221  -0.097  1.00  0.00    -0.046 N 
ATOM     23  H32 UNL     1      -1.519   0.910   0.402  1.00  0.00     0.280 HD
ATOM     24  H31 UNL     1      -2.113   0.689  -1.003  1.00  0.00     0.280 HD
BRANCH  22  25
HETATM   25  C9  UNL     1      -3.376   0.064   0.475  1.00  0.00     0.353 C 
HETATM   26  O1  UNL     1      -4.088   1.230   0.671  1.00  0.00    -0.347 OA
HETATM   27  C10 UNL     1      -5.290   0.708   1.184  1.00  0.00     0.179 C 
HETATM   28  C12 UNL     1      -5.678  -0.228   0.059  1.00  0.00     0.182 C 
HETATM   29  C13 UNL     1      -4.319  -0.794  -0.323  1.00  0.00     0.205 C 
BRANCH  27  30
HETATM   30  C11 UNL     1      -6.345   1.764   1.371  1.00  0.00     0.198 C 
BRANCH  30  31
HETATM   31  O2  UNL     1      -7.475   1.102   1.881  1.00  0.00    -0.398 OA
ATOM     32  H2  UNL     1      -8.141   1.769   1.999  1.00  0.00     0.209 HD
ENDBRANCH  30  31
ENDBRANCH  27  30
BRANCH  28  33
HETATM   33  O3  UNL     1      -6.533  -1.217   0.544  1.00  0.00    -0.390 OA
ATOM     34  H3  UNL     1      -6.776  -1.804  -0.162  1.00  0.00     0.210 HD
ENDBRANCH  28  33
BRANCH  29  35
HETATM   35  O4  UNL     1      -4.105  -0.746  -1.685  1.00  0.00    -0.388 OA
ATOM     36  H4  UNL     1      -4.701  -1.288  -2.189  1.00  0.00     0.210 HD
ENDBRANCH  29  35
ENDBRANCH  22  25
ENDBRANCH  21  22
ENDBRANCH  20  21
ENDBRANCH  19  20
ENDBRANCH   1  19
TORSDOF 14
