REMARK  2 active torsions:
REMARK  status: ('A' for Active; 'I' for Inactive)
REMARK    1  A    between atoms: C2_2  and  N1_3 
REMARK    2  A    between atoms: N4_16  and  C10_18 
ROOT
HETATM    1  N1  UNL     1       2.770  -0.363  -0.286  1.00  0.00    -0.377 N 
ATOM      2  H1  UNL     1       3.461   0.373  -0.433  1.00  0.00     0.161 HD
HETATM    3  C3  UNL     1       1.522  -0.043  -0.303  1.00  0.00     0.103 A 
HETATM    4  C4  UNL     1       1.003   1.298  -0.517  1.00  0.00     0.066 A 
HETATM    5  C5  UNL     1      -0.342   1.269  -0.471  1.00  0.00     0.039 A 
HETATM    6  C6  UNL     1      -1.195   2.420  -0.642  1.00  0.00     0.063 A 
HETATM    7  C7  UNL     1      -2.562   2.444  -0.605  1.00  0.00     0.050 A 
HETATM    8  C8  UNL     1      -2.961   3.764  -0.819  1.00  0.00     0.109 A 
HETATM    9  N2  UNL     1      -1.842   4.488  -0.976  1.00  0.00    -0.311 N 
ATOM     10  H2  UNL     1      -1.805   5.493  -1.149  1.00  0.00     0.186 HD
HETATM   11  N3  UNL     1      -0.800   3.692  -0.871  1.00  0.00    -0.300 N 
ATOM     12  H3  UNL     1       0.171   3.993  -0.951  1.00  0.00     0.187 HD
HETATM   13  C9  UNL     1      -0.783  -0.091  -0.226  1.00  0.00     0.115 A 
HETATM   14  N4  UNL     1      -1.968  -0.546  -0.112  1.00  0.00    -0.376 N 
ATOM     15  H4  UNL     1      -2.760   0.091  -0.196  1.00  0.00     0.161 HD
HETATM   16  N5  UNL     1       0.403  -0.898  -0.124  1.00  0.00    -0.328 N 
ATOM     17  H5  UNL     1       0.434  -1.903   0.046  1.00  0.00     0.169 HD
ENDROOT
BRANCH  14  18
HETATM   18  C10 UNL     1      -2.206  -1.942   0.133  1.00  0.00     0.116 C 
HETATM   19  C11 UNL     1      -1.970  -2.213   1.598  1.00  0.00     0.026 C 
ENDBRANCH  14  18
BRANCH   1  20
HETATM   20  C2  UNL     1       3.240  -1.710  -0.070  1.00  0.00     0.116 C 
HETATM   21  C1  UNL     1       4.640  -1.745   0.490  1.00  0.00     0.026 C 
ENDBRANCH   1  20
TORSDOF 2
