REMARK  5 active torsions:
REMARK  status: ('A' for Active; 'I' for Inactive)
REMARK    1  A    between atoms: N1_1  and  C1_5 
REMARK    2  A    between atoms: C1_5  and  C2_6 
REMARK    3  A    between atoms: C5_9  and  C6_10 
REMARK    4  A    between atoms: C6_10  and  N2_11 
REMARK    5  A    between atoms: N2_11  and  C7_13 
ROOT
HETATM    1  C2  UNL     1      -3.242  -0.143   0.181  1.00  0.00    -0.033 A 
HETATM    2  C3  UNL     1      -2.440   0.900   0.594  1.00  0.00     0.009 A 
HETATM    3  C4  UNL     1      -1.107   0.932   0.217  1.00  0.00     0.009 A 
HETATM    4  C5  UNL     1      -0.570  -0.064  -0.565  1.00  0.00    -0.040 A 
HETATM    5  C11 UNL     1      -1.370  -1.109  -0.979  1.00  0.00     0.009 A 
HETATM    6  C12 UNL     1      -2.699  -1.145  -0.606  1.00  0.00     0.009 A 
ENDROOT
BRANCH   4   7
HETATM    7  C6  UNL     1       0.862   0.041  -0.925  1.00  0.00     0.176 C 
BRANCH   7   8
HETATM    8  N2  UNL     1       1.703  -0.614   0.055  1.00  0.00    -0.222 N 
ATOM      9  H2  UNL     1       1.326  -1.345   0.658  1.00  0.00     0.178 HD
BRANCH   8  10
HETATM   10  C7  UNL     1       2.928  -0.258   0.149  1.00  0.00     0.677 A 
HETATM   11  N3  UNL     1       3.434   0.698  -0.636  1.00  0.00    -0.202 N 
HETATM   12  C8  UNL     1       4.741   1.069  -0.527  1.00  0.00     0.107 A 
ATOM     13  H3  UNL     1       2.836   1.155  -1.324  1.00  0.00     0.183 HD
HETATM   14  C9  UNL     1       5.546   0.444   0.409  1.00  0.00     0.035 A 
HETATM   15  C10 UNL     1       5.017  -0.537   1.212  1.00  0.00     0.107 A 
HETATM   16  N4  UNL     1       3.713  -0.856   1.050  1.00  0.00    -0.202 N 
ATOM     17  H4  UNL     1       3.311  -1.584   1.641  1.00  0.00     0.183 HD
ENDBRANCH   8  10
ENDBRANCH   7   8
ENDBRANCH   4   7
BRANCH   1  18
HETATM   18  C1  UNL     1      -4.689  -0.214   0.568  1.00  0.00     0.268 C 
BRANCH  18  19
HETATM   19  N1  UNL     1      -5.444   0.473  -0.452  1.00  0.00    -0.075 N 
ATOM     20  H13 UNL     1      -5.121   1.427  -0.611  1.00  0.00     0.274 HD
ATOM     21  H12 UNL     1      -5.265   0.114  -1.390  1.00  0.00     0.274 HD
ATOM     22  H11 UNL     1      -6.428   0.425  -0.189  1.00  0.00     0.274 HD
ENDBRANCH  18  19
ENDBRANCH   1  18
TORSDOF 5
