REMARK  3 active torsions:
REMARK  status: ('A' for Active; 'I' for Inactive)
REMARK    1  A    between atoms: N1_3  and  C4_5 
REMARK    2  A    between atoms: C9_10  and  C10_11 
REMARK    3  A    between atoms: N2_12  and  N3_14 
ROOT
HETATM    1  C1  UNL     1      -3.759   1.378   1.750  1.00  0.00     0.123 C 
HETATM    2  C2  UNL     1      -3.100   0.452   1.301  1.00  0.00    -0.073 C 
HETATM    3  N1  UNL     1      -2.352  -0.609   0.771  1.00  0.00    -0.321 N 
HETATM    4  C3  UNL     1      -2.347  -1.863   1.498  1.00  0.00     0.166 C 
ENDROOT
BRANCH   3   5
HETATM    5  C4  UNL     1      -1.647  -0.382  -0.444  1.00  0.00     0.052 A 
HETATM    6  C5  UNL     1      -2.351  -0.236  -1.646  1.00  0.00     0.031 A 
HETATM    7  C6  UNL     1      -1.731  -0.044  -2.853  1.00  0.00     0.002 A 
HETATM    8  C7  UNL     1      -0.366   0.002  -2.846  1.00  0.00     0.001 A 
HETATM    9  C8  UNL     1       0.341  -0.142  -1.652  1.00  0.00     0.015 A 
HETATM   10  C9  UNL     1      -0.262  -0.335  -0.430  1.00  0.00     0.008 A 
BRANCH  10  11
HETATM   11  C10 UNL     1       0.441  -0.457   0.827  1.00  0.00     0.120 C 
HETATM   12  N2  UNL     1       1.677  -0.448   0.997  1.00  0.00    -0.309 N 
ATOM     13  H2  UNL     1       1.897  -0.550   1.988  1.00  0.00     0.186 HD
BRANCH  12  14
HETATM   14  N3  UNL     1       2.800  -0.346   0.284  1.00  0.00    -0.276 N 
HETATM   15  C11 UNL     1       3.620   0.643   0.374  1.00  0.00     0.215 C 
HETATM   16  N4  UNL     1       3.313   1.684   1.283  1.00  0.00    -0.065 NA
HETATM   17  N5  UNL     1       4.775   0.617  -0.447  1.00  0.00    -0.065 NA
ATOM     18  H3  UNL     1       3.022  -1.096  -0.371  1.00  0.00     0.189 HD
ENDBRANCH  12  14
ENDBRANCH  10  11
ENDBRANCH   3   5
TORSDOF 3
