REMARK  5 active torsions:
REMARK  status: ('A' for Active; 'I' for Inactive)
REMARK    1  A    between atoms: C2_3  and  N2_4 
REMARK    2  A    between atoms: N2_4  and  C3_6 
REMARK    3  A    between atoms: C3_6  and  N3_8 
REMARK    4  A    between atoms: N3_8  and  C4_10 
REMARK    5  A    between atoms: C4_10  and  N4_12 
ROOT
HETATM    1  N1  UNL     1       6.840   2.109   1.400  1.00  0.00    -0.196 NA
HETATM    2  C1  UNL     1       6.171   1.374   0.821  1.00  0.00     0.078 C 
HETATM    3  C2  UNL     1       5.326   0.469   0.079  1.00  0.00     0.246 C 
ENDROOT
BRANCH   3   4
HETATM    4  N2  UNL     1       3.926   0.662   0.341  1.00  0.00    -0.355 N 
ATOM      5  H2  UNL     1       3.625   1.383   0.996  1.00  0.00     0.162 HD
BRANCH   4   6
HETATM    6  C3  UNL     1       2.967  -0.146  -0.308  1.00  0.00     0.174 C 
HETATM    7  S1  UNL     1       3.501  -1.281  -1.342  1.00  0.00    -0.041 SA
BRANCH   6   8
HETATM    8  N3  UNL     1       1.603   0.069  -0.030  1.00  0.00    -0.310 N 
ATOM      9  H3  UNL     1       1.354   0.804   0.632  1.00  0.00     0.170 HD
BRANCH   8  10
HETATM   10  C4  UNL     1       0.572  -0.674  -0.616  1.00  0.00     0.176 C 
HETATM   11  S2  UNL     1       0.900  -1.881  -1.702  1.00  0.00    -0.041 SA
BRANCH  10  12
HETATM   12  N4  UNL     1      -0.815  -0.412  -0.294  1.00  0.00    -0.358 N 
HETATM   13  C5  UNL     1      -1.737  -1.273  -0.994  1.00  0.00     0.125 C 
HETATM   14  C6  UNL     1      -2.890  -1.576  -0.071  1.00  0.00     0.020 C 
HETATM   15  C7  UNL     1      -3.987  -0.535  -0.195  1.00  0.00     0.002 C 
HETATM   16  C8  UNL     1      -3.403   0.871  -0.026  1.00  0.00     0.002 C 
HETATM   17  C9  UNL     1      -2.392   0.918   1.066  1.00  0.00     0.020 C 
HETATM   18  C10 UNL     1      -0.974   0.644   0.647  1.00  0.00     0.125 C 
ENDBRANCH  10  12
ENDBRANCH   8  10
ENDBRANCH   6   8
ENDBRANCH   4   6
ENDBRANCH   3   4
TORSDOF 5
