REMARK  5 active torsions:
REMARK  status: ('A' for Active; 'I' for Inactive)
REMARK       I    between atoms: N1_2  and  C2_4 
REMARK       I    between atoms: C2_4  and  N2_6 
REMARK    1  A    between atoms: N2_6  and  C3_8 
REMARK    2  A    between atoms: C3_8  and  N3_10 
REMARK    3  A    between atoms: N3_10  and  C5_12 
REMARK    4  A    between atoms: C5_12  and  O2_13 
REMARK    5  A    between atoms: C5_12  and  C6_15 
ROOT
HETATM    1  N3  UNL     1      -0.130  -0.041   0.018  1.00  0.00    -0.308 N 
HETATM    2  C4  UNL     1      -0.233   0.510   1.336  1.00  0.00     0.161 C 
ENDROOT
BRANCH   1   3
HETATM    3  C3  UNL     1       1.186  -0.349  -0.433  1.00  0.00     0.183 C 
HETATM    4  S1  UNL     1       1.373  -1.154  -1.829  1.00  0.00    -0.040 SA
BRANCH   3   5
HETATM    5  N2  UNL     1       2.330   0.039   0.271  1.00  0.00    -0.285 N 
HETATM    6  C2  UNL     1       3.655  -0.268  -0.220  1.00  0.00     0.322 C 
HETATM    7  N1  UNL     1       4.810   0.135   0.510  1.00  0.00    -0.347 N 
HETATM    8  O1  UNL     1       3.821  -0.896  -1.301  1.00  0.00    -0.247 OA
HETATM    9  C1  UNL     1       6.107  -0.191  -0.015  1.00  0.00     0.151 C 
ATOM     10  H1  UNL     1       4.718   0.645   1.388  1.00  0.00     0.163 HD
ATOM     11  H2  UNL     1       2.228   0.549   1.149  1.00  0.00     0.173 HD
ENDBRANCH   3   5
ENDBRANCH   1   3
BRANCH   1  12
HETATM   12  C5  UNL     1      -1.236  -0.375  -0.759  1.00  0.00     0.154 C 
BRANCH  12  13
HETATM   13  O2  UNL     1      -1.044  -1.054  -1.859  1.00  0.00    -0.345 OA
ATOM     14  H2  UNL     1      -1.799  -1.282  -2.389  1.00  0.00     0.219 HD
ENDBRANCH  12  13
BRANCH  12  15
HETATM   15  C6  UNL     1      -2.613  -0.066  -0.511  1.00  0.00     0.015 A 
HETATM   16  C7  UNL     1      -3.068   0.903   0.341  1.00  0.00     0.016 A 
HETATM   17  C8  UNL     1      -4.448   1.041   0.548  1.00  0.00     0.001 A 
HETATM   18  C9  UNL     1      -5.371   0.236  -0.077  1.00  0.00     0.000 A 
HETATM   19  C10 UNL     1      -4.905  -0.736  -0.935  1.00  0.00     0.001 A 
HETATM   20  C11 UNL     1      -3.566  -0.892  -1.154  1.00  0.00     0.016 A 
ENDBRANCH  12  15
ENDBRANCH   1  12
TORSDOF 5
