REMARK  2 active torsions:
REMARK  status: ('A' for Active; 'I' for Inactive)
REMARK       I    between atoms: C1_2  and  N1_3 
REMARK       I    between atoms: C1_2  and  N2_17 
REMARK    1  A    between atoms: N1_3  and  C2_5 
REMARK    2  A    between atoms: C9_12  and  O2_13 
ROOT
HETATM    1  C2  UNL     1      -0.182   0.155  -0.568  1.00  0.00     0.094 C 
HETATM    2  C3  UNL     1      -0.860  -1.194  -0.580  1.00  0.00     0.012 C 
HETATM    3  C4  UNL     1      -1.967  -1.178  -1.614  1.00  0.00     0.011 C 
HETATM    4  C5  UNL     1      -2.968  -0.111  -1.218  1.00  0.00    -0.011 C 
HETATM    5  C6  UNL     1      -2.312   1.241  -1.073  1.00  0.00     0.011 C 
HETATM    6  C7  UNL     1      -1.186   1.170  -0.071  1.00  0.00     0.012 C 
HETATM    7  C8  UNL     1      -1.707   0.791   1.277  1.00  0.00     0.044 C 
HETATM    8  C9  UNL     1      -2.463  -0.504   1.165  1.00  0.00     0.059 C 
HETATM    9  C10 UNL     1      -3.555  -0.468   0.138  1.00  0.00     0.042 C 
HETATM   10  C11 UNL     1      -1.464  -1.567   0.738  1.00  0.00     0.044 C 
ENDROOT
BRANCH   1  11
HETATM   11  N1  UNL     1       1.044   0.172   0.153  1.00  0.00    -0.338 N 
HETATM   12  C1  UNL     1       2.270   0.484  -0.483  1.00  0.00     0.318 C 
HETATM   13  O1  UNL     1       2.273   0.756  -1.734  1.00  0.00    -0.247 OA
HETATM   14  N2  UNL     1       3.510   0.512   0.199  1.00  0.00    -0.334 N 
HETATM   15  C12 UNL     1       3.930   0.276   1.562  1.00  0.00     0.129 C 
HETATM   16  C14 UNL     1       4.888   0.780  -0.139  1.00  0.00     0.129 C 
HETATM   17  C13 UNL     1       5.314  -0.055   1.031  1.00  0.00     0.040 C 
ATOM     18  H1  UNL     1       1.040  -0.045   1.150  1.00  0.00     0.164 HD
ENDBRANCH   1  11
BRANCH   8  19
HETATM   19  O2  UNL     1      -3.008  -0.812   2.397  1.00  0.00    -0.390 OA
ATOM     20  H2  UNL     1      -3.486  -1.630   2.326  1.00  0.00     0.210 HD
ENDBRANCH   8  19
TORSDOF 2
