REMARK  5 active torsions:
REMARK  status: ('A' for Active; 'I' for Inactive)
REMARK    1  A    between atoms: S1_2  and  C2_3 
REMARK    2  A    between atoms: C2_3  and  N1_4 
REMARK    3  A    between atoms: C2_3  and  N3_11 
REMARK    4  A    between atoms: N1_4  and  N2_6 
REMARK    5  A    between atoms: N2_6  and  C3_8 
ROOT
HETATM    1  C2  UNL     1       0.483  -1.144  -0.106  1.00  0.00     0.167 C 
ENDROOT
BRANCH   1   2
HETATM    2  S1  UNL     1      -0.042  -2.675  -0.357  1.00  0.00    -0.096 SA
HETATM    3  C1  UNL     1       1.200  -3.958  -0.781  1.00  0.00     0.099 C 
ENDBRANCH   1   2
BRANCH   1   4
HETATM    4  N1  UNL     1       1.870  -0.814  -0.216  1.00  0.00    -0.278 N 
ATOM      5  H1  UNL     1       2.527  -1.556  -0.458  1.00  0.00     0.189 HD
BRANCH   4   6
HETATM    6  N2  UNL     1       2.364   0.461  -0.011  1.00  0.00    -0.292 N 
ATOM      7  H2  UNL     1       2.207   1.177  -0.720  1.00  0.00     0.187 HD
BRANCH   6   8
HETATM    8  C3  UNL     1       3.092   0.797   1.177  1.00  0.00     0.088 C 
HETATM    9  C4  UNL     1       3.632   2.142   1.428  1.00  0.00     0.083 C 
HETATM   10  S2  UNL     1       3.335  -0.356   2.296  1.00  0.00    -0.064 SA
ENDBRANCH   6   8
ENDBRANCH   4   6
ENDBRANCH   1   4
BRANCH   1  11
HETATM   11  N3  UNL     1      -0.487  -0.175   0.223  1.00  0.00    -0.299 N 
HETATM   12  C5  UNL     1      -1.911  -0.328   0.374  1.00  0.00     0.149 C 
HETATM   13  C6  UNL     1      -2.534   0.915  -0.170  1.00  0.00    -0.013 A 
HETATM   14  C7  UNL     1      -2.431   1.061  -1.703  1.00  0.00     0.013 A 
HETATM   15  C8  UNL     1      -3.725   0.986  -0.967  1.00  0.00     0.013 A 
HETATM   16  C9  UNL     1      -1.937   2.067   0.599  1.00  0.00     0.108 C 
HETATM   17  S3  UNL     1      -0.169   1.530   0.541  1.00  0.00    -0.051 SA
ENDBRANCH   1  11
TORSDOF 5
