REMARK  4 active torsions:
REMARK  status: ('A' for Active; 'I' for Inactive)
REMARK    1  A    between atoms: C4_11  and  C5_12 
REMARK    2  A    between atoms: C5_12  and  N4_13 
REMARK    3  A    between atoms: N5_16  and  C8_17 
REMARK    4  A    between atoms: C8_17  and  C9_18 
ROOT
HETATM    1  C1  UNL     1      -3.711   1.296   1.730  1.00  0.00     0.070 C 
HETATM    2  C2  UNL     1      -3.559   0.931   0.285  1.00  0.00     0.037 A 
HETATM    3  N1  UNL     1      -4.134   1.532  -0.727  1.00  0.00    -0.303 N 
ATOM      4  H1  UNL     1      -4.784   2.316  -0.669  1.00  0.00     0.186 HD
HETATM    5  N2  UNL     1      -3.723   0.942  -1.836  1.00  0.00    -0.285 N 
ATOM      6  H2  UNL     1      -4.021   1.194  -2.779  1.00  0.00     0.188 HD
HETATM    7  C3  UNL     1      -2.866  -0.026  -1.541  1.00  0.00     0.127 A 
HETATM    8  N3  UNL     1      -2.423  -0.766  -2.545  1.00  0.00    -0.384 N 
ATOM      9  H31 UNL     1      -1.764  -1.511  -2.318  1.00  0.00     0.157 HD
ATOM     10  H32 UNL     1      -2.548  -0.700  -3.555  1.00  0.00     0.157 HD
HETATM   11  C4  UNL     1      -2.701  -0.113  -0.203  1.00  0.00     0.048 A 
ENDROOT
BRANCH  11  12
HETATM   12  C5  UNL     1      -2.028  -0.996   0.690  1.00  0.00     0.104 C 
BRANCH  12  13
HETATM   13  N4  UNL     1      -0.659  -1.255   0.566  1.00  0.00    -0.362 N 
HETATM   14  C6  UNL     1       0.098  -1.970  -0.283  1.00  0.00     0.154 C 
HETATM   15  C7  UNL     1       1.568  -1.526   0.031  1.00  0.00     0.294 C 
HETATM   16  N5  UNL     1       1.366  -0.107   0.175  1.00  0.00     0.107 N 
HETATM   17  C12 UNL     1       0.093   0.027   0.866  1.00  0.00     0.397 C 
BRANCH  16  18
HETATM   18  C8  UNL     1       2.445   0.555   0.806  1.00  0.00     0.279 C 
BRANCH  18  19
HETATM   19  C9  UNL     1       3.642   0.613  -0.101  1.00  0.00     0.014 A 
HETATM   20  C10 UNL     1       4.898   1.307   0.303  1.00  0.00     0.007 A 
HETATM   21  C11 UNL     1       4.884  -0.156   0.410  1.00  0.00     0.007 A 
ENDBRANCH  18  19
ENDBRANCH  16  18
ENDBRANCH  12  13
ENDBRANCH  11  12
TORSDOF 4
