REMARK  7 active torsions:
REMARK  status: ('A' for Active; 'I' for Inactive)
REMARK    1  A    between atoms: C2_2  and  C3_3 
REMARK    2  A    between atoms: C3_3  and  N1_4 
REMARK    3  A    between atoms: N1_4  and  C4_6 
REMARK    4  A    between atoms: C5_9  and  N3_10 
REMARK    5  A    between atoms: N3_10  and  C6_12 
REMARK    6  A    between atoms: C8_16  and  N5_17 
REMARK    7  A    between atoms: N5_17  and  C9_19 
ROOT
HETATM    1  C4  UNL     1       0.282   0.490  -0.325  1.00  0.00     0.707 A 
HETATM    2  N2  UNL     1       0.121  -0.828  -0.134  1.00  0.00    -0.022 N 
ATOM      3  H2  UNL     1       0.942  -1.413   0.021  1.00  0.00     0.203 HD
HETATM    4  C5  UNL     1      -1.110  -1.403  -0.142  1.00  0.00     0.707 A 
HETATM    5  N4  UNL     1      -2.206  -0.659  -0.344  1.00  0.00    -0.022 N 
ATOM      6  H4  UNL     1      -3.131  -1.088  -0.350  1.00  0.00     0.203 HD
HETATM    7  C8  UNL     1      -2.063   0.663  -0.538  1.00  0.00     0.707 A 
HETATM    8  N6  UNL     1      -0.823   1.221  -0.526  1.00  0.00    -0.022 N 
ATOM      9  H6  UNL     1      -0.731   2.226  -0.674  1.00  0.00     0.203 HD
ENDROOT
BRANCH   1  10
HETATM   10  N1  UNL     1       1.445   1.038  -0.318  1.00  0.00    -0.225 N 
ATOM     11  H1  UNL     1       1.549   2.042  -0.465  1.00  0.00     0.177 HD
BRANCH  10  12
HETATM   12  C3  UNL     1       2.605   0.198  -0.096  1.00  0.00     0.137 C 
BRANCH  12  13
HETATM   13  C2  UNL     1       3.887   0.998  -0.191  1.00  0.00     0.016 C 
HETATM   14  C1  UNL     1       5.075   0.125   0.039  1.00  0.00     0.006 C 
ENDBRANCH  12  13
ENDBRANCH  10  12
ENDBRANCH   1  10
BRANCH   4  15
HETATM   15  N3  UNL     1      -1.286  -2.668   0.040  1.00  0.00    -0.225 N 
ATOM     16  H3  UNL     1      -2.221  -3.075   0.029  1.00  0.00     0.177 HD
BRANCH  15  17
HETATM   17  C6  UNL     1      -0.113  -3.497   0.261  1.00  0.00     0.133 C 
HETATM   18  C7  UNL     1      -0.515  -4.967   0.280  1.00  0.00     0.027 C 
ENDBRANCH  15  17
ENDBRANCH   4  15
BRANCH   7  19
HETATM   19  N5  UNL     1      -3.089   1.388  -0.731  1.00  0.00    -0.220 N 
ATOM     20  H5  UNL     1      -4.017   0.965  -0.738  1.00  0.00     0.178 HD
BRANCH  19  21
HETATM   21  C9  UNL     1      -2.943   2.803  -0.939  1.00  0.00     0.099 A 
HETATM   22  C10 UNL     1      -3.094   3.647   0.289  1.00  0.00     0.028 A 
HETATM   23  C11 UNL     1      -4.177   3.643  -0.757  1.00  0.00     0.028 A 
ENDBRANCH  19  21
ENDBRANCH   7  19
TORSDOF 7
