REMARK  6 active torsions:
REMARK  status: ('A' for Active; 'I' for Inactive)
REMARK    1  A    between atoms: C2_2  and  C3_3 
REMARK    2  A    between atoms: C3_3  and  C4_4 
REMARK    3  A    between atoms: C5_5  and  N1_6 
REMARK    4  A    between atoms: N1_6  and  C7_8 
REMARK    5  A    between atoms: C10_13  and  N3_14 
REMARK    6  A    between atoms: C11_19  and  N5_20 
ROOT
HETATM    1  C4  UNL     1      -0.864   0.172  -0.522  1.00  0.00     0.031 A 
HETATM    2  C5  UNL     1       0.456   0.527  -0.569  1.00  0.00     0.129 A 
HETATM    3  N2  UNL     1       0.775   1.830  -0.386  1.00  0.00    -0.176 N 
ATOM      4  H2  UNL     1       1.758   2.100  -0.420  1.00  0.00     0.186 HD
HETATM    5  C10 UNL     1      -0.141   2.779  -0.163  1.00  0.00     0.679 A 
HETATM    6  N4  UNL     1      -1.444   2.464  -0.111  1.00  0.00    -0.177 N 
ATOM      7  H4  UNL     1      -2.148   3.182   0.058  1.00  0.00     0.186 HD
HETATM    8  C11 UNL     1      -1.799   1.183  -0.287  1.00  0.00     0.126 A 
ENDROOT
BRANCH   2   9
HETATM    9  N1  UNL     1       1.529  -0.370  -0.795  1.00  0.00    -0.367 N 
HETATM   10  C6  UNL     1       1.674  -0.947  -2.121  1.00  0.00     0.151 C 
BRANCH   9  11
HETATM   11  C7  UNL     1       2.492  -0.714   0.230  1.00  0.00     0.077 C 
HETATM   12  C8  UNL     1       3.866  -0.302  -0.242  1.00  0.00     0.032 C 
HETATM   13  C9  UNL     1       2.243   0.080   1.511  1.00  0.00     0.032 C 
ENDBRANCH   9  11
ENDBRANCH   2   9
BRANCH   1  14
HETATM   14  C3  UNL     1      -1.336  -1.214  -0.704  1.00  0.00     0.046 C 
BRANCH  14  15
HETATM   15  C2  UNL     1      -1.175  -2.104   0.480  1.00  0.00     0.000 C 
HETATM   16  C1  UNL     1      -1.719  -3.477   0.072  1.00  0.00     0.005 C 
ENDBRANCH  14  15
ENDBRANCH   1  14
BRANCH   8  17
HETATM   17  N5  UNL     1      -3.058   0.915  -0.235  1.00  0.00    -0.380 N 
HETATM   18  C12 UNL     1      -4.078   1.895   0.000  1.00  0.00     0.147 C 
ATOM     19  H5  UNL     1      -3.347  -0.054  -0.369  1.00  0.00     0.160 HD
ENDBRANCH   8  17
BRANCH   5  20
HETATM   20  N3  UNL     1       0.236   4.020   0.006  1.00  0.00    -0.234 N 
ATOM     21  H32 UNL     1       1.227   4.260  -0.034  1.00  0.00     0.174 HD
ATOM     22  H31 UNL     1      -0.462   4.744   0.176  1.00  0.00     0.174 HD
ENDBRANCH   5  20
TORSDOF 6
