REMARK  5 active torsions:
REMARK  status: ('A' for Active; 'I' for Inactive)
REMARK    1  A    between atoms: C3_3  and  C4_4 
REMARK    2  A    between atoms: C4_4  and  C5_5 
REMARK    3  A    between atoms: C5_5  and  C6_6 
REMARK    4  A    between atoms: C6_6  and  N1_7 
REMARK    5  A    between atoms: C11_18  and  N4_19 
ROOT
HETATM    1  C4  UNL     1      -1.110  -0.723  -1.205  1.00  0.00     0.073 C 
ENDROOT
BRANCH   1   2
HETATM    2  C3  UNL     1      -1.783   0.470  -0.638  1.00  0.00     0.086 A 
HETATM    3  C2  UNL     1      -3.058   0.395  -0.045  1.00  0.00     0.015 A 
HETATM    4  C1  UNL     1      -3.921  -0.784   0.131  1.00  0.00     0.055 C 
HETATM    5  C11 UNL     1      -3.406   1.663   0.380  1.00  0.00     0.127 A 
HETATM    6  N3  UNL     1      -2.353   2.437   0.034  1.00  0.00    -0.245 N 
HETATM    7  O2  UNL     1      -1.463   1.716  -0.538  1.00  0.00    -0.240 OA
ATOM      8  H3  UNL     1      -2.279   3.440   0.203  1.00  0.00     0.196 HD
BRANCH   5   9
HETATM    9  N4  UNL     1      -4.452   2.088   0.967  1.00  0.00    -0.384 N 
ATOM     10  H42 UNL     1      -5.246   1.504   1.228  1.00  0.00     0.157 HD
ATOM     11  H41 UNL     1      -4.709   3.024   1.281  1.00  0.00     0.157 HD
ENDBRANCH   5   9
ENDBRANCH   1   2
BRANCH   1  12
HETATM   12  C5  UNL     1      -0.573  -1.635  -0.138  1.00  0.00     0.051 C 
BRANCH  12  13
HETATM   13  C6  UNL     1       0.458  -1.111   0.736  1.00  0.00     0.069 C 
BRANCH  13  14
HETATM   14  N1  UNL     1       1.719  -0.695   0.307  1.00  0.00    -0.314 N 
HETATM   15  C7  UNL     1       1.908   0.695  -0.053  1.00  0.00     0.134 C 
HETATM   16  C8  UNL     1       3.298   1.180   0.382  1.00  0.00     0.040 C 
HETATM   17  C9  UNL     1       4.323   0.482  -0.450  1.00  0.00     0.126 C 
HETATM   18  N2  UNL     1       4.083  -0.947  -0.384  1.00  0.00    -0.343 N 
HETATM   19  C10 UNL     1       2.888  -1.495   0.187  1.00  0.00     0.322 C 
ATOM     20  H2  UNL     1       4.788  -1.583  -0.756  1.00  0.00     0.164 HD
HETATM   21  O1  UNL     1       2.841  -2.657   0.582  1.00  0.00    -0.247 OA
ENDBRANCH  13  14
ENDBRANCH  12  13
ENDBRANCH   1  12
TORSDOF 5
