REMARK  6 active torsions:
REMARK  status: ('A' for Active; 'I' for Inactive)
REMARK    1  A    between atoms: O1_2  and  C2_3 
REMARK    2  A    between atoms: C3_5  and  C4_6 
REMARK    3  A    between atoms: C3_5  and  C5_9 
REMARK    4  A    between atoms: C4_6  and  O3_7 
REMARK    5  A    between atoms: C5_9  and  O4_10 
REMARK    6  A    between atoms: C6_13  and  O6_14 
ROOT
HETATM    1  C2  UNL     1       1.107   0.031   0.113  1.00  0.00     0.318 C 
HETATM    2  O2  UNL     1       0.078   0.974   0.052  1.00  0.00    -0.316 OA
HETATM    3  C3  UNL     1      -1.046   0.197   0.077  1.00  0.00     0.212 C 
HETATM    4  O5  UNL     1      -0.770  -0.962   0.776  1.00  0.00    -0.316 OA
HETATM    5  C6  UNL     1       0.556  -0.877   1.201  1.00  0.00     0.316 C 
ENDROOT
BRANCH   3   6
HETATM    6  C4  UNL     1      -2.231   0.869   0.732  1.00  0.00     0.235 C 
BRANCH   6   7
HETATM    7  O3  UNL     1      -2.601   2.046   0.085  1.00  0.00    -0.395 OA
ATOM      8  H3  UNL     1      -3.346   2.468   0.497  1.00  0.00     0.209 HD
ENDBRANCH   6   7
ENDBRANCH   3   6
BRANCH   3   9
HETATM    9  C5  UNL     1      -1.437  -0.090  -1.368  1.00  0.00     0.235 C 
BRANCH   9  10
HETATM   10  O4  UNL     1      -2.581  -0.881  -1.379  1.00  0.00    -0.395 OA
ATOM     11  H4  UNL     1      -2.825  -1.060  -2.280  1.00  0.00     0.209 HD
ENDBRANCH   9  10
ENDBRANCH   3   9
BRANCH   1  12
HETATM   12  O1  UNL     1       2.324   0.571   0.436  1.00  0.00    -0.361 OA
HETATM   13  C1  UNL     1       3.310   0.303  -0.509  1.00  0.00     0.205 C 
ENDBRANCH   1  12
BRANCH   5  14
HETATM   14  O6  UNL     1       1.219  -2.092   1.111  1.00  0.00    -0.367 OA
ATOM     15  H6  UNL     1       0.875  -2.659   1.791  1.00  0.00     0.212 HD
ENDBRANCH   5  14
TORSDOF 6
