REMARK  5 active torsions:
REMARK  status: ('A' for Active; 'I' for Inactive)
REMARK    1  A    between atoms: C3_3  and  C4_4 
REMARK       I    between atoms: C4_4  and  N1_6 
REMARK    2  A    between atoms: N1_6  and  N2_8 
REMARK       I    between atoms: N2_8  and  C5_10 
REMARK       I    between atoms: C5_10  and  N3_12 
REMARK    3  A    between atoms: N3_12  and  N4_14 
REMARK    4  A    between atoms: N4_14  and  S1_16 
REMARK    5  A    between atoms: S1_16  and  C6_19 
ROOT
HETATM    1  C1  UNL     1       7.267   0.863  -1.358  1.00  0.00     0.012 C 
HETATM    2  C2  UNL     1       6.495   0.346  -0.606  1.00  0.00    -0.108 C 
HETATM    3  C3  UNL     1       5.565  -0.301   0.307  1.00  0.00     0.197 C 
ENDROOT
BRANCH   3   4
HETATM    4  C4  UNL     1       4.250   0.376   0.273  1.00  0.00     0.247 C 
HETATM    5  O1  UNL     1       4.089   1.373  -0.448  1.00  0.00    -0.271 OA
HETATM    6  N1  UNL     1       3.198  -0.126   1.058  1.00  0.00    -0.265 N 
ATOM      7  H1  UNL     1       3.387  -0.945   1.635  1.00  0.00     0.190 HD
BRANCH   6   8
HETATM    8  N2  UNL     1       1.906   0.419   1.105  1.00  0.00    -0.248 N 
HETATM    9  C5  UNL     1       0.800  -0.335   0.650  1.00  0.00     0.354 C 
HETATM   10  O2  UNL     1       1.077  -1.518   0.203  1.00  0.00    -0.244 OA
HETATM   11  N3  UNL     1      -0.550   0.068   0.634  1.00  0.00    -0.241 N 
ATOM     12  H3  UNL     1      -0.804   0.991   0.986  1.00  0.00     0.192 HD
ATOM     13  H2  UNL     1       1.764   1.362   1.468  1.00  0.00     0.192 HD
BRANCH  11  14
HETATM   14  N4  UNL     1      -1.554  -0.787   0.139  1.00  0.00    -0.218 N 
ATOM     15  H4  UNL     1      -1.662  -1.757   0.435  1.00  0.00     0.200 HD
BRANCH  14  16
HETATM   16  S1  UNL     1      -2.567  -0.038  -1.002  1.00  0.00     0.282 S 
HETATM   17  O3  UNL     1      -2.129   1.421  -1.149  1.00  0.00    -0.198 OA
HETATM   18  O4  UNL     1      -2.479  -0.725  -2.307  1.00  0.00    -0.198 OA
BRANCH  16  19
HETATM   19  C6  UNL     1      -4.251   0.091  -0.455  1.00  0.00     0.121 A 
HETATM   20  C7  UNL     1      -5.347  -0.497  -1.044  1.00  0.00     0.033 A 
HETATM   21  C8  UNL     1      -6.537  -0.291  -0.480  1.00  0.00     0.009 A 
HETATM   22  C9  UNL     1      -6.587   0.489   0.645  1.00  0.00     0.051 A 
HETATM   23  S2  UNL     1      -4.934   0.912   0.870  1.00  0.00    -0.088 SA
ENDBRANCH  16  19
ENDBRANCH  14  16
ENDBRANCH  11  14
ENDBRANCH   6   8
ENDBRANCH   3   4
TORSDOF 5
