REMARK  7 active torsions:
REMARK  status: ('A' for Active; 'I' for Inactive)
REMARK    1  A    between atoms: N1_2  and  S1_4 
REMARK    2  A    between atoms: S1_4  and  N2_7 
REMARK    3  A    between atoms: N2_7  and  N3_9 
REMARK    4  A    between atoms: N3_9  and  C2_11 
REMARK    5  A    between atoms: C2_11  and  N4_13 
REMARK    6  A    between atoms: N4_13  and  N5_15 
REMARK    7  A    between atoms: C3_17  and  C4_18 
ROOT
HETATM    1  C2  UNL     1      -0.281  -0.866  -1.153  1.00  0.00     0.205 C 
HETATM    2  S2  UNL     1      -0.092  -1.993  -2.313  1.00  0.00    -0.038 SA
ENDROOT
BRANCH   1   3
HETATM    3  N3  UNL     1      -1.288  -1.068  -0.177  1.00  0.00    -0.264 N 
ATOM      4  H3  UNL     1      -1.872  -1.903  -0.213  1.00  0.00     0.190 HD
BRANCH   3   5
HETATM    5  N2  UNL     1      -1.482  -0.121   0.838  1.00  0.00    -0.208 N 
ATOM      6  H2  UNL     1      -1.016  -0.155   1.745  1.00  0.00     0.201 HD
BRANCH   5   7
HETATM    7  S1  UNL     1      -2.592   1.099   0.379  1.00  0.00     0.332 S 
HETATM    8  O1  UNL     1      -2.251   2.352   1.159  1.00  0.00    -0.181 OA
HETATM    9  O2  UNL     1      -2.509   1.429  -1.078  1.00  0.00    -0.181 OA
BRANCH   7  10
HETATM   10  N1  UNL     1      -4.191   0.614   0.822  1.00  0.00    -0.306 N 
HETATM   11  C1  UNL     1      -4.845  -0.125  -0.233  1.00  0.00     0.161 C 
ATOM     12  H1  UNL     1      -4.622   0.825   1.722  1.00  0.00     0.173 HD
ENDBRANCH   7  10
ENDBRANCH   5   7
ENDBRANCH   3   5
ENDBRANCH   1   3
BRANCH   1  13
HETATM   13  N4  UNL     1       0.535   0.302  -1.103  1.00  0.00    -0.275 N 
ATOM     14  H4  UNL     1       0.374   0.976  -0.355  1.00  0.00     0.189 HD
BRANCH  13  15
HETATM   15  N5  UNL     1       1.523   0.560  -2.011  1.00  0.00    -0.308 N 
HETATM   16  C3  UNL     1       2.754   0.516  -1.791  1.00  0.00     0.126 C 
ATOM     17  H5  UNL     1       1.230   0.812  -2.955  1.00  0.00     0.186 HD
BRANCH  16  18
HETATM   18  C4  UNL     1       3.460   0.192  -0.558  1.00  0.00     0.021 A 
HETATM   19  C5  UNL     1       3.044  -0.149   0.684  1.00  0.00     0.021 A 
HETATM   20  C6  UNL     1       3.973  -0.391   1.624  1.00  0.00     0.008 A 
HETATM   21  C7  UNL     1       5.284  -0.276   1.260  1.00  0.00     0.050 A 
HETATM   22  S3  UNL     1       5.185   0.167  -0.384  1.00  0.00    -0.101 SA
ENDBRANCH  16  18
ENDBRANCH  13  15
ENDBRANCH   1  13
TORSDOF 7
