REMARK  5 active torsions:
REMARK  status: ('A' for Active; 'I' for Inactive)
REMARK    1  A    between atoms: C1_2  and  C2_4 
REMARK       I    between atoms: C2_4  and  N1_6 
REMARK    2  A    between atoms: N1_6  and  N2_8 
REMARK    3  A    between atoms: N2_8  and  S1_10 
REMARK    4  A    between atoms: S1_10  and  C3_13 
REMARK    5  A    between atoms: C6_16  and  C7_17 
ROOT
HETATM    1  S1  UNL     1       0.778  -1.413  -0.562  1.00  0.00     0.276 S 
HETATM    2  O4  UNL     1       0.437  -2.771  -1.155  1.00  0.00    -0.199 OA
HETATM    3  O5  UNL     1       1.531  -0.568  -1.584  1.00  0.00    -0.199 OA
ENDROOT
BRANCH   1   4
HETATM    4  N2  UNL     1       1.704  -1.594   0.858  1.00  0.00    -0.220 N 
ATOM      5  H2  UNL     1       1.615  -2.350   1.536  1.00  0.00     0.200 HD
BRANCH   4   6
HETATM    6  N1  UNL     1       2.613  -0.522   0.935  1.00  0.00    -0.251 N 
HETATM    7  C2  UNL     1       3.821  -0.501   0.209  1.00  0.00     0.337 C 
HETATM    8  O3  UNL     1       4.099  -1.465  -0.534  1.00  0.00    -0.259 OA
ATOM      9  H1  UNL     1       2.389   0.269   1.539  1.00  0.00     0.191 HD
BRANCH   7  10
HETATM   10  C1  UNL     1       4.729   0.618   0.321  1.00  0.00     0.271 C 
HETATM   11  O1  UNL     1       4.525   1.627   1.050  1.00  0.00    -0.640 OA
HETATM   12  O2  UNL     1       5.918   0.594  -0.421  1.00  0.00    -0.640 OA
ENDBRANCH   7  10
ENDBRANCH   4   6
ENDBRANCH   1   4
BRANCH   1  13
HETATM   13  C3  UNL     1      -0.748  -0.593  -0.298  1.00  0.00     0.081 A 
HETATM   14  C4  UNL     1      -0.843   0.766  -0.441  1.00  0.00     0.026 A 
HETATM   15  C5  UNL     1      -2.041   1.460  -0.242  1.00  0.00     0.020 A 
HETATM   16  C6  UNL     1      -3.183   0.780   0.111  1.00  0.00     0.040 A 
HETATM   17  C8  UNL     1      -3.076  -0.597   0.253  1.00  0.00     0.020 A 
HETATM   18  C9  UNL     1      -1.893  -1.292   0.057  1.00  0.00     0.026 A 
BRANCH  16  19
HETATM   19  C7  UNL     1      -4.464   1.442   0.334  1.00  0.00     0.209 C 
HETATM   20  O6  UNL     1      -4.542   2.688   0.205  1.00  0.00    -0.644 OA
HETATM   21  O7  UNL     1      -5.610   0.752   0.684  1.00  0.00    -0.644 OA
ENDBRANCH  16  19
ENDBRANCH   1  13
TORSDOF 5
