REMARK  5 active torsions:
REMARK  status: ('A' for Active; 'I' for Inactive)
REMARK    1  A    between atoms: O1_1  and  N1_3 
REMARK    2  A    between atoms: C1_5  and  C2_6 
REMARK    3  A    between atoms: N3_11  and  C5_12 
REMARK    4  A    between atoms: C5_12  and  C6_13 
REMARK    5  A    between atoms: C6_13  and  N4_14 
ROOT
HETATM    1  C2  UNL     1      -2.376  -0.496  -0.458  1.00  0.00     0.124 A 
HETATM    2  N2  UNL     1      -3.255  -1.533  -0.612  1.00  0.00    -0.350 N 
ATOM      3  H2  UNL     1      -4.122  -1.482  -1.147  1.00  0.00     0.166 HD
HETATM    4  C3  UNL     1      -2.825  -2.624   0.034  1.00  0.00     0.107 A 
HETATM    5  C4  UNL     1      -1.632  -2.263   0.614  1.00  0.00     0.109 A 
HETATM    6  N3  UNL     1      -1.382  -0.950   0.294  1.00  0.00    -0.339 N 
ENDROOT
BRANCH   6   7
HETATM    7  C5  UNL     1      -0.202  -0.252   0.735  1.00  0.00     0.152 C 
BRANCH   7   8
HETATM    8  C6  UNL     1       0.897  -0.471  -0.285  1.00  0.00     0.168 C 
BRANCH   8   9
HETATM    9  N4  UNL     1       2.117   0.218   0.109  1.00  0.00    -0.302 N 
HETATM   10  C7  UNL     1       3.082  -0.336   0.869  1.00  0.00     0.111 A 
HETATM   11  C8  UNL     1       4.068   0.603   1.031  1.00  0.00     0.037 A 
HETATM   12  C9  UNL     1       3.681   1.738   0.353  1.00  0.00     0.108 A 
HETATM   13  N5  UNL     1       2.487   1.441  -0.186  1.00  0.00    -0.310 N 
ATOM     14  H5  UNL     1       1.937   2.086  -0.754  1.00  0.00     0.186 HD
ENDBRANCH   8   9
ENDBRANCH   7   8
ENDBRANCH   6   7
BRANCH   1  15
HETATM   15  C1  UNL     1      -2.577   0.810  -1.038  1.00  0.00     0.162 C 
HETATM   16  N1  UNL     1      -1.805   1.800  -0.922  1.00  0.00    -0.277 N 
ATOM     17  H1  UNL     1      -0.959   1.668  -0.367  1.00  0.00     0.193 HD
BRANCH  16  18
HETATM   18  O1  UNL     1      -1.999   3.017  -1.466  1.00  0.00    -0.290 OA
ATOM     19  H1  UNL     1      -1.417   3.763  -1.379  1.00  0.00     0.244 HD
ENDBRANCH  16  18
ENDBRANCH   1  15
TORSDOF 5
