REMARK  11 active torsions:
REMARK  status: ('A' for Active; 'I' for Inactive)
REMARK    1  A    between atoms: C2_2  and  N1_3 
REMARK    2  A    between atoms: C2_2  and  C13_20 
REMARK    3  A    between atoms: N1_3  and  C3_4 
REMARK    4  A    between atoms: C3_4  and  O1_5 
REMARK    5  A    between atoms: C3_4  and  C4_7 
REMARK    6  A    between atoms: C4_7  and  N2_8 
REMARK    7  A    between atoms: C4_7  and  C10_17 
REMARK       I    between atoms: N2_8  and  C5_10 
REMARK    8  A    between atoms: C5_10  and  O3_12 
REMARK    9  A    between atoms: O3_12  and  C6_13 
REMARK       I    between atoms: C13_20  and  N3_22 
REMARK   10  A    between atoms: N3_22  and  C14_24 
REMARK   11  A    between atoms: C14_24  and  C15_25 
ROOT
HETATM    1  C3  UNL     1       0.554  -1.644   0.303  1.00  0.00     0.233 C 
ENDROOT
BRANCH   1   2
HETATM    2  N1  UNL     1       1.778  -1.436  -0.298  1.00  0.00    -0.408 NA
BRANCH   2   3
HETATM    3  C2  UNL     1       2.979  -1.234  -0.880  1.00  0.00     0.254 C 
HETATM    4  C1  UNL     1       2.938  -0.548  -2.262  1.00  0.00     0.058 C 
BRANCH   3   5
HETATM    5  C13 UNL     1       3.836  -0.208  -0.003  1.00  0.00     0.257 C 
HETATM    6  O4  UNL     1       3.076   0.405   0.775  1.00  0.00    -0.270 OA
HETATM    7  N3  UNL     1       5.139  -0.159  -0.189  1.00  0.00    -0.328 N 
ATOM      8  H3  UNL     1       5.448  -0.821  -0.901  1.00  0.00     0.168 HD
BRANCH   7   9
HETATM    9  C14 UNL     1       6.245   0.598   0.362  1.00  0.00     0.175 C 
BRANCH   9  10
HETATM   10  C15 UNL     1       6.169   2.032   0.188  1.00  0.00     0.214 C 
HETATM   11  O5  UNL     1       5.236   2.673  -0.225  1.00  0.00    -0.643 OA
HETATM   12  O6  UNL     1       7.369   2.741   0.561  1.00  0.00    -0.643 OA
ENDBRANCH   9  10
ENDBRANCH   7   9
ENDBRANCH   3   5
ENDBRANCH   2   3
ENDBRANCH   1   2
BRANCH   1  13
HETATM   13  O1  UNL     1       0.572  -1.999   1.599  1.00  0.00    -0.334 OA
ATOM     14  H1  UNL     1      -0.271  -2.142   2.013  1.00  0.00     0.220 HD
ENDBRANCH   1  13
BRANCH   1  15
HETATM   15  C4  UNL     1      -0.838  -1.567  -0.131  1.00  0.00     0.082 C 
BRANCH  15  16
HETATM   16  N2  UNL     1      -1.636  -0.873   0.855  1.00  0.00    -0.301 N 
HETATM   17  C5  UNL     1      -2.753  -0.087   0.793  1.00  0.00     0.365 C 
HETATM   18  O2  UNL     1      -3.372   0.248  -0.204  1.00  0.00    -0.238 OA
ATOM     19  H2  UNL     1      -1.289  -0.997   1.806  1.00  0.00     0.171 HD
BRANCH  17  20
HETATM   20  O3  UNL     1      -3.311   0.461   2.006  1.00  0.00    -0.294 OA
BRANCH  20  21
HETATM   21  C6  UNL     1      -4.463   1.293   1.894  1.00  0.00     0.061 C 
HETATM   22  C7  UNL     1      -4.871   1.742   3.278  1.00  0.00     0.046 C 
HETATM   23  C8  UNL     1      -5.609   0.593   1.247  1.00  0.00     0.046 C 
HETATM   24  C9  UNL     1      -4.116   2.569   1.123  1.00  0.00     0.046 C 
ENDBRANCH  20  21
ENDBRANCH  17  20
ENDBRANCH  15  16
BRANCH  15  25
HETATM   25  C10 UNL     1      -1.213  -1.411  -1.538  1.00  0.00     0.033 C 
HETATM   26  C11 UNL     1      -0.793  -0.233  -2.321  1.00  0.00     0.016 C 
HETATM   27  C12 UNL     1      -0.885  -2.688  -2.312  1.00  0.00     0.016 C 
ENDBRANCH  15  25
ENDBRANCH   1  15
TORSDOF 11
