REMARK  10 active torsions:
REMARK  status: ('A' for Active; 'I' for Inactive)
REMARK    1  A    between atoms: C1_2  and  C2_4 
REMARK    2  A    between atoms: C2_4  and  C3_5 
REMARK    3  A    between atoms: C3_5  and  N2_6 
REMARK    4  A    between atoms: N2_6  and  C4_8 
REMARK    5  A    between atoms: C4_8  and  N3_10 
REMARK    6  A    between atoms: N3_10  and  N4_12 
REMARK    7  A    between atoms: C5_14  and  C6_15 
REMARK    8  A    between atoms: C10_19  and  S2_20 
REMARK    9  A    between atoms: S2_20  and  N5_23 
REMARK   10  A    between atoms: N5_23  and  N6_25 
ROOT
HETATM    1  C6  UNL     1      -0.213   1.093  -0.477  1.00  0.00    -0.018 A 
HETATM    2  C7  UNL     1       0.124  -0.212  -0.730  1.00  0.00     0.013 A 
HETATM    3  C8  UNL     1      -0.886  -1.171  -0.850  1.00  0.00     0.002 A 
HETATM    4  C9  UNL     1      -2.225  -0.844  -0.719  1.00  0.00     0.025 A 
HETATM    5  C10 UNL     1      -2.575   0.461  -0.465  1.00  0.00     0.082 A 
HETATM    6  C12 UNL     1      -1.576   1.394  -0.349  1.00  0.00     0.038 A 
ENDROOT
BRANCH   1   7
HETATM    7  C5  UNL     1       0.745   2.182  -0.343  1.00  0.00     0.118 C 
HETATM    8  N4  UNL     1       1.980   2.190  -0.432  1.00  0.00    -0.309 N 
ATOM      9  H4  UNL     1       2.392   3.112  -0.290  1.00  0.00     0.186 HD
BRANCH   8  10
HETATM   10  N3  UNL     1       2.898   1.218  -0.681  1.00  0.00    -0.277 N 
ATOM     11  H3  UNL     1       3.098   0.545   0.059  1.00  0.00     0.189 HD
BRANCH  10  12
HETATM   12  C4  UNL     1       3.596   1.084  -1.913  1.00  0.00     0.186 C 
HETATM   13  S1  UNL     1       3.279   2.152  -3.133  1.00  0.00    -0.040 SA
BRANCH  12  14
HETATM   14  N2  UNL     1       4.555   0.091  -2.171  1.00  0.00    -0.366 N 
ATOM     15  H2  UNL     1       4.997   0.041  -3.089  1.00  0.00     0.161 HD
BRANCH  14  16
HETATM   16  C3  UNL     1       4.919  -0.858  -1.148  1.00  0.00     0.131 C 
BRANCH  16  17
HETATM   17  C2  UNL     1       5.757  -0.165  -0.091  1.00  0.00     0.119 C 
BRANCH  17  18
HETATM   18  C1  UNL     1       6.094  -1.184   0.961  1.00  0.00     0.232 C 
HETATM   19  N1  UNL     1       6.933  -0.742   2.022  1.00  0.00    -0.062 NA
HETATM   20  O1  UNL     1       5.645  -2.360   0.887  1.00  0.00    -0.277 OA
ENDBRANCH  17  18
ENDBRANCH  16  17
ENDBRANCH  14  16
ENDBRANCH  12  14
ENDBRANCH  10  12
ENDBRANCH   8  10
ENDBRANCH   1   7
BRANCH   5  21
HETATM   21  S2  UNL     1      -4.277   0.903  -0.301  1.00  0.00     0.276 S 
HETATM   22  O2  UNL     1      -4.447   2.355  -0.717  1.00  0.00    -0.199 OA
HETATM   23  O3  UNL     1      -5.116   0.097  -1.245  1.00  0.00    -0.199 OA
BRANCH  21  24
HETATM   24  N5  UNL     1      -4.714   0.685   1.330  1.00  0.00    -0.221 N 
ATOM     25  H5  UNL     1      -4.581   1.440   2.002  1.00  0.00     0.200 HD
BRANCH  24  26
HETATM   26  N6  UNL     1      -5.255  -0.533   1.741  1.00  0.00    -0.266 N 
HETATM   27  C11 UNL     1      -6.511  -0.769   1.571  1.00  0.00     0.216 C 
HETATM   28  N7  UNL     1      -7.339   0.209   0.968  1.00  0.00    -0.065 NA
HETATM   29  N8  UNL     1      -7.058  -2.004   1.988  1.00  0.00    -0.065 NA
ATOM     30  H6  UNL     1      -4.658  -1.236   2.176  1.00  0.00     0.190 HD
ENDBRANCH  24  26
ENDBRANCH  21  24
ENDBRANCH   5  21
TORSDOF 10
