REMARK  9 active torsions:
REMARK  status: ('A' for Active; 'I' for Inactive)
REMARK       I    between atoms: C2_2  and  N1_4 
REMARK    1  A    between atoms: N1_4  and  C3_6 
REMARK    2  A    between atoms: C3_6  and  C4_7 
REMARK    3  A    between atoms: C3_6  and  C5_10 
REMARK       I    between atoms: C5_10  and  N2_12 
REMARK    4  A    between atoms: N2_12  and  C6_14 
REMARK    5  A    between atoms: C6_14  and  C7_15 
REMARK    6  A    between atoms: C6_14  and  C11_24 
REMARK       I    between atoms: C7_15  and  N3_17 
REMARK    7  A    between atoms: N3_17  and  C8_19 
REMARK    8  A    between atoms: C8_19  and  C10_21 
REMARK       I    between atoms: C11_24  and  N4_26 
REMARK    9  A    between atoms: N4_26  and  C12_28 
ROOT
HETATM    1  C6  UNL     1      -0.367   0.572  -0.304  1.00  0.00     0.269 C 
ENDROOT
BRANCH   1   2
HETATM    2  N2  UNL     1       0.604  -0.142   0.414  1.00  0.00    -0.338 N 
HETATM    3  C5  UNL     1       2.008  -0.160  -0.033  1.00  0.00     0.252 C 
HETATM    4  O4  UNL     1       2.364   0.439  -1.062  1.00  0.00    -0.271 OA
ATOM      5  H2  UNL     1       0.335  -0.654   1.254  1.00  0.00     0.163 HD
BRANCH   3   6
HETATM    6  C3  UNL     1       2.975  -0.892   0.790  1.00  0.00     0.278 C 
BRANCH   6   7
HETATM    7  N1  UNL     1       4.243  -0.943   0.160  1.00  0.00    -0.339 N 
HETATM    8  C2  UNL     1       5.567  -0.673   0.498  1.00  0.00     0.214 C 
HETATM    9  C1  UNL     1       6.662  -0.939  -0.525  1.00  0.00     0.117 C 
HETATM   10  O1  UNL     1       5.925  -0.231   1.596  1.00  0.00    -0.274 OA
ATOM     11  H1  UNL     1       4.165  -1.266  -0.805  1.00  0.00     0.163 HD
ENDBRANCH   6   7
BRANCH   6  12
HETATM   12  C4  UNL     1       2.580  -2.277   1.151  1.00  0.00     0.206 C 
HETATM   13  O2  UNL     1       3.384  -2.966   1.846  1.00  0.00    -0.646 OA
HETATM   14  O3  UNL     1       1.371  -2.850   0.739  1.00  0.00    -0.646 OA
ENDBRANCH   6  12
ENDBRANCH   3   6
ENDBRANCH   1   2
BRANCH   1  15
HETATM   15  C7  UNL     1      -1.062   1.664   0.403  1.00  0.00     0.254 C 
HETATM   16  O5  UNL     1      -1.689   1.544   1.475  1.00  0.00    -0.270 OA
HETATM   17  N3  UNL     1      -0.932   2.952  -0.271  1.00  0.00    -0.323 N 
ATOM     18  H3  UNL     1      -0.380   2.954  -1.129  1.00  0.00     0.169 HD
BRANCH  17  19
HETATM   19  C8  UNL     1      -1.471   4.185   0.115  1.00  0.00     0.085 C 
HETATM   20  C9  UNL     1      -1.783   4.434   1.537  1.00  0.00     0.076 C 
BRANCH  19  21
HETATM   21  C10 UNL     1      -0.814   5.322  -0.556  1.00  0.00     0.222 C 
HETATM   22  O6  UNL     1      -1.337   5.903  -1.509  1.00  0.00    -0.643 OA
HETATM   23  O7  UNL     1       0.459   5.714  -0.088  1.00  0.00    -0.643 OA
ENDBRANCH  19  21
ENDBRANCH  17  19
ENDBRANCH   1  15
BRANCH   1  24
HETATM   24  C11 UNL     1      -1.381  -0.396  -0.854  1.00  0.00     0.250 C 
HETATM   25  O8  UNL     1      -1.717  -0.306  -2.090  1.00  0.00    -0.271 OA
HETATM   26  N4  UNL     1      -1.969  -1.411  -0.079  1.00  0.00    -0.351 N 
ATOM     27  H4  UNL     1      -1.627  -1.482   0.879  1.00  0.00     0.163 HD
BRANCH  26  28
HETATM   28  C12 UNL     1      -2.969  -2.351  -0.436  1.00  0.00     0.022 C 
HETATM   29  C13 UNL     1      -2.807  -3.599   0.442  1.00  0.00     0.037 C 
HETATM   30  C14 UNL     1      -4.371  -1.755  -0.061  1.00  0.00     0.037 C 
HETATM   31  C15 UNL     1      -2.984  -2.698  -1.866  1.00  0.00     0.037 C 
ENDBRANCH  26  28
ENDBRANCH   1  24
TORSDOF 9
