REMARK  8 active torsions:
REMARK  status: ('A' for Active; 'I' for Inactive)
REMARK    1  A    between atoms: C2_2  and  C3_6 
REMARK    2  A    between atoms: C3_6  and  N2_7 
REMARK    3  A    between atoms: N2_7  and  C4_9 
REMARK    4  A    between atoms: C5_10  and  C6_11 
REMARK    5  A    between atoms: C7_15  and  C8_16 
REMARK    6  A    between atoms: C9_19  and  N5_20 
REMARK       I    between atoms: N5_20  and  C10_22 
REMARK    7  A    between atoms: C12_25  and  N6_26 
REMARK       I    between atoms: N6_26  and  C13_28 
REMARK    8  A    between atoms: C13_28  and  C14_30 
ROOT
HETATM    1  C4  UNL     1       1.047  -0.630   0.595  1.00  0.00     0.139 C 
HETATM    2  C5  UNL     1       0.522  -0.074   1.886  1.00  0.00     0.235 C 
HETATM    3  O2  UNL     1      -0.507   0.800   1.718  1.00  0.00    -0.358 OA
HETATM    4  C7  UNL     1      -0.516   1.680   0.712  1.00  0.00     0.236 C 
HETATM    5  C9  UNL     1      -0.244   1.131  -0.624  1.00  0.00     0.147 C 
HETATM    6  C12 UNL     1       0.104  -0.322  -0.548  1.00  0.00     0.135 C 
ENDROOT
BRANCH   1   7
HETATM    7  N2  UNL     1       2.327  -0.098   0.265  1.00  0.00    -0.407 N 
ATOM      8  H2  UNL     1       2.465   0.464  -0.575  1.00  0.00     0.154 HD
BRANCH   7   9
HETATM    9  C3  UNL     1       3.401  -0.379   1.146  1.00  0.00     0.166 C 
BRANCH   9  10
HETATM   10  C2  UNL     1       4.611   0.302   0.614  1.00  0.00    -0.007 C 
HETATM   11  C1  UNL     1       4.684   1.772   0.442  1.00  0.00     0.064 C 
HETATM   12  N1  UNL     1       5.625  -0.388   0.293  1.00  0.00    -0.405 N 
ATOM     13  H12 UNL     1       6.455   0.079  -0.072  1.00  0.00     0.155 HD
ATOM     14  H11 UNL     1       5.575  -1.400   0.411  1.00  0.00     0.155 HD
ENDBRANCH   9  10
ENDBRANCH   7   9
ENDBRANCH   1   7
BRANCH   2  15
HETATM   15  C6  UNL     1       0.061  -1.168   2.765  1.00  0.00     0.262 C 
HETATM   16  N3  UNL     1      -1.239  -1.182   3.320  1.00  0.00    -0.060 NA
HETATM   17  O1  UNL     1       0.843  -2.106   3.025  1.00  0.00    -0.274 OA
ENDBRANCH   2  15
BRANCH   6  18
HETATM   18  N6  UNL     1      -1.126  -1.080  -0.461  1.00  0.00    -0.352 N 
HETATM   19  C13 UNL     1      -1.493  -2.016  -1.469  1.00  0.00     0.221 C 
HETATM   20  O5  UNL     1      -0.732  -2.198  -2.462  1.00  0.00    -0.273 OA
ATOM     21  H6  UNL     1      -1.743  -0.941   0.339  1.00  0.00     0.163 HD
BRANCH  19  22
HETATM   22  C14 UNL     1      -2.754  -2.797  -1.396  1.00  0.00     0.070 C 
HETATM   23  C15 UNL     1      -2.726  -3.580  -0.097  1.00  0.00     0.019 C 
HETATM   24  C16 UNL     1      -3.894  -1.801  -1.389  1.00  0.00     0.019 C 
ENDBRANCH  19  22
ENDBRANCH   6  18
BRANCH   5  25
HETATM   25  N5  UNL     1      -1.330   1.342  -1.573  1.00  0.00    -0.352 N 
HETATM   26  C10 UNL     1      -1.201   2.032  -2.798  1.00  0.00     0.214 C 
HETATM   27  C11 UNL     1      -2.288   2.245  -3.757  1.00  0.00     0.117 C 
HETATM   28  O4  UNL     1      -0.061   2.520  -3.122  1.00  0.00    -0.274 OA
ATOM     29  H5  UNL     1      -2.247   0.965  -1.335  1.00  0.00     0.163 HD
ENDBRANCH   5  25
BRANCH   4  30
HETATM   30  C8  UNL     1       0.351   2.848   1.059  1.00  0.00     0.262 C 
HETATM   31  N4  UNL     1       0.967   2.908   2.308  1.00  0.00    -0.060 NA
HETATM   32  O3  UNL     1       0.507   3.751   0.223  1.00  0.00    -0.274 OA
ENDBRANCH   4  30
TORSDOF 8
