REMARK  8 active torsions:
REMARK  status: ('A' for Active; 'I' for Inactive)
REMARK    1  A    between atoms: C1_2  and  C2_4 
REMARK    2  A    between atoms: C4_6  and  C5_7 
REMARK    3  A    between atoms: C5_7  and  C6_8 
REMARK    4  A    between atoms: C6_8  and  C7_9 
REMARK    5  A    between atoms: C7_9  and  C8_10 
REMARK    6  A    between atoms: C8_10  and  O3_11 
REMARK       I    between atoms: N1_14  and  C10_15 
REMARK    7  A    between atoms: C10_15  and  C11_17 
REMARK    8  A    between atoms: C14_20  and  N2_21 
ROOT
HETATM    1  C2  UNL     1      -1.477  -0.350  -0.144  1.00  0.00     0.188 C 
HETATM    2  C3  UNL     1      -2.425   0.703  -0.718  1.00  0.00     0.042 C 
HETATM    3  C4  UNL     1      -3.499   0.818   0.336  1.00  0.00     0.006 C 
HETATM    4  C9  UNL     1      -3.025   0.007   1.510  1.00  0.00     0.131 C 
HETATM    5  N1  UNL     1      -1.601  -0.104   1.263  1.00  0.00    -0.337 N 
HETATM    6  C10 UNL     1      -0.594   0.025   2.220  1.00  0.00     0.224 C 
HETATM    7  O4  UNL     1      -0.984   0.240   3.425  1.00  0.00    -0.273 OA
ENDROOT
BRANCH   6   8
HETATM    8  C11 UNL     1       0.869  -0.053   2.016  1.00  0.00     0.078 C 
HETATM    9  C12 UNL     1       1.282  -1.386   1.591  1.00  0.00     0.016 C 
HETATM   10  C13 UNL     1       2.206  -1.437   0.378  1.00  0.00     0.026 C 
HETATM   11  C14 UNL     1       3.134  -0.265   0.517  1.00  0.00     0.089 C 
HETATM   12  C20 UNL     1       2.324   0.942   0.178  1.00  0.00     0.026 C 
HETATM   13  C21 UNL     1       1.278   1.128   1.213  1.00  0.00     0.016 C 
BRANCH  11  14
HETATM   14  N2  UNL     1       4.390  -0.368  -0.156  1.00  0.00    -0.330 N 
HETATM   15  C15 UNL     1       5.603  -0.362   0.684  1.00  0.00     0.128 C 
HETATM   16  C16 UNL     1       6.815   0.077  -0.065  1.00  0.00     0.022 C 
HETATM   17  C17 UNL     1       6.572   1.310  -0.908  1.00  0.00     0.021 C 
HETATM   18  C18 UNL     1       6.500   0.851  -2.344  1.00  0.00     0.124 C 
HETATM   19  N3  UNL     1       5.434  -0.100  -2.524  1.00  0.00    -0.343 N 
HETATM   20  C19 UNL     1       4.428  -0.472  -1.574  1.00  0.00     0.318 C 
ATOM     21  H3  UNL     1       5.390  -0.562  -3.432  1.00  0.00     0.164 HD
HETATM   22  O5  UNL     1       3.380  -0.983  -2.045  1.00  0.00    -0.247 OA
ENDBRANCH  11  14
ENDBRANCH   6   8
BRANCH   1  23
HETATM   23  C1  UNL     1      -1.897  -1.711  -0.566  1.00  0.00     0.196 C 
HETATM   24  O1  UNL     1      -1.874  -2.022  -1.782  1.00  0.00    -0.646 OA
HETATM   25  O2  UNL     1      -2.324  -2.682   0.323  1.00  0.00    -0.646 OA
ENDBRANCH   1  23
BRANCH   3  26
HETATM   26  C5  UNL     1      -4.840   0.324  -0.209  1.00  0.00     0.006 C 
BRANCH  26  27
HETATM   27  C6  UNL     1      -5.920   0.422   0.801  1.00  0.00     0.002 C 
BRANCH  27  28
HETATM   28  C7  UNL     1      -7.216  -0.115   0.304  1.00  0.00     0.026 C 
BRANCH  28  29
HETATM   29  C8  UNL     1      -7.794   0.548  -0.898  1.00  0.00     0.164 C 
BRANCH  29  30
HETATM   30  O3  UNL     1      -7.018   0.443  -2.017  1.00  0.00    -0.401 OA
ATOM     31  H3  UNL     1      -7.387   0.866  -2.784  1.00  0.00     0.209 HD
ENDBRANCH  29  30
ENDBRANCH  28  29
ENDBRANCH  27  28
ENDBRANCH  26  27
ENDBRANCH   3  26
TORSDOF 8
