REMARK  7 active torsions:
REMARK  status: ('A' for Active; 'I' for Inactive)
REMARK    1  A    between atoms: C6_6  and  N1_7 
REMARK       I    between atoms: N1_7  and  C7_9 
REMARK    2  A    between atoms: C7_9  and  C8_11 
REMARK    3  A    between atoms: C8_11  and  C9_12 
REMARK    4  A    between atoms: C11_14  and  C12_15 
REMARK       I    between atoms: C12_15  and  N2_17 
REMARK    5  A    between atoms: N2_17  and  C13_19 
REMARK    6  A    between atoms: C13_19  and  C14_20 
REMARK    7  A    between atoms: C13_19  and  C15_23 
ROOT
HETATM    1  C9  UNL     1      -1.419   0.026  -1.599  1.00  0.00     0.092 C 
HETATM    2  C10 UNL     1      -0.756   0.895  -0.565  1.00  0.00     0.077 C 
HETATM    3  C11 UNL     1       0.670   0.807  -1.000  1.00  0.00     0.081 C 
HETATM    4  N3  UNL     1       0.725   0.517  -2.239  1.00  0.00    -0.326 N 
ATOM      5  H3  UNL     1       1.592   0.402  -2.764  1.00  0.00     0.168 HD
HETATM    6  C21 UNL     1      -0.575   0.374  -2.798  1.00  0.00     0.227 C 
HETATM    7  O5  UNL     1      -0.952   0.500  -3.993  1.00  0.00    -0.273 OA
ENDROOT
BRANCH   3   8
HETATM    8  C12 UNL     1       1.812   1.025  -0.115  1.00  0.00     0.264 C 
HETATM    9  O2  UNL     1       1.645   1.309   1.107  1.00  0.00    -0.266 OA
HETATM   10  N2  UNL     1       3.153   0.931  -0.572  1.00  0.00    -0.341 N 
ATOM     11  H2  UNL     1       3.321   0.704  -1.552  1.00  0.00     0.163 HD
BRANCH  10  12
HETATM   12  C13 UNL     1       4.295   1.145   0.298  1.00  0.00     0.190 C 
BRANCH  12  13
HETATM   13  C14 UNL     1       5.185   2.170  -0.262  1.00  0.00     0.197 C 
HETATM   14  O3  UNL     1       4.865   2.692  -1.388  1.00  0.00    -0.646 OA
HETATM   15  O4  UNL     1       6.335   2.580   0.379  1.00  0.00    -0.646 OA
ENDBRANCH  12  13
BRANCH  12  16
HETATM   16  C15 UNL     1       4.986  -0.215   0.405  1.00  0.00     0.019 C 
HETATM   17  C16 UNL     1       5.429  -0.669  -0.959  1.00  0.00     0.007 C 
HETATM   18  C17 UNL     1       6.148  -1.996  -0.776  1.00  0.00     0.000 C 
HETATM   19  C18 UNL     1       7.392  -1.845   0.038  1.00  0.00     0.000 C 
HETATM   20  C19 UNL     1       7.401  -0.674   0.963  1.00  0.00     0.000 C 
HETATM   21  C20 UNL     1       6.032  -0.270   1.462  1.00  0.00     0.007 C 
ENDBRANCH  12  16
ENDBRANCH  10  12
ENDBRANCH   3   8
BRANCH   1  22
HETATM   22  C8  UNL     1      -2.856   0.276  -1.830  1.00  0.00     0.117 C 
BRANCH  22  23
HETATM   23  C7  UNL     1      -3.621   0.044  -0.576  1.00  0.00     0.218 C 
HETATM   24  N1  UNL     1      -5.034   0.280  -0.525  1.00  0.00    -0.356 N 
ATOM     25  H1  UNL     1      -5.540   0.611  -1.346  1.00  0.00     0.162 HD
HETATM   26  O1  UNL     1      -3.083  -0.364   0.483  1.00  0.00    -0.274 OA
BRANCH  24  27
HETATM   27  C6  UNL     1      -5.719   0.036   0.720  1.00  0.00     0.088 C 
HETATM   28  C2  UNL     1      -6.928  -0.851   0.549  1.00  0.00     0.004 C 
HETATM   29  C1  UNL     1      -6.575  -2.316   0.680  1.00  0.00     0.012 C 
HETATM   30  C3  UNL     1      -7.804  -0.456   1.710  1.00  0.00     0.006 C 
HETATM   31  C4  UNL     1      -7.594   1.023   1.897  1.00  0.00     0.002 C 
HETATM   32  C5  UNL     1      -6.343   1.369   1.141  1.00  0.00     0.025 C 
ENDBRANCH  24  27
ENDBRANCH  22  23
ENDBRANCH   1  22
TORSDOF 7
