REMARK  11 active torsions:
REMARK  status: ('A' for Active; 'I' for Inactive)
REMARK    1  A    between atoms: C2_2  and  C3_3 
REMARK    2  A    between atoms: C5_5  and  N1_6 
REMARK    3  A    between atoms: C5_5  and  C36_46 
REMARK       I    between atoms: N1_6  and  C6_8 
REMARK    4  A    between atoms: C6_8  and  C7_10 
REMARK    5  A    between atoms: C7_10  and  N2_11 
REMARK       I    between atoms: N2_11  and  C8_13 
REMARK    6  A    between atoms: C8_13  and  C9_15 
REMARK    7  A    between atoms: C21_27  and  O3_28 
REMARK    8  A    between atoms: C29_37  and  O4_38 
REMARK    9  A    between atoms: O4_38  and  C30_39 
REMARK   10  A    between atoms: C36_46  and  C37_48 
REMARK   11  A    between atoms: C37_48  and  O7_49 
ROOT
HETATM    1  C9  UNL     1      -0.541  -0.249   0.182  1.00  0.00     0.068 C 
HETATM    2  C10 UNL     1      -0.800  -0.690   1.608  1.00  0.00     0.022 C 
HETATM    3  C11 UNL     1      -2.177  -0.682   2.109  1.00  0.00     0.011 C 
HETATM    4  C12 UNL     1      -3.311  -0.562   1.158  1.00  0.00    -0.035 C 
HETATM    5  C13 UNL     1      -4.534  -1.085   1.961  1.00  0.00     0.016 C 
HETATM    6  C14 UNL     1      -3.145  -1.750   0.217  1.00  0.00     0.017 C 
HETATM    7  C15 UNL     1      -2.620  -1.232  -1.069  1.00  0.00     0.017 C 
HETATM    8  C16 UNL     1      -3.653  -0.369  -1.590  1.00  0.00     0.013 C 
HETATM    9  C17 UNL     1      -4.574   0.327  -0.570  1.00  0.00     0.006 C 
HETATM   10  C18 UNL     1      -5.472   1.358  -1.110  1.00  0.00    -0.017 C 
HETATM   11  C19 UNL     1      -5.745   1.052  -2.604  1.00  0.00     0.018 C 
HETATM   12  C20 UNL     1      -6.885   1.222  -0.510  1.00  0.00     0.018 C 
HETATM   13  C21 UNL     1      -5.052   2.776  -0.926  1.00  0.00     0.127 C 
HETATM   14  C22 UNL     1      -3.902   3.033   0.011  1.00  0.00     0.042 C 
HETATM   15  C23 UNL     1      -2.922   1.825   0.001  1.00  0.00    -0.033 C 
HETATM   16  C24 UNL     1      -2.387   2.122  -1.316  1.00  0.00     0.016 C 
HETATM   17  C25 UNL     1      -1.700   1.992   0.835  1.00  0.00     0.011 C 
HETATM   18  C26 UNL     1      -0.571   1.227   0.186  1.00  0.00     0.022 C 
HETATM   19  C27 UNL     1      -3.667   0.733   0.571  1.00  0.00    -0.025 C 
HETATM   20  C28 UNL     1      -4.354   1.395   1.774  1.00  0.00     0.017 C 
HETATM   21  C29 UNL     1      -1.187  -1.080  -0.832  1.00  0.00     0.153 C 
ENDROOT
BRANCH   1  22
HETATM   22  C8  UNL     1       0.953  -0.453   0.050  1.00  0.00     0.230 C 
HETATM   23  N2  UNL     1       1.905  -0.686   1.035  1.00  0.00    -0.342 N 
ATOM     24  H2  UNL     1       1.552  -0.734   1.991  1.00  0.00     0.163 HD
HETATM   25  O2  UNL     1       1.468  -0.414  -1.093  1.00  0.00    -0.273 OA
BRANCH  23  26
HETATM   26  C7  UNL     1       3.298  -0.865   0.884  1.00  0.00     0.114 C 
HETATM   27  C32 UNL     1       3.691  -2.096   0.106  1.00  0.00     0.041 C 
HETATM   28  C33 UNL     1       3.747  -3.246   1.095  1.00  0.00     0.003 C 
HETATM   29  C34 UNL     1       3.572  -2.657   2.463  1.00  0.00     0.003 C 
HETATM   30  C35 UNL     1       3.928  -1.228   2.250  1.00  0.00     0.041 C 
BRANCH  26  31
HETATM   31  C6  UNL     1       4.031   0.279   0.296  1.00  0.00     0.247 C 
HETATM   32  N1  UNL     1       5.420   0.243   0.089  1.00  0.00    -0.342 N 
ATOM     33  H1  UNL     1       5.902  -0.606   0.384  1.00  0.00     0.163 HD
HETATM   34  O1  UNL     1       3.399   1.303  -0.025  1.00  0.00    -0.271 OA
BRANCH  32  35
HETATM   35  C5  UNL     1       6.240   1.279  -0.496  1.00  0.00     0.103 A 
HETATM   36  C3  UNL     1       7.768   1.026  -0.334  1.00  0.00     0.046 A 
HETATM   37  C4  UNL     1       7.058   2.220   0.262  1.00  0.00     0.051 A 
BRANCH  36  38
HETATM   38  C2  UNL     1       8.188  -0.028   0.614  1.00  0.00    -0.029 C 
HETATM   39  C1  UNL     1       8.969   0.353   1.636  1.00  0.00     0.007 C 
ENDBRANCH  36  38
BRANCH  35  40
HETATM   40  C36 UNL     1       6.036   1.617  -1.966  1.00  0.00     0.178 C 
HETATM   41  O6  UNL     1       6.635   2.573  -2.445  1.00  0.00    -0.293 OA
BRANCH  40  42
HETATM   42  C37 UNL     1       5.155   0.838  -2.838  1.00  0.00     0.245 C 
BRANCH  42  43
HETATM   43  O7  UNL     1       5.264   1.323  -4.169  1.00  0.00    -0.393 OA
ATOM     44  H7  UNL     1       4.692   0.818  -4.735  1.00  0.00     0.209 HD
ENDBRANCH  42  43
ENDBRANCH  40  42
ENDBRANCH  35  40
ENDBRANCH  32  35
ENDBRANCH  26  31
ENDBRANCH  23  26
ENDBRANCH   1  22
BRANCH  21  45
HETATM   45  O4  UNL     1      -0.827  -2.437  -0.453  1.00  0.00    -0.315 OA
BRANCH  45  46
HETATM   46  C30 UNL     1      -0.206  -3.336  -1.275  1.00  0.00     0.255 C 
HETATM   47  C31 UNL     1       0.160  -4.712  -0.838  1.00  0.00     0.126 C 
HETATM   48  O5  UNL     1       0.073  -2.999  -2.446  1.00  0.00    -0.266 OA
ENDBRANCH  45  46
ENDBRANCH  21  45
BRANCH  13  49
HETATM   49  O3  UNL     1      -6.124   3.617  -0.497  1.00  0.00    -0.395 OA
ATOM     50  H3  UNL     1      -5.856   4.521  -0.380  1.00  0.00     0.210 HD
ENDBRANCH  13  49
TORSDOF 11
