REMARK  8 active torsions:
REMARK  status: ('A' for Active; 'I' for Inactive)
REMARK    1  A    between atoms: N1_1  and  C1_5 
REMARK    2  A    between atoms: C1_5  and  C2_6 
REMARK    3  A    between atoms: C2_6  and  C3_7 
REMARK    4  A    between atoms: C3_7  and  C4_8 
REMARK    5  A    between atoms: C4_8  and  N2_9 
REMARK    6  A    between atoms: C4_8  and  C28_42 
REMARK       I    between atoms: N2_9  and  C5_11 
REMARK    7  A    between atoms: C5_11  and  C6_13 
REMARK    8  A    between atoms: C6_13  and  C7_15 
REMARK       I    between atoms: C7_15  and  N3_17 
ROOT
HETATM    1  C6  UNL     1       2.405  -2.072  -0.449  1.00  0.00     0.306 C 
HETATM    2  O2  UNL     1       1.924  -2.450  -1.528  1.00  0.00    -0.276 OA
ENDROOT
BRANCH   1   3
HETATM    3  C5  UNL     1       3.648  -1.296  -0.475  1.00  0.00     0.297 C 
HETATM    4  N2  UNL     1       4.275  -0.955  -1.690  1.00  0.00    -0.347 N 
ATOM      5  H2  UNL     1       3.783  -1.272  -2.526  1.00  0.00     0.163 HD
HETATM    6  O1  UNL     1       4.138  -0.944   0.617  1.00  0.00    -0.264 OA
BRANCH   4   7
HETATM    7  C4  UNL     1       5.487  -0.238  -1.947  1.00  0.00     0.115 C 
BRANCH   7   8
HETATM    8  C3  UNL     1       5.141   1.162  -2.330  1.00  0.00     0.029 C 
BRANCH   8   9
HETATM    9  C2  UNL     1       4.370   1.865  -1.204  1.00  0.00     0.029 C 
BRANCH   9  10
HETATM   10  C1  UNL     1       4.050   3.292  -1.660  1.00  0.00     0.230 C 
BRANCH  10  11
HETATM   11  N1  UNL     1       3.333   4.008  -0.634  1.00  0.00    -0.079 N 
ATOM     12  H13 UNL     1       2.494   3.508  -0.341  1.00  0.00     0.274 HD
ATOM     13  H12 UNL     1       3.835   3.999   0.254  1.00  0.00     0.274 HD
ATOM     14  H11 UNL     1       3.120   4.958  -0.938  1.00  0.00     0.274 HD
ENDBRANCH  10  11
ENDBRANCH   9  10
ENDBRANCH   8   9
ENDBRANCH   7   8
BRANCH   7  15
HETATM   15  C28 UNL     1       6.432  -0.263  -0.787  1.00  0.00     0.177 C 
HETATM   16  N5  UNL     1       6.791  -1.625  -0.375  1.00  0.00    -0.347 N 
HETATM   17  C29 UNL     1       7.972  -1.861   0.387  1.00  0.00     0.223 C 
ATOM     18  H5  UNL     1       6.191  -2.408  -0.636  1.00  0.00     0.163 HD
HETATM   19  O5  UNL     1       7.991  -2.882   1.117  1.00  0.00    -0.273 OA
HETATM   20  C30 UNL     1       9.136  -0.977   0.350  1.00  0.00     0.089 C 
HETATM   21  C31 UNL     1       9.863  -0.814   1.655  1.00  0.00     0.015 C 
HETATM   22  C35 UNL     1       8.772   0.445  -0.108  1.00  0.00     0.070 C 
HETATM   23  C32 UNL     1      11.204  -0.141   1.322  1.00  0.00     0.001 C 
HETATM   24  C33 UNL     1      10.929   1.197   0.669  1.00  0.00     0.001 C 
HETATM   25  C34 UNL     1      10.078   1.042  -0.598  1.00  0.00     0.013 C 
HETATM   26  C36 UNL     1       7.775   0.314  -1.170  1.00  0.00     0.156 C 
HETATM   27  O6  UNL     1       7.985   0.637  -2.289  1.00  0.00    -0.295 OA
ENDBRANCH   7  15
ENDBRANCH   4   7
ENDBRANCH   1   3
BRANCH   1  28
HETATM   28  C7  UNL     1       1.768  -2.383   0.800  1.00  0.00     0.302 C 
HETATM   29  O3  UNL     1       2.259  -1.969   1.884  1.00  0.00    -0.263 OA
HETATM   30  N3  UNL     1       0.596  -3.153   0.793  1.00  0.00    -0.309 N 
HETATM   31  C8  UNL     1      -0.625  -2.645   0.786  1.00  0.00     0.086 C 
ATOM     32  H3  UNL     1       0.691  -4.169   0.793  1.00  0.00     0.170 HD
HETATM   33  C9  UNL     1      -0.696  -1.170   0.788  1.00  0.00     0.076 C 
HETATM   34  N4  UNL     1      -1.699  -3.547   0.773  1.00  0.00    -0.317 N 
HETATM   35  C10 UNL     1      -1.149  -0.565  -0.506  1.00  0.00     0.008 C 
HETATM   36  C11 UNL     1      -1.313   0.937  -0.246  1.00  0.00     0.004 C 
HETATM   37  C12 UNL     1      -2.754   1.326  -0.344  1.00  0.00     0.027 C 
HETATM   38  C13 UNL     1      -3.281   1.305  -1.718  1.00  0.00    -0.031 C 
HETATM   39  C14 UNL     1      -4.514   1.738  -1.947  1.00  0.00    -0.031 C 
HETATM   40  C15 UNL     1      -5.393   2.245  -0.879  1.00  0.00     0.027 C 
HETATM   41  C16 UNL     1      -6.840   2.110  -1.352  1.00  0.00     0.004 C 
HETATM   42  C17 UNL     1      -7.810   2.843  -0.495  1.00  0.00     0.000 C 
HETATM   43  C18 UNL     1      -8.549   2.015   0.511  1.00  0.00     0.000 C 
HETATM   44  C19 UNL     1      -9.393   0.947  -0.086  1.00  0.00     0.000 C 
HETATM   45  C20 UNL     1      -9.922  -0.074   0.855  1.00  0.00     0.000 C 
HETATM   46  C21 UNL     1      -8.943  -0.751   1.738  1.00  0.00     0.000 C 
HETATM   47  C22 UNL     1      -8.558  -2.157   1.262  1.00  0.00     0.000 C 
HETATM   48  C23 UNL     1      -7.066  -2.412   1.520  1.00  0.00     0.000 C 
HETATM   49  C24 UNL     1      -6.265  -1.365   0.768  1.00  0.00     0.000 C 
HETATM   50  C25 UNL     1      -5.060  -1.980   0.109  1.00  0.00     0.009 C 
HETATM   51  C26 UNL     1      -3.992  -2.390   1.106  1.00  0.00     0.103 C 
HETATM   52  C27 UNL     1      -3.053  -3.333   0.452  1.00  0.00     0.223 C 
HETATM   53  O4  UNL     1      -3.550  -4.025  -0.511  1.00  0.00    -0.273 OA
ATOM     54  H4  UNL     1      -1.463  -4.504   1.036  1.00  0.00     0.170 HD
ENDBRANCH   1  28
TORSDOF 8
