REMARK  10 active torsions:
REMARK  status: ('A' for Active; 'I' for Inactive)
REMARK    1  A    between atoms: O1_2  and  C2_3 
REMARK    2  A    between atoms: C2_3  and  C3_5 
REMARK    3  A    between atoms: C3_5  and  N1_6 
REMARK    4  A    between atoms: C3_5  and  C32_41 
REMARK    5  A    between atoms: N1_6  and  C4_8 
REMARK    6  A    between atoms: C4_8  and  O3_9 
REMARK    7  A    between atoms: C4_8  and  C5_11 
REMARK    8  A    between atoms: C17_24  and  C19_26 
REMARK       I    between atoms: C32_41  and  N2_43 
REMARK    9  A    between atoms: N2_43  and  C33_45 
REMARK   10  A    between atoms: C33_45  and  C35_47 
ROOT
HETATM    1  C5  UNL     1       0.756  -0.362  -0.698  1.00  0.00     0.037 C 
HETATM    2  C6  UNL     1       1.240  -1.709  -1.179  1.00  0.00     0.023 C 
HETATM    3  C7  UNL     1       1.518  -2.667  -0.078  1.00  0.00     0.035 C 
HETATM    4  C8  UNL     1       0.830  -2.487   1.198  1.00  0.00    -0.081 C 
HETATM    5  C9  UNL     1      -0.009  -3.706   1.535  1.00  0.00     0.043 C 
HETATM    6  C10 UNL     1       0.167  -1.170   1.509  1.00  0.00    -0.071 C 
HETATM    7  C11 UNL     1       0.775  -0.562   2.688  1.00  0.00     0.044 C 
HETATM    8  C12 UNL     1      -0.345  -0.418   0.324  1.00  0.00     0.010 C 
HETATM    9  C13 UNL     1      -1.627  -1.091  -0.125  1.00  0.00     0.003 C 
HETATM   10  C14 UNL     1      -1.812  -2.002  -1.214  1.00  0.00     0.011 C 
HETATM   11  C15 UNL     1      -2.816  -0.180   0.109  1.00  0.00     0.029 C 
HETATM   12  C16 UNL     1      -3.796  -0.003  -1.027  1.00  0.00     0.136 C 
HETATM   13  O4  UNL     1      -4.669  -1.080  -1.136  1.00  0.00    -0.363 OA
HETATM   14  C17 UNL     1      -5.691  -1.023  -1.998  1.00  0.00     0.145 C 
HETATM   15  C18 UNL     1      -6.463  -2.361  -1.772  1.00  0.00     0.058 C 
HETATM   16  C20 UNL     1      -6.754   0.037  -1.664  1.00  0.00     0.050 C 
HETATM   17  C21 UNL     1      -6.147   0.866  -0.598  1.00  0.00     0.015 C 
HETATM   18  C22 UNL     1      -4.670   1.212  -0.863  1.00  0.00    -0.017 C 
HETATM   19  C23 UNL     1      -4.682   2.091  -2.116  1.00  0.00     0.018 C 
HETATM   20  C24 UNL     1      -4.367   2.111   0.285  1.00  0.00     0.012 C 
HETATM   21  C25 UNL     1      -2.883   2.338   0.275  1.00  0.00     0.011 C 
HETATM   22  C26 UNL     1      -2.285   1.051   0.720  1.00  0.00    -0.029 C 
HETATM   23  C27 UNL     1      -2.606   1.050   2.210  1.00  0.00     0.016 C 
HETATM   24  C28 UNL     1      -0.782   0.960   0.413  1.00  0.00    -0.023 C 
HETATM   25  C29 UNL     1      -0.231   1.988   1.284  1.00  0.00     0.017 C 
HETATM   26  C30 UNL     1      -0.695   1.411  -1.039  1.00  0.00     0.012 C 
HETATM   27  C31 UNL     1       0.071   0.402  -1.840  1.00  0.00     0.020 C 
ENDROOT
BRANCH   1  28
HETATM   28  C4  UNL     1       1.973   0.422  -0.495  1.00  0.00     0.122 C 
BRANCH  28  29
HETATM   29  N1  UNL     1       3.122   0.191   0.269  1.00  0.00    -0.352 N 
ATOM     30  H1  UNL     1       3.118  -0.665   0.824  1.00  0.00     0.162 HD
BRANCH  29  31
HETATM   31  C3  UNL     1       4.325   1.009   0.379  1.00  0.00     0.276 C 
BRANCH  31  32
HETATM   32  C2  UNL     1       4.404   1.887   1.546  1.00  0.00     0.290 C 
HETATM   33  O2  UNL     1       3.595   1.954   2.495  1.00  0.00    -0.262 OA
BRANCH  32  34
HETATM   34  O1  UNL     1       5.489   2.745   1.611  1.00  0.00    -0.324 OA
HETATM   35  C1  UNL     1       5.773   3.667   2.605  1.00  0.00     0.213 C 
ENDBRANCH  32  34
ENDBRANCH  31  32
BRANCH  31  36
HETATM   36  C32 UNL     1       5.522   0.168   0.302  1.00  0.00     0.251 C 
HETATM   37  O7  UNL     1       5.296  -1.098   0.131  1.00  0.00    -0.271 OA
HETATM   38  N2  UNL     1       6.877   0.507   0.385  1.00  0.00    -0.345 N 
ATOM     39  H2  UNL     1       7.139   1.483   0.523  1.00  0.00     0.163 HD
BRANCH  38  40
HETATM   40  C33 UNL     1       7.924  -0.503   0.279  1.00  0.00     0.181 C 
HETATM   41  C34 UNL     1       8.424  -0.959   1.640  1.00  0.00     0.043 C 
BRANCH  40  42
HETATM   42  C35 UNL     1       9.020  -0.159  -0.630  1.00  0.00     0.196 C 
HETATM   43  O8  UNL     1       9.032   0.924  -1.228  1.00  0.00    -0.646 OA
HETATM   44  O9  UNL     1      10.035  -1.066  -0.806  1.00  0.00    -0.646 OA
ENDBRANCH  40  42
ENDBRANCH  38  40
ENDBRANCH  31  36
ENDBRANCH  29  31
ENDBRANCH  28  29
BRANCH  28  45
HETATM   45  O3  UNL     1       2.151   1.574  -1.090  1.00  0.00    -0.349 OA
ATOM     46  H3  UNL     1       1.371   1.731  -1.609  1.00  0.00     0.219 HD
ENDBRANCH  28  45
ENDBRANCH   1  28
BRANCH  14  47
HETATM   47  C19 UNL     1      -5.437  -1.014  -3.437  1.00  0.00     0.208 C 
HETATM   48  O5  UNL     1      -6.421  -0.914  -4.213  1.00  0.00    -0.646 OA
HETATM   49  O6  UNL     1      -4.182  -1.109  -3.952  1.00  0.00    -0.646 OA
ENDBRANCH  14  47
TORSDOF 10
