REMARK  15 active torsions:
REMARK  status: ('A' for Active; 'I' for Inactive)
REMARK    1  A    between atoms: C2_2  and  C21_47 
REMARK    2  A    between atoms: N1_3  and  N2_5 
REMARK    3  A    between atoms: N2_5  and  C3_6 
REMARK    4  A    between atoms: C3_6  and  C4_7 
REMARK    5  A    between atoms: C7_11  and  O2_12 
REMARK    6  A    between atoms: C8_14  and  O3_15 
REMARK    7  A    between atoms: O3_15  and  C9_16 
REMARK    8  A    between atoms: C10_17  and  N3_18 
REMARK    9  A    between atoms: C12_23  and  N4_24 
REMARK   10  A    between atoms: C13_28  and  O4_29 
REMARK   11  A    between atoms: O4_29  and  C14_30 
REMARK   12  A    between atoms: C15_32  and  C16_33 
REMARK   13  A    between atoms: C18_37  and  O8_38 
REMARK   14  A    between atoms: C19_40  and  O9_41 
REMARK   15  A    between atoms: C20_43  and  O10_44 
REMARK       I    between atoms: C21_47  and  N5_49 
REMARK       I    between atoms: N6_52  and  C24_53 
ROOT
HETATM    1  C9  UNL     1      -1.995  -1.422   0.620  1.00  0.00     0.186 C 
HETATM    2  C10 UNL     1      -2.571  -1.853   1.942  1.00  0.00     0.217 C 
HETATM    3  C11 UNL     1      -3.753  -2.767   1.693  1.00  0.00     0.071 C 
HETATM    4  C12 UNL     1      -4.496  -2.220   0.502  1.00  0.00     0.217 C 
HETATM    5  C13 UNL     1      -4.394  -0.710   0.486  1.00  0.00     0.186 C 
HETATM    6  C20 UNL     1      -2.961  -0.338   0.099  1.00  0.00     0.180 C 
ENDROOT
BRANCH   1   7
HETATM    7  O3  UNL     1      -0.725  -0.906   0.670  1.00  0.00    -0.348 OA
BRANCH   7   8
HETATM    8  C8  UNL     1       0.185  -1.517  -0.173  1.00  0.00     0.297 C 
HETATM    9  C7  UNL     1       1.317  -2.131   0.602  1.00  0.00     0.242 C 
HETATM   10  C6  UNL     1       2.018  -1.007   1.281  1.00  0.00     0.163 C 
HETATM   11  C5  UNL     1       1.811   0.350   0.710  1.00  0.00     0.120 C 
HETATM   12  O1  UNL     1       2.735  -1.118   2.251  1.00  0.00    -0.295 OA
HETATM   13  C4  UNL     1       1.588   0.247  -0.771  1.00  0.00     0.185 C 
HETATM   14  O11 UNL     1       0.639  -0.652  -1.168  1.00  0.00    -0.346 OA
BRANCH   9  15
HETATM   15  O2  UNL     1       2.232  -2.728  -0.270  1.00  0.00    -0.383 OA
ATOM     16  H2  UNL     1       1.785  -3.445  -0.703  1.00  0.00     0.210 HD
ENDBRANCH   9  15
BRANCH  13  17
HETATM   17  C3  UNL     1       2.911   0.038  -1.471  1.00  0.00     0.214 C 
BRANCH  17  18
HETATM   18  N2  UNL     1       3.978   0.430  -1.095  1.00  0.00    -0.340 NA
BRANCH  18  19
HETATM   19  N1  UNL     1       5.045   0.905  -0.582  1.00  0.00    -0.236 N 
HETATM   20  C2  UNL     1       6.273   0.413  -0.568  1.00  0.00     0.104 C 
HETATM   21  C1  UNL     1       6.437  -0.880  -1.249  1.00  0.00     0.077 C 
ATOM     22  H1  UNL     1       4.934   1.802  -0.110  1.00  0.00     0.201 HD
BRANCH  20  23
HETATM   23  C21 UNL     1       7.332   1.120   0.072  1.00  0.00     0.293 C 
HETATM   24  O12 UNL     1       7.039   2.252   0.634  1.00  0.00    -0.264 OA
HETATM   25  N5  UNL     1       8.667   0.717   0.157  1.00  0.00    -0.194 N 
HETATM   26  C22 UNL     1       9.283  -0.466  -0.367  1.00  0.00     0.184 C 
HETATM   27  O14 UNL     1       9.666   1.453   0.814  1.00  0.00    -0.145 OA
HETATM   28  C23 UNL     1      10.784  -0.117  -0.276  1.00  0.00     0.185 C 
HETATM   29  N6  UNL     1      10.726   1.286   0.017  1.00  0.00    -0.183 N 
HETATM   30  C24 UNL     1      11.603   2.281  -0.441  1.00  0.00     0.356 C 
HETATM   31  N7  UNL     1      11.495   3.652  -0.119  1.00  0.00    -0.038 NA
HETATM   32  O13 UNL     1      12.579   1.965  -1.203  1.00  0.00    -0.248 OA
ENDBRANCH  20  23
ENDBRANCH  18  19
ENDBRANCH  17  18
ENDBRANCH  13  17
ENDBRANCH   7   8
ENDBRANCH   1   7
BRANCH   2  33
HETATM   33  N3  UNL     1      -1.620  -2.430   2.837  1.00  0.00    -0.072 N 
ATOM     34  H33 UNL     1      -1.135  -3.208   2.389  1.00  0.00     0.274 HD
ATOM     35  H32 UNL     1      -0.835  -1.795   2.980  1.00  0.00     0.274 HD
ATOM     36  H31 UNL     1      -2.010  -2.722   3.733  1.00  0.00     0.274 HD
ENDBRANCH   2  33
BRANCH   6  37
HETATM   37  O10 UNL     1      -2.818  -0.137  -1.253  1.00  0.00    -0.390 OA
ATOM     38  H10 UNL     1      -3.413   0.531  -1.574  1.00  0.00     0.210 HD
ENDBRANCH   6  37
BRANCH   5  39
HETATM   39  O4  UNL     1      -5.210  -0.146  -0.477  1.00  0.00    -0.348 OA
BRANCH  39  40
HETATM   40  C14 UNL     1      -6.099   0.792   0.049  1.00  0.00     0.292 C 
HETATM   41  O5  UNL     1      -7.384   0.368  -0.267  1.00  0.00    -0.343 OA
HETATM   42  C15 UNL     1      -8.357   1.278   0.055  1.00  0.00     0.228 C 
HETATM   43  C17 UNL     1      -8.133   2.631  -0.591  1.00  0.00     0.077 C 
HETATM   44  C18 UNL     1      -6.918   2.485  -1.490  1.00  0.00     0.154 C 
HETATM   45  C19 UNL     1      -5.752   2.123  -0.576  1.00  0.00     0.202 C 
BRANCH  42  46
HETATM   46  C16 UNL     1      -9.661   0.786  -0.416  1.00  0.00     0.203 C 
HETATM   47  O6  UNL     1     -10.688   1.465  -0.225  1.00  0.00    -0.646 OA
HETATM   48  O7  UNL     1      -9.754  -0.420  -1.066  1.00  0.00    -0.646 OA
ENDBRANCH  42  46
BRANCH  44  49
HETATM   49  O8  UNL     1      -6.664   3.639  -2.224  1.00  0.00    -0.393 OA
ATOM     50  H8  UNL     1      -5.904   3.548  -2.786  1.00  0.00     0.210 HD
ENDBRANCH  44  49
BRANCH  45  51
HETATM   51  O9  UNL     1      -5.624   3.141   0.359  1.00  0.00    -0.388 OA
ATOM     52  H9  UNL     1      -5.406   3.978  -0.034  1.00  0.00     0.210 HD
ENDBRANCH  45  51
ENDBRANCH  39  40
ENDBRANCH   5  39
BRANCH   4  53
HETATM   53  N4  UNL     1      -5.848  -2.690   0.560  1.00  0.00    -0.072 N 
ATOM     54  H43 UNL     1      -5.908  -3.706   0.627  1.00  0.00     0.274 HD
ATOM     55  H42 UNL     1      -6.304  -2.465   1.444  1.00  0.00     0.274 HD
ATOM     56  H41 UNL     1      -6.351  -2.320  -0.246  1.00  0.00     0.274 HD
ENDBRANCH   4  53
TORSDOF 15
