REMARK  17 active torsions:
REMARK  status: ('A' for Active; 'I' for Inactive)
REMARK       I    between atoms: C2_2  and  N1_4 
REMARK    1  A    between atoms: N1_4  and  C3_6 
REMARK    2  A    between atoms: C4_7  and  O2_8 
REMARK    3  A    between atoms: O2_8  and  C5_9 
REMARK    4  A    between atoms: C7_13  and  O4_14 
REMARK    5  A    between atoms: O4_14  and  C8_15 
REMARK    6  A    between atoms: C11_19  and  O6_20 
REMARK    7  A    between atoms: O6_20  and  C12_21 
REMARK    8  A    between atoms: C14_23  and  O7_24 
REMARK    9  A    between atoms: O7_24  and  N2_25 
REMARK   10  A    between atoms: C16_29  and  N3_30 
REMARK   11  A    between atoms: C19_33  and  O8_34 
REMARK   12  A    between atoms: C20_36  and  N4_37 
REMARK   13  A    between atoms: C21_41  and  O9_42 
REMARK   14  A    between atoms: C22_45  and  C23_46 
REMARK   15  A    between atoms: C23_46  and  O11_47 
REMARK   16  A    between atoms: C24_49  and  O12_50 
REMARK   17  A    between atoms: C25_52  and  O13_53 
ROOT
HETATM    1  C5  UNL     1      -2.972   1.201  -0.607  1.00  0.00     0.167 C 
HETATM    2  C6  UNL     1      -1.765   0.875  -1.547  1.00  0.00     0.146 C 
HETATM    3  S1  UNL     1      -0.335   0.452  -0.638  1.00  0.00     0.049 S 
HETATM    4  O3  UNL     1       0.107  -1.157  -0.834  1.00  0.00    -0.255 OA
HETATM    5  C7  UNL     1      -0.061   1.030   0.993  1.00  0.00     0.248 C 
HETATM    6  C20 UNL     1      -1.406   1.392   1.707  1.00  0.00     0.255 C 
HETATM    7  C21 UNL     1      -2.442   1.410   0.707  1.00  0.00     0.181 C 
ENDROOT
BRANCH   5   8
HETATM    8  O4  UNL     1       0.510  -0.004   1.707  1.00  0.00    -0.361 OA
BRANCH   8   9
HETATM    9  C8  UNL     1       1.702   0.288   2.330  1.00  0.00     0.178 C 
HETATM   10  C9  UNL     1       1.462  -0.092   3.807  1.00  0.00     0.202 C 
HETATM   11  O5  UNL     1       1.348  -1.474   3.788  1.00  0.00    -0.386 OA
HETATM   12  C10 UNL     1       1.962  -1.968   2.651  1.00  0.00     0.202 C 
HETATM   13  C11 UNL     1       2.743  -0.799   2.060  1.00  0.00     0.176 C 
BRANCH  13  14
HETATM   14  O6  UNL     1       3.102  -0.937   0.764  1.00  0.00    -0.373 OA
BRANCH  14  15
HETATM   15  C12 UNL     1       4.485  -0.841   0.660  1.00  0.00     0.155 C 
HETATM   16  C13 UNL     1       5.026  -2.158   0.183  1.00  0.00     0.069 C 
HETATM   17  C14 UNL     1       6.027  -2.114  -0.909  1.00  0.00     0.156 C 
HETATM   18  C15 UNL     1       6.983  -0.975  -0.922  1.00  0.00     0.073 C 
HETATM   19  C16 UNL     1       6.466   0.206  -0.193  1.00  0.00     0.255 C 
HETATM   20  C19 UNL     1       4.969   0.240  -0.255  1.00  0.00     0.180 C 
BRANCH  17  21
HETATM   21  O7  UNL     1       5.314  -2.099  -2.137  1.00  0.00    -0.282 OA
BRANCH  21  22
HETATM   22  N2  UNL     1       5.561  -3.214  -2.846  1.00  0.00    -0.311 N 
ATOM     23  H22 UNL     1       6.180  -3.961  -2.531  1.00  0.00     0.184 HD
ATOM     24  H21 UNL     1       5.049  -3.203  -3.728  1.00  0.00     0.184 HD
ENDBRANCH  21  22
ENDBRANCH  17  21
BRANCH  19  25
HETATM   25  N3  UNL     1       7.087   1.452  -0.549  1.00  0.00     0.087 N 
HETATM   26  C17 UNL     1       8.485   1.453  -0.241  1.00  0.00     0.310 C 
HETATM   27  C18 UNL     1       6.739   1.972  -1.828  1.00  0.00     0.310 C 
ENDBRANCH  19  25
BRANCH  20  28
HETATM   28  O8  UNL     1       4.459   1.496   0.089  1.00  0.00    -0.391 OA
ATOM     29  H8  UNL     1       4.766   2.182  -0.492  1.00  0.00     0.210 HD
ENDBRANCH  20  28
ENDBRANCH  14  15
ENDBRANCH  13  14
ENDBRANCH   8   9
ENDBRANCH   5   8
BRANCH   6  30
HETATM   30  N4  UNL     1      -1.233   2.642   2.460  1.00  0.00    -0.069 N 
ATOM     31  H43 UNL     1      -0.449   2.596   3.111  1.00  0.00     0.275 HD
ATOM     32  H42 UNL     1      -0.889   3.403   1.874  1.00  0.00     0.275 HD
ATOM     33  H41 UNL     1      -2.109   2.878   2.925  1.00  0.00     0.275 HD
ENDBRANCH   6  30
BRANCH   7  34
HETATM   34  O9  UNL     1      -1.699   2.505   0.156  1.00  0.00    -0.391 OA
ATOM     35  H9  UNL     1      -1.347   2.644   1.028  1.00  0.00     0.210 HD
ENDBRANCH   7  34
BRANCH   1  36
HETATM   36  O2  UNL     1      -3.905   0.146  -0.781  1.00  0.00    -0.350 OA
BRANCH  36  37
HETATM   37  C4  UNL     1      -5.089   0.495  -1.328  1.00  0.00     0.286 C 
HETATM   38  C3  UNL     1      -6.289   0.345  -0.388  1.00  0.00     0.170 C 
HETATM   39  C25 UNL     1      -6.506  -1.097  -0.052  1.00  0.00     0.177 C 
HETATM   40  C24 UNL     1      -6.715  -1.827  -1.359  1.00  0.00     0.180 C 
HETATM   41  C22 UNL     1      -5.740  -1.457  -2.430  1.00  0.00     0.179 C 
HETATM   42  O10 UNL     1      -5.395  -0.138  -2.505  1.00  0.00    -0.349 OA
BRANCH  38  43
HETATM   43  N1  UNL     1      -6.233   1.229   0.731  1.00  0.00    -0.349 N 
HETATM   44  C2  UNL     1      -7.149   2.276   0.914  1.00  0.00     0.214 C 
HETATM   45  C1  UNL     1      -7.100   3.199   2.071  1.00  0.00     0.117 C 
HETATM   46  O1  UNL     1      -8.065   2.440   0.044  1.00  0.00    -0.274 OA
ATOM     47  H1  UNL     1      -5.498   1.094   1.425  1.00  0.00     0.163 HD
ENDBRANCH  38  43
BRANCH  39  48
HETATM   48  O13 UNL     1      -5.516  -1.644   0.727  1.00  0.00    -0.391 OA
ATOM     49  H13 UNL     1      -5.654  -2.559   0.940  1.00  0.00     0.210 HD
ENDBRANCH  39  48
BRANCH  40  50
HETATM   50  O12 UNL     1      -8.013  -1.628  -1.829  1.00  0.00    -0.390 OA
ATOM     51  H12 UNL     1      -8.633  -1.863  -1.148  1.00  0.00     0.210 HD
ENDBRANCH  40  50
BRANCH  41  52
HETATM   52  C23 UNL     1      -4.523  -2.382  -2.433  1.00  0.00     0.198 C 
BRANCH  52  53
HETATM   53  O11 UNL     1      -4.935  -3.722  -2.356  1.00  0.00    -0.398 OA
ATOM     54  H11 UNL     1      -4.179  -4.297  -2.358  1.00  0.00     0.209 HD
ENDBRANCH  52  53
ENDBRANCH  41  52
ENDBRANCH  36  37
ENDBRANCH   1  36
TORSDOF 17
