REMARK  18 active torsions:
REMARK  status: ('A' for Active; 'I' for Inactive)
REMARK    1  A    between atoms: C2_2  and  O1_3 
REMARK    2  A    between atoms: C2_2  and  C3_5 
REMARK    3  A    between atoms: C4_7  and  O3_8 
REMARK    4  A    between atoms: O3_8  and  C5_9 
REMARK    5  A    between atoms: C6_10  and  N1_11 
REMARK    6  A    between atoms: C7_15  and  C8_16 
REMARK    7  A    between atoms: C8_16  and  N2_17 
REMARK    8  A    between atoms: C11_21  and  N3_22 
REMARK    9  A    between atoms: N3_22  and  C13_24 
REMARK   10  A    between atoms: C18_30  and  O5_31 
REMARK   11  A    between atoms: O5_31  and  C19_32 
REMARK   12  A    between atoms: C20_33  and  N5_34 
REMARK   13  A    between atoms: C22_40  and  O7_41 
REMARK   14  A    between atoms: C23_43  and  O8_44 
REMARK   15  A    between atoms: C24_46  and  O9_47 
REMARK   16  A    between atoms: C25_49  and  O10_50 
REMARK   17  A    between atoms: C26_52  and  O11_53 
REMARK   18  A    between atoms: C27_55  and  O12_56 
ROOT
HETATM    1  C5  UNL     1       1.029  -0.360  -0.234  1.00  0.00     0.191 C 
HETATM    2  C6  UNL     1       1.285  -0.842   1.264  1.00  0.00     0.245 C 
HETATM    3  C7  UNL     1       0.448  -2.011   1.606  1.00  0.00     0.174 C 
HETATM    4  O4  UNL     1      -0.915  -1.820   1.367  1.00  0.00    -0.355 OA
HETATM    5  C11 UNL     1      -1.011  -1.581  -0.011  1.00  0.00     0.251 C 
HETATM    6  C18 UNL     1      -0.459  -0.217  -0.233  1.00  0.00     0.201 C 
ENDROOT
BRANCH   6   7
HETATM    7  O5  UNL     1      -1.082   0.400  -1.291  1.00  0.00    -0.368 OA
BRANCH   7   8
HETATM    8  C19 UNL     1      -1.561   1.641  -1.004  1.00  0.00     0.191 C 
HETATM    9  C20 UNL     1      -1.403   2.649  -2.080  1.00  0.00     0.286 C 
HETATM   10  C21 UNL     1      -1.337   3.958  -1.367  1.00  0.00     0.190 C 
HETATM   11  O6  UNL     1      -0.766   4.902  -1.810  1.00  0.00    -0.293 OA
HETATM   12  C22 UNL     1      -2.037   3.996  -0.073  1.00  0.00     0.221 C 
HETATM   13  C23 UNL     1      -3.244   3.113  -0.063  1.00  0.00     0.185 C 
HETATM   14  C24 UNL     1      -3.032   1.715  -0.597  1.00  0.00     0.181 C 
BRANCH   9  15
HETATM   15  N5  UNL     1      -0.365   2.433  -3.031  1.00  0.00    -0.066 N 
ATOM     16  H53 UNL     1       0.523   2.318  -2.542  1.00  0.00     0.275 HD
ATOM     17  H52 UNL     1      -0.475   1.508  -3.447  1.00  0.00     0.275 HD
ATOM     18  H51 UNL     1      -0.256   3.126  -3.771  1.00  0.00     0.275 HD
ENDBRANCH   9  15
BRANCH  12  19
HETATM   19  O7  UNL     1      -2.479   5.306   0.121  1.00  0.00    -0.385 OA
ATOM     20  H7  UNL     1      -2.931   5.331   0.956  1.00  0.00     0.210 HD
ENDBRANCH  12  19
BRANCH  13  21
HETATM   21  O8  UNL     1      -3.722   3.058   1.271  1.00  0.00    -0.390 OA
ATOM     22  H8  UNL     1      -4.489   2.497   1.277  1.00  0.00     0.210 HD
ENDBRANCH  13  21
BRANCH  14  23
HETATM   23  O9  UNL     1      -3.808   1.593  -1.746  1.00  0.00    -0.390 OA
ATOM     24  H9  UNL     1      -4.723   1.639  -1.493  1.00  0.00     0.210 HD
ENDBRANCH  14  23
ENDBRANCH   7   8
ENDBRANCH   6   7
BRANCH   1  25
HETATM   25  O3  UNL     1       1.763   0.797  -0.330  1.00  0.00    -0.348 OA
BRANCH  25  26
HETATM   26  C4  UNL     1       2.990   0.660  -1.009  1.00  0.00     0.292 C 
HETATM   27  O2  UNL     1       3.967   0.918  -0.105  1.00  0.00    -0.348 OA
HETATM   28  C3  UNL     1       5.019   1.699  -0.367  1.00  0.00     0.184 C 
HETATM   29  C27 UNL     1       5.576   1.661  -1.767  1.00  0.00     0.181 C 
HETATM   30  C26 UNL     1       4.526   1.311  -2.784  1.00  0.00     0.183 C 
HETATM   31  C25 UNL     1       3.123   1.542  -2.210  1.00  0.00     0.204 C 
BRANCH  28  32
HETATM   32  C2  UNL     1       6.160   1.506   0.660  1.00  0.00     0.145 C 
HETATM   33  C1  UNL     1       5.635   1.977   1.982  1.00  0.00     0.042 C 
BRANCH  32  34
HETATM   34  O1  UNL     1       6.617   0.199   0.672  1.00  0.00    -0.393 OA
ATOM     35  H1  UNL     1       6.950  -0.100  -0.166  1.00  0.00     0.210 HD
ENDBRANCH  32  34
ENDBRANCH  28  32
BRANCH  29  36
HETATM   36  O12 UNL     1       6.579   0.696  -1.817  1.00  0.00    -0.390 OA
ATOM     37  H12 UNL     1       6.930   0.672  -2.699  1.00  0.00     0.210 HD
ENDBRANCH  29  36
BRANCH  30  38
HETATM   38  O11 UNL     1       4.672   0.035  -3.316  1.00  0.00    -0.390 OA
ATOM     39  H11 UNL     1       5.541  -0.108  -3.672  1.00  0.00     0.210 HD
ENDBRANCH  30  38
BRANCH  31  40
HETATM   40  O10 UNL     1       3.043   2.894  -1.893  1.00  0.00    -0.388 OA
ATOM     41  H10 UNL     1       3.127   3.454  -2.656  1.00  0.00     0.210 HD
ENDBRANCH  31  40
ENDBRANCH  25  26
ENDBRANCH   1  25
BRANCH   5  42
HETATM   42  N3  UNL     1      -2.231  -1.847  -0.621  1.00  0.00    -0.384 N 
HETATM   43  C12 UNL     1      -2.325  -1.846  -2.030  1.00  0.00     0.146 C 
BRANCH  42  44
HETATM   44  C13 UNL     1      -3.180  -2.625   0.079  1.00  0.00     0.111 C 
HETATM   45  C14 UNL     1      -4.522  -1.923   0.070  1.00  0.00     0.057 C 
HETATM   46  C15 UNL     1      -5.380  -2.856  -0.784  1.00  0.00     0.274 C 
HETATM   47  N4  UNL     1      -4.849  -4.174  -0.618  1.00  0.00     0.086 N 
HETATM   48  C16 UNL     1      -5.004  -5.001  -1.784  1.00  0.00     0.310 C 
HETATM   49  C17 UNL     1      -3.414  -4.018  -0.388  1.00  0.00     0.296 C 
ENDBRANCH  42  44
ENDBRANCH   5  42
BRANCH   2  50
HETATM   50  N1  UNL     1       2.657  -1.173   1.452  1.00  0.00    -0.070 N 
ATOM     51  H13 UNL     1       2.978  -1.862   0.771  1.00  0.00     0.274 HD
ATOM     52  H12 UNL     1       3.273  -0.403   1.190  1.00  0.00     0.274 HD
ATOM     53  H11 UNL     1       2.821  -1.481   2.410  1.00  0.00     0.274 HD
ENDBRANCH   2  50
BRANCH   3  54
HETATM   54  C8  UNL     1       0.649  -2.344   3.051  1.00  0.00     0.150 C 
BRANCH  54  55
HETATM   55  N2  UNL     1       0.192  -1.280   3.881  1.00  0.00    -0.418 N 
HETATM   56  C9  UNL     1      -1.192  -1.032   3.964  1.00  0.00     0.142 C 
HETATM   57  C10 UNL     1       0.954  -1.058   5.071  1.00  0.00     0.142 C 
ENDBRANCH  54  55
ENDBRANCH   3  54
TORSDOF 18
