REMARK  4 active torsions:
REMARK  status: ('A' for Active; 'I' for Inactive)
REMARK    1  A    between atoms: C2_2  and  C4_4 
REMARK    2  A    between atoms: C4_4  and  O1_5 
REMARK    3  A    between atoms: O1_5  and  C5_6 
REMARK    4  A    between atoms: C5_6  and  C6_8 
ROOT
HETATM    1  C4  UNL     1      -0.143  -0.964  -0.674  1.00  0.00     0.067 C 
HETATM    2  C11 UNL     1      -1.355  -0.450  -0.499  1.00  0.00    -0.017 C 
HETATM    3  C12 UNL     1      -1.447   0.987  -0.328  1.00  0.00     0.014 C 
HETATM    4  C13 UNL     1      -2.504   1.688   0.007  1.00  0.00    -0.060 C 
HETATM    5  C14 UNL     1      -2.854   3.121   0.241  1.00  0.00     0.043 C 
HETATM    6  C15 UNL     1      -4.154   3.204  -0.538  1.00  0.00     0.084 C 
HETATM    7  C16 UNL     1      -4.815   1.924  -0.195  1.00  0.00     0.142 C 
HETATM    8  O3  UNL     1      -6.000   1.707  -0.259  1.00  0.00    -0.297 OA
HETATM    9  C17 UNL     1      -3.791   0.938   0.242  1.00  0.00     0.154 C 
HETATM   10  C18 UNL     1      -3.750  -0.277  -0.611  1.00  0.00     0.150 C 
HETATM   11  O4  UNL     1      -4.664  -0.460  -1.390  1.00  0.00    -0.296 OA
HETATM   12  C19 UNL     1      -2.595  -1.199  -0.462  1.00  0.00     0.088 C 
HETATM   13  C20 UNL     1      -2.835  -2.042   0.748  1.00  0.00     0.023 C 
ENDROOT
BRANCH   1  14
HETATM   14  C2  UNL     1       0.082  -2.421  -0.860  1.00  0.00     0.035 C 
HETATM   15  C1  UNL     1       0.766  -2.678  -2.206  1.00  0.00     0.016 C 
HETATM   16  C3  UNL     1       0.967  -3.036   0.193  1.00  0.00     0.016 C 
ENDBRANCH   1  14
BRANCH   1  17
HETATM   17  O1  UNL     1       0.983  -0.150  -0.692  1.00  0.00    -0.282 OA
BRANCH  17  18
HETATM   18  C5  UNL     1       1.698   0.183   0.451  1.00  0.00     0.268 C 
HETATM   19  O2  UNL     1       1.347  -0.247   1.574  1.00  0.00    -0.264 OA
BRANCH  18  20
HETATM   20  C6  UNL     1       2.894   1.053   0.387  1.00  0.00     0.086 C 
HETATM   21  C7  UNL     1       3.469   1.252   1.763  1.00  0.00     0.014 C 
HETATM   22  C8  UNL     1       4.934   0.898   1.692  1.00  0.00     0.001 C 
HETATM   23  C9  UNL     1       5.274   0.769   0.233  1.00  0.00     0.001 C 
HETATM   24  C10 UNL     1       3.985   0.430  -0.456  1.00  0.00     0.014 C 
ENDBRANCH  18  20
ENDBRANCH  17  18
ENDBRANCH   1  17
TORSDOF 4
