REMARK  4 active torsions:
REMARK  status: ('A' for Active; 'I' for Inactive)
REMARK    1  A    between atoms: C2_2  and  O2_4 
REMARK    2  A    between atoms: O2_4  and  C3_5 
REMARK    3  A    between atoms: C3_5  and  C4_6 
REMARK    4  A    between atoms: C4_6  and  C5_7 
ROOT
HETATM    1  C5  UNL     1       0.988   0.160   0.055  1.00  0.00    -0.004 C 
HETATM    2  C6  UNL     1       1.017   0.286   1.532  1.00  0.00     0.005 C 
HETATM    3  C7  UNL     1      -0.279   0.706   2.146  1.00  0.00     0.001 C 
HETATM    4  C8  UNL     1      -1.306   0.909   1.032  1.00  0.00     0.010 C 
HETATM    5  C9  UNL     1      -1.426  -0.431   0.291  1.00  0.00    -0.030 C 
HETATM    6  C10 UNL     1      -1.622  -1.468   1.409  1.00  0.00     0.016 C 
HETATM    7  C11 UNL     1      -2.703  -0.441  -0.492  1.00  0.00     0.024 C 
HETATM    8  C12 UNL     1      -3.919  -0.187   0.301  1.00  0.00     0.018 C 
HETATM    9  C13 UNL     1      -4.631   1.085  -0.181  1.00  0.00     0.111 C 
HETATM   10  C14 UNL     1      -4.865   0.892  -1.635  1.00  0.00     0.259 C 
HETATM   11  O3  UNL     1      -6.030   1.016  -2.086  1.00  0.00    -0.265 OA
HETATM   12  O4  UNL     1      -3.755   0.583  -2.406  1.00  0.00    -0.316 OA
HETATM   13  C15 UNL     1      -2.521   0.494  -1.674  1.00  0.00     0.136 C 
HETATM   14  C16 UNL     1      -1.539  -0.196  -2.572  1.00  0.00     0.034 C 
HETATM   15  C17 UNL     1      -0.221  -0.474  -1.940  1.00  0.00     0.013 C 
HETATM   16  C18 UNL     1      -0.195  -0.666  -0.474  1.00  0.00    -0.033 C 
HETATM   17  C19 UNL     1       0.229  -2.124  -0.207  1.00  0.00     0.016 C 
ENDROOT
BRANCH   1  18
HETATM   18  C4  UNL     1       2.286  -0.335  -0.481  1.00  0.00     0.032 C 
BRANCH  18  19
HETATM   19  C3  UNL     1       3.397   0.597  -0.131  1.00  0.00     0.179 C 
BRANCH  19  20
HETATM   20  O2  UNL     1       4.648   0.129  -0.647  1.00  0.00    -0.322 OA
BRANCH  20  21
HETATM   21  C2  UNL     1       5.759   0.926  -0.377  1.00  0.00     0.254 C 
HETATM   22  C1  UNL     1       7.128   0.573  -0.845  1.00  0.00     0.126 C 
HETATM   23  O1  UNL     1       5.654   1.999   0.285  1.00  0.00    -0.266 OA
ENDBRANCH  20  21
ENDBRANCH  19  20
ENDBRANCH  18  19
ENDBRANCH   1  18
TORSDOF 4
