REMARK  3 active torsions:
REMARK  status: ('A' for Active; 'I' for Inactive)
REMARK    1  A    between atoms: C2_2  and  C4_4 
REMARK    2  A    between atoms: C5_5  and  C6_6 
REMARK    3  A    between atoms: C8_8  and  C9_9 
ROOT
HETATM    1  C9  UNL     1      -0.473   0.333  -0.731  1.00  0.00     0.166 C 
HETATM    2  O1  UNL     1      -0.743   1.622  -0.277  1.00  0.00    -0.309 OA
HETATM    3  C10 UNL     1      -1.824   1.620   0.608  1.00  0.00     0.287 C 
HETATM    4  O2  UNL     1      -2.460   2.670   0.857  1.00  0.00    -0.263 OA
HETATM    5  C11 UNL     1      -2.033   0.258   1.129  1.00  0.00     0.176 C 
HETATM    6  S1  UNL     1      -1.562   0.161   2.879  1.00  0.00    -0.066 SA
HETATM    7  C12 UNL     1      -3.469  -0.088   1.028  1.00  0.00     0.165 C 
HETATM    8  O3  UNL     1      -4.162   0.130   2.012  1.00  0.00    -0.295 OA
HETATM    9  C13 UNL     1      -4.144  -0.670  -0.140  1.00  0.00     0.015 C 
HETATM   10  C14 UNL     1      -4.758   0.497  -0.907  1.00  0.00     0.023 C 
HETATM   11  C15 UNL     1      -5.309  -1.545   0.288  1.00  0.00     0.023 C 
HETATM   12  C16 UNL     1      -3.171  -1.375  -1.004  1.00  0.00     0.017 C 
HETATM   13  C17 UNL     1      -1.858  -1.711  -0.408  1.00  0.00     0.015 C 
HETATM   14  C18 UNL     1      -1.159  -0.607   0.282  1.00  0.00     0.021 C 
HETATM   15  C19 UNL     1      -0.048  -1.163   1.133  1.00  0.00     0.021 C 
ENDROOT
BRANCH   1  16
HETATM   16  C8  UNL     1       0.941   0.063  -0.842  1.00  0.00     0.013 C 
HETATM   17  C6  UNL     1       2.000   0.735  -0.428  1.00  0.00    -0.063 C 
HETATM   18  C7  UNL     1       1.831   2.003   0.301  1.00  0.00     0.048 C 
BRANCH  17  19
HETATM   19  C5  UNL     1       3.332   0.214  -0.681  1.00  0.00     0.007 C 
HETATM   20  C4  UNL     1       4.490   0.811  -0.315  1.00  0.00     0.006 C 
BRANCH  20  21
HETATM   21  C2  UNL     1       5.714   0.205  -0.614  1.00  0.00    -0.071 C 
HETATM   22  C1  UNL     1       6.812  -0.338  -0.882  1.00  0.00     0.018 C 
HETATM   23  C3  UNL     1       6.683   1.556   0.243  1.00  0.00     0.047 C 
ENDBRANCH  20  21
ENDBRANCH  17  19
ENDBRANCH   1  16
TORSDOF 3
