REMARK  4 active torsions:
REMARK  status: ('A' for Active; 'I' for Inactive)
REMARK    1  A    between atoms: C2_2  and  O2_4 
REMARK    2  A    between atoms: O2_4  and  C3_5 
REMARK    3  A    between atoms: C3_5  and  C4_6 
REMARK    4  A    between atoms: C3_5  and  C12_15 
ROOT
HETATM    1  C4  UNL     1       0.944  -0.351   0.385  1.00  0.00     0.077 C 
HETATM    2  C5  UNL     1       0.810  -1.611   1.128  1.00  0.00     0.102 C 
HETATM    3  N1  UNL     1       0.735  -2.631   1.720  1.00  0.00    -0.191 NA
HETATM    4  C6  UNL     1       1.948  -0.392  -0.474  1.00  0.00    -0.057 C 
HETATM    5  C7  UNL     1       2.816  -1.576  -0.699  1.00  0.00     0.036 C 
HETATM    6  C8  UNL     1       4.257  -1.148  -0.647  1.00  0.00     0.004 C 
HETATM    7  C9  UNL     1       4.535  -0.172  -1.734  1.00  0.00     0.001 C 
HETATM    8  C10 UNL     1       3.366   0.574  -2.266  1.00  0.00     0.004 C 
HETATM    9  C11 UNL     1       2.264   0.813  -1.254  1.00  0.00     0.036 C 
ENDROOT
BRANCH   1  10
HETATM   10  C3  UNL     1       0.057   0.780   0.647  1.00  0.00     0.086 C 
BRANCH  10  11
HETATM   11  O2  UNL     1       0.362   1.532   1.805  1.00  0.00    -0.281 OA
BRANCH  11  12
HETATM   12  C2  UNL     1       0.780   2.819   1.878  1.00  0.00     0.259 C 
HETATM   13  C1  UNL     1       1.082   3.521   3.155  1.00  0.00     0.126 C 
HETATM   14  O1  UNL     1       0.924   3.465   0.830  1.00  0.00    -0.265 OA
ENDBRANCH  11  12
ENDBRANCH  10  11
BRANCH  10  15
HETATM   15  C12 UNL     1      -1.406   0.589   0.455  1.00  0.00     0.074 C 
HETATM   16  C13 UNL     1      -2.103  -0.118   1.626  1.00  0.00     0.016 C 
HETATM   17  C14 UNL     1      -3.599  -0.048   1.241  1.00  0.00     0.005 C 
HETATM   18  C15 UNL     1      -3.891  -1.026   0.134  1.00  0.00    -0.015 C 
HETATM   19  C16 UNL     1      -4.554  -2.252   0.682  1.00  0.00     0.010 C 
HETATM   20  C17 UNL     1      -2.588  -1.413  -0.536  1.00  0.00     0.040 C 
HETATM   21  C18 UNL     1      -1.824  -0.160  -0.741  1.00  0.00    -0.059 C 
HETATM   22  C19 UNL     1      -1.568   0.230  -1.956  1.00  0.00     0.097 C 
HETATM   23  C20 UNL     1      -1.993  -0.529  -3.092  1.00  0.00     0.088 C 
HETATM   24  N2  UNL     1      -2.349  -1.157  -4.009  1.00  0.00    -0.192 NA
ENDBRANCH  10  15
ENDBRANCH   1  10
TORSDOF 4
