REMARK  3 active torsions:
REMARK  status: ('A' for Active; 'I' for Inactive)
REMARK    1  A    between atoms: C6_6  and  C7_7 
REMARK    2  A    between atoms: C7_7  and  S1_8 
REMARK    3  A    between atoms: S1_8  and  C8_9 
ROOT
HETATM    1  C8  UNL     1      -1.463  -1.328   0.552  1.00  0.00     0.025 A 
HETATM    2  C9  UNL     1      -1.910  -2.623   0.384  1.00  0.00     0.107 A 
HETATM    3  N1  UNL     1      -3.259  -2.604   0.188  1.00  0.00    -0.367 N 
ATOM      4  H1  UNL     1      -3.839  -3.430   0.039  1.00  0.00     0.165 HD
HETATM    5  C10 UNL     1      -3.711  -1.349   0.220  1.00  0.00     0.018 A 
HETATM    6  C11 UNL     1      -2.607  -0.555   0.445  1.00  0.00    -0.010 A 
HETATM    7  C12 UNL     1      -2.831   0.911   0.528  1.00  0.00     0.045 C 
HETATM    8  C13 UNL     1      -3.305   1.481  -0.766  1.00  0.00    -0.021 C 
HETATM    9  C14 UNL     1      -4.621   1.347  -0.882  1.00  0.00    -0.025 C 
HETATM   10  C15 UNL     1      -5.145   0.668   0.335  1.00  0.00     0.014 C 
HETATM   11  C16 UNL     1      -5.088  -0.821   0.060  1.00  0.00     0.066 C 
HETATM   12  C17 UNL     1      -4.108   1.076   1.367  1.00  0.00     0.022 C 
ENDROOT
BRANCH   1  13
HETATM   13  S1  UNL     1       0.216  -0.796   0.842  1.00  0.00    -0.122 SA
BRANCH  13  14
HETATM   14  C7  UNL     1       1.084  -0.468  -0.714  1.00  0.00     0.151 C 
BRANCH  14  15
HETATM   15  C6  UNL     1       2.493  -0.025  -0.354  1.00  0.00     0.209 C 
HETATM   16  C5  UNL     1       3.183  -1.118   0.417  1.00  0.00     0.072 C 
HETATM   17  C4  UNL     1       4.497  -0.540   0.936  1.00  0.00     0.011 C 
HETATM   18  C3  UNL     1       5.189   0.105  -0.240  1.00  0.00     0.071 C 
HETATM   19  C2  UNL     1       4.258   1.099  -0.876  1.00  0.00     0.197 C 
HETATM   20  C1  UNL     1       4.932   1.988  -1.881  1.00  0.00     0.082 C 
HETATM   21  O2  UNL     1       3.532   1.829   0.070  1.00  0.00    -0.198 OA
HETATM   22  O3  UNL     1       3.223   0.347  -1.477  1.00  0.00    -0.313 OA
HETATM   23  O1  UNL     1       2.493   1.127   0.397  1.00  0.00    -0.197 OA
ENDBRANCH  14  15
ENDBRANCH  13  14
ENDBRANCH   1  13
TORSDOF 3
