REMARK  9 active torsions:
REMARK  status: ('A' for Active; 'I' for Inactive)
REMARK    1  A    between atoms: C3_3  and  C4_4 
REMARK    2  A    between atoms: C4_4  and  C5_5 
REMARK    3  A    between atoms: C5_5  and  C6_6 
REMARK    4  A    between atoms: C8_8  and  O1_9 
REMARK    5  A    between atoms: C9_11  and  C11_13 
REMARK    6  A    between atoms: C12_14  and  C13_15 
REMARK    7  A    between atoms: C15_18  and  C16_19 
REMARK    8  A    between atoms: C16_19  and  C17_20 
REMARK    9  A    between atoms: C17_20  and  O3_21 
ROOT
HETATM    1  C6  UNL     1       2.302  -0.920  -0.901  1.00  0.00     0.163 C 
HETATM    2  C7  UNL     1       1.896   0.038   0.167  1.00  0.00     0.070 C 
HETATM    3  C8  UNL     1       0.420   0.001   0.472  1.00  0.00     0.162 C 
HETATM    4  C9  UNL     1      -0.176  -1.370   0.244  1.00  0.00     0.136 C 
HETATM    5  C10 UNL     1      -0.100  -2.152   1.561  1.00  0.00     0.057 C 
HETATM    6  O4  UNL     1       0.435  -2.056  -0.777  1.00  0.00    -0.223 OA
HETATM    7  O5  UNL     1       1.726  -2.170  -0.643  1.00  0.00    -0.234 OA
ENDROOT
BRANCH   4   8
HETATM    8  C11 UNL     1      -1.621  -1.222  -0.082  1.00  0.00     0.015 C 
HETATM    9  C12 UNL     1      -2.503  -0.795   0.813  1.00  0.00     0.004 C 
BRANCH   9  10
HETATM   10  C13 UNL     1      -3.931  -0.632   0.545  1.00  0.00     0.150 C 
HETATM   11  O2  UNL     1      -4.661  -1.802   0.343  1.00  0.00    -0.381 OA
HETATM   12  C14 UNL     1      -5.533  -1.017  -0.450  1.00  0.00     0.176 C 
HETATM   13  C15 UNL     1      -4.316  -0.229  -0.862  1.00  0.00     0.044 C 
BRANCH  13  14
HETATM   14  C16 UNL     1      -4.479   1.232  -1.029  1.00  0.00     0.035 C 
BRANCH  14  15
HETATM   15  C17 UNL     1      -5.522   1.865  -0.170  1.00  0.00     0.164 C 
BRANCH  15  16
HETATM   16  O3  UNL     1      -5.522   3.247  -0.474  1.00  0.00    -0.401 OA
ATOM     17  H3  UNL     1      -6.186   3.650   0.073  1.00  0.00     0.209 HD
ENDBRANCH  15  16
ENDBRANCH  14  15
ENDBRANCH  13  14
ENDBRANCH   9  10
ENDBRANCH   4   8
BRANCH   3  18
HETATM   18  O1  UNL     1      -0.213   0.977  -0.295  1.00  0.00    -0.392 OA
ATOM     19  H1  UNL     1      -1.143   0.954  -0.103  1.00  0.00     0.210 HD
ENDBRANCH   3  18
BRANCH   1  20
HETATM   20  C5  UNL     1       3.802  -1.113  -0.883  1.00  0.00     0.039 C 
BRANCH  20  21
HETATM   21  C4  UNL     1       4.477   0.220  -1.123  1.00  0.00     0.029 C 
BRANCH  21  22
HETATM   22  C3  UNL     1       5.940   0.109  -1.118  1.00  0.00    -0.031 C 
HETATM   23  C2  UNL     1       6.650   0.792  -0.238  1.00  0.00    -0.035 C 
HETATM   24  C1  UNL     1       5.987   1.694   0.775  1.00  0.00     0.036 C 
ENDBRANCH  21  22
ENDBRANCH  20  21
ENDBRANCH   1  20
TORSDOF 9
