REMARK  7 active torsions:
REMARK  status: ('A' for Active; 'I' for Inactive)
REMARK    1  A    between atoms: C1_2  and  C2_3 
REMARK       I    between atoms: C1_2  and  N4_20 
REMARK    2  A    between atoms: C2_3  and  S1_4 
REMARK    3  A    between atoms: S1_4  and  C3_5 
REMARK    4  A    between atoms: C4_10  and  C5_11 
REMARK    5  A    between atoms: C5_11  and  C6_12 
REMARK    6  A    between atoms: C6_12  and  C7_13 
REMARK    7  A    between atoms: N4_20  and  C12_22 
ROOT
HETATM    1  C3  UNL     1       0.116  -1.075   0.599  1.00  0.00     0.160 A 
HETATM    2  N1  UNL     1      -0.503  -1.738   1.588  1.00  0.00    -0.278 N 
ATOM      3  H1  UNL     1      -0.041  -2.140   2.404  1.00  0.00     0.189 HD
HETATM    4  N2  UNL     1      -1.805  -1.791   1.345  1.00  0.00    -0.287 N 
ATOM      5  H2  UNL     1      -2.510  -2.236   1.933  1.00  0.00     0.188 HD
HETATM    6  C4  UNL     1      -2.028  -1.155   0.188  1.00  0.00     0.097 A 
HETATM    7  N3  UNL     1      -0.857  -0.718  -0.267  1.00  0.00    -0.324 N 
ATOM      8  H3  UNL     1      -0.716  -0.196  -1.132  1.00  0.00     0.169 HD
ENDROOT
BRANCH   1   9
HETATM    9  S1  UNL     1       1.845  -0.738   0.462  1.00  0.00    -0.083 SA
BRANCH   9  10
HETATM   10  C2  UNL     1       2.625  -2.114  -0.460  1.00  0.00     0.185 C 
BRANCH  10  11
HETATM   11  C1  UNL     1       4.080  -1.838  -0.582  1.00  0.00     0.227 C 
HETATM   12  O1  UNL     1       4.775  -2.686  -1.204  1.00  0.00    -0.273 OA
HETATM   13  N4  UNL     1       4.674  -0.661  -0.020  1.00  0.00    -0.356 N 
ATOM     14  H4  UNL     1       4.092   0.012   0.479  1.00  0.00     0.162 HD
BRANCH  13  15
HETATM   15  C12 UNL     1       6.079  -0.424  -0.155  1.00  0.00     0.084 C 
HETATM   16  C13 UNL     1       6.410   0.855  -0.854  1.00  0.00     0.025 C 
HETATM   17  C14 UNL     1       6.642   1.879   0.238  1.00  0.00     0.002 C 
HETATM   18  C15 UNL     1       6.842   1.103   1.500  1.00  0.00     0.002 C 
HETATM   19  C16 UNL     1       6.822  -0.368   1.155  1.00  0.00     0.025 C 
ENDBRANCH  13  15
ENDBRANCH  10  11
ENDBRANCH   9  10
ENDBRANCH   1   9
BRANCH   6  20
HETATM   20  C5  UNL     1      -3.331  -0.959  -0.483  1.00  0.00     0.078 C 
BRANCH  20  21
HETATM   21  C6  UNL     1      -3.925   0.334   0.009  1.00  0.00     0.012 C 
BRANCH  21  22
HETATM   22  C7  UNL     1      -5.268   0.609  -0.633  1.00  0.00    -0.014 C 
HETATM   23  C8  UNL     1      -5.863   1.909  -0.138  1.00  0.00     0.004 C 
HETATM   24  C9  UNL     1      -7.354   1.718  -0.231  1.00  0.00     0.000 C 
HETATM   25  C10 UNL     1      -7.588   0.254  -0.508  1.00  0.00     0.000 C 
HETATM   26  C11 UNL     1      -6.298  -0.396  -0.105  1.00  0.00     0.004 C 
ENDBRANCH  21  22
ENDBRANCH  20  21
ENDBRANCH   6  20
TORSDOF 7
