REMARK  3 active torsions:
REMARK  status: ('A' for Active; 'I' for Inactive)
REMARK    1  A    between atoms: O1_2  and  C2_3 
REMARK    2  A    between atoms: C7_8  and  O2_9 
REMARK    3  A    between atoms: C9_11  and  O3_12 
ROOT
HETATM    1  C2  UNL     1      -2.476  -0.053  -2.318  1.00  0.00     0.104 A 
HETATM    2  C3  UNL     1      -2.118   0.228  -1.017  1.00  0.00     0.077 A 
HETATM    3  C4  UNL     1      -0.952  -0.267  -0.426  1.00  0.00     0.081 A 
HETATM    4  C5  UNL     1      -0.155  -1.064  -1.207  1.00  0.00     0.007 A 
HETATM    5  C6  UNL     1      -0.511  -1.355  -2.529  1.00  0.00     0.052 A 
HETATM    6  C7  UNL     1      -1.663  -0.857  -3.090  1.00  0.00     0.102 A 
HETATM    7  C9  UNL     1       1.085  -1.623  -0.667  1.00  0.00     0.157 C 
HETATM    8  C10 UNL     1       1.354  -1.402   0.767  1.00  0.00     0.075 C 
HETATM    9  C11 UNL     1       0.716  -0.167   1.343  1.00  0.00     0.070 C 
HETATM   10  C12 UNL     1       0.776  -0.173   2.841  1.00  0.00     0.038 C 
HETATM   11  C13 UNL     1       2.143   0.090   3.382  1.00  0.00     0.003 C 
HETATM   12  C14 UNL     1       2.576   1.522   3.293  1.00  0.00     0.000 C 
HETATM   13  C15 UNL     1       1.477   2.465   2.934  1.00  0.00     0.000 C 
HETATM   14  C16 UNL     1       1.027   2.290   1.525  1.00  0.00     0.003 C 
HETATM   15  C17 UNL     1       1.510   1.047   0.844  1.00  0.00     0.038 C 
HETATM   16  O4  UNL     1      -0.606   0.020   0.868  1.00  0.00    -0.339 OA
ENDROOT
BRANCH   7  17
HETATM   17  O3  UNL     1       1.103  -2.992  -0.996  1.00  0.00    -0.391 OA
ATOM     18  H3  UNL     1       1.908  -3.355  -0.645  1.00  0.00     0.210 HD
ENDBRANCH   7  17
BRANCH   1  19
HETATM   19  O1  UNL     1      -3.631   0.443  -2.888  1.00  0.00    -0.353 OA
HETATM   20  C1  UNL     1      -4.460   1.265  -2.089  1.00  0.00     0.210 C 
ENDBRANCH   1  19
BRANCH   6  21
HETATM   21  O2  UNL     1      -2.006  -1.161  -4.423  1.00  0.00    -0.353 OA
HETATM   22  C8  UNL     1      -1.131  -1.992  -5.162  1.00  0.00     0.210 C 
ENDBRANCH   6  21
TORSDOF 3
