REMARK  1 active torsions:
REMARK  status: ('A' for Active; 'I' for Inactive)
REMARK    1  A    between atoms: C4_5  and  C5_6 
ROOT
HETATM    1  C5  UNL     1       0.522   1.031  -0.610  1.00  0.00     0.097 C 
HETATM    2  C6  UNL     1       0.362   2.503  -0.361  1.00  0.00     0.165 C 
HETATM    3  C7  UNL     1       0.001   2.930   0.984  1.00  0.00     0.220 C 
HETATM    4  O2  UNL     1       0.420   2.883   2.141  1.00  0.00    -0.282 OA
HETATM    5  S1  UNL     1      -1.520   3.693   0.367  1.00  0.00    -0.001 SA
HETATM    6  N1  UNL     1      -0.840   2.857  -1.035  1.00  0.00    -0.238 NA
HETATM    7  C8  UNL     1      -1.531   1.663  -1.431  1.00  0.00     0.114 C 
HETATM    8  C9  UNL     1      -0.871   0.508  -0.667  1.00  0.00    -0.015 C 
HETATM    9  C10 UNL     1      -1.547   0.208   0.608  1.00  0.00     0.011 C 
HETATM   10  C11 UNL     1      -2.816  -0.594   0.272  1.00  0.00     0.001 C 
HETATM   11  C12 UNL     1      -2.468  -2.025  -0.060  1.00  0.00     0.000 C 
HETATM   12  C13 UNL     1      -1.111  -1.987  -0.748  1.00  0.00     0.001 C 
HETATM   13  C14 UNL     1      -0.920  -0.722  -1.550  1.00  0.00     0.011 C 
ENDROOT
BRANCH   1  14
HETATM   14  C4  UNL     1       1.441   0.357   0.294  1.00  0.00     0.130 A 
HETATM   15  O1  UNL     1       1.446   0.209   1.583  1.00  0.00    -0.307 OA
HETATM   16  C3  UNL     1       2.463  -0.473   2.025  1.00  0.00     0.168 A 
HETATM   17  C2  UNL     1       3.215  -0.816   0.911  1.00  0.00     0.029 A 
HETATM   18  C1  UNL     1       4.474  -1.592   0.837  1.00  0.00     0.070 C 
HETATM   19  N2  UNL     1       2.569  -0.299  -0.119  1.00  0.00    -0.342 N 
ATOM     20  H2  UNL     1       2.870  -0.378  -1.090  1.00  0.00     0.167 HD
ENDBRANCH   1  14
TORSDOF 1
