REMARK  2 active torsions:
REMARK  status: ('A' for Active; 'I' for Inactive)
REMARK    1  A    between atoms: C3_4  and  C4_5 
REMARK    2  A    between atoms: N3_15  and  C9_17 
ROOT
HETATM    1  N1  UNL     1       0.473   1.423  -1.522  1.00  0.00    -0.191 NA
HETATM    2  C1  UNL     1       0.696   0.622  -0.685  1.00  0.00     0.104 C 
HETATM    3  C2  UNL     1       0.943  -0.384   0.374  1.00  0.00     0.107 A 
HETATM    4  C3  UNL     1       2.182  -0.657   0.822  1.00  0.00     0.079 A 
HETATM    5  N2  UNL     1       2.294  -1.584   1.788  1.00  0.00    -0.322 N 
ATOM      6  H2  UNL     1       3.147  -1.913   2.241  1.00  0.00     0.174 HD
HETATM    7  S2  UNL     1       0.729  -2.077   2.081  1.00  0.00     0.005 SA
HETATM    8  C8  UNL     1      -0.093  -1.075   0.942  1.00  0.00     0.110 A 
HETATM    9  N3  UNL     1      -1.358  -1.088   0.781  1.00  0.00    -0.377 N 
ATOM     10  H3  UNL     1      -1.832  -1.749   1.396  1.00  0.00     0.160 HD
ENDROOT
BRANCH   4  11
HETATM   11  C4  UNL     1       3.425   0.004   0.312  1.00  0.00     0.036 A 
HETATM   12  C5  UNL     1       4.717  -0.208   0.705  1.00  0.00     0.025 A 
HETATM   13  C6  UNL     1       5.667   0.519   0.088  1.00  0.00     0.051 A 
HETATM   14  C7  UNL     1       5.259   1.403  -0.875  1.00  0.00     0.158 A 
HETATM   15  F1  UNL     1       6.057   2.241  -1.626  1.00  0.00    -0.198 F 
HETATM   16  S1  UNL     1       3.570   1.191  -0.887  1.00  0.00    -0.058 SA
ENDBRANCH   4  11
BRANCH   9  17
HETATM   17  C9  UNL     1      -2.235  -0.393  -0.056  1.00  0.00     0.082 C 
HETATM   18  C10 UNL     1      -2.724   0.941   0.457  1.00  0.00     0.025 C 
HETATM   19  C11 UNL     1      -3.952   1.174  -0.434  1.00  0.00     0.002 C 
HETATM   20  C12 UNL     1      -4.453  -0.207  -0.799  1.00  0.00     0.002 C 
HETATM   21  C13 UNL     1      -3.582  -1.165  -0.023  1.00  0.00     0.025 C 
ENDBRANCH   9  17
TORSDOF 2
