REMARK  2 active torsions:
REMARK  status: ('A' for Active; 'I' for Inactive)
REMARK    1  A    between atoms: N2_16  and  N3_17 
REMARK    2  A    between atoms: N3_17  and  O1_19 
ROOT
HETATM    1  C1  UNL     1      -2.092  -0.772   1.496  1.00  0.00     0.020 C 
HETATM    2  C2  UNL     1      -1.549  -0.357   0.133  1.00  0.00    -0.013 C 
HETATM    3  C3  UNL     1      -1.244  -1.578  -0.648  1.00  0.00     0.020 C 
HETATM    4  C4  UNL     1      -2.595   0.433  -0.647  1.00  0.00     0.062 C 
HETATM    5  C5  UNL     1      -3.488   1.262   0.222  1.00  0.00     0.238 C 
HETATM    6  F1  UNL     1      -3.980   2.300  -0.583  1.00  0.00    -0.238 F 
HETATM    7  S1  UNL     1      -2.449   2.006   1.505  1.00  0.00    -0.085 SA
HETATM    8  C6  UNL     1      -0.725   1.664   1.084  1.00  0.00     0.054 A 
HETATM    9  S2  UNL     1       0.727   2.497   1.327  1.00  0.00    -0.075 SA
HETATM   10  C7  UNL     1       1.804   1.405   0.587  1.00  0.00     0.102 A 
HETATM   11  C8  UNL     1       0.984   0.394   0.155  1.00  0.00     0.061 A 
HETATM   12  C9  UNL     1      -0.344   0.525   0.416  1.00  0.00     0.002 A 
HETATM   13  N1  UNL     1       1.714  -0.643  -0.558  1.00  0.00    -0.370 N 
ATOM     14  H1  UNL     1       1.231  -1.166  -1.288  1.00  0.00     0.161 HD
HETATM   15  C10 UNL     1       3.095  -0.964  -0.276  1.00  0.00     0.276 C 
HETATM   16  N2  UNL     1       3.902   0.261  -0.221  1.00  0.00    -0.219 N 
HETATM   17  C11 UNL     1       3.272   1.364   0.408  1.00  0.00     0.284 C 
HETATM   18  O2  UNL     1       3.950   2.320   0.820  1.00  0.00    -0.265 OA
ENDROOT
BRANCH  16  19
HETATM   19  N3  UNL     1       5.161   0.247  -0.758  1.00  0.00    -0.203 N 
ATOM     20  H3  UNL     1       5.502   1.094  -1.213  1.00  0.00     0.216 HD
BRANCH  19  21
HETATM   21  O1  UNL     1       5.918  -0.755  -0.719  1.00  0.00    -0.274 OA
ATOM     22  H1  UNL     1       6.792  -0.765  -1.092  1.00  0.00     0.246 HD
ENDBRANCH  19  21
ENDBRANCH  16  19
TORSDOF 2
