REMARK  1 active torsions:
REMARK  status: ('A' for Active; 'I' for Inactive)
REMARK    1  A    between atoms: N1_8  and  C5_9 
ROOT
HETATM    1  O1  UNL     1      -0.180   1.276  -0.406  1.00  0.00    -0.267 OA
HETATM    2  C1  UNL     1      -0.675   0.150  -0.048  1.00  0.00     0.258 A 
HETATM    3  C2  UNL     1      -2.042   0.086  -0.046  1.00  0.00     0.044 A 
HETATM    4  C3  UNL     1      -2.787  -1.017   0.302  1.00  0.00     0.084 A 
HETATM    5  S1  UNL     1      -1.822  -2.362   0.752  1.00  0.00    -0.042 SA
HETATM    6  C4  UNL     1      -0.152  -2.048   0.674  1.00  0.00     0.150 A 
HETATM    7  S2  UNL     1       0.957  -3.167   1.053  1.00  0.00    -0.052 SA
HETATM    8  N1  UNL     1       0.196  -0.790   0.270  1.00  0.00    -0.294 N 
HETATM    9  N2  UNL     1      -4.209  -1.022   0.283  1.00  0.00    -0.384 N 
ATOM     10  H2  UNL     1      -4.700  -1.906   0.412  1.00  0.00     0.160 HD
HETATM   11  C11 UNL     1      -4.984   0.187   0.086  1.00  0.00     0.120 C 
HETATM   12  C12 UNL     1      -4.186   1.001  -0.940  1.00  0.00     0.024 C 
HETATM   13  C13 UNL     1      -2.819   1.314  -0.455  1.00  0.00     0.049 C 
ENDROOT
BRANCH   8  14
HETATM   14  C5  UNL     1       1.641  -0.521   0.203  1.00  0.00     0.094 C 
HETATM   15  C6  UNL     1       2.110   0.475   1.210  1.00  0.00     0.026 C 
HETATM   16  C7  UNL     1       3.619   0.367   1.286  1.00  0.00     0.002 C 
HETATM   17  C8  UNL     1       4.297   0.441  -0.032  1.00  0.00     0.000 C 
HETATM   18  C9  UNL     1       3.645  -0.353  -1.135  1.00  0.00     0.002 C 
HETATM   19  C10 UNL     1       2.123  -0.118  -1.147  1.00  0.00     0.026 C 
ENDBRANCH   8  14
TORSDOF 1
