REMARK  1 active torsions:
REMARK  status: ('A' for Active; 'I' for Inactive)
REMARK    1  A    between atoms: C4_8  and  C5_9 
ROOT
HETATM    1  C5  UNL     1       1.361  -0.458   0.010  1.00  0.00     0.140 C 
HETATM    2  C6  UNL     1       0.533  -1.320  -0.996  1.00  0.00     0.124 C 
HETATM    3  N2  UNL     1       0.911  -2.411  -1.530  1.00  0.00    -0.383 N 
ATOM      4  H21 UNL     1       0.370  -2.974  -2.187  1.00  0.00     0.158 HD
ATOM      5  H22 UNL     1       1.803  -2.883  -1.385  1.00  0.00     0.158 HD
HETATM    6  O2  UNL     1      -0.671  -0.683  -1.192  1.00  0.00    -0.326 OA
HETATM    7  C7  UNL     1      -0.753   0.474  -0.391  1.00  0.00     0.086 C 
HETATM    8  C8  UNL     1      -1.580   1.562  -0.948  1.00  0.00     0.040 C 
HETATM    9  C9  UNL     1      -2.921   1.759  -0.335  1.00  0.00     0.003 C 
HETATM   10  C10 UNL     1      -3.608   0.504   0.087  1.00  0.00     0.004 C 
HETATM   11  C11 UNL     1      -2.688  -0.544   0.611  1.00  0.00    -0.016 C 
HETATM   12  C12 UNL     1      -3.238  -1.363   1.748  1.00  0.00     0.010 C 
HETATM   13  C13 UNL     1      -1.286  -0.031   0.944  1.00  0.00     0.044 C 
HETATM   14  C14 UNL     1       0.732   0.850  -0.341  1.00  0.00     0.146 C 
HETATM   15  C15 UNL     1       1.137   1.452  -1.570  1.00  0.00     0.068 C 
HETATM   16  N3  UNL     1       1.486   1.950  -2.552  1.00  0.00    -0.197 NA
ENDROOT
BRANCH   1  17
HETATM   17  C4  UNL     1       2.763  -0.663  -0.368  1.00  0.00     0.091 A 
HETATM   18  C2  UNL     1       3.876  -0.258   0.371  1.00  0.00     0.039 A 
HETATM   19  C1  UNL     1       3.883   0.603   1.616  1.00  0.00     0.071 C 
HETATM   20  N1  UNL     1       4.973  -0.654  -0.296  1.00  0.00    -0.328 N 
HETATM   21  C3  UNL     1       4.530  -1.288  -1.418  1.00  0.00     0.223 A 
ATOM     22  H1  UNL     1       5.944  -0.509  -0.018  1.00  0.00     0.168 HD
HETATM   23 CL1  UNL     1       5.617  -1.992  -2.593  1.00  0.00    -0.037 Cl
HETATM   24  O1  UNL     1       3.203  -1.276  -1.439  1.00  0.00    -0.285 OA
ENDBRANCH   1  17
TORSDOF 1
