REMARK  7 active torsions:
REMARK  status: ('A' for Active; 'I' for Inactive)
REMARK    1  A    between atoms: C2_2  and  C3_3 
REMARK       I    between atoms: C3_3  and  N1_5 
REMARK    2  A    between atoms: N1_5  and  C4_7 
REMARK    3  A    between atoms: C7_10  and  S1_11 
REMARK    4  A    between atoms: S1_11  and  N2_14 
REMARK    5  A    between atoms: N2_14  and  C8_16 
REMARK    6  A    between atoms: C8_16  and  C9_17 
REMARK    7  A    between atoms: C8_16  and  C10_19 
ROOT
HETATM    1  C4  UNL     1       2.702  -0.342   0.075  1.00  0.00     0.035 A 
HETATM    2  C5  UNL     1       1.834  -1.193  -0.648  1.00  0.00     0.031 A 
HETATM    3  C6  UNL     1       0.470  -0.840  -0.902  1.00  0.00     0.027 A 
HETATM    4  C7  UNL     1       0.116   0.396  -0.441  1.00  0.00     0.079 A 
HETATM    5  C11 UNL     1       0.904   1.175   0.254  1.00  0.00     0.027 A 
HETATM    6  C12 UNL     1       2.158   0.906   0.570  1.00  0.00     0.031 A 
ENDROOT
BRANCH   4   7
HETATM    7  S1  UNL     1      -1.634   0.906  -0.441  1.00  0.00     0.259 S 
HETATM    8  O2  UNL     1      -1.769   1.953  -1.497  1.00  0.00    -0.201 OA
HETATM    9  O3  UNL     1      -1.939   1.436   0.963  1.00  0.00    -0.201 OA
BRANCH   7  10
HETATM   10  N2  UNL     1      -2.705  -0.363  -0.688  1.00  0.00    -0.299 N 
ATOM     11  H2  UNL     1      -2.402  -1.335  -0.747  1.00  0.00     0.173 HD
BRANCH  10  12
HETATM   12  C8  UNL     1      -4.038   0.017  -0.806  1.00  0.00     0.204 C 
BRANCH  12  13
HETATM   13  C9  UNL     1      -4.698   0.300   0.543  1.00  0.00     0.122 C 
HETATM   14  S2  UNL     1      -4.391  -1.184   1.563  1.00  0.00    -0.095 SA
ENDBRANCH  12  13
BRANCH  12  15
HETATM   15  C10 UNL     1      -4.914  -0.460  -1.845  1.00  0.00     0.198 C 
HETATM   16  O4  UNL     1      -4.780  -0.309  -3.070  1.00  0.00    -0.646 OA
HETATM   17  O5  UNL     1      -6.080  -1.271  -1.508  1.00  0.00    -0.646 OA
ENDBRANCH  12  15
ENDBRANCH  10  12
ENDBRANCH   7  10
ENDBRANCH   4   7
BRANCH   1  18
HETATM   18  N1  UNL     1       3.943  -0.592   0.636  1.00  0.00    -0.324 N 
HETATM   19  C3  UNL     1       5.071  -0.102  -0.134  1.00  0.00     0.244 C 
HETATM   20  O1  UNL     1       5.159  -0.025  -1.258  1.00  0.00    -0.268 OA
ATOM     21  H1  UNL     1       4.056  -1.083   1.523  1.00  0.00     0.169 HD
BRANCH  19  22
HETATM   22  C2  UNL     1       6.146   0.370   0.778  1.00  0.00     0.064 C 
HETATM   23  C1  UNL     1       6.822  -0.193   1.653  1.00  0.00     0.017 C 
ENDBRANCH  19  22
ENDBRANCH   1  18
TORSDOF 7
