REMARK  2 active torsions:
REMARK  status: ('A' for Active; 'I' for Inactive)
REMARK    1  A    between atoms: C4_4  and  N1_5 
REMARK    2  A    between atoms: N1_5  and  C5_7 
ROOT
HETATM    1  C5  UNL     1       1.420  -0.282  -0.096  1.00  0.00     0.171 C 
HETATM    2  N2  UNL     1       1.838   0.854  -0.541  1.00  0.00    -0.361 N 
ATOM      3  H2  UNL     1       1.271   1.504  -1.085  1.00  0.00     0.162 HD
HETATM    4  C6  UNL     1       3.216   1.085  -0.168  1.00  0.00     0.142 C 
HETATM    5  C7  UNL     1       3.428   0.102   0.951  1.00  0.00     0.142 C 
HETATM    6  N3  UNL     1       2.470  -0.931   0.623  1.00  0.00    -0.361 N 
ATOM      7  H3  UNL     1       2.532  -1.922   0.858  1.00  0.00     0.162 HD
ENDROOT
BRANCH   1   8
HETATM    8  N1  UNL     1       0.128  -0.870  -0.251  1.00  0.00    -0.358 N 
ATOM      9  H1  UNL     1      -0.043  -1.510  -1.026  1.00  0.00     0.163 HD
BRANCH   8  10
HETATM   10  C4  UNL     1      -0.947  -0.570   0.679  1.00  0.00     0.084 C 
HETATM   11  C3  UNL     1      -1.281   0.888   0.709  1.00  0.00     0.025 C 
HETATM   12  C2  UNL     1      -2.754   0.972   0.344  1.00  0.00     0.002 C 
HETATM   13  C1  UNL     1      -2.862  -0.210  -0.627  1.00  0.00     0.002 C 
HETATM   14  C8  UNL     1      -2.192  -1.299   0.222  1.00  0.00     0.025 C 
ENDBRANCH   8  10
ENDBRANCH   1   8
TORSDOF 2
