REMARK  5 active torsions:
REMARK  status: ('A' for Active; 'I' for Inactive)
REMARK    1  A    between atoms: C6_10  and  N3_11 
REMARK       I    between atoms: N3_11  and  C7_13 
REMARK    2  A    between atoms: C7_13  and  C8_15 
REMARK    3  A    between atoms: C10_17  and  O2_18 
REMARK    4  A    between atoms: C12_20  and  O3_21 
REMARK    5  A    between atoms: C14_23  and  O4_24 
ROOT
HETATM    1  N3  UNL     1       0.803  -1.325  -0.616  1.00  0.00    -0.303 N 
ATOM      2  H3  UNL     1       0.507  -1.588  -1.556  1.00  0.00     0.171 HD
HETATM    3  C7  UNL     1      -0.088  -1.421   0.454  1.00  0.00     0.257 C 
HETATM    4  O1  UNL     1       0.246  -1.923   1.554  1.00  0.00    -0.267 OA
ENDROOT
BRANCH   1   5
HETATM    5  C6  UNL     1       2.031  -0.891  -0.402  1.00  0.00     0.153 A 
HETATM    6  N2  UNL     1       2.999  -0.740  -1.301  1.00  0.00    -0.321 N 
HETATM    7  C5  UNL     1       4.163  -0.292  -0.895  1.00  0.00     0.125 A 
ATOM      8  H2  UNL     1       2.840  -0.967  -2.283  1.00  0.00     0.169 HD
HETATM    9  N1  UNL     1       5.353  -0.053  -1.704  1.00  0.00    -0.351 N 
HETATM   10  C17 UNL     1       4.311  -0.007   0.431  1.00  0.00     0.062 A 
HETATM   11  C4  UNL     1       6.530   0.427  -1.142  1.00  0.00     0.090 A 
ATOM     12  H1  UNL     1       5.321  -0.243  -2.706  1.00  0.00     0.166 HD
HETATM   13  C3  UNL     1       6.757   0.727   0.127  1.00  0.00     0.029 A 
HETATM   14  C2  UNL     1       5.582   0.504   1.002  1.00  0.00    -0.023 A 
HETATM   15  C1  UNL     1       5.620   0.746   2.284  1.00  0.00     0.025 C 
HETATM   16  S1  UNL     1       2.768  -0.394   1.053  1.00  0.00    -0.049 SA
ENDBRANCH   1   5
BRANCH   3  17
HETATM   17  C8  UNL     1      -1.451  -0.929   0.311  1.00  0.00     0.037 A 
HETATM   18  C9  UNL     1      -2.347  -1.013   1.356  1.00  0.00     0.057 A 
HETATM   19  C10 UNL     1      -3.623  -0.541   1.188  1.00  0.00     0.105 A 
HETATM   20  C12 UNL     1      -3.995   0.012  -0.019  1.00  0.00     0.135 A 
HETATM   21  C14 UNL     1      -3.127   0.111  -1.079  1.00  0.00     0.105 A 
HETATM   22  C16 UNL     1      -1.845  -0.364  -0.909  1.00  0.00     0.057 A 
BRANCH  19  23
HETATM   23  O2  UNL     1      -4.511  -0.636   2.254  1.00  0.00    -0.353 OA
HETATM   24  C11 UNL     1      -4.133  -1.195   3.474  1.00  0.00     0.210 C 
ENDBRANCH  19  23
BRANCH  20  25
HETATM   25  O3  UNL     1      -5.292   0.478  -0.148  1.00  0.00    -0.351 OA
HETATM   26  C13 UNL     1      -5.519   1.842   0.204  1.00  0.00     0.210 C 
ENDBRANCH  20  25
BRANCH  21  27
HETATM   27  O4  UNL     1      -3.548   0.675  -2.274  1.00  0.00    -0.353 OA
HETATM   28  C15 UNL     1      -2.721   0.811  -3.399  1.00  0.00     0.210 C 
ENDBRANCH  21  27
ENDBRANCH   3  17
TORSDOF 5
