REMARK  4 active torsions:
REMARK  status: ('A' for Active; 'I' for Inactive)
REMARK    1  A    between atoms: C4_4  and  C5_5 
REMARK    2  A    between atoms: C13_14  and  N1_15 
REMARK       I    between atoms: N1_15  and  C14_17 
REMARK    3  A    between atoms: C14_17  and  C15_19 
REMARK    4  A    between atoms: C18_24  and  N3_25 
ROOT
HETATM    1  C1  UNL     1       1.693  -3.351  -0.410  1.00  0.00     0.025 C 
HETATM    2  C2  UNL     1       0.922  -2.301  -0.302  1.00  0.00    -0.018 A 
HETATM    3  C3  UNL     1       1.426  -0.923  -0.031  1.00  0.00     0.026 A 
HETATM    4  C4  UNL     1       2.701  -0.628   0.100  1.00  0.00     0.028 C 
HETATM    5  C11 UNL     1       0.260  -0.066   0.090  1.00  0.00     0.196 A 
HETATM    6  O1  UNL     1       0.367   1.176   0.327  1.00  0.00    -0.286 OA
HETATM    7  C12 UNL     1      -0.922  -0.887  -0.103  1.00  0.00     0.055 A 
HETATM    8  C13 UNL     1      -2.252  -0.459  -0.044  1.00  0.00     0.050 A 
HETATM    9  C16 UNL     1      -3.207  -1.422  -0.237  1.00  0.00     0.033 A 
HETATM   10  C17 UNL     1      -2.865  -2.726  -0.477  1.00  0.00     0.039 A 
HETATM   11  C18 UNL     1      -1.513  -3.157  -0.538  1.00  0.00     0.115 A 
HETATM   12  C19 UNL     1      -0.534  -2.217  -0.341  1.00  0.00     0.024 A 
ENDROOT
BRANCH   4  13
HETATM   13  C5  UNL     1       3.299   0.653   0.351  1.00  0.00    -0.035 A 
HETATM   14  C6  UNL     1       3.159   1.782  -0.422  1.00  0.00     0.011 A 
HETATM   15  C7  UNL     1       3.742   2.993  -0.109  1.00  0.00     0.001 A 
HETATM   16  C8  UNL     1       4.504   3.117   1.018  1.00  0.00     0.000 A 
HETATM   17  C9  UNL     1       4.677   2.012   1.830  1.00  0.00     0.001 A 
HETATM   18  C10 UNL     1       4.088   0.810   1.503  1.00  0.00     0.011 A 
ENDBRANCH   4  13
BRANCH  11  19
HETATM   19  N3  UNL     1      -1.318  -4.519  -0.818  1.00  0.00    -0.115 N 
HETATM   20  O4  UNL     1      -2.220  -5.293  -0.264  1.00  0.00    -0.532 OA
HETATM   21  O5  UNL     1      -0.390  -5.168  -1.517  1.00  0.00    -0.532 OA
ENDBRANCH  11  19
BRANCH   8  22
HETATM   22  N1  UNL     1      -2.542   0.880   0.249  1.00  0.00    -0.318 N 
HETATM   23  C14 UNL     1      -3.800   1.499   0.134  1.00  0.00     0.311 C 
HETATM   24  O2  UNL     1      -4.820   0.908  -0.263  1.00  0.00    -0.262 OA
ATOM     25  H1  UNL     1      -1.769   1.460   0.576  1.00  0.00     0.169 HD
BRANCH  23  26
HETATM   26  C15 UNL     1      -3.895   2.932   0.510  1.00  0.00     0.322 C 
HETATM   27  N2  UNL     1      -5.147   3.574   0.387  1.00  0.00    -0.053 NA
HETATM   28  O3  UNL     1      -2.886   3.559   0.928  1.00  0.00    -0.266 OA
ENDBRANCH  23  26
ENDBRANCH   8  22
TORSDOF 4
