REMARK  6 active torsions:
REMARK  status: ('A' for Active; 'I' for Inactive)
REMARK    1  A    between atoms: O1_2  and  C2_3 
REMARK    2  A    between atoms: C7_8  and  N1_9 
REMARK    3  A    between atoms: N1_9  and  C8_11 
REMARK    4  A    between atoms: C13_17  and  N2_18 
REMARK    5  A    between atoms: N2_18  and  N3_20 
REMARK    6  A    between atoms: C14_22  and  C15_23 
ROOT
HETATM    1  C8  UNL     1      -1.562   0.991  -0.136  1.00  0.00     0.120 C 
HETATM    2  C9  UNL     1      -1.646  -0.286   0.378  1.00  0.00     0.060 C 
HETATM    3  C10 UNL     1      -0.651  -1.238   0.618  1.00  0.00    -0.004 C 
HETATM    4  C11 UNL     1      -1.017  -2.377   1.474  1.00  0.00     0.052 C 
HETATM    5  C12 UNL     1       0.630  -1.160   0.101  1.00  0.00     0.224 C 
HETATM    6  O2  UNL     1       1.265  -2.236   0.172  1.00  0.00    -0.284 OA
HETATM    7  C13 UNL     1       1.273  -0.055  -0.471  1.00  0.00     0.186 C 
HETATM    8  N4  UNL     1       0.768   1.159  -0.745  1.00  0.00    -0.280 N 
ATOM      9  H4  UNL     1       1.445   1.826  -1.116  1.00  0.00     0.189 HD
HETATM   10  N5  UNL     1      -0.458   1.636  -0.615  1.00  0.00    -0.284 N 
ATOM     11  H5  UNL     1      -0.596   2.603  -0.908  1.00  0.00     0.188 HD
ENDROOT
BRANCH   7  12
HETATM   12  N2  UNL     1       2.513  -0.237  -0.770  1.00  0.00    -0.281 N 
ATOM     13  H2  UNL     1       2.999   0.556  -1.188  1.00  0.00     0.188 HD
BRANCH  12  14
HETATM   14  N3  UNL     1       3.240  -1.358  -0.592  1.00  0.00    -0.309 N 
HETATM   15  C14 UNL     1       4.430  -1.536  -0.278  1.00  0.00     0.118 C 
ATOM     16  H3  UNL     1       2.717  -2.221  -0.743  1.00  0.00     0.186 HD
BRANCH  15  17
HETATM   17  C15 UNL     1       5.452  -0.540   0.006  1.00  0.00    -0.019 A 
HETATM   18  C16 UNL     1       5.284   0.812  -0.020  1.00  0.00     0.013 A 
HETATM   19  C17 UNL     1       6.303   1.735   0.263  1.00  0.00     0.001 A 
HETATM   20  C18 UNL     1       7.531   1.220   0.582  1.00  0.00     0.000 A 
HETATM   21  C19 UNL     1       7.777  -0.132   0.629  1.00  0.00     0.001 A 
HETATM   22  C20 UNL     1       6.742  -0.978   0.342  1.00  0.00     0.013 A 
ENDBRANCH  15  17
ENDBRANCH  12  14
ENDBRANCH   7  12
BRANCH   1  23
HETATM   23  N1  UNL     1      -2.629   1.713  -0.197  1.00  0.00    -0.339 N 
ATOM     24  H1  UNL     1      -2.558   2.656  -0.579  1.00  0.00     0.167 HD
BRANCH  23  25
HETATM   25  C7  UNL     1      -3.886   1.257   0.240  1.00  0.00     0.067 A 
HETATM   26  C2  UNL     1      -4.736   0.557  -0.623  1.00  0.00     0.094 A 
HETATM   27  C3  UNL     1      -5.947   0.126  -0.179  1.00  0.00     0.039 A 
HETATM   28  C4  UNL     1      -6.342   0.379   1.127  1.00  0.00     0.003 A 
HETATM   29  C5  UNL     1      -5.523   1.065   1.991  1.00  0.00     0.002 A 
HETATM   30  C6  UNL     1      -4.300   1.496   1.530  1.00  0.00     0.032 A 
BRANCH  26  31
HETATM   31  O1  UNL     1      -4.258   0.350  -1.911  1.00  0.00    -0.354 OA
HETATM   32  C1  UNL     1      -5.071  -0.353  -2.832  1.00  0.00     0.210 C 
ENDBRANCH  26  31
ENDBRANCH  23  25
ENDBRANCH   1  23
TORSDOF 6
