REMARK  15 active torsions:
REMARK  status: ('A' for Active; 'I' for Inactive)
REMARK    1  A    between atoms: O1_2  and  C2_3 
REMARK    2  A    between atoms: C2_3  and  O2_4 
REMARK    3  A    between atoms: C2_3  and  C3_6 
REMARK    4  A    between atoms: C3_6  and  C4_7 
REMARK    5  A    between atoms: C3_6  and  N1_13 
REMARK    6  A    between atoms: C4_7  and  O3_8 
REMARK    7  A    between atoms: C4_7  and  C5_10 
REMARK    8  A    between atoms: C5_10  and  O4_11 
REMARK    9  A    between atoms: C6_18  and  C7_19 
REMARK   10  A    between atoms: C7_19  and  N4_20 
REMARK   11  A    between atoms: C9_28  and  C10_29 
REMARK   12  A    between atoms: C11_30  and  O5_31 
REMARK   13  A    between atoms: C12_35  and  N9_36 
REMARK   14  A    between atoms: C13_41  and  N11_42 
REMARK   15  A    between atoms: C14_45  and  O6_46 
ROOT
HETATM    1  N4  UNL     1       0.675  -0.053  -1.953  1.00  0.00    -0.221 N 
HETATM    2  N5  UNL     1       1.247  -1.114  -2.505  1.00  0.00    -0.222 N 
ATOM      3  H5  UNL     1       0.677  -1.770  -3.039  1.00  0.00     0.209 HD
HETATM    4  N6  UNL     1       2.544  -1.337  -2.375  1.00  0.00    -0.116 N 
ATOM      5  H6  UNL     1       2.939  -2.166  -2.818  1.00  0.00     0.207 HD
HETATM    6  C8  UNL     1       3.373  -0.522  -1.685  1.00  0.00     0.711 A 
HETATM    7  N7  UNL     1       4.696  -0.541  -1.420  1.00  0.00    -0.184 N 
ATOM      8  H7  UNL     1       5.360  -1.250  -1.730  1.00  0.00     0.184 HD
HETATM    9  C9  UNL     1       4.984   0.542  -0.673  1.00  0.00     0.119 A 
HETATM   10  C14 UNL     1       3.798   1.211  -0.499  1.00  0.00     0.197 A 
HETATM   11  N12 UNL     1       2.797   0.568  -1.116  1.00  0.00    -0.069 N 
HETATM   12  C15 UNL     1       1.476   0.766  -1.267  1.00  0.00     0.365 A 
HETATM   13  O7  UNL     1       0.948   1.782  -0.734  1.00  0.00    -0.244 OA
ENDROOT
BRANCH   1  14
HETATM   14  C7  UNL     1      -0.734   0.170  -2.108  1.00  0.00     0.217 C 
BRANCH  14  15
HETATM   15  C6  UNL     1      -1.504  -0.464  -1.025  1.00  0.00     0.090 A 
HETATM   16  N3  UNL     1      -1.105  -1.174   0.032  1.00  0.00    -0.285 N 
HETATM   17  N2  UNL     1      -2.120  -1.556   0.757  1.00  0.00    -0.234 N 
ATOM     18  H3  UNL     1      -0.131  -1.390   0.246  1.00  0.00     0.188 HD
HETATM   19  N1  UNL     1      -3.266  -1.101   0.194  1.00  0.00    -0.227 N 
ATOM     20  H2  UNL     1      -2.061  -2.109   1.612  1.00  0.00     0.209 HD
HETATM   21  C16 UNL     1      -2.898  -0.427  -0.904  1.00  0.00     0.165 A 
HETATM   22  N13 UNL     1      -3.715   0.237  -1.840  1.00  0.00    -0.078 NA
BRANCH  19  23
HETATM   23  C3  UNL     1      -4.588  -1.322   0.711  1.00  0.00     0.100 C 
BRANCH  23  24
HETATM   24  C2  UNL     1      -5.577  -0.232   0.524  1.00  0.00     0.308 C 
BRANCH  24  25
HETATM   25  O1  UNL     1      -5.054   1.001   0.778  1.00  0.00    -0.361 OA
HETATM   26  C1  UNL     1      -5.687   1.573   1.871  1.00  0.00     0.205 C 
ENDBRANCH  24  25
BRANCH  24  27
HETATM   27  O2  UNL     1      -6.332  -0.322  -0.660  1.00  0.00    -0.366 OA
ATOM     28  H2  UNL     1      -6.696  -1.181  -0.837  1.00  0.00     0.213 HD
ENDBRANCH  24  27
ENDBRANCH  23  24
BRANCH  23  29
HETATM   29  C4  UNL     1      -5.143  -2.703   0.409  1.00  0.00     0.194 C 
BRANCH  29  30
HETATM   30  O3  UNL     1      -5.586  -2.813  -0.893  1.00  0.00    -0.387 OA
ATOM     31  H3  UNL     1      -5.933  -3.677  -1.082  1.00  0.00     0.210 HD
ENDBRANCH  29  30
BRANCH  29  32
HETATM   32  C5  UNL     1      -6.232  -3.031   1.413  1.00  0.00     0.202 C 
BRANCH  32  33
HETATM   33  O4  UNL     1      -5.726  -2.902   2.684  1.00  0.00    -0.398 OA
ATOM     34  H4  UNL     1      -6.408  -3.107   3.313  1.00  0.00     0.209 HD
ENDBRANCH  32  33
ENDBRANCH  29  32
ENDBRANCH  23  29
ENDBRANCH  19  23
ENDBRANCH  14  15
ENDBRANCH   1  14
BRANCH  10  35
HETATM   35  O6  UNL     1       3.658   2.384   0.215  1.00  0.00    -0.344 OA
ATOM     36  H6  UNL     1       2.837   2.847   0.335  1.00  0.00     0.219 HD
ENDBRANCH  10  35
BRANCH   9  37
HETATM   37  C10 UNL     1       6.261   0.962  -0.141  1.00  0.00     0.091 A 
HETATM   38  C11 UNL     1       6.722   0.560   1.090  1.00  0.00     0.171 A 
HETATM   39  N8  UNL     1       7.938   0.987   1.546  1.00  0.00    -0.170 N 
HETATM   40  C12 UNL     1       8.706   1.804   0.807  1.00  0.00     0.679 A 
ATOM     41  H8  UNL     1       8.267   0.680   2.462  1.00  0.00     0.186 HD
HETATM   42  N10 UNL     1       8.259   2.195  -0.388  1.00  0.00    -0.176 N 
HETATM   43  C13 UNL     1       7.068   1.797  -0.873  1.00  0.00     0.131 A 
ATOM     44  H10 UNL     1       8.839   2.816  -0.953  1.00  0.00     0.186 HD
BRANCH  38  45
HETATM   45  O5  UNL     1       5.926  -0.283   1.848  1.00  0.00    -0.345 OA
ATOM     46  H5  UNL     1       6.245  -0.561   2.699  1.00  0.00     0.219 HD
ENDBRANCH  38  45
BRANCH  40  47
HETATM   47  N9  UNL     1       9.861   2.191   1.276  1.00  0.00    -0.234 N 
ATOM     48  H92 UNL     1      10.203   1.892   2.189  1.00  0.00     0.174 HD
ATOM     49  H91 UNL     1      10.444   2.812   0.715  1.00  0.00     0.174 HD
ENDBRANCH  40  47
BRANCH  43  50
HETATM   50  N11 UNL     1       6.653   2.191  -2.040  1.00  0.00    -0.384 N 
ATOM     51 2H11 UNL     1       5.751   1.889  -2.407  1.00  0.00     0.157 HD
ATOM     52 1H11 UNL     1       7.253   2.811  -2.584  1.00  0.00     0.157 HD
ENDBRANCH  43  50
ENDBRANCH   9  37
TORSDOF 15
