REMARK  16 active torsions:
REMARK  status: ('A' for Active; 'I' for Inactive)
REMARK    1  A    between atoms: N1_1  and  C1_4 
REMARK    2  A    between atoms: C2_10  and  N4_11 
REMARK    3  A    between atoms: C3_16  and  C4_17 
REMARK       I    between atoms: C4_17  and  N7_19 
REMARK    4  A    between atoms: N7_19  and  C5_21 
REMARK    5  A    between atoms: C7_23  and  C8_24 
REMARK    6  A    between atoms: C8_24  and  N8_25 
REMARK    7  A    between atoms: N8_25  and  C9_26 
REMARK    8  A    between atoms: N8_25  and  N14_44 
REMARK    9  A    between atoms: C9_26  and  C10_27 
REMARK   10  A    between atoms: C11_32  and  C12_33 
REMARK   11  A    between atoms: C12_33  and  N11_34 
REMARK   12  A    between atoms: C12_33  and  N12_38 
REMARK   13  A    between atoms: N14_44  and  N15_45 
REMARK   14  A    between atoms: C13_48  and  O3_49 
REMARK   15  A    between atoms: C14_51  and  O4_52 
REMARK   16  A    between atoms: C15_54  and  O5_55 
ROOT
HETATM    1  C5  UNL     1       2.108   1.356  -0.680  1.00  0.00     0.072 A 
HETATM    2  C6  UNL     1       0.914   0.670  -0.759  1.00  0.00     0.043 A 
HETATM    3  C7  UNL     1      -0.346   1.235  -1.018  1.00  0.00    -0.005 A 
HETATM    4  C13 UNL     1      -0.419   2.592  -1.203  1.00  0.00     0.109 A 
HETATM    5  C14 UNL     1       0.746   3.334  -1.128  1.00  0.00     0.135 A 
HETATM    6  C15 UNL     1       1.982   2.737  -0.874  1.00  0.00     0.128 A 
ENDROOT
BRANCH   3   7
HETATM    7  C8  UNL     1      -1.449   0.318  -1.270  1.00  0.00     0.153 C 
BRANCH   7   8
HETATM    8  N8  UNL     1      -2.689   0.421  -0.519  1.00  0.00    -0.203 NA
BRANCH   8   9
HETATM    9  C9  UNL     1      -3.406  -0.810  -0.903  1.00  0.00     0.189 C 
BRANCH   9  10
HETATM   10  C10 UNL     1      -4.553  -1.159  -0.069  1.00  0.00     0.112 A 
HETATM   11  N9  UNL     1      -4.450  -1.581   1.231  1.00  0.00    -0.286 N 
HETATM   12  N10 UNL     1      -5.635  -1.885   1.693  1.00  0.00    -0.284 N 
ATOM     13  H9  UNL     1      -3.580  -1.648   1.759  1.00  0.00     0.188 HD
HETATM   14  C11 UNL     1      -6.527  -1.668   0.714  1.00  0.00     0.156 A 
ATOM     15  H10 UNL     1      -5.844  -2.226   2.631  1.00  0.00     0.188 HD
HETATM   16  N13 UNL     1      -5.858  -1.224  -0.356  1.00  0.00    -0.329 N 
ATOM     17  H13 UNL     1      -6.278  -0.974  -1.251  1.00  0.00     0.168 HD
BRANCH  14  18
HETATM   18  C12 UNL     1      -7.993  -1.898   0.807  1.00  0.00     0.446 C 
BRANCH  18  19
HETATM   19  N11 UNL     1      -8.447  -2.596  -0.373  1.00  0.00    -0.043 N 
ATOM     20 3H11 UNL     1      -8.187  -2.111  -1.232  1.00  0.00     0.277 HD
ATOM     21 2H11 UNL     1      -7.930  -3.461  -0.532  1.00  0.00     0.277 HD
ATOM     22 1H11 UNL     1      -9.453  -2.754  -0.309  1.00  0.00     0.277 HD
ENDBRANCH  18  19
BRANCH  18  23
HETATM   23  N12 UNL     1      -8.659  -0.638   0.882  1.00  0.00    -0.043 N 
ATOM     24 3H12 UNL     1      -8.308  -0.059   1.645  1.00  0.00     0.277 HD
ATOM     25 2H12 UNL     1      -8.411  -0.022   0.108  1.00  0.00     0.277 HD
ATOM     26 1H12 UNL     1      -9.665  -0.796   0.946  1.00  0.00     0.277 HD
ENDBRANCH  18  23
ENDBRANCH  14  18
ENDBRANCH   9  10
ENDBRANCH   8   9
BRANCH   8  27
HETATM   27  N14 UNL     1      -2.493   0.474   0.819  1.00  0.00    -0.055 NA
BRANCH  27  28
HETATM   28  N15 UNL     1      -3.420   1.340   1.437  1.00  0.00    -0.333 N 
ATOM     29 2H15 UNL     1      -4.139   1.853   0.927  1.00  0.00     0.173 HD
ATOM     30 1H15 UNL     1      -3.272   1.380   2.445  1.00  0.00     0.173 HD
ENDBRANCH  27  28
ENDBRANCH   8  27
ENDBRANCH   7   8
ENDBRANCH   3   7
BRANCH   4  31
HETATM   31  O3  UNL     1      -1.648   3.185  -1.466  1.00  0.00    -0.357 OA
ATOM     32  H3  UNL     1      -1.699   4.125  -1.594  1.00  0.00     0.217 HD
ENDBRANCH   4  31
BRANCH   1  33
HETATM   33  N7  UNL     1       3.366   0.797  -0.419  1.00  0.00    -0.318 N 
HETATM   34  C4  UNL     1       3.680  -0.558  -0.504  1.00  0.00     0.293 C 
HETATM   35  O2  UNL     1       2.788  -1.401  -0.864  1.00  0.00    -0.264 OA
ATOM     36  H7  UNL     1       4.113   1.434  -0.144  1.00  0.00     0.169 HD
BRANCH  34  37
HETATM   37  C3  UNL     1       5.001  -1.149  -0.199  1.00  0.00     0.207 A 
HETATM   38  N6  UNL     1       5.223  -2.479  -0.376  1.00  0.00    -0.264 N 
HETATM   39  N5  UNL     1       6.439  -2.748   0.014  1.00  0.00    -0.218 N 
ATOM     40  H6  UNL     1       4.553  -3.152  -0.750  1.00  0.00     0.190 HD
HETATM   41  N4  UNL     1       7.045  -1.596   0.456  1.00  0.00    -0.158 N 
ATOM     42  H5  UNL     1       6.873  -3.671  -0.006  1.00  0.00     0.210 HD
HETATM   43  N16 UNL     1       6.122  -0.676   0.301  1.00  0.00    -0.255 N 
ATOM     44  H16 UNL     1       6.260   0.305   0.543  1.00  0.00     0.191 HD
BRANCH  41  45
HETATM   45  C2  UNL     1       8.365  -1.609   0.979  1.00  0.00     0.214 A 
HETATM   46  C1  UNL     1       9.532  -1.030   0.599  1.00  0.00     0.171 A 
HETATM   47  N2  UNL     1      10.468  -1.434   1.506  1.00  0.00    -0.222 N 
HETATM   48  O1  UNL     1       9.886  -2.217   2.383  1.00  0.00    -0.153 OA
ATOM     49  H2  UNL     1      11.454  -1.172   1.503  1.00  0.00     0.198 HD
HETATM   50  N3  UNL     1       8.642  -2.349   2.104  1.00  0.00    -0.219 N 
ATOM     51  H3  UNL     1       7.970  -2.909   2.629  1.00  0.00     0.198 HD
BRANCH  46  52
HETATM   52  N1  UNL     1       9.698  -0.264  -0.418  1.00  0.00    -0.381 N 
ATOM     53  H12 UNL     1      10.575   0.171  -0.704  1.00  0.00     0.157 HD
ATOM     54  H11 UNL     1       8.998   0.038  -1.096  1.00  0.00     0.157 HD
ENDBRANCH  46  52
ENDBRANCH  41  45
ENDBRANCH  34  37
ENDBRANCH   1  33
BRANCH   5  55
HETATM   55  O4  UNL     1       0.667   4.696  -1.309  1.00  0.00    -0.356 OA
ATOM     56  H4  UNL     1       1.467   5.206  -1.257  1.00  0.00     0.218 HD
ENDBRANCH   5  55
BRANCH   6  57
HETATM   57  O5  UNL     1       3.149   3.464  -0.795  1.00  0.00    -0.356 OA
ATOM     58  H5  UNL     1       3.064   4.401  -0.927  1.00  0.00     0.218 HD
ENDBRANCH   6  57
TORSDOF 16
