REMARK  18 active torsions:
REMARK  status: ('A' for Active; 'I' for Inactive)
REMARK    1  A    between atoms: C2_3  and  O1_4 
REMARK    2  A    between atoms: C2_3  and  C12_34 
REMARK    3  A    between atoms: C2_3  and  N8_39 
REMARK    4  A    between atoms: O1_4  and  C3_5 
REMARK    5  A    between atoms: C3_5  and  O2_6 
REMARK    6  A    between atoms: C3_5  and  N2_8 
REMARK    7  A    between atoms: N2_8  and  O3_9 
REMARK    8  A    between atoms: N2_8  and  C4_11 
REMARK    9  A    between atoms: C4_11  and  C5_12 
REMARK   10  A    between atoms: C7_14  and  C8_15 
REMARK   11  A    between atoms: C9_19  and  N3_20 
REMARK   12  A    between atoms: C10_23  and  N5_24 
REMARK   13  A    between atoms: N6_27  and  N7_28 
REMARK   14  A    between atoms: C11_31  and  O7_32 
REMARK   15  A    between atoms: C12_34  and  O8_35 
REMARK   16  A    between atoms: C12_34  and  O9_37 
REMARK   17  A    between atoms: C14_43  and  N10_44 
REMARK   18  A    between atoms: C15_49  and  N12_50 
ROOT
HETATM    1  N1  UNL     1      -3.336  -1.315   2.972  1.00  0.00    -0.192 NA
HETATM    2  C1  UNL     1      -3.293  -1.171   1.790  1.00  0.00     0.128 C 
HETATM    3  C2  UNL     1      -3.197  -0.919   0.302  1.00  0.00     0.301 C 
ENDROOT
BRANCH   3   4
HETATM    4  O1  UNL     1      -1.955  -1.040  -0.101  1.00  0.00    -0.293 OA
BRANCH   4   5
HETATM    5  C3  UNL     1      -0.812  -0.768   0.538  1.00  0.00     0.399 C 
BRANCH   5   6
HETATM    6  O2  UNL     1      -0.877  -2.129   1.444  1.00  0.00    -0.353 OA
ATOM      7  H2  UNL     1      -0.065  -1.936   1.898  1.00  0.00     0.214 HD
ENDBRANCH   5   6
BRANCH   5   8
HETATM    8  N2  UNL     1       0.375  -1.070  -0.044  1.00  0.00    -0.217 N 
BRANCH   8   9
HETATM    9  O3  UNL     1       0.788  -2.396   0.140  1.00  0.00    -0.284 OA
ATOM     10  H3  UNL     1       1.620  -2.608  -0.268  1.00  0.00     0.245 HD
ENDBRANCH   8   9
BRANCH   8  11
HETATM   11  C4  UNL     1       1.270  -0.443  -0.897  1.00  0.00     0.138 C 
BRANCH  11  12
HETATM   12  C5  UNL     1       1.872   0.768  -0.394  1.00  0.00     0.038 A 
HETATM   13  C6  UNL     1       1.180   1.956  -0.088  1.00  0.00     0.062 A 
HETATM   14  C7  UNL     1       2.092   2.940   0.240  1.00  0.00     0.155 A 
HETATM   15  O6  UNL     1       3.284   2.354   0.126  1.00  0.00    -0.284 OA
HETATM   16  C9  UNL     1       3.194   1.090  -0.238  1.00  0.00     0.185 A 
BRANCH  14  17
HETATM   17  C8  UNL     1       1.943   4.353   0.640  1.00  0.00     0.234 C 
HETATM   18  O4  UNL     1       0.864   4.889   0.738  1.00  0.00    -0.642 OA
HETATM   19  O5  UNL     1       3.137   5.026   0.898  1.00  0.00    -0.642 OA
ENDBRANCH  14  17
BRANCH  16  20
HETATM   20  N3  UNL     1       4.406   0.312  -0.382  1.00  0.00    -0.179 N 
HETATM   21  N4  UNL     1       5.343   0.414  -1.299  1.00  0.00    -0.119 N 
HETATM   22  C10 UNL     1       6.358  -0.398  -1.060  1.00  0.00     0.715 A 
ATOM     23  H4  UNL     1       5.292   1.045  -2.099  1.00  0.00     0.206 HD
HETATM   24  N6  UNL     1       6.094  -1.059   0.047  1.00  0.00    -0.051 N 
HETATM   25  C11 UNL     1       4.856  -0.616   0.477  1.00  0.00     0.283 A 
BRANCH  22  26
HETATM   26  N5  UNL     1       7.409  -0.586  -1.849  1.00  0.00    -0.231 N 
ATOM     27  H52 UNL     1       7.614  -0.074  -2.707  1.00  0.00     0.174 HD
ATOM     28  H51 UNL     1       8.192  -1.213  -1.665  1.00  0.00     0.174 HD
ENDBRANCH  22  26
BRANCH  24  29
HETATM   29  N7  UNL     1       6.933  -1.966   0.716  1.00  0.00    -0.321 N 
ATOM     30  H72 UNL     1       7.846  -2.293   0.399  1.00  0.00     0.178 HD
ATOM     31  H71 UNL     1       6.728  -2.478   1.574  1.00  0.00     0.178 HD
ENDBRANCH  24  29
BRANCH  25  32
HETATM   32  O7  UNL     1       4.233  -1.088   1.613  1.00  0.00    -0.329 OA
ATOM     33  H7  UNL     1       4.552  -1.745   2.221  1.00  0.00     0.221 HD
ENDBRANCH  25  32
ENDBRANCH  16  20
ENDBRANCH  11  12
ENDBRANCH   8  11
ENDBRANCH   5   8
ENDBRANCH   4   5
ENDBRANCH   3   4
BRANCH   3  34
HETATM   34  C12 UNL     1      -3.848  -2.237  -0.356  1.00  0.00     0.327 C 
BRANCH  34  35
HETATM   35  O8  UNL     1      -3.487  -2.091  -1.746  1.00  0.00    -0.366 OA
ATOM     36  H8  UNL     1      -3.871  -2.868  -2.134  1.00  0.00     0.212 HD
ENDBRANCH  34  35
BRANCH  34  37
HETATM   37  O9  UNL     1      -3.259  -3.344   0.169  1.00  0.00    -0.366 OA
ATOM     38  H9  UNL     1      -3.643  -4.121  -0.219  1.00  0.00     0.212 HD
ENDBRANCH  34  37
ENDBRANCH   3  34
BRANCH   3  39
HETATM   39  N8  UNL     1      -4.060   0.118   0.016  1.00  0.00    -0.126 N 
HETATM   40  C13 UNL     1      -3.819   1.277  -0.659  1.00  0.00     0.223 A 
HETATM   41  N9  UNL     1      -4.729   2.219  -0.887  1.00  0.00    -0.187 N 
HETATM   42  C14 UNL     1      -5.975   2.111  -0.464  1.00  0.00     0.691 A 
ATOM     43  H9  UNL     1      -4.455   3.053  -1.406  1.00  0.00     0.185 HD
HETATM   44  N11 UNL     1      -6.298   0.997   0.226  1.00  0.00    -0.022 N 
HETATM   45  C15 UNL     1      -5.373   0.052   0.447  1.00  0.00     0.697 A 
ATOM     46  H11 UNL     1      -7.247   0.874   0.580  1.00  0.00     0.203 HD
BRANCH  42  47
HETATM   47  N10 UNL     1      -6.921   2.962  -0.646  1.00  0.00    -0.234 N 
ATOM     48 2H10 UNL     1      -6.677   3.804  -1.167  1.00  0.00     0.174 HD
ATOM     49 1H10 UNL     1      -7.884   2.879  -0.319  1.00  0.00     0.174 HD
ENDBRANCH  42  47
BRANCH  45  50
HETATM   50  N12 UNL     1      -5.747  -0.956   1.118  1.00  0.00    -0.234 N 
ATOM     51 2H12 UNL     1      -5.043  -1.675   1.286  1.00  0.00     0.174 HD
ATOM     52 1H12 UNL     1      -6.715  -1.005   1.436  1.00  0.00     0.174 HD
ENDBRANCH  45  50
ENDBRANCH   3  39
TORSDOF 18
