REMARK  14 active torsions:
REMARK  status: ('A' for Active; 'I' for Inactive)
REMARK    1  A    between atoms: C2_2  and  C3_4 
REMARK    2  A    between atoms: C6_11  and  N3_12 
REMARK    3  A    between atoms: N3_12  and  S1_14 
REMARK    4  A    between atoms: S1_14  and  C7_17 
REMARK    5  A    between atoms: C9_21  and  N5_22 
REMARK    6  A    between atoms: C10_27  and  N7_28 
REMARK    7  A    between atoms: N9_34  and  C12_35 
REMARK    8  A    between atoms: C12_35  and  C13_36 
REMARK    9  A    between atoms: C13_36  and  C14_38 
REMARK   10  A    between atoms: C14_38  and  C15_39 
REMARK   11  A    between atoms: C15_39  and  C16_40 
REMARK   12  A    between atoms: C16_40  and  O5_41 
REMARK   13  A    between atoms: N10_43  and  O6_45 
REMARK   14  A    between atoms: C17_47  and  O7_48 
ROOT
HETATM    1  C7  UNL     1       0.457  -0.192  -2.176  1.00  0.00     0.229 A 
HETATM    2  N4  UNL     1       0.217  -0.676  -3.407  1.00  0.00    -0.325 N 
ATOM      3  H4  UNL     1      -0.630  -0.520  -3.954  1.00  0.00     0.168 HD
HETATM    4  C8  UNL     1       1.281  -1.400  -3.797  1.00  0.00     0.124 A 
HETATM    5  C9  UNL     1       1.564  -2.106  -4.945  1.00  0.00     0.145 A 
HETATM    6  N6  UNL     1       2.739  -2.742  -5.039  1.00  0.00    -0.175 N 
ATOM      7  H6  UNL     1       2.961  -3.269  -5.884  1.00  0.00     0.186 HD
HETATM    8  C10 UNL     1       3.643  -2.693  -4.016  1.00  0.00     0.679 A 
HETATM    9  N8  UNL     1       3.347  -1.998  -2.907  1.00  0.00    -0.174 N 
ATOM     10  H8  UNL     1       4.034  -1.971  -2.154  1.00  0.00     0.186 HD
HETATM   11  C11 UNL     1       2.182  -1.331  -2.739  1.00  0.00     0.156 A 
HETATM   12  N9  UNL     1       1.664  -0.584  -1.744  1.00  0.00    -0.299 N 
ENDROOT
BRANCH   1  13
HETATM   13  S1  UNL     1      -0.680   0.805  -1.293  1.00  0.00     0.296 S 
HETATM   14  O2  UNL     1      -1.473   1.591  -2.295  1.00  0.00    -0.197 OA
HETATM   15  O3  UNL     1       0.041   1.801  -0.427  1.00  0.00    -0.197 OA
BRANCH  13  16
HETATM   16  N3  UNL     1      -1.733  -0.142  -0.344  1.00  0.00    -0.260 N 
ATOM     17  H3  UNL     1      -1.597  -1.153  -0.358  1.00  0.00     0.180 HD
BRANCH  16  18
HETATM   18  C6  UNL     1      -2.689   0.320   0.391  1.00  0.00     0.164 A 
HETATM   19  N2  UNL     1      -2.949   1.633   0.477  1.00  0.00    -0.282 N 
HETATM   20  N1  UNL     1      -3.930   2.061   1.239  1.00  0.00    -0.303 N 
ATOM     21  H2  UNL     1      -2.385   2.300  -0.050  1.00  0.00     0.188 HD
HETATM   22  C4  UNL     1      -4.714   1.226   1.963  1.00  0.00     0.038 A 
ATOM     23  H1  UNL     1      -4.109   3.064   1.288  1.00  0.00     0.186 HD
HETATM   24  C3  UNL     1      -4.497  -0.130   1.917  1.00  0.00     0.070 A 
HETATM   25  C5  UNL     1      -5.789   1.800   2.790  1.00  0.00     0.071 C 
HETATM   26  C17 UNL     1      -3.464  -0.588   1.115  1.00  0.00     0.128 A 
BRANCH  24  27
HETATM   27  C2  UNL     1      -5.328  -1.020   2.685  1.00  0.00     0.160 C 
HETATM   28  C1  UNL     1      -5.161  -2.517   2.693  1.00  0.00     0.097 C 
HETATM   29  O1  UNL     1      -6.274  -0.613   3.421  1.00  0.00    -0.293 OA
ENDBRANCH  24  27
BRANCH  26  30
HETATM   30  O7  UNL     1      -3.216  -1.949   1.043  1.00  0.00    -0.356 OA
ATOM     31  H7  UNL     1      -2.508  -2.263   0.493  1.00  0.00     0.218 HD
ENDBRANCH  26  30
ENDBRANCH  16  18
ENDBRANCH  13  16
ENDBRANCH   1  13
BRANCH  12  32
HETATM   32  C12 UNL     1       2.303  -0.288  -0.493  1.00  0.00     0.211 C 
BRANCH  32  33
HETATM   33  C13 UNL     1       3.124   0.938  -0.513  1.00  0.00     0.145 C 
HETATM   34  O4  UNL     1       3.259   1.667  -1.492  1.00  0.00    -0.296 OA
BRANCH  33  35
HETATM   35  C14 UNL     1       3.832   1.311   0.744  1.00  0.00     0.088 C 
BRANCH  35  36
HETATM   36  C15 UNL     1       3.061   2.345   1.533  1.00  0.00     0.093 C 
BRANCH  36  37
HETATM   37  C16 UNL     1       3.780   2.697   2.766  1.00  0.00     0.135 C 
HETATM   38  N10 UNL     1       3.335   2.541   3.958  1.00  0.00    -0.251 N 
ATOM     39  H10 UNL     1       3.923   2.821   4.743  1.00  0.00     0.196 HD
BRANCH  37  40
HETATM   40  O5  UNL     1       5.064   3.250   2.627  1.00  0.00    -0.348 OA
ATOM     41  H5  UNL     1       5.529   3.477   3.424  1.00  0.00     0.219 HD
ENDBRANCH  37  40
BRANCH  38  42
HETATM   42  O6  UNL     1       2.095   2.011   4.216  1.00  0.00    -0.288 OA
ATOM     43  H6  UNL     1       1.765   1.895   5.099  1.00  0.00     0.244 HD
ENDBRANCH  38  42
ENDBRANCH  36  37
ENDBRANCH  35  36
ENDBRANCH  33  35
ENDBRANCH  32  33
ENDBRANCH  12  32
BRANCH   5  44
HETATM   44  N5  UNL     1       0.745  -2.177  -5.927  1.00  0.00    -0.383 N 
ATOM     45  H52 UNL     1      -0.150  -1.693  -5.855  1.00  0.00     0.157 HD
ATOM     46  H51 UNL     1       0.955  -2.700  -6.777  1.00  0.00     0.157 HD
ENDBRANCH   5  44
BRANCH   8  47
HETATM   47  N7  UNL     1       4.767  -3.315  -4.131  1.00  0.00    -0.234 N 
ATOM     48  H72 UNL     1       4.992  -3.843  -4.974  1.00  0.00     0.174 HD
ATOM     49  H71 UNL     1       5.442  -3.278  -3.367  1.00  0.00     0.174 HD
ENDBRANCH   8  47
TORSDOF 14
