REMARK  3 active torsions:
REMARK  status: ('A' for Active; 'I' for Inactive)
REMARK    1  A    between atoms: C5_5  and  C6_6 
REMARK    2  A    between atoms: C12_16  and  S1_17 
REMARK    3  A    between atoms: S1_17  and  C13_18 
ROOT
HETATM    1  C6  UNL     1      -2.884  -0.170   1.011  1.00  0.00     0.337 C 
HETATM    2  O1  UNL     1      -2.347  -1.361   0.773  1.00  0.00    -0.199 OA
HETATM    3  O2  UNL     1      -1.373  -1.922   1.408  1.00  0.00    -0.197 OA
HETATM    4  C7  UNL     1      -0.186  -1.483   0.860  1.00  0.00     0.205 C 
HETATM    5  C8  UNL     1      -0.465  -1.450  -0.600  1.00  0.00     0.083 C 
HETATM    6  O3  UNL     1       1.026  -1.982   0.984  1.00  0.00    -0.323 OA
HETATM    7  C9  UNL     1       2.008  -1.051   1.131  1.00  0.00     0.173 C 
HETATM    8  C10 UNL     1       3.101  -1.663   1.920  1.00  0.00     0.102 C 
HETATM    9  N1  UNL     1       3.951  -2.132   2.551  1.00  0.00    -0.194 NA
HETATM   10  C11 UNL     1       2.553  -0.312  -0.001  1.00  0.00     0.049 C 
HETATM   11  C12 UNL     1       2.327   0.804  -0.731  1.00  0.00     0.056 C 
HETATM   12  C19 UNL     1       1.177   1.757  -0.686  1.00  0.00     0.191 C 
HETATM   13  O4  UNL     1       1.464   2.864  -1.115  1.00  0.00    -0.287 OA
HETATM   14  C20 UNL     1      -0.209   1.574  -0.221  1.00  0.00     0.089 C 
HETATM   15  C21 UNL     1      -0.656   0.792   0.701  1.00  0.00     0.063 C 
HETATM   16  O5  UNL     1      -2.020   1.003   0.722  1.00  0.00    -0.317 OA
HETATM   17  C22 UNL     1      -0.022  -0.188   1.630  1.00  0.00     0.112 C 
HETATM   18  C23 UNL     1       1.363   0.026   2.020  1.00  0.00     0.075 C 
ENDROOT
BRANCH  11  19
HETATM   19  S1  UNL     1       3.459   1.078  -2.000  1.00  0.00    -0.087 SA
BRANCH  19  20
HETATM   20  C13 UNL     1       5.119   0.620  -1.585  1.00  0.00     0.005 A 
HETATM   21  C14 UNL     1       5.607   0.395  -0.318  1.00  0.00     0.019 A 
HETATM   22  C15 UNL     1       6.909   0.009  -0.039  1.00  0.00     0.001 A 
HETATM   23  C16 UNL     1       7.778  -0.161  -1.081  1.00  0.00     0.000 A 
HETATM   24  C17 UNL     1       7.358   0.049  -2.375  1.00  0.00     0.001 A 
HETATM   25  C18 UNL     1       6.069   0.426  -2.605  1.00  0.00     0.019 A 
ENDBRANCH  19  20
ENDBRANCH  11  19
BRANCH   1  26
HETATM   26  C5  UNL     1      -4.132   0.016   0.274  1.00  0.00    -0.001 A 
HETATM   27  C4  UNL     1      -5.235   0.565   0.925  1.00  0.00     0.013 A 
HETATM   28  C3  UNL     1      -6.437   0.766   0.294  1.00  0.00     0.007 A 
HETATM   29  C2  UNL     1      -6.586   0.422  -1.030  1.00  0.00    -0.062 A 
HETATM   30  C1  UNL     1      -7.883   0.637  -1.715  1.00  0.00     0.048 C 
HETATM   31  C25 UNL     1      -5.504  -0.121  -1.680  1.00  0.00     0.007 A 
HETATM   32  C24 UNL     1      -4.298  -0.320  -1.038  1.00  0.00     0.013 A 
ENDBRANCH   1  26
TORSDOF 3
