REMARK  7 active torsions:
REMARK  status: ('A' for Active; 'I' for Inactive)
REMARK    1  A    between atoms: C5_5  and  C7_7 
REMARK    2  A    between atoms: N1_13  and  C10_14 
REMARK    3  A    between atoms: C10_14  and  O1_15 
REMARK    4  A    between atoms: C10_14  and  C11_17 
REMARK    5  A    between atoms: C11_17  and  C12_18 
REMARK    6  A    between atoms: C12_18  and  C13_19 
REMARK    7  A    between atoms: C16_22  and  N2_23 
ROOT
HETATM    1  C7  UNL     1      -0.654  -0.415  -1.024  1.00  0.00     0.105 C 
HETATM    2  C8  UNL     1      -0.327   0.418  -2.277  1.00  0.00     0.053 C 
HETATM    3  S1  UNL     1      -1.000  -2.069  -1.768  1.00  0.00    -0.057 SA
HETATM    4  S2  UNL     1       0.306  -3.171  -0.439  1.00  0.00    -0.025 SA
HETATM    5  C9  UNL     1       0.620  -1.678   0.537  1.00  0.00     0.154 C 
HETATM    6  S3  UNL     1       0.852  -1.754   2.172  1.00  0.00    -0.051 SA
HETATM    7  N1  UNL     1       0.578  -0.521  -0.283  1.00  0.00    -0.292 N 
ENDROOT
BRANCH   7   8
HETATM    8  C10 UNL     1       1.599   0.462  -0.264  1.00  0.00     0.145 C 
BRANCH   8   9
HETATM    9  O1  UNL     1       1.281   1.647  -0.758  1.00  0.00    -0.346 OA
ATOM     10  H1  UNL     1       1.965   2.306  -0.745  1.00  0.00     0.219 HD
ENDBRANCH   8   9
BRANCH   8  11
HETATM   11  C11 UNL     1       2.946   0.448   0.185  1.00  0.00     0.059 C 
BRANCH  11  12
HETATM   12  C12 UNL     1       3.654  -0.538   0.641  1.00  0.00     0.041 C 
BRANCH  12  13
HETATM   13  C13 UNL     1       5.059  -0.338   1.069  1.00  0.00     0.078 A 
HETATM   14  C14 UNL     1       5.888  -1.308   1.563  1.00  0.00     0.042 A 
HETATM   15  C15 UNL     1       7.087  -0.679   1.827  1.00  0.00     0.065 A 
HETATM   16  C16 UNL     1       6.867   0.651   1.458  1.00  0.00     0.215 A 
HETATM   17  O4  UNL     1       5.658   0.817   1.015  1.00  0.00    -0.289 OA
BRANCH  16  18
HETATM   18  N2  UNL     1       7.861   1.650   1.571  1.00  0.00    -0.090 N 
HETATM   19  O2  UNL     1       7.593   2.808   1.224  1.00  0.00    -0.530 OA
HETATM   20  O3  UNL     1       9.122   1.397   2.051  1.00  0.00    -0.530 OA
ENDBRANCH  16  18
ENDBRANCH  12  13
ENDBRANCH  11  12
ENDBRANCH   8  11
ENDBRANCH   7   8
BRANCH   1  21
HETATM   21  C5  UNL     1      -1.855   0.129  -0.387  1.00  0.00     0.009 C 
HETATM   22  C4  UNL     1      -2.913   0.209  -1.524  1.00  0.00     0.014 C 
HETATM   23  C3  UNL     1      -4.165   0.910  -1.010  1.00  0.00     0.005 C 
HETATM   24  C2  UNL     1      -4.714   0.139   0.170  1.00  0.00    -0.017 C 
HETATM   25  C1  UNL     1      -6.158  -0.286  -0.070  1.00  0.00     0.010 C 
HETATM   26  C18 UNL     1      -3.922  -1.094   0.445  1.00  0.00     0.025 C 
HETATM   27  C17 UNL     1      -2.474  -0.691   0.722  1.00  0.00     0.094 C 
HETATM   28 CL1  UNL     1      -2.542   0.255   2.230  1.00  0.00    -0.124 Cl
HETATM   29  C6  UNL     1      -1.679   1.522   0.135  1.00  0.00     0.020 C 
ENDBRANCH   1  21
TORSDOF 7
