REMARK  6 active torsions:
REMARK  status: ('A' for Active; 'I' for Inactive)
REMARK    1  A    between atoms: N1_2  and  C2_3 
REMARK    2  A    between atoms: C2_3  and  C3_4 
REMARK    3  A    between atoms: C3_4  and  N2_5 
REMARK       I    between atoms: N2_5  and  C4_7 
REMARK    4  A    between atoms: C4_7  and  C5_9 
REMARK    5  A    between atoms: C5_9  and  C6_11 
REMARK    6  A    between atoms: N3_14  and  C9_15 
ROOT
HETATM    1  C6  UNL     1      -0.544  -0.200   1.459  1.00  0.00     0.158 C 
HETATM    2  C7  UNL     1      -0.840   0.467   0.151  1.00  0.00     0.054 C 
HETATM    3  C8  UNL     1      -1.998  -0.180  -0.594  1.00  0.00     0.131 C 
HETATM    4  N3  UNL     1      -3.197  -0.199   0.254  1.00  0.00    -0.318 N 
HETATM    5  C18 UNL     1      -2.978  -0.504   1.621  1.00  0.00     0.363 C 
HETATM    6  O2  UNL     1      -3.909  -0.916   2.350  1.00  0.00    -0.238 OA
HETATM    7  O3  UNL     1      -1.723  -0.360   2.214  1.00  0.00    -0.297 OA
ENDROOT
BRANCH   1   8
HETATM    8  C5  UNL     1       0.101  -1.556   1.304  1.00  0.00     0.179 C 
HETATM    9 BR1  UNL     1       0.356  -2.257   3.107  1.00  0.00    -0.078 Br
BRANCH   8  10
HETATM   10  C4  UNL     1       1.382  -1.499   0.589  1.00  0.00     0.234 C 
HETATM   11  N2  UNL     1       2.496  -0.742   1.019  1.00  0.00    -0.358 N 
ATOM     12  H2  UNL     1       2.406  -0.201   1.879  1.00  0.00     0.162 HD
HETATM   13  O1  UNL     1       1.514  -2.159  -0.473  1.00  0.00    -0.272 OA
BRANCH  11  14
HETATM   14  C3  UNL     1       3.749  -0.690   0.315  1.00  0.00     0.150 C 
BRANCH  14  15
HETATM   15  C2  UNL     1       4.728   0.190   1.011  1.00  0.00     0.256 C 
BRANCH  15  16
HETATM   16  N1  UNL     1       5.996   0.305   0.392  1.00  0.00    -0.069 N 
HETATM   17  C1  UNL     1       7.023   0.314   1.425  1.00  0.00     0.272 C 
HETATM   18  C19 UNL     1       6.324  -0.776  -0.513  1.00  0.00     0.237 C 
HETATM   19  C20 UNL     1       7.622  -0.229  -1.126  1.00  0.00     0.029 C 
HETATM   20  C21 UNL     1       7.175   1.174  -1.479  1.00  0.00     0.029 C 
HETATM   21  C22 UNL     1       6.179   1.506  -0.392  1.00  0.00     0.237 C 
ENDBRANCH  15  16
ENDBRANCH  14  15
ENDBRANCH  11  14
ENDBRANCH   8  10
ENDBRANCH   1   8
BRANCH   4  22
HETATM   22  C9  UNL     1      -4.506   0.063  -0.213  1.00  0.00     0.042 C 
HETATM   23  C10 UNL     1      -4.535   0.381  -1.717  1.00  0.00     0.036 C 
HETATM   24  C11 UNL     1      -5.992   0.055  -2.016  1.00  0.00    -0.011 C 
HETATM   25  C12 UNL     1      -6.904   0.989  -1.270  1.00  0.00     0.009 C 
HETATM   26  C16 UNL     1      -6.043  -1.365  -1.430  1.00  0.00     0.012 C 
HETATM   27  C13 UNL     1      -6.621   0.999   0.211  1.00  0.00    -0.011 C 
HETATM   28  C14 UNL     1      -6.714  -0.428   0.689  1.00  0.00     0.012 C 
HETATM   29  C17 UNL     1      -5.147   1.296   0.440  1.00  0.00     0.036 C 
HETATM   30  C15 UNL     1      -5.507  -1.048  -0.022  1.00  0.00     0.015 C 
ENDBRANCH   4  22
TORSDOF 6
