REMARK  6 active torsions:
REMARK  status: ('A' for Active; 'I' for Inactive)
REMARK    1  A    between atoms: C1_2  and  C2_3 
REMARK       I    between atoms: C1_2  and  N1_15 
REMARK    2  A    between atoms: C2_3  and  C3_4 
REMARK    3  A    between atoms: N1_15  and  C13_17 
REMARK    4  A    between atoms: C14_18  and  O2_19 
REMARK    5  A    between atoms: C14_18  and  N2_21 
REMARK       I    between atoms: N3_24  and  C17_25 
REMARK    6  A    between atoms: C17_25  and  C18_27 
ROOT
HETATM    1  O1  UNL     1      -2.076  -2.076  -0.832  1.00  0.00    -0.273 OA
HETATM    2  C1  UNL     1      -1.505  -1.115  -0.345  1.00  0.00     0.222 C 
HETATM    3  N1  UNL     1      -0.037  -1.165  -0.335  1.00  0.00    -0.333 N 
ATOM      4  H1  UNL     1       0.536  -0.414   0.049  1.00  0.00     0.168 HD
ENDROOT
BRANCH   3   5
HETATM    5  C13 UNL     1       0.517  -2.330  -0.896  1.00  0.00     0.146 C 
HETATM    6  C14 UNL     1       1.940  -2.546  -0.948  1.00  0.00     0.153 C 
BRANCH   6   7
HETATM    7  O2  UNL     1       2.252  -3.717  -1.566  1.00  0.00    -0.345 OA
ATOM      8  H2  UNL     1       3.191  -3.859  -1.600  1.00  0.00     0.219 HD
ENDBRANCH   6   7
BRANCH   6   9
HETATM    9  N2  UNL     1       3.006  -1.813  -0.503  1.00  0.00    -0.358 N 
HETATM   10  C15 UNL     1       4.375  -2.368  -0.806  1.00  0.00     0.145 C 
HETATM   11  C16 UNL     1       5.190  -1.196  -1.340  1.00  0.00     0.145 C 
HETATM   12  N3  UNL     1       5.376  -0.284  -0.201  1.00  0.00    -0.349 N 
HETATM   13  C17 UNL     1       6.543   0.531  -0.142  1.00  0.00     0.224 C 
HETATM   14  C21 UNL     1       4.368  -0.254   0.811  1.00  0.00     0.145 C 
HETATM   15  O3  UNL     1       7.394   0.478  -1.064  1.00  0.00    -0.273 OA
HETATM   16  C22 UNL     1       2.993  -0.594   0.230  1.00  0.00     0.145 C 
BRANCH  13  17
HETATM   17  C18 UNL     1       6.768   1.441   0.992  1.00  0.00     0.078 A 
HETATM   18  C19 UNL     1       7.300   2.797   0.587  1.00  0.00     0.015 A 
HETATM   19  C20 UNL     1       8.180   1.796   1.302  1.00  0.00     0.015 A 
ENDBRANCH  13  17
ENDBRANCH   6   9
ENDBRANCH   3   5
BRANCH   2  20
HETATM   20  C2  UNL     1      -2.078   0.095   0.239  1.00  0.00     0.112 C 
BRANCH  20  21
HETATM   21  C3  UNL     1      -3.543   0.214   0.251  1.00  0.00    -0.030 C 
HETATM   22  C4  UNL     1      -4.278  -0.858   0.998  1.00  0.00     0.014 C 
HETATM   23  C5  UNL     1      -5.746  -0.511   1.087  1.00  0.00    -0.012 C 
HETATM   24  C6  UNL     1      -6.349  -0.507  -0.291  1.00  0.00     0.009 C 
HETATM   25  C10 UNL     1      -5.981   0.827   1.740  1.00  0.00     0.025 C 
HETATM   26  C7  UNL     1      -5.617   0.520  -1.115  1.00  0.00    -0.012 C 
HETATM   27  C8  UNL     1      -5.852   1.877  -0.534  1.00  0.00     0.025 C 
HETATM   28  C12 UNL     1      -4.123   0.250  -1.149  1.00  0.00     0.014 C 
HETATM   29  C9  UNL     1      -5.325   1.875   0.882  1.00  0.00     0.019 C 
HETATM   30 BR1  UNL     1      -5.571   3.622   1.675  1.00  0.00    -0.085 Br
HETATM   31  C11 UNL     1      -3.860   1.598   0.847  1.00  0.00     0.031 C 
ENDBRANCH  20  21
ENDBRANCH   2  20
TORSDOF 6
