REMARK  5 active torsions:
REMARK  status: ('A' for Active; 'I' for Inactive)
REMARK    1  A    between atoms: C7_8  and  C8_9 
REMARK    2  A    between atoms: C8_9  and  S1_10 
REMARK    3  A    between atoms: S1_10  and  C9_12 
REMARK    4  A    between atoms: C9_12  and  C10_13 
REMARK       I    between atoms: C10_13  and  N2_15 
REMARK    5  A    between atoms: N2_15  and  C11_17 
ROOT
HETATM    1  C9  UNL     1       0.239   1.390   0.417  1.00  0.00     0.211 C 
ENDROOT
BRANCH   1   2
HETATM    2  S1  UNL     1       1.717   0.486   0.026  1.00  0.00     0.029 S 
HETATM    3  O1  UNL     1       1.760   0.017  -1.567  1.00  0.00    -0.257 OA
BRANCH   2   4
HETATM    4  C8  UNL     1       3.093   1.479   0.499  1.00  0.00     0.174 C 
BRANCH   4   5
HETATM    5  C7  UNL     1       4.412   0.801   0.332  1.00  0.00     0.123 C 
HETATM    6  N1  UNL     1       4.821  -0.385   0.988  1.00  0.00    -0.030 N 
HETATM    7  C1  UNL     1       4.151  -0.489   2.288  1.00  0.00     0.280 C 
HETATM    8  C2  UNL     1       4.486  -1.584   0.258  1.00  0.00     0.245 C 
HETATM    9  C21 UNL     1       6.251  -0.223   1.135  1.00  0.00     0.274 C 
HETATM   10  C3  UNL     1       5.161  -1.690  -1.068  1.00  0.00     0.029 C 
HETATM   11  C4  UNL     1       6.465  -0.961  -1.162  1.00  0.00     0.013 C 
HETATM   12  C5  UNL     1       6.563   0.242  -0.300  1.00  0.00     0.052 C 
HETATM   13  C6  UNL     1       5.418   1.198  -0.439  1.00  0.00     0.015 C 
HETATM   14 BR1  UNL     1       7.065  -1.902   1.533  1.00  0.00    -0.059 Br
ENDBRANCH   4   5
ENDBRANCH   2   4
ENDBRANCH   1   2
BRANCH   1  15
HETATM   15  C10 UNL     1      -0.984   0.629   0.052  1.00  0.00     0.229 C 
HETATM   16  O2  UNL     1      -0.923  -0.511  -0.468  1.00  0.00    -0.273 OA
HETATM   17  N2  UNL     1      -2.242   1.223   0.304  1.00  0.00    -0.351 N 
ATOM     18  H2  UNL     1      -2.244   2.151   0.727  1.00  0.00     0.163 HD
BRANCH  17  19
HETATM   19  C11 UNL     1      -3.527   0.626   0.013  1.00  0.00     0.034 C 
HETATM   20  C12 UNL     1      -4.645   1.566   0.427  1.00  0.00     0.035 C 
HETATM   21  C13 UNL     1      -5.973   0.925   0.200  1.00  0.00    -0.012 C 
HETATM   22  C14 UNL     1      -6.125   0.592  -1.256  1.00  0.00     0.009 C 
HETATM   23  C18 UNL     1      -6.085  -0.285   1.091  1.00  0.00     0.009 C 
HETATM   24  C15 UNL     1      -5.046  -0.368  -1.646  1.00  0.00    -0.012 C 
HETATM   25  C16 UNL     1      -5.203  -1.617  -0.824  1.00  0.00     0.009 C 
HETATM   26  C20 UNL     1      -3.703   0.301  -1.433  1.00  0.00     0.035 C 
HETATM   27  C17 UNL     1      -5.037  -1.265   0.641  1.00  0.00    -0.012 C 
HETATM   28  C19 UNL     1      -3.679  -0.620   0.836  1.00  0.00     0.035 C 
ENDBRANCH  17  19
ENDBRANCH   1  15
TORSDOF 5
