REMARK  5 active torsions:
REMARK  status: ('A' for Active; 'I' for Inactive)
REMARK    1  A    between atoms: C1_2  and  C2_3 
REMARK       I    between atoms: C1_2  and  N1_5 
REMARK    2  A    between atoms: N1_5  and  C3_7 
REMARK    3  A    between atoms: C3_7  and  C4_8 
REMARK    4  A    between atoms: C4_8  and  C5_9 
REMARK       I    between atoms: C5_9  and  N2_11 
REMARK       I    between atoms: N3_14  and  C8_15 
REMARK    5  A    between atoms: C8_15  and  C9_17 
ROOT
HETATM    1  C5  UNL     1      -1.531   0.519   1.301  1.00  0.00     0.233 C 
HETATM    2  O2  UNL     1      -1.579  -0.172   2.389  1.00  0.00    -0.272 OA
HETATM    3  N2  UNL     1      -0.333   1.139   0.965  1.00  0.00    -0.348 N 
HETATM    4  C6  UNL     1       0.796   0.915   1.913  1.00  0.00     0.145 C 
HETATM    5  C7  UNL     1       1.734  -0.024   1.141  1.00  0.00     0.145 C 
HETATM    6  N3  UNL     1       2.162   0.705  -0.038  1.00  0.00    -0.349 N 
HETATM    7  C8  UNL     1       3.515   0.591  -0.486  1.00  0.00     0.224 C 
HETATM    8  O3  UNL     1       3.948   1.204  -1.496  1.00  0.00    -0.273 OA
HETATM    9  C15 UNL     1       1.303   1.556  -0.813  1.00  0.00     0.145 C 
HETATM   10  C16 UNL     1       0.027   1.971  -0.125  1.00  0.00     0.145 C 
ENDROOT
BRANCH   1  11
HETATM   11  C4  UNL     1      -2.827   0.549   0.541  1.00  0.00     0.073 C 
HETATM   12  C17 UNL     1      -2.451   0.206  -0.909  1.00  0.00     0.025 C 
HETATM   13  C18 UNL     1      -3.275  -0.949  -1.402  1.00  0.00     0.002 C 
HETATM   14  C19 UNL     1      -3.223  -2.198  -0.628  1.00  0.00     0.000 C 
HETATM   15  C20 UNL     1      -3.194  -1.900   0.844  1.00  0.00     0.002 C 
HETATM   16  C21 UNL     1      -3.732  -0.490   1.054  1.00  0.00     0.025 C 
BRANCH  11  17
HETATM   17  C3  UNL     1      -3.382   1.916   0.615  1.00  0.00     0.083 C 
BRANCH  17  18
HETATM   18  N1  UNL     1      -4.620   2.229   0.019  1.00  0.00    -0.339 N 
HETATM   19  C1  UNL     1      -5.929   1.876   0.384  1.00  0.00     0.231 C 
HETATM   20  O1  UNL     1      -6.303   1.208   1.363  1.00  0.00    -0.272 OA
ATOM     21  H1  UNL     1      -4.554   2.809  -0.817  1.00  0.00     0.167 HD
BRANCH  19  22
HETATM   22  C2  UNL     1      -7.065   2.355  -0.511  1.00  0.00     0.188 C 
HETATM   23 BR1  UNL     1      -8.762   1.756   0.180  1.00  0.00    -0.087 Br
ENDBRANCH  19  22
ENDBRANCH  17  18
ENDBRANCH  11  17
ENDBRANCH   1  11
BRANCH   7  24
HETATM   24  C9  UNL     1       4.502  -0.274   0.227  1.00  0.00     0.078 C 
HETATM   25  C10 UNL     1       5.879  -0.165  -0.390  1.00  0.00     0.014 C 
HETATM   26  C11 UNL     1       6.739  -1.223   0.296  1.00  0.00     0.001 C 
HETATM   27  C12 UNL     1       6.414  -2.538  -0.377  1.00  0.00     0.000 C 
HETATM   28  C13 UNL     1       4.985  -2.519  -0.807  1.00  0.00     0.001 C 
HETATM   29  C14 UNL     1       4.072  -1.743   0.107  1.00  0.00     0.014 C 
ENDBRANCH   7  24
TORSDOF 5
