REMARK  5 active torsions:
REMARK  status: ('A' for Active; 'I' for Inactive)
REMARK    1  A    between atoms: C2_2  and  C3_4 
REMARK    2  A    between atoms: N1_7  and  S1_8 
REMARK    3  A    between atoms: S1_8  and  N2_11 
REMARK    4  A    between atoms: C9_15  and  C10_16 
REMARK       I    between atoms: C10_16  and  N3_18 
REMARK    5  A    between atoms: N3_18  and  C11_20 
ROOT
HETATM    1  N2  UNL     1       0.969   1.134   0.264  1.00  0.00    -0.184 NA
HETATM    2  C6  UNL     1       1.024   1.929   1.448  1.00  0.00     0.109 C 
HETATM    3  C7  UNL     1      -0.195   2.830   1.451  1.00  0.00     0.018 C 
HETATM    4  C8  UNL     1      -0.568   2.854  -0.008  1.00  0.00     0.032 C 
HETATM    5  C9  UNL     1      -0.218   1.454  -0.454  1.00  0.00     0.167 C 
ENDROOT
BRANCH   1   6
HETATM    6  S1  UNL     1       2.396   1.163  -0.665  1.00  0.00     0.283 S 
HETATM    7  O1  UNL     1       2.215   0.191  -1.819  1.00  0.00    -0.194 OA
HETATM    8  O2  UNL     1       2.740   2.488  -1.228  1.00  0.00    -0.194 OA
BRANCH   6   9
HETATM    9  N1  UNL     1       3.685   0.518   0.309  1.00  0.00    -0.197 NA
HETATM   10  C5  UNL     1       3.436  -0.837   0.686  1.00  0.00     0.109 C 
HETATM   11  C4  UNL     1       4.544  -1.718   0.114  1.00  0.00     0.025 C 
HETATM   12  C3  UNL     1       5.821  -1.291   0.764  1.00  0.00     0.027 C 
HETATM   13  C19 UNL     1       6.033   0.184   0.614  1.00  0.00     0.025 C 
HETATM   14  C18 UNL     1       4.965   0.759  -0.290  1.00  0.00     0.109 C 
BRANCH  12  15
HETATM   15  C2  UNL     1       6.995  -1.982   0.139  1.00  0.00    -0.017 C 
HETATM   16  C1  UNL     1       6.876  -2.822  -0.867  1.00  0.00     0.027 C 
HETATM   17 BR1  UNL     1       8.724  -1.597   0.866  1.00  0.00    -0.056 Br
ENDBRANCH  12  15
ENDBRANCH   6   9
ENDBRANCH   1   6
BRANCH   5  18
HETATM   18  C10 UNL     1      -1.279   0.472  -0.113  1.00  0.00     0.236 C 
HETATM   19  O3  UNL     1      -1.037  -0.455   0.703  1.00  0.00    -0.272 OA
HETATM   20  N3  UNL     1      -2.589   0.567  -0.707  1.00  0.00    -0.355 N 
ATOM     21  H3  UNL     1      -2.804   1.311  -1.370  1.00  0.00     0.162 HD
BRANCH  20  22
HETATM   22  C11 UNL     1      -3.595  -0.410  -0.348  1.00  0.00     0.084 C 
HETATM   23  C12 UNL     1      -4.120  -1.122  -1.581  1.00  0.00     0.025 C 
HETATM   24  C13 UNL     1      -5.099  -2.164  -1.109  1.00  0.00     0.002 C 
HETATM   25  C14 UNL     1      -6.261  -1.549  -0.412  1.00  0.00     0.004 C 
HETATM   26  C15 UNL     1      -5.917  -0.525   0.608  1.00  0.00    -0.017 C 
HETATM   27  C16 UNL     1      -7.137   0.399   0.737  1.00  0.00     0.010 C 
HETATM   28  C17 UNL     1      -4.751   0.341   0.264  1.00  0.00     0.029 C 
ENDBRANCH  20  22
ENDBRANCH   5  18
TORSDOF 5
