REMARK  5 active torsions:
REMARK  status: ('A' for Active; 'I' for Inactive)
REMARK       I    between atoms: C1_2  and  N1_3 
REMARK    1  A    between atoms: C1_2  and  C4_8 
REMARK    2  A    between atoms: N1_3  and  C2_5 
REMARK    3  A    between atoms: C2_5  and  C3_6 
REMARK       I    between atoms: N2_11  and  C7_12 
REMARK    4  A    between atoms: C7_12  and  C8_14 
REMARK       I    between atoms: N3_18  and  C12_19 
REMARK    5  A    between atoms: C12_19  and  C13_21 
ROOT
HETATM    1  C8  UNL     1       0.841   0.897   0.432  1.00  0.00     0.179 C 
HETATM    2  C9  UNL     1       0.880   1.354   1.904  1.00  0.00     0.037 C 
HETATM    3  C10 UNL     1      -0.398   2.213   2.024  1.00  0.00     0.022 C 
HETATM    4  C11 UNL     1      -0.975   2.175   0.597  1.00  0.00     0.127 C 
HETATM    5  N3  UNL     1      -0.571   0.787   0.265  1.00  0.00    -0.338 N 
HETATM    6  C12 UNL     1      -1.426  -0.254  -0.052  1.00  0.00     0.229 C 
HETATM    7  O3  UNL     1      -0.968  -1.438  -0.232  1.00  0.00    -0.272 OA
ENDROOT
BRANCH   1   8
HETATM    8  C7  UNL     1       1.747  -0.140   0.068  1.00  0.00     0.243 C 
HETATM    9  N2  UNL     1       3.001  -0.278   0.779  1.00  0.00    -0.337 N 
HETATM   10  C4  UNL     1       4.091  -1.216   0.602  1.00  0.00     0.180 C 
HETATM   11  C6  UNL     1       3.720   0.330   1.855  1.00  0.00     0.129 C 
HETATM   12  C5  UNL     1       4.649  -0.858   1.932  1.00  0.00     0.055 C 
HETATM   13  O2  UNL     1       1.493  -0.960  -0.870  1.00  0.00    -0.271 OA
BRANCH  10  14
HETATM   14  C1  UNL     1       5.007  -0.777  -0.481  1.00  0.00     0.240 C 
HETATM   15  O1  UNL     1       4.795   0.286  -1.115  1.00  0.00    -0.271 OA
HETATM   16  N1  UNL     1       6.143  -1.552  -0.820  1.00  0.00    -0.359 N 
ATOM     17  H1  UNL     1       6.309  -2.414  -0.301  1.00  0.00     0.162 HD
BRANCH  16  18
HETATM   18  C2  UNL     1       7.074  -1.193  -1.853  1.00  0.00     0.133 C 
BRANCH  18  19
HETATM   19  C3  UNL     1       7.757   0.135  -1.623  1.00  0.00     0.104 C 
HETATM   20 BR1  UNL     1       8.749   0.130   0.020  1.00  0.00    -0.095 Br
ENDBRANCH  18  19
ENDBRANCH  16  18
ENDBRANCH  10  14
ENDBRANCH   1   8
BRANCH   6  21
HETATM   21  C13 UNL     1      -2.904  -0.185  -0.223  1.00  0.00     0.042 C 
HETATM   22  C14 UNL     1      -3.543   0.013   1.103  1.00  0.00     0.024 C 
HETATM   23  C15 UNL     1      -5.074   0.077   0.989  1.00  0.00    -0.013 C 
HETATM   24  C16 UNL     1      -5.509  -1.307   0.565  1.00  0.00     0.009 C 
HETATM   25  C20 UNL     1      -5.405   1.138  -0.005  1.00  0.00     0.009 C 
HETATM   26  C17 UNL     1      -4.854  -1.596  -0.787  1.00  0.00    -0.013 C 
HETATM   27  C18 UNL     1      -5.396  -0.578  -1.742  1.00  0.00     0.009 C 
HETATM   28  C22 UNL     1      -3.363  -1.595  -0.678  1.00  0.00     0.024 C 
HETATM   29  C19 UNL     1      -4.855   0.780  -1.349  1.00  0.00    -0.013 C 
HETATM   30  C21 UNL     1      -3.343   0.718  -1.323  1.00  0.00     0.024 C 
ENDBRANCH   6  21
TORSDOF 5
