REMARK  5 active torsions:
REMARK  status: ('A' for Active; 'I' for Inactive)
REMARK       I    between atoms: C1_2  and  N1_3 
REMARK    1  A    between atoms: C1_2  and  C13_21 
REMARK    2  A    between atoms: N1_3  and  C2_5 
REMARK    3  A    between atoms: C2_5  and  C3_6 
REMARK    4  A    between atoms: N2_9  and  S1_10 
REMARK    5  A    between atoms: S1_10  and  N3_13 
ROOT
HETATM    1  C3  UNL     1       0.371  -0.784  -1.645  1.00  0.00     0.006 C 
HETATM    2  C4  UNL     1      -0.919  -0.340  -2.312  1.00  0.00     0.022 C 
HETATM    3  C5  UNL     1      -1.747   0.406  -1.324  1.00  0.00     0.109 C 
HETATM    4  N2  UNL     1      -1.969  -0.265  -0.088  1.00  0.00    -0.198 NA
HETATM    5  C11 UNL     1      -0.823  -0.905   0.478  1.00  0.00     0.109 C 
HETATM    6  C12 UNL     1      -0.027  -1.707  -0.515  1.00  0.00     0.022 C 
ENDROOT
BRANCH   1   7
HETATM    7  C2  UNL     1       1.200   0.373  -1.195  1.00  0.00     0.127 C 
BRANCH   7   8
HETATM    8  N1  UNL     1       2.405  -0.065  -0.573  1.00  0.00    -0.360 N 
HETATM    9  C1  UNL     1       3.395   0.807  -0.043  1.00  0.00     0.221 C 
HETATM   10  O1  UNL     1       3.151   2.057  -0.151  1.00  0.00    -0.273 OA
ATOM     11  H1  UNL     1       2.568  -1.070  -0.504  1.00  0.00     0.162 HD
BRANCH   9  12
HETATM   12  C13 UNL     1       4.629   0.307   0.594  1.00  0.00     0.078 C 
HETATM   13  C14 UNL     1       5.417  -0.516  -0.400  1.00  0.00     0.015 C 
HETATM   14  C15 UNL     1       6.744  -0.855   0.276  1.00  0.00     0.016 C 
HETATM   15  C16 UNL     1       7.547   0.413   0.321  1.00  0.00     0.058 C 
HETATM   16 BR1  UNL     1       8.223   0.714  -1.487  1.00  0.00    -0.091 Br
HETATM   17  C17 UNL     1       6.770   1.617   0.711  1.00  0.00     0.016 C 
HETATM   18  C18 UNL     1       5.423   1.359   1.274  1.00  0.00     0.015 C 
ENDBRANCH   9  12
ENDBRANCH   7   8
ENDBRANCH   1   7
BRANCH   4  19
HETATM   19  S1  UNL     1      -3.382  -1.232  -0.064  1.00  0.00     0.282 S 
HETATM   20  O2  UNL     1      -3.538  -1.839   1.296  1.00  0.00    -0.194 OA
HETATM   21  O3  UNL     1      -3.346  -2.291  -1.147  1.00  0.00    -0.194 OA
BRANCH  19  22
HETATM   22  N3  UNL     1      -4.754  -0.203  -0.320  1.00  0.00    -0.198 NA
HETATM   23  C6  UNL     1      -4.788   0.744   0.776  1.00  0.00     0.108 C 
HETATM   24  C7  UNL     1      -6.079   1.534   0.801  1.00  0.00     0.015 C 
HETATM   25  C8  UNL     1      -7.288   0.640   0.841  1.00  0.00     0.002 C 
HETATM   26  C9  UNL     1      -7.213  -0.273  -0.378  1.00  0.00     0.015 C 
HETATM   27  C10 UNL     1      -5.927  -1.050  -0.289  1.00  0.00     0.108 C 
ENDBRANCH  19  22
ENDBRANCH   4  19
TORSDOF 5
