REMARK  12 active torsions:
REMARK  status: ('A' for Active; 'I' for Inactive)
REMARK    1  A    between atoms: C2_2  and  C3_4 
REMARK    2  A    between atoms: C3_4  and  C4_5 
REMARK    3  A    between atoms: C3_4  and  N4_17 
REMARK    4  A    between atoms: C4_5  and  S1_6 
REMARK    5  A    between atoms: S1_6  and  C5_7 
REMARK    6  A    between atoms: N4_17  and  C7_19 
REMARK    7  A    between atoms: C7_19  and  C8_24 
REMARK    8  A    between atoms: N5_20  and  O2_22 
REMARK       I    between atoms: C8_24  and  N6_26 
REMARK    9  A    between atoms: N6_26  and  O4_28 
REMARK   10  A    between atoms: O4_28  and  C9_29 
REMARK   11  A    between atoms: C9_29  and  C11_31 
REMARK   12  A    between atoms: C9_29  and  C12_34 
ROOT
HETATM    1  N4  UNL     1       1.437  -2.193  -0.536  1.00  0.00    -0.336 N 
ATOM      2  H4  UNL     1       1.696  -3.031  -1.057  1.00  0.00     0.167 HD
ENDROOT
BRANCH   1   3
HETATM    3  C3  UNL     1       2.394  -1.820   0.432  1.00  0.00     0.066 C 
BRANCH   3   4
HETATM    4  C2  UNL     1       3.170  -2.993   0.916  1.00  0.00     0.168 C 
HETATM    5  C1  UNL     1       3.486  -4.136   0.039  1.00  0.00     0.098 C 
HETATM    6  O1  UNL     1       3.516  -2.976   2.083  1.00  0.00    -0.292 OA
ENDBRANCH   3   4
BRANCH   3   7
HETATM    7  C4  UNL     1       3.139  -0.594   0.225  1.00  0.00     0.142 C 
BRANCH   7   8
HETATM    8  S1  UNL     1       4.403  -0.712  -1.052  1.00  0.00    -0.097 SA
BRANCH   8   9
HETATM    9  C5  UNL     1       5.562   0.646  -0.810  1.00  0.00     0.130 A 
HETATM   10  N1  UNL     1       6.596   0.970  -1.572  1.00  0.00    -0.286 N 
HETATM   11  N2  UNL     1       7.391   1.905  -1.259  1.00  0.00    -0.279 N 
ATOM     12  H1  UNL     1       6.757   0.452  -2.436  1.00  0.00     0.188 HD
HETATM   13  C6  UNL     1       7.140   2.568  -0.098  1.00  0.00     0.159 A 
ATOM     14  H2  UNL     1       8.184   2.150  -1.851  1.00  0.00     0.189 HD
HETATM   15  N3  UNL     1       7.891   3.495   0.390  1.00  0.00    -0.379 N 
HETATM   16  S2  UNL     1       5.744   1.769   0.463  1.00  0.00    -0.027 SA
ATOM     17  H32 UNL     1       8.727   3.973   0.054  1.00  0.00     0.158 HD
ATOM     18  H31 UNL     1       7.703   3.992   1.261  1.00  0.00     0.158 HD
ENDBRANCH   8   9
ENDBRANCH   7   8
ENDBRANCH   3   7
ENDBRANCH   1   3
BRANCH   1  19
HETATM   19  C7  UNL     1       0.202  -1.653  -0.933  1.00  0.00     0.196 C 
HETATM   20  N5  UNL     1      -0.140  -1.705  -2.199  1.00  0.00    -0.248 N 
ATOM     21  H5  UNL     1      -1.038  -1.323  -2.494  1.00  0.00     0.196 HD
BRANCH  20  22
HETATM   22  O2  UNL     1       0.684  -2.259  -3.116  1.00  0.00    -0.288 OA
ATOM     23  H2  UNL     1       0.436  -2.297  -4.032  1.00  0.00     0.244 HD
ENDBRANCH  20  22
BRANCH  19  24
HETATM   24  C8  UNL     1      -0.759  -1.064  -0.022  1.00  0.00     0.310 C 
HETATM   25  O3  UNL     1      -0.605  -0.962   1.177  1.00  0.00    -0.262 OA
HETATM   26  N6  UNL     1      -2.049  -0.583  -0.594  1.00  0.00    -0.227 N 
ATOM     27  H6  UNL     1      -2.163  -0.631  -1.607  1.00  0.00     0.198 HD
BRANCH  26  28
HETATM   28  O4  UNL     1      -2.972  -0.140   0.052  1.00  0.00    -0.257 OA
BRANCH  28  29
HETATM   29  C9  UNL     1      -3.839   0.655   0.500  1.00  0.00     0.166 C 
HETATM   30  C10 UNL     1      -4.666  -0.115   1.599  1.00  0.00     0.059 C 
BRANCH  29  31
HETATM   31  C11 UNL     1      -3.255   1.849   1.199  1.00  0.00     0.268 C 
HETATM   32  N7  UNL     1      -3.080   1.852   2.611  1.00  0.00    -0.059 NA
HETATM   33  O5  UNL     1      -2.923   2.827   0.542  1.00  0.00    -0.273 OA
ENDBRANCH  29  31
BRANCH  29  34
HETATM   34  C12 UNL     1      -4.942   1.161  -0.422  1.00  0.00     0.023 C 
HETATM   35  C13 UNL     1      -5.830   2.096   0.316  1.00  0.00     0.013 C 
HETATM   36  C14 UNL     1      -4.503   1.653  -1.750  1.00  0.00     0.013 C 
ENDBRANCH  29  34
ENDBRANCH  28  29
ENDBRANCH  26  28
ENDBRANCH  19  24
ENDBRANCH   1  19
TORSDOF 12
