REMARK  13 active torsions:
REMARK  status: ('A' for Active; 'I' for Inactive)
REMARK    1  A    between atoms: N1_8  and  C6_10 
REMARK    2  A    between atoms: C6_10  and  C7_11 
REMARK    3  A    between atoms: C7_11  and  N2_12 
REMARK    4  A    between atoms: N2_12  and  C8_14 
REMARK    5  A    between atoms: C8_14  and  C9_15 
REMARK    6  A    between atoms: C9_15  and  O2_16 
REMARK    7  A    between atoms: O2_16  and  C10_17 
REMARK    8  A    between atoms: C10_17  and  C11_18 
REMARK    9  A    between atoms: C11_18  and  O3_19 
REMARK   10  A    between atoms: O3_19  and  N3_20 
REMARK   11  A    between atoms: N3_20  and  N4_22 
REMARK   12  A    between atoms: N4_22  and  C12_24 
REMARK   13  A    between atoms: C14_35  and  N9_36 
ROOT
HETATM    1  C11 UNL     1       3.369  -1.147  -1.190  1.00  0.00     0.229 C 
ENDROOT
BRANCH   1   2
HETATM    2  C10 UNL     1       2.419  -0.047  -0.435  1.00  0.00     0.196 C 
BRANCH   2   3
HETATM    3  O2  UNL     1       1.272  -0.015  -1.127  1.00  0.00    -0.387 OA
BRANCH   3   4
HETATM    4  C9  UNL     1       0.288  -0.578  -0.170  1.00  0.00     0.187 C 
BRANCH   4   5
HETATM    5  C8  UNL     1       0.107   0.532   0.843  1.00  0.00     0.145 C 
BRANCH   5   6
HETATM    6  N2  UNL     1      -0.418   1.733   0.171  1.00  0.00    -0.396 N 
ATOM      7  H2  UNL     1       0.202   2.491  -0.114  1.00  0.00     0.159 HD
BRANCH   6   8
HETATM    8  C7  UNL     1      -1.779   1.798  -0.061  1.00  0.00     0.100 C 
BRANCH   8   9
HETATM    9  C6  UNL     1      -2.410   0.741  -0.911  1.00  0.00     0.107 C 
BRANCH   9  10
HETATM   10  N1  UNL     1      -3.749   1.023  -1.158  1.00  0.00    -0.342 N 
HETATM   11  C5  UNL     1      -4.850   1.025  -0.610  1.00  0.00     0.194 C 
HETATM   12  S1  UNL     1      -6.249   1.527  -1.625  1.00  0.00     0.088 S 
HETATM   13  N10 UNL     1      -5.241   0.640   0.693  1.00  0.00    -0.242 N 
HETATM   14  C4  UNL     1      -7.439   0.164  -1.348  1.00  0.00     0.157 C 
HETATM   15  O1  UNL     1      -6.855   2.747  -0.895  1.00  0.00    -0.250 OA
HETATM   16  C2  UNL     1      -7.254  -0.322   0.065  1.00  0.00     0.093 C 
HETATM   17  C1  UNL     1      -6.548  -1.642   0.130  1.00  0.00     0.049 C 
HETATM   18  C3  UNL     1      -8.677  -0.535   0.597  1.00  0.00     0.049 C 
HETATM   19  O4  UNL     1      -6.609   0.568   0.895  1.00  0.00    -0.267 OA
ATOM     20  H10 UNL     1      -4.566   0.431   1.429  1.00  0.00     0.196 HD
ATOM     21  H1  UNL     1      -3.854   1.335  -2.124  1.00  0.00     0.167 HD
ENDBRANCH   9  10
ENDBRANCH   8   9
ENDBRANCH   6   8
ENDBRANCH   5   6
ENDBRANCH   4   5
ENDBRANCH   3   4
ENDBRANCH   2   3
ENDBRANCH   1   2
BRANCH   1  22
HETATM   22  O3  UNL     1       4.460  -1.119  -0.306  1.00  0.00    -0.263 OA
BRANCH  22  23
HETATM   23  N3  UNL     1       5.599  -0.695  -0.366  1.00  0.00    -0.206 N 
ATOM     24  H3  UNL     1       6.227  -1.349   0.101  1.00  0.00     0.216 HD
BRANCH  23  25
HETATM   25  N4  UNL     1       6.293   0.318  -0.828  1.00  0.00    -0.262 N 
ATOM     26  H4  UNL     1       5.976   1.141  -1.340  1.00  0.00     0.190 HD
BRANCH  25  27
HETATM   27  C12 UNL     1       7.661  -0.057  -0.406  1.00  0.00     0.182 A 
HETATM   28  N5  UNL     1       8.370  -1.072  -0.687  1.00  0.00    -0.171 N 
HETATM   29  C13 UNL     1       9.512  -1.331   0.040  1.00  0.00     0.692 A 
ATOM     30  H5  UNL     1       8.096  -1.693  -1.448  1.00  0.00     0.186 HD
HETATM   31  N6  UNL     1      10.166  -2.393  -0.172  1.00  0.00    -0.233 N 
HETATM   32  N7  UNL     1       9.849  -0.472   1.058  1.00  0.00    -0.131 N 
ATOM     33  H62 UNL     1       9.916  -3.031  -0.928  1.00  0.00     0.174 HD
ATOM     34  H61 UNL     1      11.011  -2.585   0.366  1.00  0.00     0.174 HD
HETATM   35  N8  UNL     1       9.127   0.593   1.342  1.00  0.00    -0.268 N 
ATOM     36  H7  UNL     1      10.684  -0.665   1.611  1.00  0.00     0.205 HD
HETATM   37  C14 UNL     1       8.013   0.839   0.620  1.00  0.00     0.161 A 
ATOM     38  H8  UNL     1       9.405   1.222   2.095  1.00  0.00     0.189 HD
BRANCH  37  39
HETATM   39  N9  UNL     1       7.366   1.864   0.939  1.00  0.00    -0.381 N 
ATOM     40  H92 UNL     1       6.524   2.050   0.394  1.00  0.00     0.157 HD
ATOM     41  H91 UNL     1       7.621   2.514   1.683  1.00  0.00     0.157 HD
ENDBRANCH  37  39
ENDBRANCH  25  27
ENDBRANCH  23  25
ENDBRANCH  22  23
ENDBRANCH   1  22
TORSDOF 13
