REMARK  13 active torsions:
REMARK  status: ('A' for Active; 'I' for Inactive)
REMARK    1  A    between atoms: O1_2  and  N1_3 
REMARK    2  A    between atoms: N1_3  and  N2_4 
REMARK       I    between atoms: N2_4  and  C3_6 
REMARK    3  A    between atoms: C3_6  and  C4_8 
REMARK    4  A    between atoms: C5_9  and  N3_10 
REMARK    5  A    between atoms: N3_10  and  C6_12 
REMARK    6  A    between atoms: C6_12  and  O3_14 
REMARK    7  A    between atoms: C9_17  and  N4_18 
REMARK       I    between atoms: N4_18  and  C10_20 
REMARK    8  A    between atoms: C12_23  and  N5_24 
REMARK       I    between atoms: N5_24  and  C13_26 
REMARK    9  A    between atoms: C13_26  and  O6_28 
REMARK   10  A    between atoms: C15_30  and  C16_31 
REMARK   11  A    between atoms: C16_31  and  O7_32 
REMARK   12  A    between atoms: C16_31  and  C17_34 
REMARK   13  A    between atoms: C17_34  and  N6_35 
ROOT
HETATM    1  C4  UNL     1       0.816   0.043  -0.889  1.00  0.00     0.075 A 
HETATM    2  C5  UNL     1       0.759   1.408  -0.508  1.00  0.00     0.049 A 
HETATM    3  C8  UNL     1      -0.426   1.930  -0.026  1.00  0.00     0.062 A 
HETATM    4  C9  UNL     1      -1.555   1.155   0.100  1.00  0.00     0.065 A 
HETATM    5  C12 UNL     1      -1.502  -0.192  -0.280  1.00  0.00     0.077 A 
HETATM    6  C15 UNL     1      -0.304  -0.746  -0.793  1.00  0.00     0.042 A 
ENDROOT
BRANCH   6   7
HETATM    7  C16 UNL     1      -0.506  -2.052  -1.425  1.00  0.00     0.082 C 
BRANCH   7   8
HETATM    8  O7  UNL     1      -1.567  -2.692  -0.994  1.00  0.00    -0.362 OA
ATOM      9  H7  UNL     1      -1.698  -3.539  -1.404  1.00  0.00     0.217 HD
ENDBRANCH   7   8
BRANCH   7  10
HETATM   10  C17 UNL     1       0.210  -2.778  -2.462  1.00  0.00     0.294 C 
BRANCH  10  11
HETATM   11  N6  UNL     1       0.013  -4.224  -2.281  1.00  0.00    -0.074 N 
ATOM     12  H63 UNL     1       0.275  -4.533  -1.345  1.00  0.00     0.274 HD
ATOM     13  H62 UNL     1      -0.975  -4.476  -2.248  1.00  0.00     0.274 HD
ATOM     14  H61 UNL     1       0.515  -4.733  -3.008  1.00  0.00     0.274 HD
ENDBRANCH  10  11
ENDBRANCH   7  10
ENDBRANCH   6   7
BRANCH   1  15
HETATM   15  C3  UNL     1       2.101  -0.369  -1.377  1.00  0.00     0.274 C 
HETATM   16  N2  UNL     1       2.734  -1.568  -0.953  1.00  0.00    -0.239 N 
HETATM   17  C2  UNL     1       4.022  -1.910  -1.613  1.00  0.00     0.179 C 
HETATM   18  O2  UNL     1       2.730   0.389  -2.194  1.00  0.00    -0.266 OA
BRANCH  16  19
HETATM   19  N1  UNL     1       2.318  -2.470   0.001  1.00  0.00     0.025 NA
BRANCH  19  20
HETATM   20  O1  UNL     1       3.201  -2.431   1.057  1.00  0.00    -0.272 OA
HETATM   21  C1  UNL     1       3.084  -1.232   1.726  1.00  0.00     0.234 C 
ENDBRANCH  19  20
ENDBRANCH  16  19
ENDBRANCH   1  15
BRANCH   5  22
HETATM   22  N5  UNL     1      -2.666  -0.925  -0.108  1.00  0.00    -0.300 N 
HETATM   23  C13 UNL     1      -3.068  -1.533   1.133  1.00  0.00     0.364 C 
HETATM   24  O5  UNL     1      -2.310  -1.385   2.115  1.00  0.00    -0.238 OA
ATOM     25  H5  UNL     1      -3.279  -1.041  -0.915  1.00  0.00     0.171 HD
BRANCH  23  26
HETATM   26  O6  UNL     1      -4.228  -2.250   1.265  1.00  0.00    -0.309 OA
HETATM   27  C14 UNL     1      -4.666  -2.863   2.447  1.00  0.00     0.215 C 
ENDBRANCH  23  26
ENDBRANCH   5  22
BRANCH   2  28
HETATM   28  N3  UNL     1       1.939   2.183  -0.535  1.00  0.00    -0.363 N 
ATOM     29  H3  UNL     1       2.842   1.773  -0.771  1.00  0.00     0.162 HD
BRANCH  28  30
HETATM   30  C6  UNL     1       1.802   3.623  -0.203  1.00  0.00     0.213 C 
HETATM   31  C7  UNL     1       3.112   4.334  -0.479  1.00  0.00     0.063 C 
BRANCH  30  32
HETATM   32  O3  UNL     1       1.588   3.647   1.194  1.00  0.00    -0.377 OA
ATOM     33  H3  UNL     1       1.500   4.569   1.407  1.00  0.00     0.212 HD
ENDBRANCH  30  32
ENDBRANCH  28  30
ENDBRANCH   2  28
BRANCH   4  34
HETATM   34  N4  UNL     1      -2.770   1.669   0.584  1.00  0.00    -0.325 N 
HETATM   35  C10 UNL     1      -3.074   2.951   1.059  1.00  0.00     0.218 C 
HETATM   36  C11 UNL     1      -4.490   3.234   1.524  1.00  0.00     0.117 C 
HETATM   37  O4  UNL     1      -2.294   3.916   1.148  1.00  0.00    -0.274 OA
ATOM     38  H4  UNL     1      -3.548   1.009   0.590  1.00  0.00     0.169 HD
ENDBRANCH   4  34
TORSDOF 13
