REMARK  13 active torsions:
REMARK  status: ('A' for Active; 'I' for Inactive)
REMARK    1  A    between atoms: C3_7  and  N3_8 
REMARK    2  A    between atoms: C4_11  and  C5_12 
REMARK    3  A    between atoms: C5_12  and  N4_13 
REMARK    4  A    between atoms: N4_13  and  O3_15 
REMARK    5  A    between atoms: O3_15  and  C6_16 
REMARK    6  A    between atoms: C6_16  and  C7_17 
REMARK    7  A    between atoms: C7_17  and  N5_18 
REMARK    8  A    between atoms: N5_18  and  O4_19 
REMARK    9  A    between atoms: N5_18  and  C12_26 
REMARK   10  A    between atoms: O4_19  and  C8_20 
REMARK   11  A    between atoms: C8_20  and  C11_23 
REMARK   12  A    between atoms: C11_23  and  O5_24 
REMARK   13  A    between atoms: C14_31  and  N8_32 
ROOT
HETATM    1  N5  UNL     1      -1.647   0.243   0.249  1.00  0.00    -0.247 N 
ENDROOT
BRANCH   1   2
HETATM    2  C7  UNL     1      -0.718   0.668   1.244  1.00  0.00     0.185 C 
BRANCH   2   3
HETATM    3  C6  UNL     1       0.722   0.668   0.702  1.00  0.00     0.223 C 
BRANCH   3   4
HETATM    4  O3  UNL     1       1.120  -0.616   0.272  1.00  0.00    -0.279 OA
BRANCH   4   5
HETATM    5  N4  UNL     1       2.343  -0.877  -0.246  1.00  0.00    -0.277 N 
ATOM      6  H4  UNL     1       2.401  -1.639  -0.922  1.00  0.00     0.193 HD
BRANCH   5   7
HETATM    7  C5  UNL     1       3.418  -0.275   0.021  1.00  0.00     0.131 C 
BRANCH   7   8
HETATM    8  C4  UNL     1       4.739  -0.542  -0.526  1.00  0.00     0.056 A 
HETATM    9  C2  UNL     1       5.878   0.197  -0.151  1.00  0.00     0.037 A 
HETATM   10  C1  UNL     1       5.934   1.342   0.820  1.00  0.00     0.070 C 
HETATM   11  N1  UNL     1       6.912  -0.311  -0.824  1.00  0.00    -0.302 N 
HETATM   12  N2  UNL     1       6.501  -1.298  -1.579  1.00  0.00    -0.280 N 
ATOM     13  H1  UNL     1       7.875   0.019  -0.760  1.00  0.00     0.186 HD
HETATM   14  C3  UNL     1       5.165  -1.469  -1.421  1.00  0.00     0.202 A 
ATOM     15  H2  UNL     1       7.096  -1.854  -2.193  1.00  0.00     0.189 HD
BRANCH  14  16
HETATM   16  N3  UNL     1       4.429  -2.467  -2.099  1.00  0.00    -0.096 N 
HETATM   17  O1  UNL     1       3.279  -2.336  -2.487  1.00  0.00    -0.530 OA
HETATM   18  O2  UNL     1       5.096  -3.673  -2.358  1.00  0.00    -0.530 OA
ENDBRANCH  14  16
ENDBRANCH   7   8
ENDBRANCH   5   7
ENDBRANCH   4   5
ENDBRANCH   3   4
ENDBRANCH   2   3
ENDBRANCH   1   2
BRANCH   1  19
HETATM   19  O4  UNL     1      -1.844  -1.048   0.010  1.00  0.00    -0.265 OA
BRANCH  19  20
HETATM   20  C8  UNL     1      -2.379  -1.919   0.845  1.00  0.00     0.103 C 
HETATM   21  C9  UNL     1      -2.468  -3.270   0.041  1.00  0.00     0.050 C 
HETATM   22  C10 UNL     1      -1.566  -2.392   2.062  1.00  0.00     0.050 C 
BRANCH  20  23
HETATM   23  C11 UNL     1      -3.793  -1.689   1.335  1.00  0.00     0.203 C 
BRANCH  23  24
HETATM   24  O5  UNL     1      -3.930  -0.499   2.013  1.00  0.00    -0.398 OA
ATOM     25  H5  UNL     1      -4.817  -0.355   2.320  1.00  0.00     0.209 HD
ENDBRANCH  23  24
ENDBRANCH  20  23
ENDBRANCH  19  20
ENDBRANCH   1  19
BRANCH   1  26
HETATM   26  C12 UNL     1      -2.401   1.152  -0.576  1.00  0.00     0.167 A 
HETATM   27  C13 UNL     1      -2.407   2.515  -0.436  1.00  0.00     0.166 A 
HETATM   28  N6  UNL     1      -1.711   3.201   0.556  1.00  0.00    -0.079 NA
HETATM   29  N7  UNL     1      -3.107   3.337  -1.283  1.00  0.00    -0.176 N 
HETATM   30  C14 UNL     1      -3.826   2.857  -2.297  1.00  0.00     0.680 A 
ATOM     31  H7  UNL     1      -3.076   4.345  -1.132  1.00  0.00     0.185 HD
HETATM   32  N9  UNL     1      -3.851   1.535  -2.475  1.00  0.00    -0.154 N 
HETATM   33  C15 UNL     1      -3.168   0.702  -1.653  1.00  0.00     0.291 A 
ATOM     34  H9  UNL     1      -4.395   1.144  -3.244  1.00  0.00     0.187 HD
HETATM   35  O6  UNL     1      -3.243  -0.518  -1.900  1.00  0.00    -0.265 OA
BRANCH  30  36
HETATM   36  N8  UNL     1      -4.492   3.642  -3.101  1.00  0.00    -0.234 N 
ATOM     37  H82 UNL     1      -4.473   4.653  -2.965  1.00  0.00     0.174 HD
ATOM     38  H81 UNL     1      -5.042   3.275  -3.877  1.00  0.00     0.174 HD
ENDBRANCH  30  36
ENDBRANCH   1  26
TORSDOF 13
