REMARK  2 active torsions:
REMARK  status: ('A' for Active; 'I' for Inactive)
REMARK    1  A    between atoms: O1_1  and  N1_3 
REMARK    2  A    between atoms: N1_3  and  C1_4 
ROOT
HETATM    1  C1  UNL     1       0.668   0.422   0.090  1.00  0.00     0.225 C 
HETATM    2  C2  UNL     1      -0.403   1.212  -0.610  1.00  0.00     0.276 C 
HETATM    3  F1  UNL     1      -0.699   2.397   0.047  1.00  0.00    -0.241 F 
HETATM    4  C3  UNL     1      -1.660   0.372  -0.585  1.00  0.00     0.346 C 
HETATM    5  F2  UNL     1      -2.191   0.274  -1.872  1.00  0.00    -0.196 F 
HETATM    6  F3  UNL     1      -2.647   0.923   0.200  1.00  0.00    -0.196 F 
HETATM    7  C4  UNL     1      -1.291  -0.986  -0.094  1.00  0.00     0.376 C 
HETATM    8  F4  UNL     1      -1.288  -1.886  -1.154  1.00  0.00    -0.192 F 
HETATM    9  F5  UNL     1      -2.162  -1.478   0.863  1.00  0.00    -0.192 F 
HETATM   10  C5  UNL     1       0.086  -0.878   0.516  1.00  0.00     0.336 C 
HETATM   11  F6  UNL     1      -0.005  -0.889   1.906  1.00  0.00    -0.197 F 
HETATM   12  F7  UNL     1       0.799  -1.975   0.145  1.00  0.00    -0.197 F 
ENDROOT
BRANCH   1  13
HETATM   13  N1  UNL     1       1.817   0.299  -0.772  1.00  0.00    -0.089 NA
BRANCH  13  14
HETATM   14  O1  UNL     1       2.825  -0.387  -0.243  1.00  0.00    -0.295 OA
ATOM     15  H1  UNL     1       3.582  -0.468  -0.811  1.00  0.00     0.238 HD
ENDBRANCH  13  14
ENDBRANCH   1  13
TORSDOF 2
