REMARK  2 active torsions:
REMARK  status: ('A' for Active; 'I' for Inactive)
REMARK    1  A    between atoms: N1_1  and  C1_5 
REMARK    2  A    between atoms: C1_5  and  C2_6 
ROOT
HETATM    1  C2  UNL     1       0.218   0.714  -0.016  1.00  0.00     0.096 C 
HETATM    2  C3  UNL     1      -0.418   0.082   1.185  1.00  0.00     0.098 C 
HETATM    3  C4  UNL     1      -1.721  -0.542   0.699  1.00  0.00     0.314 C 
HETATM    4  F1  UNL     1      -2.812  -0.011   1.370  1.00  0.00    -0.199 F 
HETATM    5  F2  UNL     1      -1.706  -1.908   0.771  1.00  0.00    -0.199 F 
HETATM    6  C5  UNL     1      -1.811  -0.164  -0.766  1.00  0.00     0.372 C 
HETATM    7  F3  UNL     1      -2.275   1.132  -0.896  1.00  0.00    -0.193 F 
HETATM    8  F4  UNL     1      -2.512  -1.061  -1.508  1.00  0.00    -0.193 F 
HETATM    9  C6  UNL     1      -0.321  -0.144  -1.137  1.00  0.00     0.319 C 
HETATM   10  F5  UNL     1      -0.106   0.418  -2.355  1.00  0.00    -0.199 F 
HETATM   11  F6  UNL     1       0.141  -1.420  -1.005  1.00  0.00    -0.199 F 
ENDROOT
BRANCH   1  12
HETATM   12  C1  UNL     1       1.721   0.713   0.030  1.00  0.00     0.240 C 
BRANCH  12  13
HETATM   13  N1  UNL     1       2.296  -0.590   0.106  1.00  0.00    -0.079 N 
ATOM     14  H13 UNL     1       1.913  -1.106   0.898  1.00  0.00     0.274 HD
ATOM     15  H12 UNL     1       1.960  -1.175  -0.659  1.00  0.00     0.274 HD
ATOM     16  H11 UNL     1       3.316  -0.591   0.137  1.00  0.00     0.274 HD
ENDBRANCH  12  13
ENDBRANCH   1  12
TORSDOF 2
