REMARK  4 active torsions:
REMARK  status: ('A' for Active; 'I' for Inactive)
REMARK    1  A    between atoms: C2_2  and  C3_4 
REMARK    2  A    between atoms: C3_4  and  O2_5 
REMARK    3  A    between atoms: N1_7  and  C4_9 
REMARK    4  A    between atoms: C16_22  and  C17_23 
ROOT
HETATM    1  C4  UNL     1       1.360  -0.012   0.756  1.00  0.00     0.119 C 
HETATM    2  C5  UNL     1       0.601  -0.613   1.895  1.00  0.00     0.058 C 
HETATM    3  C6  UNL     1      -0.798  -0.910   1.366  1.00  0.00     0.028 C 
HETATM    4  C7  UNL     1      -1.094  -2.359   1.776  1.00  0.00     0.038 C 
HETATM    5  C8  UNL     1      -1.777  -0.047   2.104  1.00  0.00     0.031 C 
HETATM    6  C9  UNL     1      -1.871   1.284   1.439  1.00  0.00     0.013 C 
HETATM    7  C10 UNL     1      -2.320   1.141   0.003  1.00  0.00    -0.023 C 
HETATM    8  C11 UNL     1      -1.932   2.451  -0.693  1.00  0.00     0.017 C 
HETATM    9  C12 UNL     1      -3.851   1.139   0.019  1.00  0.00     0.017 C 
HETATM   10  C13 UNL     1      -1.752  -0.053  -0.681  1.00  0.00     0.029 C 
HETATM   11  C14 UNL     1      -1.346   0.351  -2.082  1.00  0.00     0.039 C 
HETATM   12  C15 UNL     1      -2.869  -1.071  -0.839  1.00  0.00     0.039 C 
HETATM   13  N2  UNL     1      -0.699  -0.711  -0.006  1.00  0.00    -0.380 N 
HETATM   14  C16 UNL     1       0.609  -0.535  -0.453  1.00  0.00     0.205 C 
ENDROOT
BRANCH   1  15
HETATM   15  N1  UNL     1       2.730  -0.420   0.775  1.00  0.00    -0.361 N 
HETATM   16  C3  UNL     1       3.713   0.296   0.363  1.00  0.00     0.183 C 
ATOM     17  H1  UNL     1       2.942  -1.348   1.143  1.00  0.00     0.162 HD
BRANCH  16  18
HETATM   18  C2  UNL     1       5.080  -0.176   0.410  1.00  0.00     0.195 C 
HETATM   19  C1  UNL     1       6.185   0.673  -0.073  1.00  0.00     0.101 C 
HETATM   20  O1  UNL     1       5.379  -1.317   0.858  1.00  0.00    -0.289 OA
ENDBRANCH  16  18
BRANCH  16  21
HETATM   21  O2  UNL     1       3.449   1.554  -0.139  1.00  0.00    -0.344 OA
ATOM     22  H2  UNL     1       2.551   1.864  -0.170  1.00  0.00     0.219 HD
ENDBRANCH  16  21
ENDBRANCH   1  15
BRANCH  14  23
HETATM   23  C17 UNL     1       1.169  -1.825  -0.931  1.00  0.00     0.198 C 
HETATM   24  O3  UNL     1       0.466  -2.857  -0.890  1.00  0.00    -0.646 OA
HETATM   25  O4  UNL     1       2.457  -1.945  -1.432  1.00  0.00    -0.646 OA
ENDBRANCH  14  23
TORSDOF 4
