REMARK  3 active torsions:
REMARK  status: ('A' for Active; 'I' for Inactive)
REMARK       I    between atoms: C1_2  and  N1_3 
REMARK    1  A    between atoms: C1_2  and  C14_17 
REMARK    2  A    between atoms: N1_3  and  C2_5 
REMARK    3  A    between atoms: C16_19  and  C17_20 
ROOT
HETATM    1  O1  UNL     1       1.743   0.800   2.039  1.00  0.00    -0.273 OA
HETATM    2  C1  UNL     1       1.488  -0.179   1.291  1.00  0.00     0.222 C 
HETATM    3  N1  UNL     1       0.217  -0.370   0.687  1.00  0.00    -0.355 N 
ATOM      4  H1  UNL     1       0.093  -1.190   0.093  1.00  0.00     0.162 HD
ENDROOT
BRANCH   2   5
HETATM    5  C14 UNL     1       2.589  -1.146   1.057  1.00  0.00     0.079 C 
HETATM    6  C15 UNL     1       2.892  -1.197  -0.428  1.00  0.00     0.026 C 
HETATM    7  C16 UNL     1       4.370  -1.298  -0.034  1.00  0.00     0.058 C 
HETATM    8  C18 UNL     1       3.978  -0.595   1.268  1.00  0.00     0.026 C 
BRANCH   7   9
HETATM    9  C17 UNL     1       5.282  -0.540  -0.883  1.00  0.00     0.117 A 
HETATM   10  N2  UNL     1       6.370  -1.036  -1.495  1.00  0.00    -0.272 N 
HETATM   11  N3  UNL     1       6.961  -0.072  -2.179  1.00  0.00    -0.227 N 
ATOM     12  H2  UNL     1       6.689  -2.003  -1.440  1.00  0.00     0.190 HD
HETATM   13  N4  UNL     1       6.267   1.036  -2.015  1.00  0.00    -0.227 N 
ATOM     14  H3  UNL     1       7.809  -0.169  -2.738  1.00  0.00     0.210 HD
HETATM   15  N5  UNL     1       5.235   0.759  -1.220  1.00  0.00    -0.272 N 
ATOM     16  H4  UNL     1       6.482   1.945  -2.424  1.00  0.00     0.210 HD
ATOM     17  H5  UNL     1       4.525   1.425  -0.917  1.00  0.00     0.190 HD
ENDBRANCH   7   9
ENDBRANCH   2   5
BRANCH   3  18
HETATM   18  C2  UNL     1      -0.895   0.502   0.853  1.00  0.00     0.092 C 
HETATM   19  C3  UNL     1      -1.227   1.167  -0.464  1.00  0.00     0.009 C 
HETATM   20  C4  UNL     1      -1.216   0.235  -1.627  1.00  0.00     0.007 C 
HETATM   21  C10 UNL     1      -2.364   2.115  -0.406  1.00  0.00     0.015 C 
HETATM   22  C5  UNL     1      -2.195  -0.815  -1.750  1.00  0.00     0.009 C 
HETATM   23  C6  UNL     1      -3.162  -1.107  -0.655  1.00  0.00     0.008 C 
HETATM   24  C7  UNL     1      -4.325  -0.183  -0.740  1.00  0.00    -0.026 C 
HETATM   25  C13 UNL     1      -2.606  -1.292   0.694  1.00  0.00     0.015 C 
HETATM   26  C8  UNL     1      -4.517   1.055  -0.262  1.00  0.00    -0.026 C 
HETATM   27  C9  UNL     1      -3.468   1.785   0.522  1.00  0.00     0.009 C 
HETATM   28  C11 UNL     1      -3.126   0.955   1.695  1.00  0.00     0.015 C 
HETATM   29  C12 UNL     1      -2.115  -0.121   1.436  1.00  0.00     0.010 C 
ENDBRANCH   3  18
TORSDOF 3
