REMARK  3 active torsions:
REMARK  status: ('A' for Active; 'I' for Inactive)
REMARK    1  A    between atoms: C2_2  and  C3_3 
REMARK       I    between atoms: C3_3  and  N1_5 
REMARK    2  A    between atoms: N1_5  and  C4_7 
REMARK    3  A    between atoms: C4_7  and  C5_8 
ROOT
HETATM    1  C5  UNL     1       1.034  -0.501   1.044  1.00  0.00     0.096 C 
HETATM    2  C6  UNL     1       1.387  -0.068  -0.325  1.00  0.00     0.031 C 
HETATM    3  C7  UNL     1       2.852  -0.262  -0.630  1.00  0.00    -0.006 C 
HETATM    4  C8  UNL     1       3.244   0.232  -1.976  1.00  0.00     0.005 C 
HETATM    5  C9  UNL     1       4.691  -0.239  -2.166  1.00  0.00     0.000 C 
HETATM    6  C10 UNL     1       5.555   0.487  -1.208  1.00  0.00     0.001 C 
HETATM    7  C11 UNL     1       5.069   0.620   0.170  1.00  0.00     0.008 C 
HETATM    8  C12 UNL     1       3.623   0.470   0.420  1.00  0.00     0.026 C 
HETATM    9  C13 UNL     1       3.357  -0.290   1.711  1.00  0.00     0.189 C 
HETATM   10  C14 UNL     1       3.883  -1.645   1.512  1.00  0.00     0.084 C 
HETATM   11  N2  UNL     1       4.319  -2.719   1.356  1.00  0.00    -0.195 NA
HETATM   12  N3  UNL     1       1.985  -0.384   2.054  1.00  0.00    -0.400 N 
ATOM     13  H3  UNL     1       1.697  -0.366   3.032  1.00  0.00     0.155 HD
ENDROOT
BRANCH   1  14
HETATM   14  C4  UNL     1      -0.232   0.249   1.464  1.00  0.00     0.147 C 
BRANCH  14  15
HETATM   15  N1  UNL     1      -1.325  -0.038   0.577  1.00  0.00    -0.358 N 
HETATM   16  C3  UNL     1      -2.589   0.555   0.788  1.00  0.00     0.226 C 
HETATM   17  O1  UNL     1      -2.744   1.346   1.773  1.00  0.00    -0.273 OA
ATOM     18  H1  UNL     1      -1.187  -0.673  -0.209  1.00  0.00     0.162 HD
BRANCH  16  19
HETATM   19  C2  UNL     1      -3.754   0.291  -0.103  1.00  0.00     0.041 C 
HETATM   20  C1  UNL     1      -3.403   0.729  -1.500  1.00  0.00     0.025 C 
HETATM   21  C15 UNL     1      -4.052  -1.196  -0.120  1.00  0.00     0.045 C 
HETATM   22  C16 UNL     1      -5.414  -1.462  -0.695  1.00  0.00     0.168 C 
HETATM   23  O2  UNL     1      -6.396  -0.813   0.055  1.00  0.00    -0.391 OA
HETATM   24  C17 UNL     1      -6.251   0.547  -0.172  1.00  0.00     0.168 C 
HETATM   25  C18 UNL     1      -4.955   0.994   0.460  1.00  0.00     0.045 C 
ENDBRANCH  16  19
ENDBRANCH  14  15
ENDBRANCH   1  14
TORSDOF 3
