REMARK  7 active torsions:
REMARK  status: ('A' for Active; 'I' for Inactive)
REMARK    1  A    between atoms: C2_2  and  N1_3 
REMARK    2  A    between atoms: N1_3  and  C3_4 
REMARK       I    between atoms: N1_3  and  C4_6 
REMARK       I    between atoms: C4_6  and  N3_10 
REMARK    3  A    between atoms: C6_15  and  C7_16 
REMARK    4  A    between atoms: C7_16  and  C8_17 
REMARK    5  A    between atoms: C8_17  and  C9_18 
REMARK    6  A    between atoms: C9_18  and  C10_19 
REMARK    7  A    between atoms: C10_19  and  N5_20 
ROOT
HETATM    1  N1  UNL     1      -4.011   0.194  -2.077  1.00  0.00    -0.205 N 
HETATM    2  C4  UNL     1      -3.719  -0.826  -1.139  1.00  0.00     0.684 C 
HETATM    3  N2  UNL     1      -4.352  -1.942  -1.229  1.00  0.00    -0.234 N 
ATOM      4  H21 UNL     1      -4.142  -2.677  -0.553  1.00  0.00     0.174 HD
ATOM      5  H22 UNL     1      -5.062  -2.042  -1.955  1.00  0.00     0.174 HD
HETATM    6  N3  UNL     1      -2.743  -0.688  -0.141  1.00  0.00    -0.120 N 
HETATM    7  C5  UNL     1      -1.442  -0.858  -0.674  1.00  0.00     0.195 C 
HETATM    8  S1  UNL     1      -1.429  -1.142  -2.287  1.00  0.00    -0.040 SA
HETATM    9  N4  UNL     1      -0.146  -0.841  -0.113  1.00  0.00    -0.353 N 
ATOM     10  H4  UNL     1       0.522  -0.799  -0.882  1.00  0.00     0.162 HD
HETATM   11  C6  UNL     1       0.595  -0.859   1.099  1.00  0.00     0.176 C 
HETATM   12  C15 UNL     1      -0.129  -1.055   2.345  1.00  0.00     0.245 C 
HETATM   13  O2  UNL     1       0.574  -1.680   3.191  1.00  0.00    -0.271 OA
HETATM   14  N6  UNL     1      -1.388  -0.759   2.912  1.00  0.00    -0.323 N 
ATOM     15  H6  UNL     1      -1.360  -0.768   3.932  1.00  0.00     0.169 HD
HETATM   16  C16 UNL     1      -2.681  -0.453   2.418  1.00  0.00     0.064 A 
HETATM   17  C17 UNL     1      -3.441  -0.139   3.529  1.00  0.00     0.058 A 
HETATM   18  C18 UNL     1      -4.764   0.207   3.415  1.00  0.00     0.048 A 
HETATM   19  N7  UNL     1      -5.558   0.530   4.528  1.00  0.00    -0.102 NA
HETATM   20  C19 UNL     1      -5.315   0.235   2.166  1.00  0.00     0.029 A 
HETATM   21  C20 UNL     1      -4.555  -0.078   1.051  1.00  0.00     0.035 A 
HETATM   22  C21 UNL     1      -3.230  -0.428   1.138  1.00  0.00     0.086 A 
ENDROOT
BRANCH  11  23
HETATM   23  C7  UNL     1       1.614   0.266   1.218  1.00  0.00     0.035 C 
BRANCH  23  24
HETATM   24  C8  UNL     1       2.648   0.240   0.125  1.00  0.00     0.004 C 
BRANCH  24  25
HETATM   25  C9  UNL     1       3.453  -1.017   0.058  1.00  0.00     0.030 C 
BRANCH  25  26
HETATM   26  C10 UNL     1       4.457  -0.880  -1.085  1.00  0.00     0.272 C 
BRANCH  26  27
HETATM   27  N5  UNL     1       5.366   0.242  -0.862  1.00  0.00     0.092 N 
HETATM   28  C11 UNL     1       6.231   0.276  -2.024  1.00  0.00     0.298 C 
HETATM   29  C12 UNL     1       7.450   1.100  -1.764  1.00  0.00     0.198 C 
HETATM   30  O1  UNL     1       8.163   0.447  -0.734  1.00  0.00    -0.388 OA
HETATM   31  C13 UNL     1       7.425   0.562   0.458  1.00  0.00     0.198 C 
HETATM   32  C14 UNL     1       6.073  -0.055   0.367  1.00  0.00     0.298 C 
ENDBRANCH  26  27
ENDBRANCH  25  26
ENDBRANCH  24  25
ENDBRANCH  23  24
ENDBRANCH  11  23
BRANCH   1  33
HETATM   33  C2  UNL     1      -4.960  -0.065  -3.169  1.00  0.00     0.138 C 
HETATM   34  C1  UNL     1      -6.235   0.701  -3.033  1.00  0.00     0.027 C 
ENDBRANCH   1  33
BRANCH   1  35
HETATM   35  C3  UNL     1      -3.432   1.522  -2.044  1.00  0.00     0.256 C 
HETATM   36 CL1  UNL     1      -4.644   2.804  -1.843  1.00  0.00    -0.108 Cl
ENDBRANCH   1  35
TORSDOF 7
