REMARK  4 active torsions:
REMARK  status: ('A' for Active; 'I' for Inactive)
REMARK    1  A    between atoms: C3_5  and  N2_6 
REMARK    2  A    between atoms: N4_12  and  C5_14 
REMARK    3  A    between atoms: C5_14  and  C6_15 
REMARK    4  A    between atoms: C6_15  and  N5_16 
ROOT
HETATM    1  C1  UNL     1      -3.855  -1.191   0.271  1.00  0.00     0.090 C 
HETATM    2  C2  UNL     1      -2.557  -0.451   0.158  1.00  0.00     0.109 A 
HETATM    3  N1  UNL     1      -2.619   0.851  -0.135  1.00  0.00    -0.180 N 
ATOM      4  H1  UNL     1      -3.525   1.299  -0.271  1.00  0.00     0.185 HD
HETATM    5  C3  UNL     1      -1.498   1.569  -0.251  1.00  0.00     0.691 A 
HETATM    6  N3  UNL     1      -0.301   0.935  -0.063  1.00  0.00    -0.022 N 
ATOM      7  H3  UNL     1       0.554   1.484  -0.152  1.00  0.00     0.203 HD
HETATM    8  C4  UNL     1      -0.190  -0.362   0.231  1.00  0.00     0.697 A 
HETATM    9  N4  UNL     1       0.843  -0.977   0.408  1.00  0.00    -0.203 N 
ATOM     10  H4  UNL     1       0.565  -1.938   0.610  1.00  0.00     0.183 HD
HETATM   11  N6  UNL     1      -1.379  -1.044   0.336  1.00  0.00    -0.180 N 
ATOM     12  H6  UNL     1      -1.358  -2.039   0.558  1.00  0.00     0.185 HD
ENDROOT
BRANCH   9  13
HETATM   13  C5  UNL     1       2.211  -0.963   0.459  1.00  0.00     0.106 C 
BRANCH  13  14
HETATM   14  C6  UNL     1       2.842   0.388   0.277  1.00  0.00     0.274 C 
BRANCH  14  15
HETATM   15  N5  UNL     1       4.306   0.301   0.352  1.00  0.00    -0.075 N 
ATOM     16  H53 UNL     1       4.612  -0.143   1.218  1.00  0.00     0.274 HD
ATOM     17  H52 UNL     1       4.677  -0.379  -0.311  1.00  0.00     0.274 HD
ATOM     18  H51 UNL     1       4.734   1.218   0.228  1.00  0.00     0.274 HD
ENDBRANCH  14  15
ENDBRANCH  13  14
ENDBRANCH   9  13
BRANCH   5  19
HETATM   19  N2  UNL     1      -1.533   2.848  -0.537  1.00  0.00    -0.234 N 
ATOM     20  H22 UNL     1      -2.426   3.321  -0.677  1.00  0.00     0.174 HD
ATOM     21  H21 UNL     1      -0.677   3.396  -0.626  1.00  0.00     0.174 HD
ENDBRANCH   5  19
TORSDOF 4
