REMARK  9 active torsions:
REMARK  status: ('A' for Active; 'I' for Inactive)
REMARK    1  A    between atoms: N1_1  and  N2_4 
REMARK    2  A    between atoms: N2_4  and  C1_6 
REMARK    3  A    between atoms: C3_8  and  N3_9 
REMARK    4  A    between atoms: N3_9  and  C4_11 
REMARK    5  A    between atoms: C4_11  and  C5_12 
REMARK    6  A    between atoms: C5_12  and  N4_13 
REMARK    7  A    between atoms: N4_13  and  C6_15 
REMARK    8  A    between atoms: C6_15  and  C7_16 
REMARK    9  A    between atoms: C8_17  and  O1_18 
ROOT
HETATM    1  C1  UNL     1      -1.383  -0.303  -1.100  1.00  0.00     0.052 C 
HETATM    2  C2  UNL     1      -0.432   0.520  -0.505  1.00  0.00     0.079 C 
HETATM    3  C3  UNL     1      -0.505   1.323   0.603  1.00  0.00     0.104 C 
HETATM    4  N7  UNL     1      -1.615   1.929   1.103  1.00  0.00    -0.328 N 
ATOM      5  H7  UNL     1      -1.436   2.732   1.706  1.00  0.00     0.169 HD
HETATM    6  C11 UNL     1      -2.916   1.628   0.922  1.00  0.00     0.121 A 
HETATM    7  N8  UNL     1      -3.971   2.178   1.551  1.00  0.00    -0.325 N 
ATOM      8  H8  UNL     1      -3.916   2.909   2.260  1.00  0.00     0.169 HD
HETATM    9  C12 UNL     1      -5.116   1.614   1.100  1.00  0.00     0.152 A 
HETATM   10  C13 UNL     1      -4.802   0.657   0.138  1.00  0.00     0.108 A 
HETATM   11  C14 UNL     1      -3.428   0.628  -0.009  1.00  0.00     0.041 A 
HETATM   12  C15 UNL     1      -2.741  -0.205  -0.881  1.00  0.00     0.048 C 
HETATM   13  N9  UNL     1      -5.814  -0.100  -0.512  1.00  0.00    -0.182 N 
ATOM     14  H9  UNL     1      -5.570  -0.798  -1.214  1.00  0.00     0.184 HD
HETATM   15  C16 UNL     1      -7.173   0.134  -0.165  1.00  0.00     0.736 A 
HETATM   16  N10 UNL     1      -8.351  -0.407  -0.591  1.00  0.00    -0.113 N 
ATOM     17  H10 UNL     1      -8.459  -1.137  -1.295  1.00  0.00     0.207 HD
HETATM   18  N11 UNL     1      -9.320   0.182   0.068  1.00  0.00    -0.212 N 
ATOM     19  H11 UNL     1     -10.317  -0.009  -0.031  1.00  0.00     0.210 HD
HETATM   20  N12 UNL     1      -8.777   1.061   0.878  1.00  0.00    -0.191 N 
ATOM     21  H12 UNL     1      -9.302   1.664   1.511  1.00  0.00     0.212 HD
HETATM   22  N13 UNL     1      -7.458   1.062   0.765  1.00  0.00    -0.001 N 
HETATM   23  N14 UNL     1      -6.487   1.823   1.422  1.00  0.00    -0.246 N 
ATOM     24  H14 UNL     1      -6.756   2.516   2.120  1.00  0.00     0.191 HD
ENDROOT
BRANCH   3  25
HETATM   25  N3  UNL     1       0.662   1.577   1.331  1.00  0.00    -0.375 N 
ATOM     26  H3  UNL     1       0.606   2.198   2.138  1.00  0.00     0.161 HD
BRANCH  25  27
HETATM   27  C4  UNL     1       1.938   1.004   0.995  1.00  0.00     0.141 C 
BRANCH  27  28
HETATM   28  C5  UNL     1       2.024  -0.471   1.213  1.00  0.00     0.138 C 
BRANCH  28  29
HETATM   29  N4  UNL     1       3.332  -0.941   0.853  1.00  0.00    -0.396 N 
ATOM     30  H4  UNL     1       3.526  -1.938   0.942  1.00  0.00     0.158 HD
BRANCH  29  31
HETATM   31  C6  UNL     1       4.258  -0.189   0.432  1.00  0.00     0.104 C 
BRANCH  31  32
HETATM   32  C7  UNL     1       5.556  -0.818   0.100  1.00  0.00     0.098 A 
HETATM   33  C8  UNL     1       6.593  -0.018  -0.365  1.00  0.00     0.158 A 
HETATM   34  N5  UNL     1       7.762  -0.609  -0.661  1.00  0.00    -0.332 N 
HETATM   35  C9  UNL     1       7.937  -1.934  -0.515  1.00  0.00     0.185 A 
ATOM     36  H5  UNL     1       8.535  -0.039  -1.005  1.00  0.00     0.168 HD
HETATM   37  N6  UNL     1       6.931  -2.694  -0.066  1.00  0.00    -0.319 N 
HETATM   38  C10 UNL     1       5.752  -2.173   0.243  1.00  0.00     0.262 A 
ATOM     39  H6  UNL     1       7.075  -3.698   0.041  1.00  0.00     0.169 HD
HETATM   40  O2  UNL     1       4.817  -2.906   0.664  1.00  0.00    -0.267 OA
BRANCH  33  41
HETATM   41  O1  UNL     1       6.396   1.341  -0.509  1.00  0.00    -0.345 OA
ATOM     42  H1  UNL     1       7.105   1.888  -0.827  1.00  0.00     0.219 HD
ENDBRANCH  33  41
ENDBRANCH  31  32
ENDBRANCH  29  31
ENDBRANCH  28  29
ENDBRANCH  27  28
ENDBRANCH  25  27
ENDBRANCH   3  25
BRANCH   1  43
HETATM   43  N2  UNL     1      -0.912  -1.302  -1.985  1.00  0.00    -0.307 N 
ATOM     44  H2  UNL     1       0.090  -1.385  -2.155  1.00  0.00     0.186 HD
BRANCH  43  45
HETATM   45  N1  UNL     1      -1.785  -2.172  -2.627  1.00  0.00    -0.345 N 
ATOM     46  H12 UNL     1      -2.784  -2.075  -2.445  1.00  0.00     0.176 HD
ATOM     47  H11 UNL     1      -1.446  -2.892  -3.265  1.00  0.00     0.176 HD
ENDBRANCH  43  45
ENDBRANCH   1  43
TORSDOF 9
