REMARK  8 active torsions:
REMARK  status: ('A' for Active; 'I' for Inactive)
REMARK    1  A    between atoms: C4_11  and  C5_12 
REMARK    2  A    between atoms: C5_12  and  N5_13 
REMARK    3  A    between atoms: C6_16  and  C7_17 
REMARK    4  A    between atoms: C8_22  and  S1_23 
REMARK    5  A    between atoms: S1_23  and  C9_24 
REMARK    6  A    between atoms: C9_24  and  C10_25 
REMARK       I    between atoms: C10_25  and  N8_27 
REMARK    7  A    between atoms: N8_27  and  C11_29 
REMARK    8  A    between atoms: C13_37  and  N12_38 
ROOT
HETATM    1  N5  UNL     1      -3.572  -2.100   2.900  1.00  0.00    -0.296 NA
HETATM    2  O1  UNL     1      -4.102  -2.447   3.972  1.00  0.00    -0.219 OA
ATOM      3  H1  UNL     1      -4.491  -2.723   4.794  1.00  0.00     0.261 HD
ENDROOT
BRANCH   1   4
HETATM    4  C5  UNL     1      -3.082  -1.752   1.864  1.00  0.00     0.232 C 
BRANCH   4   5
HETATM    5  C4  UNL     1      -3.668  -0.813   0.913  1.00  0.00     0.041 A 
HETATM    6  C3  UNL     1      -4.904  -0.215   1.163  1.00  0.00     0.101 A 
HETATM    7  C2  UNL     1      -5.476   0.744   0.344  1.00  0.00     0.143 A 
HETATM    8  N4  UNL     1      -5.619  -0.605   2.324  1.00  0.00    -0.098 NA
HETATM    9  N2  UNL     1      -4.801   1.111  -0.743  1.00  0.00    -0.329 N 
HETATM   10  N3  UNL     1      -6.747   1.291   0.706  1.00  0.00    -0.081 NA
HETATM   11  C1  UNL     1      -3.599   0.565  -1.041  1.00  0.00     0.115 A 
ATOM     12  H2  UNL     1      -5.197   1.817  -1.363  1.00  0.00     0.168 HD
HETATM   13  N1  UNL     1      -3.098   0.986  -2.143  1.00  0.00    -0.385 N 
HETATM   14  C6  UNL     1      -3.019  -0.398  -0.224  1.00  0.00     0.075 A 
ATOM     15  H12 UNL     1      -3.524   1.693  -2.743  1.00  0.00     0.157 HD
ATOM     16  H11 UNL     1      -2.192   0.575  -2.368  1.00  0.00     0.157 HD
BRANCH  14  17
HETATM   17  C7  UNL     1      -1.699  -0.857  -0.579  1.00  0.00     0.180 A 
HETATM   18  N6  UNL     1      -1.215  -2.094  -0.465  1.00  0.00    -0.276 N 
HETATM   19  N7  UNL     1       0.007  -2.111  -0.911  1.00  0.00    -0.272 N 
ATOM     20  H6  UNL     1      -1.720  -2.896  -0.089  1.00  0.00     0.189 HD
HETATM   21  C8  UNL     1       0.338  -0.853  -1.326  1.00  0.00     0.204 A 
ATOM     22  H7  UNL     1       0.616  -2.928  -0.945  1.00  0.00     0.189 HD
HETATM   23  O4  UNL     1      -0.709  -0.144  -1.108  1.00  0.00    -0.267 OA
BRANCH  21  24
HETATM   24  S1  UNL     1       1.936  -0.500  -1.997  1.00  0.00    -0.075 SA
BRANCH  24  25
HETATM   25  C9  UNL     1       2.236   1.266  -2.278  1.00  0.00     0.186 C 
BRANCH  25  26
HETATM   26  C10 UNL     1       3.572   1.368  -2.900  1.00  0.00     0.233 C 
HETATM   27  O2  UNL     1       3.675   1.672  -4.150  1.00  0.00    -0.272 OA
HETATM   28  N8  UNL     1       4.786   1.147  -2.224  1.00  0.00    -0.309 N 
ATOM     29  H8  UNL     1       5.651   1.214  -2.761  1.00  0.00     0.170 HD
BRANCH  28  30
HETATM   30  C11 UNL     1       4.884   0.839  -0.850  1.00  0.00     0.160 A 
HETATM   31  N9  UNL     1       3.889   0.796   0.027  1.00  0.00    -0.223 N 
HETATM   32  O3  UNL     1       4.074   0.523   1.268  1.00  0.00    -0.154 OA
ATOM     33  H9  UNL     1       2.941   0.987  -0.297  1.00  0.00     0.198 HD
HETATM   34  N10 UNL     1       5.230   0.262   1.794  1.00  0.00    -0.225 N 
HETATM   35  C12 UNL     1       6.306   0.280   0.987  1.00  0.00     0.168 A 
ATOM     36  H10 UNL     1       5.321   0.050   2.788  1.00  0.00     0.198 HD
HETATM   37  N11 UNL     1       7.616  -0.012   1.487  1.00  0.00    -0.078 NA
HETATM   38  C13 UNL     1       6.175   0.568  -0.354  1.00  0.00     0.115 A 
BRANCH  38  39
HETATM   39  N12 UNL     1       7.178   0.582  -1.138  1.00  0.00    -0.393 N 
ATOM     40 2H12 UNL     1       7.081   0.795  -2.131  1.00  0.00     0.156 HD
ATOM     41 1H12 UNL     1       8.112   0.386  -0.779  1.00  0.00     0.156 HD
ENDBRANCH  38  39
ENDBRANCH  28  30
ENDBRANCH  25  26
ENDBRANCH  24  25
ENDBRANCH  21  24
ENDBRANCH  14  17
ENDBRANCH   4   5
ENDBRANCH   1   4
TORSDOF 8
