REMARK  12 active torsions:
REMARK  status: ('A' for Active; 'I' for Inactive)
REMARK    1  A    between atoms: C3_8  and  N3_9 
REMARK    2  A    between atoms: C4_10  and  O2_11 
REMARK    3  A    between atoms: C5_13  and  O3_14 
REMARK    4  A    between atoms: C6_16  and  O4_17 
REMARK    5  A    between atoms: C7_19  and  C8_20 
REMARK    6  A    between atoms: N7_27  and  C9_28 
REMARK    7  A    between atoms: C9_28  and  C10_29 
REMARK    8  A    between atoms: C10_29  and  O5_30 
REMARK    9  A    between atoms: C10_29  and  C11_32 
REMARK   10  A    between atoms: C12_33  and  O6_34 
REMARK   11  A    between atoms: C13_38  and  N9_39 
REMARK   12  A    between atoms: C14_44  and  N11_45 
ROOT
HETATM    1  C8  UNL     1      -1.074  -0.112   0.959  1.00  0.00     0.170 A 
HETATM    2  N4  UNL     1      -1.237  -0.731   2.191  1.00  0.00    -0.267 N 
ATOM      3  H4  UNL     1      -1.986  -0.530   2.853  1.00  0.00     0.190 HD
HETATM    4  N5  UNL     1      -0.315  -1.584   2.371  1.00  0.00    -0.226 N 
ATOM      5  H5  UNL     1      -0.202  -2.177   3.193  1.00  0.00     0.210 HD
HETATM    6  N6  UNL     1       0.461  -1.571   1.326  1.00  0.00    -0.224 N 
ATOM      7  H6  UNL     1       1.287  -2.153   1.189  1.00  0.00     0.210 HD
HETATM    8  N7  UNL     1      -0.019  -0.646   0.445  1.00  0.00    -0.252 N 
ENDROOT
BRANCH   8   9
HETATM    9  C9  UNL     1       0.785  -0.475  -0.760  1.00  0.00     0.217 C 
BRANCH   9  10
HETATM   10  C10 UNL     1       1.976   0.322  -0.428  1.00  0.00     0.081 C 
BRANCH  10  11
HETATM   11  O5  UNL     1       1.744   1.464   0.156  1.00  0.00    -0.362 OA
ATOM     12  H5  UNL     1       2.513   1.979   0.370  1.00  0.00     0.217 HD
ENDBRANCH  10  11
BRANCH  10  13
HETATM   13  C11 UNL     1       3.358  -0.025  -0.680  1.00  0.00     0.090 A 
HETATM   14  C12 UNL     1       3.776  -1.180  -1.261  1.00  0.00     0.171 A 
HETATM   15  N8  UNL     1       5.098  -1.446  -1.464  1.00  0.00    -0.170 N 
HETATM   16  C13 UNL     1       6.050  -0.583  -1.103  1.00  0.00     0.679 A 
ATOM     17  H8  UNL     1       5.366  -2.327  -1.903  1.00  0.00     0.186 HD
HETATM   18  N10 UNL     1       5.653   0.568  -0.527  1.00  0.00    -0.176 N 
HETATM   19  C14 UNL     1       4.373   0.880  -0.304  1.00  0.00     0.131 A 
ATOM     20  H10 UNL     1       6.369   1.238  -0.246  1.00  0.00     0.186 HD
BRANCH  14  21
HETATM   21  O6  UNL     1       2.935  -2.206  -1.708  1.00  0.00    -0.345 OA
ATOM     22  H6  UNL     1       3.227  -3.014  -2.114  1.00  0.00     0.219 HD
ENDBRANCH  14  21
BRANCH  16  23
HETATM   23  N9  UNL     1       7.296  -0.874  -1.318  1.00  0.00    -0.234 N 
ATOM     24  H92 UNL     1       7.597  -1.746  -1.754  1.00  0.00     0.174 HD
ATOM     25  H91 UNL     1       8.024  -0.214  -1.042  1.00  0.00     0.174 HD
ENDBRANCH  16  23
BRANCH  19  26
HETATM   26  N11 UNL     1       4.025   2.017   0.255  1.00  0.00    -0.384 N 
ATOM     27 2H11 UNL     1       3.048   2.255   0.425  1.00  0.00     0.157 HD
ATOM     28 1H11 UNL     1       4.759   2.671   0.527  1.00  0.00     0.157 HD
ENDBRANCH  19  26
ENDBRANCH  10  13
ENDBRANCH   9  10
ENDBRANCH   8   9
BRANCH   1  29
HETATM   29  C7  UNL     1      -2.046   0.836   0.449  1.00  0.00     0.126 A 
HETATM   30  N3  UNL     1      -3.335   0.831   0.931  1.00  0.00    -0.266 N 
HETATM   31  C4  UNL     1      -4.098   1.710   0.298  1.00  0.00     0.186 A 
HETATM   32  C5  UNL     1      -3.351   2.354  -0.648  1.00  0.00     0.153 A 
HETATM   33  C6  UNL     1      -2.036   1.767  -0.524  1.00  0.00     0.135 A 
BRANCH  30  34
HETATM   34  C3  UNL     1      -3.856  -0.001   1.962  1.00  0.00     0.161 A 
HETATM   35  C2  UNL     1      -4.380  -1.254   1.713  1.00  0.00     0.077 A 
HETATM   36  C1  UNL     1      -4.482  -1.901   0.383  1.00  0.00     0.074 C 
HETATM   37  N1  UNL     1      -4.766  -1.727   2.917  1.00  0.00    -0.242 N 
HETATM   38  O1  UNL     1      -4.496  -0.823   3.826  1.00  0.00    -0.155 OA
ATOM     39  H1  UNL     1      -5.196  -2.636   3.090  1.00  0.00     0.196 HD
HETATM   40  N2  UNL     1      -3.949   0.229   3.293  1.00  0.00    -0.223 N 
ATOM     41  H2  UNL     1      -3.647   1.070   3.785  1.00  0.00     0.198 HD
ENDBRANCH  30  34
BRANCH  31  42
HETATM   42  O2  UNL     1      -5.455   1.987   0.510  1.00  0.00    -0.344 OA
ATOM     43  H2  UNL     1      -6.002   2.617   0.056  1.00  0.00     0.219 HD
ENDBRANCH  31  42
BRANCH  32  44
HETATM   44  O3  UNL     1      -3.729   3.334  -1.529  1.00  0.00    -0.354 OA
ATOM     45  H3  UNL     1      -3.210   3.782  -2.187  1.00  0.00     0.218 HD
ENDBRANCH  32  44
BRANCH  33  46
HETATM   46  O4  UNL     1      -1.103   2.238  -1.354  1.00  0.00    -0.356 OA
ATOM     47  H4  UNL     1      -0.239   1.852  -1.272  1.00  0.00     0.218 HD
ENDBRANCH  33  46
ENDBRANCH   1  29
TORSDOF 12
