REMARK  4 active torsions:
REMARK  status: ('A' for Active; 'I' for Inactive)
REMARK    1  A    between atoms: C2_2  and  N1_5 
REMARK       I    between atoms: N1_5  and  C5_7 
REMARK       I    between atoms: C5_7  and  N2_9 
REMARK    2  A    between atoms: N2_9  and  S1_11 
REMARK    3  A    between atoms: S1_11  and  C6_14 
REMARK    4  A    between atoms: C10_19  and  C12_21 
ROOT
HETATM    1  S1  UNL     1      -1.269  -1.917  -0.122  1.00  0.00     0.246 S 
HETATM    2  O2  UNL     1      -2.209  -2.485   0.897  1.00  0.00    -0.205 OA
HETATM    3  O3  UNL     1      -1.045  -3.043  -1.130  1.00  0.00    -0.205 OA
ENDROOT
BRANCH   1   4
HETATM    4  N2  UNL     1       0.235  -1.620   0.613  1.00  0.00    -0.235 N 
HETATM    5  C5  UNL     1       1.269  -0.824   0.051  1.00  0.00     0.330 C 
HETATM    6  N1  UNL     1       2.500  -0.623   0.723  1.00  0.00    -0.334 N 
HETATM    7  O1  UNL     1       1.154  -0.255  -1.069  1.00  0.00    -0.246 OA
ATOM      8  H1  UNL     1       2.628  -1.069   1.631  1.00  0.00     0.165 HD
ATOM      9  H2  UNL     1       0.408  -2.044   1.524  1.00  0.00     0.183 HD
BRANCH   6  10
HETATM   10  C2  UNL     1       3.577   0.170   0.204  1.00  0.00     0.023 C 
HETATM   11  C1  UNL     1       4.768   0.183   1.168  1.00  0.00     0.037 C 
HETATM   12  C3  UNL     1       4.105  -0.318  -1.128  1.00  0.00     0.037 C 
HETATM   13  C4  UNL     1       3.100   1.603   0.118  1.00  0.00     0.037 C 
ENDBRANCH   6  10
ENDBRANCH   1   4
BRANCH   1  14
HETATM   14  C6  UNL     1      -1.940  -0.530  -0.963  1.00  0.00     0.207 C 
HETATM   15  C7  UNL     1      -3.198  -1.016  -1.652  1.00  0.00     0.147 C 
HETATM   16  O4  UNL     1      -3.355  -1.349  -2.792  1.00  0.00    -0.296 OA
HETATM   17  C8  UNL     1      -4.235  -0.995  -0.582  1.00  0.00     0.080 C 
HETATM   18  C9  UNL     1      -3.732  -0.073   0.484  1.00  0.00     0.019 C 
HETATM   19  C10 UNL     1      -2.500   0.538  -0.100  1.00  0.00    -0.009 C 
HETATM   20  C11 UNL     1      -2.972   1.657  -1.039  1.00  0.00     0.018 C 
BRANCH  19  21
HETATM   21  C12 UNL     1      -1.574   1.140   0.902  1.00  0.00     0.096 C 
HETATM   22 BR1  UNL     1      -2.462   2.509   1.938  1.00  0.00    -0.096 Br
ENDBRANCH  19  21
ENDBRANCH   1  14
TORSDOF 4
