REMARK  4 active torsions:
REMARK  status: ('A' for Active; 'I' for Inactive)
REMARK    1  A    between atoms: C2_2  and  C4_4 
REMARK    2  A    between atoms: C4_4  and  N1_5 
REMARK       I    between atoms: N1_5  and  C5_7 
REMARK    3  A    between atoms: C5_7  and  C6_9 
REMARK       I    between atoms: C6_9  and  N2_11 
REMARK    4  A    between atoms: N2_11  and  C7_13 
ROOT
HETATM    1  C6  UNL     1       0.843  -0.755  -0.659  1.00  0.00     0.309 C 
HETATM    2  O2  UNL     1       0.825  -1.181  -1.841  1.00  0.00    -0.262 OA
HETATM    3  N2  UNL     1      -0.343  -0.285  -0.007  1.00  0.00    -0.348 N 
ATOM      4  H2  UNL     1      -0.256   0.046   0.954  1.00  0.00     0.163 HD
ENDROOT
BRANCH   3   5
HETATM    5  C7  UNL     1      -1.639  -0.247  -0.606  1.00  0.00     0.093 C 
HETATM    6  C8  UNL     1      -2.575  -1.142   0.170  1.00  0.00     0.010 C 
HETATM    7  C9  UNL     1      -3.928  -1.262  -0.493  1.00  0.00     0.011 C 
HETATM    8  C16 UNL     1      -2.807  -0.627   1.569  1.00  0.00     0.027 C 
HETATM    9  C10 UNL     1      -4.553   0.119  -0.606  1.00  0.00    -0.012 C 
HETATM   10  C11 UNL     1      -3.593   0.994  -1.352  1.00  0.00     0.011 C 
HETATM   11  C15 UNL     1      -4.777   0.689   0.762  1.00  0.00     0.025 C 
HETATM   12  C12 UNL     1      -2.256   1.125  -0.651  1.00  0.00     0.010 C 
HETATM   13  C13 UNL     1      -2.482   1.642   0.741  1.00  0.00     0.027 C 
HETATM   14  C14 UNL     1      -3.447   0.738   1.476  1.00  0.00     0.019 C 
HETATM   15 BR1  UNL     1      -3.628   1.423   3.274  1.00  0.00    -0.086 Br
ENDBRANCH   3   5
BRANCH   1  16
HETATM   16  C5  UNL     1       2.134  -0.766   0.011  1.00  0.00     0.309 C 
HETATM   17  N1  UNL     1       3.268  -1.228  -0.646  1.00  0.00    -0.353 N 
ATOM     18  H1  UNL     1       3.162  -1.561  -1.604  1.00  0.00     0.162 HD
HETATM   19  O1  UNL     1       2.185  -0.349   1.186  1.00  0.00    -0.262 OA
BRANCH  17  20
HETATM   20  C4  UNL     1       4.573  -1.266  -0.066  1.00  0.00     0.127 C 
BRANCH  20  21
HETATM   21  C2  UNL     1       5.026   0.130   0.271  1.00  0.00    -0.005 C 
HETATM   22  C1  UNL     1       6.417   0.108   0.883  1.00  0.00     0.011 C 
HETATM   23  C3  UNL     1       5.128   0.877  -1.066  1.00  0.00     0.011 C 
ENDBRANCH  20  21
ENDBRANCH  17  20
ENDBRANCH   1  16
TORSDOF 4
