REMARK  4 active torsions:
REMARK  status: ('A' for Active; 'I' for Inactive)
REMARK    1  A    between atoms: O1_2  and  C2_3 
REMARK    2  A    between atoms: C5_6  and  C6_7 
REMARK    3  A    between atoms: C7_8  and  C8_9 
REMARK    4  A    between atoms: C8_9  and  N1_10 
ROOT
HETATM    1  C2  UNL     1       2.548   0.599   0.151  1.00  0.00     0.068 A 
HETATM    2  C3  UNL     1       2.055  -0.653   0.437  1.00  0.00     0.038 A 
HETATM    3  C4  UNL     1       0.693  -0.918   0.392  1.00  0.00     0.023 A 
HETATM    4  C5  UNL     1      -0.168   0.102   0.053  1.00  0.00     0.018 A 
HETATM    5  C9  UNL     1       0.336   1.343  -0.230  1.00  0.00     0.023 A 
HETATM    6  C10 UNL     1       1.682   1.614  -0.188  1.00  0.00     0.038 A 
ENDROOT
BRANCH   4   7
HETATM    7  C6  UNL     1      -1.593  -0.067  -0.022  1.00  0.00    -0.064 C 
HETATM    8  C7  UNL     1      -2.798  -0.191  -0.076  1.00  0.00    -0.056 C 
BRANCH   8   9
HETATM    9  C8  UNL     1      -4.267  -0.316  -0.141  1.00  0.00     0.334 C 
HETATM   10  S1  UNL     1      -4.761  -2.048  -0.377  1.00  0.00    -0.049 SA
BRANCH   9  11
HETATM   11  N1  UNL     1      -4.821   0.527  -1.183  1.00  0.00    -0.055 N 
ATOM     12  H13 UNL     1      -4.532   1.499  -1.072  1.00  0.00     0.276 HD
ATOM     13  H12 UNL     1      -4.389   0.338  -2.087  1.00  0.00     0.276 HD
ATOM     14  H11 UNL     1      -5.836   0.441  -1.228  1.00  0.00     0.276 HD
ENDBRANCH   9  11
ENDBRANCH   8   9
ENDBRANCH   4   7
BRANCH   1  15
HETATM   15  O1  UNL     1       3.910   0.862   0.196  1.00  0.00    -0.356 OA
HETATM   16  C1  UNL     1       4.836  -0.156   0.540  1.00  0.00     0.210 C 
ENDBRANCH   1  15
TORSDOF 4
