REMARK  2 active torsions:
REMARK  status: ('A' for Active; 'I' for Inactive)
REMARK    1  A    between atoms: C2_3  and  N2_4 
REMARK    2  A    between atoms: C5_8  and  N3_9 
ROOT
HETATM    1  N1  UNL     1       0.931  -3.132   0.007  1.00  0.00    -0.195 NA
HETATM    2  C1  UNL     1       0.627  -2.004   0.016  1.00  0.00     0.091 C 
HETATM    3  C2  UNL     1       0.221  -0.590   0.021  1.00  0.00     0.129 C 
HETATM    4  C6  UNL     1      -0.640  -0.406  -1.220  1.00  0.00     0.047 C 
HETATM    5  C7  UNL     1      -2.052  -0.830  -0.796  1.00  0.00     0.004 C 
HETATM    6  C8  UNL     1      -2.601   0.339  -0.009  1.00  0.00     0.000 C 
HETATM    7  C9  UNL     1      -1.677   0.627   1.138  1.00  0.00     0.004 C 
HETATM    8  C10 UNL     1      -0.571  -0.377   1.285  1.00  0.00     0.047 C 
ENDROOT
BRANCH   3   9
HETATM    9  N2  UNL     1       1.370   0.279   0.004  1.00  0.00    -0.299 N 
HETATM   10  C3  UNL     1       1.552   1.432  -0.667  1.00  0.00     0.121 A 
HETATM   11  C4  UNL     1       2.822   1.882  -0.351  1.00  0.00     0.163 A 
HETATM   12  O1  UNL     1       3.346   1.011   0.475  1.00  0.00    -0.290 OA
HETATM   13  C5  UNL     1       2.494   0.045   0.699  1.00  0.00     0.225 A 
BRANCH  13  14
HETATM   14  N3  UNL     1       2.698  -0.983   1.474  1.00  0.00    -0.365 N 
ATOM     15  H32 UNL     1       2.033  -1.737   1.649  1.00  0.00     0.159 HD
ATOM     16  H31 UNL     1       3.552  -1.161   2.002  1.00  0.00     0.159 HD
ENDBRANCH  13  14
ENDBRANCH   3   9
TORSDOF 2
