REMARK  4 active torsions:
REMARK  status: ('A' for Active; 'I' for Inactive)
REMARK    1  A    between atoms: C2_3  and  S1_4 
REMARK    2  A    between atoms: S1_4  and  C3_5 
REMARK    3  A    between atoms: C3_5  and  N3_10 
REMARK    4  A    between atoms: N2_6  and  O1_8 
ROOT
HETATM    1  N1  UNL     1       4.796   1.336   0.939  1.00  0.00    -0.197 NA
HETATM    2  C1  UNL     1       4.425   0.464   0.246  1.00  0.00     0.069 C 
HETATM    3  C2  UNL     1       3.957  -0.617  -0.621  1.00  0.00     0.206 C 
ENDROOT
BRANCH   3   4
HETATM    4  S1  UNL     1       2.281  -0.240  -1.168  1.00  0.00    -0.078 SA
BRANCH   4   5
HETATM    5  C3  UNL     1       1.197  -0.282   0.245  1.00  0.00     0.163 C 
HETATM    6  N2  UNL     1       1.705  -0.559   1.395  1.00  0.00    -0.247 N 
ATOM      7  H2  UNL     1       2.704  -0.746   1.479  1.00  0.00     0.196 HD
BRANCH   6   8
HETATM    8  O1  UNL     1       0.905  -0.602   2.504  1.00  0.00    -0.288 OA
ATOM      9  H1  UNL     1       1.280  -0.806   3.353  1.00  0.00     0.244 HD
ENDBRANCH   6   8
BRANCH   5  10
HETATM   10  N3  UNL     1      -0.191  -0.022   0.139  1.00  0.00    -0.360 N 
HETATM   11  C4  UNL     1      -0.621   1.315  -0.170  1.00  0.00     0.125 C 
HETATM   12  C5  UNL     1      -1.976   1.146  -0.876  1.00  0.00     0.020 C 
HETATM   13  C6  UNL     1      -2.928   0.682   0.204  1.00  0.00     0.003 C 
HETATM   14  C7  UNL     1      -2.485  -0.622   0.788  1.00  0.00     0.020 C 
HETATM   15  C8  UNL     1      -1.126  -1.067   0.335  1.00  0.00     0.125 C 
ENDBRANCH   5  10
ENDBRANCH   4   5
ENDBRANCH   3   4
TORSDOF 4
