REMARK  1 active torsions:
REMARK  status: ('A' for Active; 'I' for Inactive)
REMARK    1  A    between atoms: C5_10  and  C6_11 
ROOT
HETATM    1  N1  UNL     1       0.559   3.728   1.056  1.00  0.00    -0.190 NA
HETATM    2  C1  UNL     1       1.001   2.720   0.643  1.00  0.00     0.115 C 
HETATM    3  C2  UNL     1       1.558   1.498   0.138  1.00  0.00     0.113 C 
HETATM    4  N2  UNL     1       2.798   1.172   0.384  1.00  0.00    -0.296 N 
ATOM      5  H2  UNL     1       3.448   1.735   0.933  1.00  0.00     0.183 HD
HETATM    6  N3  UNL     1       3.109  -0.038  -0.200  1.00  0.00    -0.120 NA
HETATM    7  C3  UNL     1       1.850  -0.731  -0.467  1.00  0.00     0.220 C 
HETATM    8  C4  UNL     1       1.461  -1.474   0.703  1.00  0.00     0.083 C 
HETATM    9  N4  UNL     1       1.165  -2.103   1.657  1.00  0.00    -0.195 NA
HETATM   10  C5  UNL     1       0.937   0.456  -0.676  1.00  0.00     0.115 C 
ENDROOT
BRANCH  10  11
HETATM   11  C6  UNL     1      -0.424   0.077  -0.288  1.00  0.00    -0.045 A 
HETATM   12  C7  UNL     1      -0.945   0.164   0.976  1.00  0.00     0.008 A 
HETATM   13  C8  UNL     1      -2.233  -0.214   1.290  1.00  0.00     0.001 A 
HETATM   14  C9  UNL     1      -3.040  -0.704   0.288  1.00  0.00     0.000 A 
HETATM   15  C10 UNL     1      -2.526  -0.796  -0.990  1.00  0.00     0.001 A 
HETATM   16  C11 UNL     1      -1.241  -0.421  -1.311  1.00  0.00     0.008 A 
ENDBRANCH  10  11
TORSDOF 1
