REMARK  7 active torsions:
REMARK  status: ('A' for Active; 'I' for Inactive)
REMARK    1  A    between atoms: O1_2  and  C2_3 
REMARK    2  A    between atoms: C2_3  and  C3_5 
REMARK    3  A    between atoms: C3_5  and  C4_6 
REMARK    4  A    between atoms: C3_5  and  C8_23 
REMARK       I    between atoms: C4_6  and  N1_8 
REMARK    5  A    between atoms: N1_8  and  N2_10 
REMARK    6  A    between atoms: N2_10  and  C5_12 
REMARK    7  A    between atoms: C9_26  and  N7_27 
ROOT
HETATM    1  C4  UNL     1      -0.104  -1.567  -0.466  1.00  0.00     0.257 C 
HETATM    2  O3  UNL     1       0.038  -2.532   0.316  1.00  0.00    -0.270 OA
HETATM    3  N1  UNL     1       1.012  -0.970  -1.070  1.00  0.00    -0.267 N 
ATOM      4  H1  UNL     1       0.858  -0.184  -1.702  1.00  0.00     0.190 HD
ENDROOT
BRANCH   1   5
HETATM    5  C3  UNL     1      -1.458  -1.059  -0.750  1.00  0.00     0.248 C 
BRANCH   5   6
HETATM    6  C2  UNL     1      -2.526  -1.921  -0.185  1.00  0.00     0.279 C 
HETATM    7  O2  UNL     1      -2.289  -2.877   0.596  1.00  0.00    -0.264 OA
BRANCH   6   8
HETATM    8  O1  UNL     1      -3.864  -1.710  -0.498  1.00  0.00    -0.325 OA
HETATM    9  C1  UNL     1      -4.916  -2.503   0.012  1.00  0.00     0.213 C 
ENDBRANCH   6   8
ENDBRANCH   5   6
BRANCH   5  10
HETATM   10  C8  UNL     1      -1.632   0.369  -0.364  1.00  0.00     0.135 A 
HETATM   11  N6  UNL     1      -1.887   1.409  -1.178  1.00  0.00    -0.177 N 
HETATM   12  C9  UNL     1      -1.978   2.554  -0.461  1.00  0.00     0.691 A 
ATOM     13  H6  UNL     1      -1.996   1.344  -2.190  1.00  0.00     0.185 HD
HETATM   14  N8  UNL     1      -1.773   2.199   0.823  1.00  0.00    -0.131 N 
HETATM   15  N9  UNL     1      -1.567   0.892   0.873  1.00  0.00    -0.273 N 
ATOM     16  H8  UNL     1      -1.776   2.832   1.623  1.00  0.00     0.205 HD
ATOM     17  H9  UNL     1      -1.386   0.360   1.724  1.00  0.00     0.189 HD
BRANCH  12  18
HETATM   18  N7  UNL     1      -2.215   3.702  -0.971  1.00  0.00    -0.233 N 
ATOM     19  H72 UNL     1      -2.370   3.971  -1.943  1.00  0.00     0.174 HD
ATOM     20  H71 UNL     1      -2.284   4.565  -0.431  1.00  0.00     0.174 HD
ENDBRANCH  12  18
ENDBRANCH   5  10
ENDBRANCH   1   5
BRANCH   3  21
HETATM   21  N2  UNL     1       2.336  -1.400  -0.849  1.00  0.00    -0.277 N 
ATOM     22  H2  UNL     1       2.618  -2.366  -1.014  1.00  0.00     0.189 HD
BRANCH  21  23
HETATM   23  C5  UNL     1       3.173  -0.517  -0.429  1.00  0.00     0.167 A 
HETATM   24  N3  UNL     1       2.836   0.760  -0.202  1.00  0.00    -0.331 N 
HETATM   25  C6  UNL     1       3.674   1.703   0.232  1.00  0.00     0.184 A 
ATOM     26  H3  UNL     1       1.868   1.031  -0.374  1.00  0.00     0.168 HD
HETATM   27  N4  UNL     1       4.964   1.571   0.517  1.00  0.00    -0.333 N 
HETATM   28  C7  UNL     1       5.689   0.469   0.428  1.00  0.00     0.146 A 
ATOM     29  H4  UNL     1       5.447   2.409   0.839  1.00  0.00     0.168 HD
HETATM   30  N5  UNL     1       6.938   0.466   0.734  1.00  0.00    -0.380 N 
HETATM   31  S1  UNL     1       4.804  -0.884  -0.118  1.00  0.00    -0.017 SA
ATOM     32  H52 UNL     1       7.467   1.275   1.060  1.00  0.00     0.158 HD
ATOM     33  H51 UNL     1       7.497  -0.384   0.665  1.00  0.00     0.158 HD
ENDBRANCH  21  23
ENDBRANCH   3  21
TORSDOF 7
