REMARK  5 active torsions:
REMARK  status: ('A' for Active; 'I' for Inactive)
REMARK    1  A    between atoms: N3_9  and  C3_10 
REMARK    2  A    between atoms: C3_10  and  C4_11 
REMARK    3  A    between atoms: C4_11  and  N4_12 
REMARK    4  A    between atoms: C4_11  and  C5_16 
REMARK    5  A    between atoms: C5_16  and  N5_17 
REMARK       I    between atoms: C6_19  and  N7_21 
ROOT
HETATM    1  N5  UNL     1       0.745  -1.323   0.387  1.00  0.00    -0.362 N 
ATOM      2  H5  UNL     1       1.638  -1.804   0.277  1.00  0.00     0.162 HD
HETATM    3  C6  UNL     1      -0.291  -2.063   0.378  1.00  0.00     0.188 C 
HETATM    4  N6  UNL     1      -0.127  -3.462   0.220  1.00  0.00    -0.064 NA
HETATM    5  N7  UNL     1      -1.587  -1.547   0.522  1.00  0.00    -0.326 N 
ATOM      6  H7  UNL     1      -2.005  -1.655   1.446  1.00  0.00     0.168 HD
HETATM    7  C7  UNL     1      -2.310  -0.964  -0.342  1.00  0.00     0.106 C 
HETATM    8  C8  UNL     1      -3.582  -0.539   0.056  1.00  0.00     0.080 C 
HETATM    9  C9  UNL     1      -4.408   0.426  -0.506  1.00  0.00     0.119 C 
HETATM   10  N8  UNL     1      -5.474   0.910   0.288  1.00  0.00    -0.083 NA
HETATM   11  N9  UNL     1      -4.258   0.922  -1.747  1.00  0.00    -0.341 N 
ATOM     12  H9  UNL     1      -5.106   1.334  -2.136  1.00  0.00     0.167 HD
HETATM   13  C10 UNL     1      -3.196   0.975  -2.569  1.00  0.00     0.184 C 
HETATM   14  N10 UNL     1      -2.052   0.257  -2.417  1.00  0.00    -0.318 N 
ATOM     15  H10 UNL     1      -1.270   0.557  -2.999  1.00  0.00     0.169 HD
HETATM   16  C11 UNL     1      -1.799  -0.791  -1.612  1.00  0.00     0.273 C 
HETATM   17  O1  UNL     1      -1.035  -1.709  -2.023  1.00  0.00    -0.266 OA
ENDROOT
BRANCH   1  18
HETATM   18  C5  UNL     1       0.814   0.095   0.532  1.00  0.00     0.156 C 
BRANCH  18  19
HETATM   19  C4  UNL     1       1.741   0.552   1.617  1.00  0.00     0.221 C 
BRANCH  19  20
HETATM   20  C3  UNL     1       3.154   0.123   1.421  1.00  0.00     0.185 C 
BRANCH  20  21
HETATM   21  N3  UNL     1       3.665   0.509   0.087  1.00  0.00    -0.269 N 
HETATM   22  C1  UNL     1       4.256   1.698  -0.073  1.00  0.00     0.160 A 
HETATM   23  N1  UNL     1       4.467   2.634   0.817  1.00  0.00    -0.378 N 
HETATM   24  S1  UNL     1       4.655   1.661  -1.736  1.00  0.00    -0.046 SA
ATOM     25  H12 UNL     1       4.918   3.541   0.695  1.00  0.00     0.158 HD
ATOM     26  H11 UNL     1       4.229   2.656   1.809  1.00  0.00     0.158 HD
HETATM   27  C2  UNL     1       4.027   0.111  -2.099  1.00  0.00     0.160 A 
HETATM   28  N2  UNL     1       3.560  -0.257  -0.916  1.00  0.00    -0.301 N 
ATOM     29  H2  UNL     1       3.111  -1.167  -0.811  1.00  0.00     0.186 HD
ENDBRANCH  20  21
ENDBRANCH  19  20
BRANCH  19  30
HETATM   30  N4  UNL     1       1.293   0.155   2.924  1.00  0.00    -0.072 N 
ATOM     31  H43 UNL     1       1.418  -0.844   3.086  1.00  0.00     0.274 HD
ATOM     32  H42 UNL     1       1.906   0.501   3.662  1.00  0.00     0.274 HD
ATOM     33  H41 UNL     1       0.325   0.449   3.058  1.00  0.00     0.274 HD
ENDBRANCH  19  30
ENDBRANCH  18  19
ENDBRANCH   1  18
TORSDOF 5
