REMARK  9 active torsions:
REMARK  status: ('A' for Active; 'I' for Inactive)
REMARK    1  A    between atoms: C2_7  and  S1_8 
REMARK    2  A    between atoms: S1_8  and  N3_9 
REMARK    3  A    between atoms: C3_15  and  N4_16 
REMARK    4  A    between atoms: N4_16  and  C4_18 
REMARK    5  A    between atoms: C4_18  and  N5_19 
REMARK    6  A    between atoms: C4_18  and  C5_24 
REMARK    7  A    between atoms: N5_19  and  N6_21 
REMARK    8  A    between atoms: C5_24  and  O5_25 
REMARK    9  A    between atoms: C5_24  and  O6_27 
ROOT
HETATM    1  N1  UNL     1       1.661   1.033   2.679  1.00  0.00    -0.234 N 
ATOM      2  H11 UNL     1       0.762   0.993   3.159  1.00  0.00     0.174 HD
ATOM      3  H12 UNL     1       2.572   1.311   3.044  1.00  0.00     0.174 HD
HETATM    4  C1  UNL     1       1.628   0.673   1.413  1.00  0.00     0.679 A 
HETATM    5  N2  UNL     1       2.788   0.724   0.793  1.00  0.00    -0.173 N 
ATOM      6  H2  UNL     1       3.584   1.034   1.351  1.00  0.00     0.185 HD
HETATM    7  C2  UNL     1       3.042   0.420  -0.470  1.00  0.00     0.208 A 
HETATM    8  S2  UNL     1       1.645  -0.086  -1.315  1.00  0.00    -0.022 SA
HETATM    9  C3  UNL     1       0.236  -0.083  -0.329  1.00  0.00     0.164 A 
HETATM   10  N7  UNL     1       0.437   0.309   0.936  1.00  0.00    -0.170 N 
ATOM     11  H7  UNL     1      -0.363   0.330   1.568  1.00  0.00     0.186 HD
ENDROOT
BRANCH   9  12
HETATM   12  N4  UNL     1      -0.890  -0.440  -0.827  1.00  0.00    -0.343 N 
ATOM     13  H4  UNL     1      -0.900  -0.716  -1.809  1.00  0.00     0.164 HD
BRANCH  12  14
HETATM   14  C4  UNL     1      -2.119  -0.483  -0.130  1.00  0.00     0.260 C 
BRANCH  14  15
HETATM   15  N5  UNL     1      -2.901  -1.610  -0.667  1.00  0.00    -0.249 N 
ATOM     16  H5  UNL     1      -2.503  -2.180  -1.413  1.00  0.00     0.189 HD
BRANCH  15  17
HETATM   17  N6  UNL     1      -4.172  -1.919  -0.182  1.00  0.00    -0.041 N 
HETATM   18  O3  UNL     1      -5.171  -1.985  -0.920  1.00  0.00    -0.517 OA
HETATM   19  O4  UNL     1      -4.345  -2.162   1.157  1.00  0.00    -0.517 OA
ENDBRANCH  15  17
ENDBRANCH  14  15
BRANCH  14  20
HETATM   20  C5  UNL     1      -2.972   0.769  -0.390  1.00  0.00     0.297 C 
BRANCH  20  21
HETATM   21  O5  UNL     1      -4.141   0.604   0.345  1.00  0.00    -0.368 OA
ATOM     22  H5  UNL     1      -4.668   1.378   0.184  1.00  0.00     0.212 HD
ENDBRANCH  20  21
BRANCH  20  23
HETATM   23  O6  UNL     1      -2.299   1.888   0.035  1.00  0.00    -0.368 OA
ATOM     24  H6  UNL     1      -2.826   2.662  -0.126  1.00  0.00     0.212 HD
ENDBRANCH  20  23
ENDBRANCH  14  20
ENDBRANCH  12  14
ENDBRANCH   9  12
BRANCH   7  25
HETATM   25  S1  UNL     1       4.638   0.533  -1.170  1.00  0.00     0.279 S 
HETATM   26  O1  UNL     1       4.507   0.753  -2.663  1.00  0.00    -0.199 OA
HETATM   27  O2  UNL     1       5.455   1.606  -0.534  1.00  0.00    -0.199 OA
BRANCH  25  28
HETATM   28  N3  UNL     1       5.442  -0.979  -0.958  1.00  0.00    -0.323 N 
ATOM     29  H32 UNL     1       5.038  -1.795  -0.498  1.00  0.00     0.169 HD
ATOM     30  H31 UNL     1       6.374  -0.913  -1.367  1.00  0.00     0.169 HD
ENDBRANCH  25  28
ENDBRANCH   7  25
TORSDOF 9
