REMARK  9 active torsions:
REMARK  status: ('A' for Active; 'I' for Inactive)
REMARK       I    between atoms: C2_2  and  N1_4 
REMARK    1  A    between atoms: N1_4  and  C3_6 
REMARK    2  A    between atoms: C4_7  and  N2_8 
REMARK    3  A    between atoms: C6_13  and  N3_14 
REMARK    4  A    between atoms: C7_18  and  N4_19 
REMARK    5  A    between atoms: C8_23  and  N5_24 
REMARK    6  A    between atoms: C9_29  and  C10_30 
REMARK    7  A    between atoms: C10_30  and  N8_31 
REMARK    8  A    between atoms: C10_30  and  C11_35 
REMARK    9  A    between atoms: C11_35  and  O2_37 
ROOT
HETATM    1  C3  UNL     1      -1.363  -0.368   1.320  1.00  0.00     0.143 C 
HETATM    2  C4  UNL     1      -2.527  -1.096   1.896  1.00  0.00     0.210 C 
HETATM    3  C5  UNL     1      -3.404  -1.777   0.899  1.00  0.00     0.069 C 
HETATM    4  C6  UNL     1      -2.673  -2.596  -0.114  1.00  0.00     0.218 C 
HETATM    5  C7  UNL     1      -1.597  -1.763  -0.761  1.00  0.00     0.242 C 
HETATM    6  C8  UNL     1      -0.658  -1.166   0.259  1.00  0.00     0.185 C 
ENDROOT
BRANCH   6   7
HETATM    7  N5  UNL     1       0.310  -0.378  -0.436  1.00  0.00    -0.209 N 
HETATM    8  N6  UNL     1       0.109   0.723  -1.150  1.00  0.00    -0.224 N 
HETATM    9  N7  UNL     1       1.234   1.178  -1.644  1.00  0.00    -0.270 N 
ATOM     10  H6  UNL     1      -0.802   1.158  -1.295  1.00  0.00     0.210 HD
HETATM   11  C9  UNL     1       2.212   0.354  -1.247  1.00  0.00     0.146 A 
ATOM     12  H7  UNL     1       1.345   2.009  -2.225  1.00  0.00     0.190 HD
HETATM   13  N9  UNL     1       1.613  -0.593  -0.505  1.00  0.00    -0.268 N 
ATOM     14  H9  UNL     1       2.097  -1.371  -0.057  1.00  0.00     0.190 HD
BRANCH  11  15
HETATM   15  C10 UNL     1       3.665   0.453  -1.554  1.00  0.00     0.281 C 
BRANCH  15  16
HETATM   16  N8  UNL     1       3.897   0.745  -2.943  1.00  0.00    -0.066 N 
ATOM     17  H83 UNL     1       3.435   0.066  -3.548  1.00  0.00     0.275 HD
ATOM     18  H82 UNL     1       3.397   1.585  -3.235  1.00  0.00     0.275 HD
ATOM     19  H81 UNL     1       4.893   0.813  -3.153  1.00  0.00     0.275 HD
ENDBRANCH  15  16
BRANCH  15  20
HETATM   20  C11 UNL     1       4.378   1.405  -0.636  1.00  0.00     0.152 C 
HETATM   21  C12 UNL     1       4.134   2.852  -0.970  1.00  0.00     0.042 C 
BRANCH  20  22
HETATM   22  O2  UNL     1       4.125   1.084   0.675  1.00  0.00    -0.393 OA
ATOM     23  H2  UNL     1       4.576   1.686   1.255  1.00  0.00     0.210 HD
ENDBRANCH  20  22
ENDBRANCH  15  20
ENDBRANCH  11  15
ENDBRANCH   6   7
BRANCH   1  24
HETATM   24  N1  UNL     1      -1.669   0.986   0.902  1.00  0.00    -0.353 N 
HETATM   25  C2  UNL     1      -1.108   2.142   1.483  1.00  0.00     0.214 C 
HETATM   26  C1  UNL     1      -1.459   3.495   1.014  1.00  0.00     0.117 C 
HETATM   27  O1  UNL     1      -0.288   2.031   2.424  1.00  0.00    -0.274 OA
ATOM     28  H1  UNL     1      -2.333   1.111   0.138  1.00  0.00     0.163 HD
ENDBRANCH   1  24
BRANCH   5  29
HETATM   29  N4  UNL     1      -2.118  -0.805  -1.687  1.00  0.00    -0.071 N 
ATOM     30  H43 UNL     1      -2.702  -1.257  -2.390  1.00  0.00     0.274 HD
ATOM     31  H42 UNL     1      -2.821  -0.213  -1.244  1.00  0.00     0.274 HD
ATOM     32  H41 UNL     1      -1.390  -0.241  -2.125  1.00  0.00     0.274 HD
ENDBRANCH   5  29
BRANCH   2  33
HETATM   33  N2  UNL     1      -2.014  -2.147   2.793  1.00  0.00    -0.073 N 
ATOM     34  H23 UNL     1      -1.350  -2.769   2.331  1.00  0.00     0.274 HD
ATOM     35  H22 UNL     1      -1.385  -1.781   3.508  1.00  0.00     0.274 HD
ATOM     36  H21 UNL     1      -2.811  -2.646   3.188  1.00  0.00     0.274 HD
ENDBRANCH   2  33
BRANCH   4  37
HETATM   37  N3  UNL     1      -2.127  -3.814   0.405  1.00  0.00    -0.073 N 
ATOM     38  H33 UNL     1      -1.530  -3.624   1.210  1.00  0.00     0.274 HD
ATOM     39  H32 UNL     1      -2.854  -4.369   0.856  1.00  0.00     0.274 HD
ATOM     40  H31 UNL     1      -1.628  -4.373  -0.287  1.00  0.00     0.274 HD
ENDBRANCH   4  37
TORSDOF 9
