REMARK  9 active torsions:
REMARK  status: ('A' for Active; 'I' for Inactive)
REMARK    1  A    between atoms: C2_2  and  C3_4 
REMARK    2  A    between atoms: N2_7  and  C4_8 
REMARK    3  A    between atoms: C4_8  and  C5_9 
REMARK       I    between atoms: C5_9  and  N3_11 
REMARK    4  A    between atoms: N3_11  and  C6_13 
REMARK    5  A    between atoms: C9_16  and  N4_17 
REMARK    6  A    between atoms: C11_22  and  N5_23 
REMARK    7  A    between atoms: C12_27  and  N6_28 
REMARK    8  A    between atoms: N6_28  and  N7_30 
REMARK    9  A    between atoms: N8_33  and  N9_34 
ROOT
HETATM    1  C4  UNL     1       0.437   1.517  -0.825  1.00  0.00     0.270 C 
ENDROOT
BRANCH   1   2
HETATM    2  N2  UNL     1       1.863   1.758  -0.715  1.00  0.00    -0.110 N 
HETATM    3  N1  UNL     1       2.487   2.479   0.202  1.00  0.00    -0.263 N 
HETATM    4  C3  UNL     1       3.814   2.471  -0.023  1.00  0.00     0.205 A 
ATOM      5  H1  UNL     1       2.028   2.970   0.969  1.00  0.00     0.189 HD
HETATM    6  N8  UNL     1       4.041   1.717  -1.126  1.00  0.00    -0.068 N 
HETATM    7  C12 UNL     1       2.829   1.295  -1.526  1.00  0.00     0.736 A 
BRANCH   4   8
HETATM    8  C2  UNL     1       4.843   3.142   0.759  1.00  0.00     0.193 C 
HETATM    9  C1  UNL     1       4.423   3.933   1.945  1.00  0.00     0.100 C 
HETATM   10  O1  UNL     1       6.058   3.043   0.422  1.00  0.00    -0.289 OA
ENDBRANCH   4   8
BRANCH   6  11
HETATM   11  N9  UNL     1       5.252   1.422  -1.740  1.00  0.00    -0.322 N 
ATOM     12  H92 UNL     1       6.172   1.742  -1.436  1.00  0.00     0.178 HD
ATOM     13  H91 UNL     1       5.423   0.855  -2.570  1.00  0.00     0.178 HD
ENDBRANCH   6  11
BRANCH   7  14
HETATM   14  N6  UNL     1       2.572   0.543  -2.549  1.00  0.00    -0.135 N 
ATOM     15  H6  UNL     1       1.602   0.294  -2.745  1.00  0.00     0.205 HD
BRANCH  14  16
HETATM   16  N7  UNL     1       3.574   0.061  -3.393  1.00  0.00    -0.331 N 
ATOM     17  H72 UNL     1       4.538   0.320  -3.183  1.00  0.00     0.177 HD
ATOM     18  H71 UNL     1       3.372  -0.531  -4.199  1.00  0.00     0.177 HD
ENDBRANCH  14  16
ENDBRANCH   7  14
ENDBRANCH   1   2
BRANCH   1  19
HETATM   19  C5  UNL     1       0.033   0.302  -0.070  1.00  0.00     0.238 C 
HETATM   20  O2  UNL     1       0.906  -0.353   0.548  1.00  0.00    -0.272 OA
HETATM   21  N3  UNL     1      -1.329  -0.091  -0.064  1.00  0.00    -0.353 N 
ATOM     22  H3  UNL     1      -2.014   0.464  -0.577  1.00  0.00     0.163 HD
BRANCH  21  23
HETATM   23  C6  UNL     1      -1.763  -1.271   0.661  1.00  0.00     0.115 C 
HETATM   24  C7  UNL     1      -2.327  -2.275  -0.319  1.00  0.00     0.029 C 
HETATM   25  C8  UNL     1      -3.247  -3.235   0.394  1.00  0.00     0.035 C 
HETATM   26  C9  UNL     1      -4.493  -2.483   0.808  1.00  0.00     0.185 C 
HETATM   27  C10 UNL     1      -4.186  -1.014   1.059  1.00  0.00     0.067 C 
HETATM   28  C11 UNL     1      -2.807  -0.840   1.658  1.00  0.00     0.208 C 
BRANCH  26  29
HETATM   29  N4  UNL     1      -5.446  -2.532  -0.298  1.00  0.00    -0.075 N 
ATOM     30  H43 UNL     1      -5.051  -2.187  -1.173  1.00  0.00     0.274 HD
ATOM     31  H42 UNL     1      -5.645  -3.485  -0.603  1.00  0.00     0.274 HD
ATOM     32  H41 UNL     1      -6.286  -2.025  -0.019  1.00  0.00     0.274 HD
ENDBRANCH  26  29
BRANCH  28  33
HETATM   33  N5  UNL     1      -2.634  -1.649   2.853  1.00  0.00    -0.073 N 
ATOM     34  H53 UNL     1      -2.658  -2.651   2.661  1.00  0.00     0.274 HD
ATOM     35  H52 UNL     1      -1.686  -1.607   3.227  1.00  0.00     0.274 HD
ATOM     36  H51 UNL     1      -3.341  -1.357   3.528  1.00  0.00     0.274 HD
ENDBRANCH  28  33
ENDBRANCH  21  23
ENDBRANCH   1  19
TORSDOF 9
