REMARK  6 active torsions:
REMARK  status: ('A' for Active; 'I' for Inactive)
REMARK    1  A    between atoms: C4_9  and  N4_10 
REMARK    2  A    between atoms: N5_12  and  N6_14 
REMARK    3  A    between atoms: N6_14  and  N7_16 
REMARK    4  A    between atoms: N7_16  and  C5_18 
REMARK    5  A    between atoms: C6_21  and  N9_22 
REMARK    6  A    between atoms: N9_22  and  N10_24 
ROOT
HETATM    1  N7  UNL     1      -0.384   0.285  -0.644  1.00  0.00    -0.269 N 
ATOM      2  H7  UNL     1       0.109   1.072  -0.222  1.00  0.00     0.190 HD
ENDROOT
BRANCH   1   3
HETATM    3  N6  UNL     1       0.220  -0.453  -1.663  1.00  0.00    -0.227 N 
ATOM      4  H6  UNL     1       0.355  -0.003  -2.568  1.00  0.00     0.210 HD
BRANCH   3   5
HETATM    5  N5  UNL     1       0.649  -1.768  -1.514  1.00  0.00    -0.228 N 
HETATM    6  N4  UNL     1       1.823  -1.976  -1.111  1.00  0.00    -0.277 N 
ATOM      7  H4  UNL     1       2.153  -2.934  -0.996  1.00  0.00     0.189 HD
ATOM      8  H5  UNL     1       0.026  -2.547  -1.727  1.00  0.00     0.210 HD
BRANCH   6   9
HETATM    9  C4  UNL     1       2.682  -0.910  -0.819  1.00  0.00     0.159 A 
HETATM   10  C3  UNL     1       3.392  -0.326  -1.867  1.00  0.00     0.154 A 
HETATM   11  N2  UNL     1       4.206   0.695  -1.547  1.00  0.00    -0.294 N 
HETATM   12  N3  UNL     1       3.245  -0.807  -3.194  1.00  0.00    -0.080 NA
HETATM   13  C2  UNL     1       4.334   1.136  -0.283  1.00  0.00     0.330 A 
ATOM     14  H2  UNL     1       4.743   1.149  -2.286  1.00  0.00     0.172 HD
HETATM   15  N1  UNL     1       3.662   0.592   0.747  1.00  0.00    -0.269 N 
HETATM   16  O1  UNL     1       5.108   2.099  -0.016  1.00  0.00    -0.246 OA
HETATM   17  C1  UNL     1       3.814   1.084   2.108  1.00  0.00     0.164 C 
HETATM   18  C11 UNL     1       2.835  -0.433   0.477  1.00  0.00     0.282 A 
HETATM   19  O3  UNL     1       2.196  -0.951   1.448  1.00  0.00    -0.265 OA
ENDBRANCH   6   9
ENDBRANCH   3   5
ENDBRANCH   1   3
BRANCH   1  20
HETATM   20  C5  UNL     1      -1.687  -0.063  -0.196  1.00  0.00     0.147 A 
HETATM   21  N8  UNL     1      -2.370  -1.092  -0.726  1.00  0.00    -0.173 N 
HETATM   22  C6  UNL     1      -3.607  -1.397  -0.277  1.00  0.00     0.698 A 
ATOM     23  H8  UNL     1      -1.951  -1.647  -1.473  1.00  0.00     0.186 HD
HETATM   24  N11 UNL     1      -4.170  -0.672   0.706  1.00  0.00    -0.191 N 
HETATM   25  C7  UNL     1      -3.533   0.365   1.271  1.00  0.00     0.062 A 
ATOM     26  H11 UNL     1      -5.106  -0.917   1.030  1.00  0.00     0.184 HD
HETATM   27  C8  UNL     1      -2.277   0.670   0.811  1.00  0.00     0.037 A 
HETATM   28  C10 UNL     1      -3.840   1.341   2.331  1.00  0.00     0.226 C 
HETATM   29  C9  UNL     1      -1.795   1.825   1.573  1.00  0.00     0.212 C 
HETATM   30  O2  UNL     1      -2.673   1.983   2.634  1.00  0.00    -0.381 OA
BRANCH  22  31
HETATM   31  N9  UNL     1      -4.210  -2.402  -0.832  1.00  0.00    -0.138 N 
ATOM     32  H9  UNL     1      -3.766  -2.939  -1.577  1.00  0.00     0.205 HD
BRANCH  31  33
HETATM   33  N10 UNL     1      -5.483  -2.720  -0.374  1.00  0.00    -0.331 N 
ATOM     34 2H10 UNL     1      -5.913  -2.173   0.372  1.00  0.00     0.177 HD
ATOM     35 1H10 UNL     1      -5.957  -3.510  -0.811  1.00  0.00     0.177 HD
ENDBRANCH  31  33
ENDBRANCH  22  31
ENDBRANCH   1  20
TORSDOF 6
