REMARK  5 active torsions:
REMARK  status: ('A' for Active; 'I' for Inactive)
REMARK    1  A    between atoms: C2_5  and  C3_6 
REMARK    2  A    between atoms: C5_14  and  C6_15 
REMARK    3  A    between atoms: N6_16  and  N7_18 
REMARK    4  A    between atoms: N7_18  and  C7_20 
REMARK    5  A    between atoms: N13_36  and  N14_37 
ROOT
HETATM    1  N1  UNL     1      -5.322  -0.133  -0.307  1.00  0.00    -0.382 N 
ATOM      2  H11 UNL     1      -6.263   0.253  -0.389  1.00  0.00     0.157 HD
ATOM      3  H12 UNL     1      -5.079  -1.121  -0.384  1.00  0.00     0.157 HD
HETATM    4  C1  UNL     1      -4.375   0.719  -0.087  1.00  0.00     0.153 A 
HETATM    5  C2  UNL     1      -3.086   0.190   0.026  1.00  0.00     0.073 A 
HETATM    6  C4  UNL     1      -2.058   1.065   0.260  1.00  0.00     0.058 A 
HETATM    7  C5  UNL     1      -0.699   0.980   0.432  1.00  0.00     0.080 A 
HETATM    8  N10 UNL     1      -0.254   2.265   0.633  1.00  0.00    -0.297 N 
ATOM      9  H10 UNL     1       0.721   2.519   0.791  1.00  0.00     0.187 HD
HETATM   10  N11 UNL     1      -1.242   3.117   0.595  1.00  0.00    -0.283 N 
ATOM     11  H11 UNL     1      -1.139   4.124   0.719  1.00  0.00     0.188 HD
HETATM   12  C11 UNL     1      -2.411   2.497   0.371  1.00  0.00     0.150 A 
HETATM   13  N12 UNL     1      -3.691   2.869   0.242  1.00  0.00    -0.261 N 
ATOM     14  H12 UNL     1      -3.916   3.861   0.322  1.00  0.00     0.191 HD
HETATM   15  N13 UNL     1      -4.692   2.007   0.013  1.00  0.00    -0.184 N 
ENDROOT
BRANCH   7  16
HETATM   16  C6  UNL     1       0.127  -0.210   0.413  1.00  0.00     0.139 C 
HETATM   17  N6  UNL     1       1.410  -0.009   0.604  1.00  0.00    -0.308 N 
ATOM     18  H6  UNL     1       1.783   0.929   0.754  1.00  0.00     0.186 HD
BRANCH  17  19
HETATM   19  N7  UNL     1       2.244  -1.127   0.594  1.00  0.00    -0.288 N 
ATOM     20  H7  UNL     1       1.949  -2.025   0.978  1.00  0.00     0.188 HD
BRANCH  19  21
HETATM   21  C7  UNL     1       3.543  -0.939   0.011  1.00  0.00     0.117 C 
HETATM   22  N8  UNL     1       3.682  -0.404  -1.171  1.00  0.00    -0.376 N 
HETATM   23  C8  UNL     1       5.077  -0.283  -1.623  1.00  0.00     0.148 C 
ATOM     24  H8  UNL     1       2.890  -0.095  -1.735  1.00  0.00     0.160 HD
HETATM   25  C9  UNL     1       5.830   0.442  -0.526  1.00  0.00     0.252 C 
HETATM   26  N9  UNL     1       5.780  -0.282   0.724  1.00  0.00    -0.067 N 
HETATM   27  C10 UNL     1       4.784  -1.336   0.707  1.00  0.00     0.309 C 
ATOM     28  H92 UNL     1       6.699  -0.646   0.976  1.00  0.00     0.277 HD
ATOM     29  H91 UNL     1       5.635   0.350   1.511  1.00  0.00     0.277 HD
ENDBRANCH  19  21
ENDBRANCH  17  19
ENDBRANCH   7  16
BRANCH   5  30
HETATM   30  C3  UNL     1      -2.869  -1.242  -0.104  1.00  0.00     0.146 A 
HETATM   31  N2  UNL     1      -2.624  -1.869  -1.267  1.00  0.00    -0.270 N 
HETATM   32  N3  UNL     1      -2.513  -3.171  -1.060  1.00  0.00    -0.007 NA
ATOM     33  H2  UNL     1      -2.537  -1.410  -2.174  1.00  0.00     0.185 HD
HETATM   34  N4  UNL     1      -2.687  -3.385   0.240  1.00  0.00    -0.007 NA
HETATM   35  N5  UNL     1      -2.907  -2.203   0.834  1.00  0.00    -0.270 N 
ATOM     36  H5  UNL     1      -3.075  -2.058   1.830  1.00  0.00     0.185 HD
ENDBRANCH   5  30
BRANCH  15  37
HETATM   37  N14 UNL     1      -6.010   2.475  -0.111  1.00  0.00    -0.322 N 
ATOM     38 2H14 UNL     1      -6.772   1.819  -0.285  1.00  0.00     0.179 HD
ATOM     39 1H14 UNL     1      -6.253   3.463  -0.034  1.00  0.00     0.179 HD
ENDBRANCH  15  37
TORSDOF 5
