REMARK  6 active torsions:
REMARK  status: ('A' for Active; 'I' for Inactive)
REMARK    1  A    between atoms: N5_12  and  S1_13 
REMARK    2  A    between atoms: S1_13  and  C6_14 
REMARK    3  A    between atoms: C7_15  and  N6_16 
REMARK    4  A    between atoms: N6_16  and  N7_18 
REMARK    5  A    between atoms: N7_18  and  O1_20 
REMARK    6  A    between atoms: N9_26  and  N10_27 
ROOT
HETATM    1  S1  UNL     1      -1.441  -0.390  -1.579  1.00  0.00     0.024 SA
ENDROOT
BRANCH   1   2
HETATM    2  N5  UNL     1       0.007  -0.339  -0.655  1.00  0.00    -0.203 N 
HETATM    3  C5  UNL     1       0.210  -1.240   0.412  1.00  0.00     0.211 C 
HETATM    4  N3  UNL     1       1.301  -1.754   0.972  1.00  0.00    -0.304 N 
HETATM    5  N4  UNL     1      -0.986  -1.667   1.005  1.00  0.00    -0.062 NA
HETATM    6  C4  UNL     1       2.690  -1.609   0.713  1.00  0.00     0.192 C 
ATOM      7  H3  UNL     1       1.098  -2.383   1.749  1.00  0.00     0.171 HD
HETATM    8  N1  UNL     1       3.387  -0.604   0.321  1.00  0.00    -0.338 N 
HETATM    9  N2  UNL     1       3.490  -2.764   0.915  1.00  0.00    -0.063 NA
HETATM   10  C2  UNL     1       3.316   0.764  -0.055  1.00  0.00     0.102 C 
ATOM     11  H1  UNL     1       4.361  -0.901   0.254  1.00  0.00     0.164 HD
HETATM   12  C1  UNL     1       4.524   1.032  -0.970  1.00  0.00     0.062 C 
HETATM   13  C3  UNL     1       3.478   1.695   1.141  1.00  0.00     0.062 C 
HETATM   14  N11 UNL     1       2.170   1.168  -0.805  1.00  0.00    -0.316 N 
HETATM   15  C9  UNL     1       0.872   0.715  -1.165  1.00  0.00     0.337 C 
ATOM     16  H11 UNL     1       2.339   2.085  -1.219  1.00  0.00     0.166 HD
HETATM   17  O3  UNL     1       0.361   1.352  -2.122  1.00  0.00    -0.246 OA
ENDBRANCH   1   2
BRANCH   1  18
HETATM   18  C6  UNL     1      -2.981  -0.263  -0.771  1.00  0.00     0.165 A 
HETATM   19  C7  UNL     1      -3.584   0.931  -0.331  1.00  0.00     0.158 A 
HETATM   20  C8  UNL     1      -4.827   0.644   0.182  1.00  0.00     0.292 A 
HETATM   21  O2  UNL     1      -5.676   1.448   0.677  1.00  0.00    -0.264 OA
HETATM   22  N8  UNL     1      -4.959  -0.675   0.051  1.00  0.00    -0.242 N 
HETATM   23  N9  UNL     1      -3.870  -1.224  -0.515  1.00  0.00    -0.190 N 
ATOM     24  H8  UNL     1      -5.782  -1.202   0.343  1.00  0.00     0.192 HD
BRANCH  19  25
HETATM   25  N6  UNL     1      -3.008   2.214  -0.407  1.00  0.00    -0.274 N 
ATOM     26  H6  UNL     1      -2.083   2.320  -0.824  1.00  0.00     0.189 HD
BRANCH  25  27
HETATM   27  N7  UNL     1      -3.666   3.336   0.070  1.00  0.00    -0.209 N 
ATOM     28  H7  UNL     1      -4.335   3.845  -0.508  1.00  0.00     0.215 HD
BRANCH  27  29
HETATM   29  O1  UNL     1      -3.407   3.698   1.236  1.00  0.00    -0.274 OA
ATOM     30  H1  UNL     1      -3.858   4.467   1.563  1.00  0.00     0.246 HD
ENDBRANCH  27  29
ENDBRANCH  25  27
ENDBRANCH  19  25
BRANCH  23  31
HETATM   31  N10 UNL     1      -3.856  -2.596  -0.771  1.00  0.00    -0.323 N 
ATOM     32 2H10 UNL     1      -3.030  -3.012  -1.200  1.00  0.00     0.179 HD
ATOM     33 1H10 UNL     1      -4.536  -3.331  -0.575  1.00  0.00     0.179 HD
ENDBRANCH  23  31
ENDBRANCH   1  18
TORSDOF 6
