REMARK  10 active torsions:
REMARK  status: ('A' for Active; 'I' for Inactive)
REMARK    1  A    between atoms: C2_5  and  N3_6 
REMARK    2  A    between atoms: C3_9  and  N4_10 
REMARK    3  A    between atoms: N4_10  and  O1_12 
REMARK    4  A    between atoms: N5_14  and  C4_15 
REMARK    5  A    between atoms: C4_15  and  C5_16 
REMARK    6  A    between atoms: C5_16  and  N6_17 
REMARK    7  A    between atoms: N6_17  and  O2_19 
REMARK    8  A    between atoms: C6_21  and  O3_22 
REMARK    9  A    between atoms: C6_21  and  C7_24 
REMARK   10  A    between atoms: C8_25  and  O4_26 
ROOT
HETATM    1  C5  UNL     1       0.540  -0.627   0.014  1.00  0.00     0.084 C 
HETATM    2  C6  UNL     1       1.867  -1.044  -0.013  1.00  0.00     0.112 C 
ENDROOT
BRANCH   1   3
HETATM    3  C4  UNL     1      -0.105   0.666   0.016  1.00  0.00     0.197 C 
BRANCH   3   4
HETATM    4  N5  UNL     1      -1.583   0.543   0.084  1.00  0.00    -0.274 N 
HETATM    5  C3  UNL     1      -2.261   0.467  -1.062  1.00  0.00     0.177 A 
HETATM    6  C2  UNL     1      -3.662   0.350  -1.057  1.00  0.00     0.161 A 
HETATM    7  N2  UNL     1      -4.271   0.319   0.151  1.00  0.00    -0.277 N 
HETATM    8  N1  UNL     1      -3.597   0.394   1.270  1.00  0.00    -0.245 N 
ATOM      9  H2  UNL     1      -5.287   0.235   0.190  1.00  0.00     0.189 HD
HETATM   10  C1  UNL     1      -4.267   0.359   2.534  1.00  0.00     0.183 C 
HETATM   11  C11 UNL     1      -2.243   0.507   1.242  1.00  0.00     0.345 A 
HETATM   12  O7  UNL     1      -1.561   0.582   2.303  1.00  0.00    -0.245 OA
BRANCH   5  13
HETATM   13  N4  UNL     1      -1.612   0.503  -2.170  1.00  0.00    -0.249 N 
ATOM     14  H4  UNL     1      -0.596   0.588  -2.182  1.00  0.00     0.196 HD
BRANCH  13  15
HETATM   15  O1  UNL     1      -2.330   0.424  -3.336  1.00  0.00    -0.288 OA
ATOM     16  H1  UNL     1      -1.850   0.451  -4.155  1.00  0.00     0.244 HD
ENDBRANCH  13  15
ENDBRANCH   5  13
BRANCH   6  17
HETATM   17  N3  UNL     1      -4.291   0.279  -2.177  1.00  0.00    -0.381 N 
ATOM     18  H32 UNL     1      -5.307   0.194  -2.173  1.00  0.00     0.157 HD
ATOM     19  H31 UNL     1      -3.832   0.302  -3.088  1.00  0.00     0.157 HD
ENDBRANCH   6  17
ENDBRANCH   3   4
ENDBRANCH   1   3
BRANCH   1  20
HETATM   20  N6  UNL     1      -0.386  -1.610   0.038  1.00  0.00    -0.269 N 
ATOM     21  H6  UNL     1      -1.366  -1.329   0.054  1.00  0.00     0.194 HD
BRANCH  20  22
HETATM   22  O2  UNL     1      -0.127  -2.905   0.043  1.00  0.00    -0.290 OA
ATOM     23  H2  UNL     1      -0.778  -3.596   0.060  1.00  0.00     0.244 HD
ENDBRANCH  20  22
ENDBRANCH   1  20
BRANCH   2  24
HETATM   24  O3  UNL     1       2.000  -2.402  -0.016  1.00  0.00    -0.357 OA
ATOM     25  H3  UNL     1       2.906  -2.687  -0.034  1.00  0.00     0.217 HD
ENDBRANCH   2  24
BRANCH   2  26
HETATM   26  C7  UNL     1       3.184  -0.453  -0.040  1.00  0.00     0.118 A 
HETATM   27  C8  UNL     1       3.480   0.881  -0.042  1.00  0.00     0.162 A 
HETATM   28  N7  UNL     1       4.794   1.287  -0.074  1.00  0.00    -0.288 N 
HETATM   29  C9  UNL     1       5.799   0.417  -0.103  1.00  0.00     0.329 A 
ATOM     30  H7  UNL     1       5.004   2.285  -0.076  1.00  0.00     0.172 HD
HETATM   31  O5  UNL     1       6.987   0.808  -0.132  1.00  0.00    -0.247 OA
HETATM   32  N8  UNL     1       5.580  -0.902  -0.103  1.00  0.00    -0.275 N 
HETATM   33  C10 UNL     1       4.320  -1.316  -0.072  1.00  0.00     0.266 A 
ATOM     34  H8  UNL     1       6.354  -1.566  -0.126  1.00  0.00     0.173 HD
HETATM   35  O6  UNL     1       4.115  -2.573  -0.072  1.00  0.00    -0.267 OA
BRANCH  27  36
HETATM   36  O4  UNL     1       2.532   1.870  -0.013  1.00  0.00    -0.345 OA
ATOM     37  H4  UNL     1       2.738   2.797  -0.014  1.00  0.00     0.219 HD
ENDBRANCH  27  36
ENDBRANCH   2  26
TORSDOF 10
