REMARK  10 active torsions:
REMARK  status: ('A' for Active; 'I' for Inactive)
REMARK    1  A    between atoms: O1_2  and  C2_3 
REMARK    2  A    between atoms: C2_3  and  C3_5 
REMARK    3  A    between atoms: C4_8  and  C6_10 
REMARK    4  A    between atoms: C7_13  and  C8_14 
REMARK    5  A    between atoms: C8_14  and  N2_15 
REMARK    6  A    between atoms: C8_14  and  O5_19 
REMARK    7  A    between atoms: S1_21  and  O6_22 
REMARK    8  A    between atoms: O6_22  and  C9_23 
REMARK    9  A    between atoms: C9_23  and  N4_27 
REMARK   10  A    between atoms: N4_27  and  N5_29 
ROOT
HETATM    1  C3  UNL     1       1.838   1.139   0.940  1.00  0.00     0.201 C 
HETATM    2  N1  UNL     1       1.881  -0.075   1.508  1.00  0.00    -0.389 N 
ATOM      3  H1  UNL     1       2.625  -0.151   2.202  1.00  0.00     0.155 HD
HETATM    4  C4  UNL     1       1.168  -1.239   1.382  1.00  0.00     0.132 C 
HETATM    5  C5  UNL     1       2.067  -2.469   1.075  1.00  0.00     0.051 C 
HETATM    6  C7  UNL     1      -0.124  -1.322   0.678  1.00  0.00     0.179 C 
HETATM    7  S1  UNL     1      -0.624  -0.039  -0.416  1.00  0.00     0.026 SA
HETATM    8  N6  UNL     1      -0.250   1.413  -0.072  1.00  0.00    -0.345 N 
ATOM      9  H6  UNL     1      -0.560   2.128  -0.731  1.00  0.00     0.169 HD
HETATM   10  C10 UNL     1       0.472   1.868   1.050  1.00  0.00     0.117 C 
HETATM   11  C11 UNL     1       0.654   3.344   1.124  1.00  0.00     0.035 C 
ENDROOT
BRANCH   7  12
HETATM   12  O6  UNL     1      -2.279  -0.179  -0.903  1.00  0.00    -0.236 OA
BRANCH  12  13
HETATM   13  C9  UNL     1      -2.743   0.699  -1.884  1.00  0.00     0.244 C 
HETATM   14  N3  UNL     1      -1.888   1.165  -2.719  1.00  0.00    -0.363 N 
ATOM     15  H32 UNL     1      -0.908   0.890  -2.649  1.00  0.00     0.159 HD
ATOM     16  H31 UNL     1      -2.227   1.807  -3.436  1.00  0.00     0.159 HD
BRANCH  13  17
HETATM   17  N4  UNL     1      -4.098   1.080  -1.981  1.00  0.00    -0.271 N 
ATOM     18  H4  UNL     1      -4.311   2.039  -2.255  1.00  0.00     0.190 HD
BRANCH  17  19
HETATM   19  N5  UNL     1      -5.164   0.216  -1.723  1.00  0.00    -0.342 N 
ATOM     20  H52 UNL     1      -4.933  -0.739  -1.451  1.00  0.00     0.176 HD
ATOM     21  H51 UNL     1      -6.144   0.491  -1.793  1.00  0.00     0.176 HD
ENDBRANCH  17  19
ENDBRANCH  13  17
ENDBRANCH  12  13
ENDBRANCH   7  12
BRANCH   6  22
HETATM   22  C8  UNL     1      -0.274  -2.599  -0.166  1.00  0.00     0.336 C 
BRANCH  22  23
HETATM   23  N2  UNL     1      -1.620  -2.476  -0.759  1.00  0.00    -0.052 N 
ATOM     24  H23 UNL     1      -2.367  -2.332  -0.079  1.00  0.00     0.277 HD
ATOM     25  H22 UNL     1      -1.774  -1.610  -1.276  1.00  0.00     0.277 HD
ATOM     26  H21 UNL     1      -1.719  -3.323  -1.319  1.00  0.00     0.277 HD
ENDBRANCH  22  23
BRANCH  22  27
HETATM   27  O5  UNL     1      -0.314  -3.753   0.552  1.00  0.00    -0.369 OA
ATOM     28  H5  UNL     1      -0.407  -4.542   0.031  1.00  0.00     0.212 HD
ENDBRANCH  22  27
ENDBRANCH   6  22
BRANCH   4  29
HETATM   29  C6  UNL     1       0.812  -1.567   2.842  1.00  0.00     0.203 C 
HETATM   30  O3  UNL     1       1.187  -0.816   3.759  1.00  0.00    -0.646 OA
HETATM   31  O4  UNL     1       0.080  -2.681   3.178  1.00  0.00    -0.646 OA
ENDBRANCH   4  29
BRANCH   1  32
HETATM   32  C2  UNL     1       2.219   1.304  -0.484  1.00  0.00     0.283 C 
HETATM   33  O2  UNL     1       2.593   0.351  -1.222  1.00  0.00    -0.263 OA
BRANCH  32  34
HETATM   34  O1  UNL     1       2.180   2.553  -1.084  1.00  0.00    -0.325 OA
HETATM   35  C1  UNL     1       2.543   2.724  -2.451  1.00  0.00     0.213 C 
ENDBRANCH  32  34
ENDBRANCH   1  32
TORSDOF 10
