REMARK  1 active torsions:
REMARK  status: ('A' for Active; 'I' for Inactive)
REMARK    1  A    between atoms: N1_2  and  C2_5 
ROOT
HETATM    1  C2  UNL     1       1.085  -0.454  -0.157  1.00  0.00     0.237 C 
HETATM    2  C3  UNL     1       0.073  -1.555   0.143  1.00  0.00     0.079 C 
HETATM    3  C4  UNL     1      -1.289  -0.927   0.006  1.00  0.00     0.267 C 
HETATM    4  C5  UNL     1      -1.769  -0.927  -1.453  1.00  0.00     0.119 C 
HETATM    5  S1  UNL     1      -0.566   0.293  -2.138  1.00  0.00    -0.123 SA
HETATM    6  C6  UNL     1       0.196   0.690  -0.513  1.00  0.00     0.346 C 
HETATM    7  N2  UNL     1      -0.976   0.458   0.328  1.00  0.00     0.030 N 
HETATM    8  C7  UNL     1      -2.057   1.358   0.036  1.00  0.00     0.358 C 
HETATM    9  O1  UNL     1      -0.686   0.498   1.633  1.00  0.00    -0.063 OA
ENDROOT
BRANCH   1  10
HETATM   10  N1  UNL     1       1.876  -0.104   0.984  1.00  0.00    -0.071 N 
HETATM   11  C1  UNL     1       2.941   0.767   0.597  1.00  0.00     0.267 C 
ATOM     12  H12 UNL     1       2.218  -0.928   1.478  1.00  0.00     0.277 HD
ATOM     13  H11 UNL     1       1.310   0.295   1.732  1.00  0.00     0.277 HD
ENDBRANCH   1  10
TORSDOF 1
