REMARK  2 active torsions:
REMARK  status: ('A' for Active; 'I' for Inactive)
REMARK    1  A    between atoms: C3_3  and  N1_6 
REMARK    2  A    between atoms: N1_6  and  C6_8 
ROOT
HETATM    1  C1  UNL     1      -4.033  -0.021   1.506  1.00  0.00     0.015 C 
HETATM    2  C2  UNL     1      -3.023  -0.091   0.852  1.00  0.00    -0.086 C 
HETATM    3  C3  UNL     1      -1.768  -0.187   0.070  1.00  0.00     0.087 C 
HETATM    4  C4  UNL     1      -1.647  -1.649  -0.331  1.00  0.00     0.052 C 
HETATM    5  C5  UNL     1      -1.930   0.713  -1.136  1.00  0.00     0.052 C 
ENDROOT
BRANCH   3   6
HETATM    6  N1  UNL     1      -0.694   0.256   0.890  1.00  0.00    -0.350 N 
ATOM      7  H1  UNL     1      -0.899   0.573   1.838  1.00  0.00     0.163 HD
BRANCH   6   8
HETATM    8  C6  UNL     1       0.541   0.273   0.479  1.00  0.00     0.162 A 
HETATM    9  N2  UNL     1       1.077  -0.082  -0.690  1.00  0.00    -0.279 N 
HETATM   10  N3  UNL     1       2.335   0.030  -0.845  1.00  0.00    -0.296 N 
ATOM     11  H2  UNL     1       0.490  -0.436  -1.445  1.00  0.00     0.189 HD
HETATM   12  C7  UNL     1       3.093   0.491   0.138  1.00  0.00     0.066 A 
ATOM     13  H3  UNL     1       2.762  -0.237  -1.732  1.00  0.00     0.187 HD
HETATM   14  C8  UNL     1       4.581   0.701   0.165  1.00  0.00     0.078 C 
HETATM   15  S1  UNL     1       1.911   0.777   1.356  1.00  0.00    -0.039 SA
ENDBRANCH   6   8
ENDBRANCH   3   6
TORSDOF 2
