REMARK  2 active torsions:
REMARK  status: ('A' for Active; 'I' for Inactive)
REMARK    1  A    between atoms: C2_2  and  N1_3 
REMARK    2  A    between atoms: N1_3  and  C3_5 
ROOT
HETATM    1  C3  UNL     1       0.574   0.080   0.525  1.00  0.00     0.139 A 
HETATM    2  N2  UNL     1      -0.080  -0.219  -0.606  1.00  0.00    -0.342 N 
ATOM      3  H2  UNL     1       0.456  -0.456  -1.441  1.00  0.00     0.167 HD
HETATM    4  C4  UNL     1      -1.440  -0.215  -0.671  1.00  0.00     0.029 A 
HETATM    5  C5  UNL     1      -2.124  -0.554  -1.947  1.00  0.00     0.070 C 
HETATM    6  C6  UNL     1      -2.155   0.109   0.464  1.00  0.00     0.028 A 
HETATM    7  C7  UNL     1      -3.628   0.109   0.377  1.00  0.00     0.070 C 
HETATM    8  N3  UNL     1      -1.520   0.415   1.619  1.00  0.00    -0.347 N 
ATOM      9  H3  UNL     1      -2.054   0.653   2.455  1.00  0.00     0.166 HD
HETATM   10  C8  UNL     1      -0.152   0.401   1.651  1.00  0.00     0.158 A 
HETATM   11  C9  UNL     1       0.533   0.724   2.869  1.00  0.00     0.121 C 
HETATM   12  N4  UNL     1       1.098   0.976   3.868  1.00  0.00    -0.190 NA
ENDROOT
BRANCH   1  13
HETATM   13  N1  UNL     1       1.853   0.073   0.577  1.00  0.00    -0.374 N 
ATOM     14  H1  UNL     1       2.281   0.312   1.471  1.00  0.00     0.161 HD
BRANCH  13  15
HETATM   15  C2  UNL     1       2.732  -0.237  -0.498  1.00  0.00     0.116 C 
HETATM   16  C1  UNL     1       4.137   0.221  -0.083  1.00  0.00     0.026 C 
ENDBRANCH  13  15
ENDBRANCH   1  13
TORSDOF 2
