REMARK  2 active torsions:
REMARK  status: ('A' for Active; 'I' for Inactive)
REMARK    1  A    between atoms: C2_2  and  C3_3 
REMARK    2  A    between atoms: C6_8  and  N2_9 
ROOT
HETATM    1  C3  UNL     1       1.933  -0.247  -0.281  1.00  0.00     0.045 C 
HETATM    2  C4  UNL     1       1.975  -1.716  -0.552  1.00  0.00     0.040 C 
HETATM    3  C5  UNL     1       1.682   0.570  -1.529  1.00  0.00     0.153 C 
HETATM    4  N1  UNL     1       0.239   0.539  -1.622  1.00  0.00    -0.360 N 
ATOM      5  H1  UNL     1      -0.284   0.730  -2.477  1.00  0.00     0.162 HD
HETATM    6  C6  UNL     1      -0.306   0.240  -0.492  1.00  0.00     0.174 C 
HETATM    7  N3  UNL     1       0.735   0.040   0.475  1.00  0.00    -0.352 N 
ATOM      8  H3  UNL     1       0.647   0.090   1.490  1.00  0.00     0.163 HD
ENDROOT
BRANCH   6   9
HETATM    9  N2  UNL     1      -1.692   0.115  -0.192  1.00  0.00    -0.353 N 
HETATM   10  C7  UNL     1      -2.720  -0.336  -1.136  1.00  0.00     0.126 C 
HETATM   11  C8  UNL     1      -3.995  -0.334  -0.363  1.00  0.00     0.021 C 
HETATM   12  C9  UNL     1      -3.504  -0.539   1.075  1.00  0.00     0.021 C 
HETATM   13  C10 UNL     1      -2.320   0.407   1.082  1.00  0.00     0.126 C 
ENDBRANCH   6   9
BRANCH   1  14
HETATM   14  C2  UNL     1       3.187   0.175   0.434  1.00  0.00     0.028 C 
HETATM   15  C1  UNL     1       3.190   1.659   0.731  1.00  0.00     0.007 C 
ENDBRANCH   1  14
TORSDOF 2
