REMARK  11 active torsions:
REMARK  status: ('A' for Active; 'I' for Inactive)
REMARK    1  A    between atoms: C3_5  and  N2_6 
REMARK    2  A    between atoms: N2_6  and  N3_8 
REMARK    3  A    between atoms: C4_13  and  N5_14 
REMARK    4  A    between atoms: N5_14  and  C5_16 
REMARK    5  A    between atoms: C6_23  and  N9_24 
REMARK    6  A    between atoms: C7_29  and  N10_30 
REMARK    7  A    between atoms: N11_32  and  O2_34 
REMARK    8  A    between atoms: O2_34  and  C8_35 
REMARK    9  A    between atoms: C8_35  and  C9_37 
REMARK   10  A    between atoms: C12_42  and  C13_43 
REMARK   11  A    between atoms: C13_43  and  O6_44 
ROOT
HETATM    1  C1  UNL     1       0.772   3.554  -1.862  1.00  0.00     0.071 C 
HETATM    2  C2  UNL     1      -0.166   2.717  -1.029  1.00  0.00     0.054 A 
HETATM    3  N1  UNL     1      -0.565   3.199   0.172  1.00  0.00    -0.192 N 
ATOM      4  H1  UNL     1      -0.238   4.107   0.502  1.00  0.00     0.184 HD
HETATM    5  C3  UNL     1      -1.399   2.460   0.919  1.00  0.00     0.698 A 
HETATM    6  N4  UNL     1      -1.839   1.259   0.494  1.00  0.00    -0.173 N 
ATOM      7  H4  UNL     1      -2.472   0.733   1.096  1.00  0.00     0.186 HD
HETATM    8  C4  UNL     1      -1.483   0.721  -0.687  1.00  0.00     0.150 A 
HETATM    9  C7  UNL     1      -0.611   1.496  -1.465  1.00  0.00     0.117 A 
ENDROOT
BRANCH   9  10
HETATM   10  N10 UNL     1      -0.206   0.972  -2.719  1.00  0.00    -0.275 N 
HETATM   11  N11 UNL     1       0.768   0.189  -2.876  1.00  0.00    -0.198 N 
ATOM     12  H11 UNL     1       0.973  -0.129  -3.823  1.00  0.00     0.216 HD
ATOM     13  H10 UNL     1      -0.737   1.246  -3.546  1.00  0.00     0.189 HD
BRANCH  11  14
HETATM   14  O2  UNL     1       1.572  -0.265  -1.864  1.00  0.00    -0.184 OA
BRANCH  14  15
HETATM   15  C8  UNL     1       2.908   0.103  -1.788  1.00  0.00     0.290 C 
HETATM   16  O3  UNL     1       3.336   0.876  -2.699  1.00  0.00    -0.263 OA
BRANCH  15  17
HETATM   17  C9  UNL     1       3.814  -0.366  -0.708  1.00  0.00     0.128 C 
HETATM   18  C10 UNL     1       3.891  -1.894  -0.742  1.00  0.00     0.128 C 
HETATM   19  C11 UNL     1       2.651  -2.267  -0.033  1.00  0.00     0.260 C 
HETATM   20  O4  UNL     1       1.880  -3.263  -0.239  1.00  0.00    -0.265 OA
HETATM   21  O5  UNL     1       2.461  -1.301   0.943  1.00  0.00    -0.313 OA
HETATM   22  C12 UNL     1       3.166  -0.120   0.617  1.00  0.00     0.169 C 
BRANCH  22  23
HETATM   23  C13 UNL     1       4.179   0.200   1.708  1.00  0.00     0.197 C 
BRANCH  23  24
HETATM   24  O6  UNL     1       4.860   1.353   1.378  1.00  0.00    -0.398 OA
ATOM     25  H6  UNL     1       5.492   1.553   2.059  1.00  0.00     0.209 HD
ENDBRANCH  23  24
ENDBRANCH  22  23
ENDBRANCH  15  17
ENDBRANCH  14  15
ENDBRANCH  11  14
ENDBRANCH   9  10
BRANCH   8  26
HETATM   26  N5  UNL     1      -1.887  -0.426  -1.123  1.00  0.00    -0.330 N 
ATOM     27  H5  UNL     1      -1.568  -0.762  -2.032  1.00  0.00     0.165 HD
BRANCH  26  28
HETATM   28  C5  UNL     1      -2.784  -1.235  -0.337  1.00  0.00     0.351 C 
HETATM   29  N6  UNL     1      -2.041  -1.875   0.747  1.00  0.00    -0.276 N 
HETATM   30  N7  UNL     1      -2.335  -3.012   1.193  1.00  0.00    -0.244 N 
ATOM     31  H6  UNL     1      -1.251  -1.378   1.158  1.00  0.00     0.186 HD
HETATM   32  N8  UNL     1      -3.418  -3.688   0.623  1.00  0.00    -0.270 N 
ATOM     33  H7  UNL     1      -1.797  -3.431   1.952  1.00  0.00     0.207 HD
HETATM   34  C6  UNL     1      -4.232  -2.959  -0.329  1.00  0.00     0.445 C 
ATOM     35  H8  UNL     1      -3.627  -4.656   0.868  1.00  0.00     0.186 HD
HETATM   36  O1  UNL     1      -3.412  -2.207  -1.131  1.00  0.00    -0.298 OA
BRANCH  34  37
HETATM   37  N9  UNL     1      -5.139  -2.127   0.429  1.00  0.00    -0.033 N 
ATOM     38  H93 UNL     1      -5.692  -2.653   1.106  1.00  0.00     0.279 HD
ATOM     39  H92 UNL     1      -4.661  -1.518   1.093  1.00  0.00     0.279 HD
ATOM     40  H91 UNL     1      -5.712  -1.614  -0.241  1.00  0.00     0.279 HD
ENDBRANCH  34  37
ENDBRANCH  26  28
ENDBRANCH   8  26
BRANCH   5  41
HETATM   41  N2  UNL     1      -1.771   2.926   2.055  1.00  0.00    -0.138 N 
ATOM     42  H2  UNL     1      -1.416   3.839   2.340  1.00  0.00     0.205 HD
BRANCH  41  43
HETATM   43  N3  UNL     1      -2.631   2.258   2.921  1.00  0.00    -0.331 N 
ATOM     44  H32 UNL     1      -2.976   1.347   2.620  1.00  0.00     0.177 HD
ATOM     45  H31 UNL     1      -2.927   2.628   3.824  1.00  0.00     0.177 HD
ENDBRANCH  41  43
ENDBRANCH   5  41
TORSDOF 11
