REMARK  6 active torsions:
REMARK  status: ('A' for Active; 'I' for Inactive)
REMARK    1  A    between atoms: C2_3  and  O1_4 
REMARK    2  A    between atoms: C3_6  and  C4_7 
REMARK    3  A    between atoms: N3_19  and  C10_21 
REMARK    4  A    between atoms: C10_21  and  N4_22 
REMARK    5  A    between atoms: N8_31  and  C13_32 
REMARK    6  A    between atoms: C14_36  and  N10_37 
ROOT
HETATM    1  C1  UNL     1      -3.239  -0.271  -3.496  1.00  0.00     0.159 C 
HETATM    2  N1  UNL     1      -2.785   0.479  -2.350  1.00  0.00    -0.325 N 
HETATM    3  C2  UNL     1      -3.292   1.720  -2.077  1.00  0.00     0.164 A 
HETATM    4  C3  UNL     1      -2.908   2.473  -1.017  1.00  0.00     0.143 A 
HETATM    5  C5  UNL     1      -1.959   1.977  -0.160  1.00  0.00     0.223 A 
HETATM    6  O4  UNL     1      -1.625   2.677   0.796  1.00  0.00    -0.285 OA
HETATM    7  C6  UNL     1      -1.410   0.742  -0.374  1.00  0.00     0.140 A 
HETATM    8  C7  UNL     1      -1.847  -0.001  -1.496  1.00  0.00     0.137 A 
HETATM    9  C8  UNL     1      -1.305  -1.237  -1.714  1.00  0.00     0.289 A 
HETATM   10  O5  UNL     1      -1.638  -1.935  -2.668  1.00  0.00    -0.265 OA
HETATM   11  N2  UNL     1      -0.376  -1.729  -0.877  1.00  0.00    -0.154 N 
ATOM     12  H2  UNL     1       0.016  -2.653  -1.061  1.00  0.00     0.187 HD
HETATM   13  C9  UNL     1       0.053  -1.041   0.195  1.00  0.00     0.692 A 
HETATM   14  N3  UNL     1       0.913  -1.442   1.027  1.00  0.00    -0.185 N 
ATOM     15  H3  UNL     1       1.138  -0.807   1.793  1.00  0.00     0.185 HD
HETATM   16  N8  UNL     1      -0.470   0.209   0.449  1.00  0.00    -0.123 N 
ENDROOT
BRANCH  14  17
HETATM   17  C10 UNL     1       1.595  -2.674   1.009  1.00  0.00     0.229 C 
BRANCH  17  18
HETATM   18  N4  UNL     1       2.970  -2.584   0.594  1.00  0.00    -0.198 N 
HETATM   19  N5  UNL     1       3.978  -2.372   1.430  1.00  0.00    -0.262 N 
HETATM   20  C11 UNL     1       5.106  -2.337   0.743  1.00  0.00     0.211 A 
ATOM     21  H5  UNL     1       3.896  -2.255   2.440  1.00  0.00     0.190 HD
HETATM   22  N6  UNL     1       6.401  -2.132   1.269  1.00  0.00    -0.062 NA
HETATM   23  N7  UNL     1       4.827  -2.529  -0.557  1.00  0.00    -0.280 N 
HETATM   24  C12 UNL     1       3.488  -2.681  -0.631  1.00  0.00     0.348 A 
ATOM     25  H7  UNL     1       5.492  -2.555  -1.330  1.00  0.00     0.173 HD
HETATM   26  O6  UNL     1       2.865  -2.882  -1.706  1.00  0.00    -0.245 OA
ENDBRANCH  17  18
ENDBRANCH  14  17
BRANCH  16  27
HETATM   27  C13 UNL     1      -0.040   0.972   1.588  1.00  0.00     0.459 C 
HETATM   28  N9  UNL     1      -0.670   0.747   2.828  1.00  0.00     0.022 N 
HETATM   29  C14 UNL     1       0.673   0.731   3.377  1.00  0.00     0.529 C 
ATOM     30  H92 UNL     1      -1.394   1.369   3.188  1.00  0.00     0.287 HD
ATOM     31  H91 UNL     1      -1.322  -0.024   2.971  1.00  0.00     0.287 HD
HETATM   32  O7  UNL     1       1.067   0.260   2.158  1.00  0.00    -0.288 OA
BRANCH  29  33
HETATM   33  N10 UNL     1       1.127   2.068   3.730  1.00  0.00    -0.027 N 
ATOM     34 3H10 UNL     1       1.057   2.706   2.937  1.00  0.00     0.279 HD
ATOM     35 2H10 UNL     1       0.472   2.528   4.363  1.00  0.00     0.279 HD
ATOM     36 1H10 UNL     1       2.071   2.057   4.116  1.00  0.00     0.279 HD
ENDBRANCH  29  33
ENDBRANCH  16  27
BRANCH   4  37
HETATM   37  C4  UNL     1      -3.509   3.783  -0.813  1.00  0.00     0.218 C 
HETATM   38  O2  UNL     1      -3.177   4.493   0.148  1.00  0.00    -0.644 OA
HETATM   39  O3  UNL     1      -4.475   4.267  -1.700  1.00  0.00    -0.644 OA
ENDBRANCH   4  37
BRANCH   3  40
HETATM   40  O1  UNL     1      -4.253   2.195  -2.968  1.00  0.00    -0.345 OA
ATOM     41  H1  UNL     1      -4.605   3.057  -2.778  1.00  0.00     0.219 HD
ENDBRANCH   3  40
TORSDOF 6
