REMARK  8 active torsions:
REMARK  status: ('A' for Active; 'I' for Inactive)
REMARK    1  A    between atoms: N1_1  and  C1_5 
REMARK    2  A    between atoms: C1_5  and  C2_6 
REMARK    3  A    between atoms: C2_6  and  C3_7 
REMARK    4  A    between atoms: C3_7  and  C4_8 
REMARK    5  A    between atoms: C4_8  and  N2_9 
REMARK    6  A    between atoms: C6_13  and  C7_14 
REMARK    7  A    between atoms: C7_14  and  C8_15 
REMARK    8  A    between atoms: C8_15  and  N4_16 
ROOT
HETATM    1  N2  UNL     1       0.130  -1.693   0.123  1.00  0.00    -0.340 N 
HETATM    2  C5  UNL     1      -0.353  -1.844   1.362  1.00  0.00     0.183 A 
HETATM    3  N3  UNL     1      -1.616  -1.394   1.416  1.00  0.00    -0.354 N 
ATOM      4  H3  UNL     1      -2.214  -1.393   2.242  1.00  0.00     0.166 HD
HETATM    5  C6  UNL     1      -1.958  -0.947   0.203  1.00  0.00     0.027 A 
HETATM    6  C9  UNL     1      -0.853  -1.141  -0.598  1.00  0.00     0.117 A 
ENDROOT
BRANCH   1   7
HETATM    7  C4  UNL     1       1.445  -2.050  -0.353  1.00  0.00     0.223 C 
BRANCH   7   8
HETATM    8  C3  UNL     1       2.399  -0.942  -0.203  1.00  0.00    -0.085 C 
BRANCH   8   9
HETATM    9  C2  UNL     1       3.182  -0.031  -0.058  1.00  0.00    -0.078 C 
BRANCH   9  10
HETATM   10  C1  UNL     1       4.130   1.067   0.142  1.00  0.00     0.323 C 
BRANCH  10  11
HETATM   11  N1  UNL     1       3.764   2.246  -0.634  1.00  0.00    -0.069 N 
ATOM     12  H13 UNL     1       3.659   2.022  -1.623  1.00  0.00     0.275 HD
ATOM     13  H12 UNL     1       2.808   2.540  -0.435  1.00  0.00     0.275 HD
ATOM     14  H11 UNL     1       4.424   3.011  -0.495  1.00  0.00     0.275 HD
ENDBRANCH  10  11
ENDBRANCH   9  10
ENDBRANCH   8   9
ENDBRANCH   7   8
ENDBRANCH   1   7
BRANCH   5  15
HETATM   15  C7  UNL     1      -3.238  -0.353  -0.262  1.00  0.00     0.085 C 
BRANCH  15  16
HETATM   16  C8  UNL     1      -3.254   1.147  -0.099  1.00  0.00     0.235 C 
BRANCH  16  17
HETATM   17  N4  UNL     1      -2.175   1.740  -0.875  1.00  0.00    -0.079 N 
ATOM     18  H43 UNL     1      -1.268   1.339  -0.639  1.00  0.00     0.274 HD
ATOM     19  H42 UNL     1      -2.210   1.461  -1.855  1.00  0.00     0.274 HD
ATOM     20  H41 UNL     1      -2.186   2.754  -0.765  1.00  0.00     0.274 HD
ENDBRANCH  16  17
ENDBRANCH  15  16
ENDBRANCH   5  15
TORSDOF 8
