REMARK  3 active torsions:
REMARK  status: ('A' for Active; 'I' for Inactive)
REMARK    1  A    between atoms: N1_2  and  C3_4 
REMARK    2  A    between atoms: C3_4  and  C4_5 
REMARK    3  A    between atoms: C4_5  and  C5_6 
ROOT
HETATM    1  C5  UNL     1       0.852   1.204   0.177  1.00  0.00     0.025 C 
HETATM    2  C6  UNL     1       2.011   0.612   0.398  1.00  0.00     0.120 A 
HETATM    3  N2  UNL     1       3.303   1.159   0.183  1.00  0.00    -0.282 N 
ATOM      4  H2  UNL     1       3.480   2.097  -0.176  1.00  0.00     0.188 HD
HETATM    5  N3  UNL     1       4.288   0.255   0.523  1.00  0.00    -0.250 N 
ATOM      6  H3  UNL     1       5.294   0.413   0.457  1.00  0.00     0.192 HD
HETATM    7  C7  UNL     1       3.654  -0.943   0.984  1.00  0.00     0.340 A 
HETATM    8  O1  UNL     1       4.291  -1.953   1.368  1.00  0.00    -0.245 OA
HETATM    9  N4  UNL     1       2.259  -0.708   0.901  1.00  0.00    -0.293 N 
ATOM     10  H4  UNL     1       1.537  -1.380   1.161  1.00  0.00     0.172 HD
ENDROOT
BRANCH   1  11
HETATM   11  C4  UNL     1      -0.436   0.526   0.442  1.00  0.00     0.061 C 
BRANCH  11  12
HETATM   12  C3  UNL     1      -1.282   0.390  -0.799  1.00  0.00     0.275 C 
BRANCH  12  13
HETATM   13  N1  UNL     1      -2.512  -0.266  -0.489  1.00  0.00     0.080 N 
HETATM   14  C1  UNL     1      -2.420  -1.638  -0.122  1.00  0.00     0.309 C 
HETATM   15  C2  UNL     1      -3.361   0.431   0.442  1.00  0.00     0.309 C 
ENDBRANCH  12  13
ENDBRANCH  11  12
ENDBRANCH   1  11
TORSDOF 3
