REMARK  6 active torsions:
REMARK  status: ('A' for Active; 'I' for Inactive)
REMARK    1  A    between atoms: N1_1  and  N2_4 
REMARK    2  A    between atoms: N2_4  and  C1_6 
REMARK    3  A    between atoms: C1_6  and  C2_7 
REMARK    4  A    between atoms: C2_7  and  C3_8 
REMARK    5  A    between atoms: C3_8  and  N3_9 
REMARK    6  A    between atoms: N3_9  and  C4_11 
ROOT
HETATM    1  C3  UNL     1      -0.799  -0.375   1.555  1.00  0.00     0.123 C 
ENDROOT
BRANCH   1   2
HETATM    2  C2  UNL     1      -1.297   0.821   0.789  1.00  0.00     0.041 C 
BRANCH   2   3
HETATM    3  C1  UNL     1      -0.361   1.258  -0.299  1.00  0.00     0.140 C 
BRANCH   3   4
HETATM    4  N2  UNL     1      -0.977   2.408  -0.937  1.00  0.00    -0.343 N 
ATOM      5  H2  UNL     1      -0.562   3.339  -0.892  1.00  0.00     0.179 HD
BRANCH   4   6
HETATM    6  N1  UNL     1      -2.036   2.189  -1.538  1.00  0.00    -0.349 N 
ATOM      7  H12 UNL     1      -2.439   1.252  -1.574  1.00  0.00     0.176 HD
ATOM      8  H11 UNL     1      -2.469   2.997  -1.986  1.00  0.00     0.176 HD
ENDBRANCH   4   6
ENDBRANCH   3   4
ENDBRANCH   2   3
ENDBRANCH   1   2
BRANCH   1   9
HETATM    9  N3  UNL     1      -0.602  -1.538   0.718  1.00  0.00    -0.368 N 
ATOM     10  H3  UNL     1      -1.396  -2.141   0.505  1.00  0.00     0.161 HD
BRANCH   9  11
HETATM   11  C4  UNL     1       0.555  -1.826   0.237  1.00  0.00     0.177 A 
HETATM   12  N4  UNL     1       1.816  -1.381   0.227  1.00  0.00    -0.272 N 
HETATM   13  N5  UNL     1       2.454  -2.255  -0.523  1.00  0.00    -0.265 N 
ATOM     14  H4  UNL     1       2.195  -0.556   0.692  1.00  0.00     0.189 HD
HETATM   15  S1  UNL     1       1.038  -3.113  -0.755  1.00  0.00     0.040 SA
ATOM     16  H5  UNL     1       3.419  -2.364  -0.835  1.00  0.00     0.195 HD
ENDBRANCH   9  11
ENDBRANCH   1   9
TORSDOF 6
