REMARK  6 active torsions:
REMARK  status: ('A' for Active; 'I' for Inactive)
REMARK    1  A    between atoms: C6_8  and  C7_9 
REMARK    2  A    between atoms: C8_12  and  C9_13 
REMARK    3  A    between atoms: C9_13  and  C10_14 
REMARK    4  A    between atoms: C10_14  and  N4_15 
REMARK    5  A    between atoms: C10_14  and  C11_19 
REMARK    6  A    between atoms: C12_27  and  N8_28 
ROOT
HETATM    1  N1  UNL     1       6.105   0.132   0.598  1.00  0.00    -0.191 NA
HETATM    2  C1  UNL     1       4.981  -0.137   0.518  1.00  0.00     0.105 C 
HETATM    3  C2  UNL     1       3.589  -0.466   0.407  1.00  0.00     0.112 A 
HETATM    4  C3  UNL     1       2.668   0.567   0.181  1.00  0.00     0.100 A 
HETATM    5  C4  UNL     1       3.185   1.884  -0.019  1.00  0.00     0.103 C 
HETATM    6  N2  UNL     1       3.651   2.941  -0.205  1.00  0.00    -0.191 NA
HETATM    7  C5  UNL     1       1.327   0.298   0.069  1.00  0.00     0.114 A 
HETATM    8  C6  UNL     1       0.201   1.058  -0.162  1.00  0.00     0.085 A 
HETATM    9  C8  UNL     1      -0.889   0.154  -0.194  1.00  0.00     0.048 A 
HETATM   10  N5  UNL     1      -0.353  -1.032   0.020  1.00  0.00    -0.282 N 
ATOM     11  H5  UNL     1      -0.898  -1.893   0.056  1.00  0.00     0.189 HD
HETATM   12  N6  UNL     1       0.935  -0.999   0.181  1.00  0.00    -0.193 N 
HETATM   13  N7  UNL     1       1.810  -1.989   0.396  1.00  0.00    -0.263 N 
ATOM     14  H7  UNL     1       1.467  -2.947   0.473  1.00  0.00     0.190 HD
HETATM   15  C12 UNL     1       3.123  -1.755   0.512  1.00  0.00     0.138 A 
ENDROOT
BRANCH  15  16
HETATM   16  N8  UNL     1       3.991  -2.684   0.721  1.00  0.00    -0.383 N 
ATOM     17  H82 UNL     1       4.991  -2.506   0.809  1.00  0.00     0.157 HD
ATOM     18  H81 UNL     1       3.645  -3.640   0.799  1.00  0.00     0.157 HD
ENDBRANCH  15  16
BRANCH   8  19
HETATM   19  C7  UNL     1       0.043   2.493  -0.223  1.00  0.00     0.269 C 
HETATM   20  N3  UNL     1      -0.788   3.056  -1.273  1.00  0.00    -0.057 NA
HETATM   21  O1  UNL     1       0.587   3.252   0.580  1.00  0.00    -0.271 OA
ENDBRANCH   8  19
BRANCH   9  22
HETATM   22  C9  UNL     1      -2.252   0.610  -0.427  1.00  0.00     0.103 C 
BRANCH  22  23
HETATM   23  C10 UNL     1      -3.279  -0.489  -0.371  1.00  0.00     0.289 C 
BRANCH  23  24
HETATM   24  N4  UNL     1      -3.091  -1.528  -1.332  1.00  0.00    -0.065 N 
ATOM     25  H43 UNL     1      -3.042  -1.136  -2.273  1.00  0.00     0.275 HD
ATOM     26  H42 UNL     1      -2.151  -1.917  -1.254  1.00  0.00     0.275 HD
ATOM     27  H41 UNL     1      -3.787  -2.273  -1.294  1.00  0.00     0.275 HD
ENDBRANCH  23  24
BRANCH  23  28
HETATM   28  C11 UNL     1      -3.456  -1.059   0.968  1.00  0.00     0.204 C 
HETATM   29  O2  UNL     1      -3.433  -2.299   1.120  1.00  0.00    -0.646 OA
HETATM   30  O3  UNL     1      -3.651  -0.299   2.109  1.00  0.00    -0.646 OA
ENDBRANCH  23  28
ENDBRANCH  22  23
ENDBRANCH   9  22
TORSDOF 6
