REMARK  7 active torsions:
REMARK  status: ('A' for Active; 'I' for Inactive)
REMARK    1  A    between atoms: C3_6  and  S1_7 
REMARK    2  A    between atoms: S1_7  and  N3_8 
REMARK    3  A    between atoms: C4_13  and  N4_14 
REMARK    4  A    between atoms: N4_14  and  N5_16 
REMARK    5  A    between atoms: N5_16  and  C5_18 
REMARK    6  A    between atoms: C6_21  and  C7_22 
REMARK    7  A    between atoms: C9_27  and  N8_28 
ROOT
HETATM    1  N4  UNL     1      -1.087  -0.404   0.674  1.00  0.00    -0.281 N 
ATOM      2  H4  UNL     1      -1.242  -1.317   1.101  1.00  0.00     0.188 HD
ENDROOT
BRANCH   1   3
HETATM    3  C4  UNL     1      -2.124   0.166  -0.087  1.00  0.00     0.161 A 
HETATM    4  N1  UNL     1      -2.176   1.340  -0.743  1.00  0.00    -0.279 N 
HETATM    5  C1  UNL     1      -1.096   2.310  -0.790  1.00  0.00     0.179 C 
HETATM    6  N2  UNL     1      -3.369   1.482  -1.343  1.00  0.00    -0.307 N 
HETATM    7  C2  UNL     1      -4.102   0.400  -1.083  1.00  0.00     0.136 A 
ATOM      8  H2  UNL     1      -3.664   2.282  -1.903  1.00  0.00     0.186 HD
HETATM    9  C3  UNL     1      -3.365  -0.446  -0.303  1.00  0.00     0.142 A 
BRANCH   9  10
HETATM   10  S1  UNL     1      -3.883  -1.980   0.295  1.00  0.00     0.262 S 
HETATM   11  O1  UNL     1      -3.060  -3.122  -0.221  1.00  0.00    -0.201 OA
HETATM   12  O2  UNL     1      -5.302  -2.228  -0.124  1.00  0.00    -0.201 OA
BRANCH  10  13
HETATM   13  N3  UNL     1      -3.841  -1.950   2.035  1.00  0.00    -0.324 N 
ATOM     14  H32 UNL     1      -3.554  -1.148   2.596  1.00  0.00     0.169 HD
ATOM     15  H31 UNL     1      -4.147  -2.857   2.388  1.00  0.00     0.169 HD
ENDBRANCH  10  13
ENDBRANCH   9  10
ENDBRANCH   1   3
BRANCH   1  16
HETATM   16  N5  UNL     1       0.118   0.211   0.867  1.00  0.00    -0.281 N 
ATOM     17  H5  UNL     1       0.136   0.994   1.521  1.00  0.00     0.188 HD
BRANCH  16  18
HETATM   18  C5  UNL     1       1.245  -0.106   0.297  1.00  0.00     0.154 A 
HETATM   19  N6  UNL     1       2.349   0.610   0.602  1.00  0.00    -0.335 N 
HETATM   20  C6  UNL     1       3.582   0.451   0.136  1.00  0.00     0.106 A 
ATOM     21  H6  UNL     1       2.219   1.367   1.274  1.00  0.00     0.168 HD
HETATM   22  C8  UNL     1       3.993  -0.498  -0.774  1.00  0.00     0.086 A 
HETATM   23  S2  UNL     1       2.756  -1.530  -1.310  1.00  0.00    -0.079 SA
HETATM   24  C9  UNL     1       1.233  -1.158  -0.586  1.00  0.00     0.113 A 
BRANCH  20  25
HETATM   25  C7  UNL     1       4.676   1.354   0.602  1.00  0.00     0.281 C 
HETATM   26  N7  UNL     1       5.996   1.249   0.155  1.00  0.00    -0.056 NA
HETATM   27  O3  UNL     1       4.400   2.257   1.439  1.00  0.00    -0.269 OA
ENDBRANCH  20  25
BRANCH  24  28
HETATM   28  N8  UNL     1       0.187  -1.851  -0.888  1.00  0.00    -0.390 N 
ATOM     29  H82 UNL     1      -0.713  -1.631  -0.460  1.00  0.00     0.157 HD
ATOM     30  H81 UNL     1       0.178  -2.632  -1.544  1.00  0.00     0.157 HD
ENDBRANCH  24  28
ENDBRANCH  16  18
ENDBRANCH   1  16
TORSDOF 7
