REMARK  6 active torsions:
REMARK  status: ('A' for Active; 'I' for Inactive)
REMARK    1  A    between atoms: C4_6  and  N2_7 
REMARK    2  A    between atoms: N2_7  and  C5_8 
REMARK    3  A    between atoms: N2_7  and  C6_10 
REMARK       I    between atoms: N6_18  and  C9_19 
REMARK    4  A    between atoms: C9_19  and  C10_21 
REMARK    5  A    between atoms: C10_21  and  N7_22 
REMARK    6  A    between atoms: C10_21  and  C11_26 
ROOT
HETATM    1  C6  UNL     1       0.613   0.552  -0.124  1.00  0.00     0.712 C 
HETATM    2  N3  UNL     1       1.436   1.599   0.020  1.00  0.00    -0.119 N 
ATOM      3  H3  UNL     1       2.436   1.422   0.115  1.00  0.00     0.207 HD
HETATM    4  N4  UNL     1       0.982   2.938   0.046  1.00  0.00    -0.232 N 
ATOM      5  H4  UNL     1       1.602   3.621   0.481  1.00  0.00     0.204 HD
HETATM    6  N5  UNL     1      -0.234   3.428  -0.464  1.00  0.00    -0.124 NA
HETATM    7  C7  UNL     1      -0.700   2.596  -1.557  1.00  0.00     0.157 C 
HETATM    8  C8  UNL     1      -1.573   1.421  -1.074  1.00  0.00     0.169 C 
HETATM    9  N6  UNL     1      -0.825   0.595  -0.178  1.00  0.00    -0.145 N 
HETATM   10  C9  UNL     1      -1.431  -0.199   0.821  1.00  0.00     0.279 C 
HETATM   11  O2  UNL     1      -0.819  -0.772   1.777  1.00  0.00    -0.270 OA
ENDROOT
BRANCH   1  12
HETATM   12  N2  UNL     1       1.274  -0.675  -0.129  1.00  0.00    -0.119 N 
BRANCH  12  13
HETATM   13  C4  UNL     1       2.646  -0.674   0.394  1.00  0.00     0.091 A 
HETATM   14  C1  UNL     1       3.651  -1.179  -0.380  1.00  0.00     0.114 A 
HETATM   15  N1  UNL     1       3.569  -1.745  -1.708  1.00  0.00    -0.092 NA
HETATM   16  S1  UNL     1       5.032  -0.982   0.600  1.00  0.00    -0.085 SA
HETATM   17  C2  UNL     1       4.299  -0.265   1.964  1.00  0.00     0.054 A 
HETATM   18  C3  UNL     1       2.979  -0.203   1.603  1.00  0.00     0.040 A 
ENDBRANCH  12  13
BRANCH  12  19
HETATM   19  C5  UNL     1       0.706  -1.877  -0.518  1.00  0.00     0.377 C 
HETATM   20  O1  UNL     1      -0.349  -2.131  -1.122  1.00  0.00    -0.282 OA
ENDBRANCH  12  19
ENDBRANCH   1  12
BRANCH  10  21
HETATM   21  C10 UNL     1      -2.892  -0.436   0.830  1.00  0.00     0.375 C 
BRANCH  21  22
HETATM   22  N7  UNL     1      -3.550  -0.198  -0.416  1.00  0.00    -0.056 N 
ATOM     23  H73 UNL     1      -3.348   0.746  -0.746  1.00  0.00     0.275 HD
ATOM     24  H72 UNL     1      -3.109  -0.743  -1.157  1.00  0.00     0.275 HD
ATOM     25  H71 UNL     1      -4.557  -0.361  -0.410  1.00  0.00     0.275 HD
ENDBRANCH  21  22
BRANCH  21  26
HETATM   26  C11 UNL     1      -3.226  -1.808   1.276  1.00  0.00     0.214 C 
HETATM   27  O3  UNL     1      -2.765  -2.245   2.350  1.00  0.00    -0.646 OA
HETATM   28  O4  UNL     1      -4.044  -2.600   0.509  1.00  0.00    -0.646 OA
ENDBRANCH  21  26
ENDBRANCH  10  21
TORSDOF 6
