REMARK  4 active torsions:
REMARK  status: ('A' for Active; 'I' for Inactive)
REMARK    1  A    between atoms: C5_7  and  N2_8 
REMARK    2  A    between atoms: N2_8  and  N3_10 
REMARK    3  A    between atoms: N4_12  and  C6_14 
REMARK    4  A    between atoms: C7_20  and  C8_21 
REMARK       I    between atoms: C8_21  and  N7_23 
ROOT
HETATM    1  N3  UNL     1       0.201  -1.654   0.695  1.00  0.00    -0.227 N 
ATOM      2  H3  UNL     1      -0.143  -2.282   1.422  1.00  0.00     0.209 HD
HETATM    3  N4  UNL     1       1.278  -1.900   0.071  1.00  0.00    -0.268 N 
ATOM      4  H4  UNL     1       1.809  -2.740   0.301  1.00  0.00     0.190 HD
ENDROOT
BRANCH   3   5
HETATM    5  C6  UNL     1       1.772  -1.005  -0.969  1.00  0.00     0.162 A 
HETATM    6  N5  UNL     1       1.323  -1.135  -2.211  1.00  0.00    -0.295 N 
HETATM    7  S1  UNL     1       2.130   0.061  -3.060  1.00  0.00     0.069 SA
ATOM      8  H5  UNL     1       0.644  -1.808  -2.566  1.00  0.00     0.177 HD
HETATM    9  N6  UNL     1       3.031   0.709  -1.808  1.00  0.00    -0.305 N 
HETATM   10  C7  UNL     1       2.687  -0.021  -0.744  1.00  0.00     0.154 A 
ATOM     11  H6  UNL     1       3.692   1.485  -1.848  1.00  0.00     0.176 HD
BRANCH  10  12
HETATM   12  C8  UNL     1       3.282   0.246   0.600  1.00  0.00     0.278 C 
HETATM   13  O1  UNL     1       2.959  -0.442   1.609  1.00  0.00    -0.265 OA
HETATM   14  N7  UNL     1       4.221   1.286   0.734  1.00  0.00    -0.298 N 
HETATM   15  C9  UNL     1       5.441   1.180   0.328  1.00  0.00     0.203 C 
ATOM     16  H7  UNL     1       3.925   2.159   1.170  1.00  0.00     0.171 HD
HETATM   17  N8  UNL     1       5.934  -0.015  -0.293  1.00  0.00    -0.066 NA
HETATM   18  N9  UNL     1       6.368   2.244   0.475  1.00  0.00    -0.066 NA
ENDBRANCH  10  12
ENDBRANCH   3   5
BRANCH   1  19
HETATM   19  N2  UNL     1      -0.498  -0.494   0.352  1.00  0.00    -0.118 N 
ATOM     20  H2  UNL     1       0.033   0.308   0.013  1.00  0.00     0.207 HD
BRANCH  19  21
HETATM   21  C5  UNL     1      -1.912  -0.373   0.451  1.00  0.00     0.690 C 
HETATM   22  N1  UNL     1      -2.607  -0.196   1.663  1.00  0.00    -0.223 N 
HETATM   23  C4  UNL     1      -3.916   0.304   1.305  1.00  0.00     0.168 C 
ATOM     24  H1  UNL     1      -2.258  -0.383   2.603  1.00  0.00     0.177 HD
HETATM   25  C2  UNL     1      -4.100  -0.258  -0.086  1.00  0.00     0.056 C 
HETATM   26  C1  UNL     1      -4.899   0.713  -0.923  1.00  0.00     0.040 C 
HETATM   27  C3  UNL     1      -4.762  -1.615  -0.010  1.00  0.00     0.040 C 
HETATM   28  N10 UNL     1      -2.742  -0.410  -0.548  1.00  0.00    -0.215 N 
ATOM     29  H10 UNL     1      -2.471  -0.530  -1.524  1.00  0.00     0.178 HD
ENDBRANCH  19  21
ENDBRANCH   1  19
TORSDOF 4
