REMARK  4 active torsions:
REMARK  status: ('A' for Active; 'I' for Inactive)
REMARK    1  A    between atoms: C2_2  and  O2_4 
REMARK    2  A    between atoms: O2_4  and  C3_5 
REMARK    3  A    between atoms: C3_5  and  N1_6 
REMARK    4  A    between atoms: C5_9  and  C6_10 
ROOT
HETATM    1  N1  UNL     1      -1.557   1.225  -0.506  1.00  0.00    -0.240 N 
HETATM    2  C4  UNL     1      -0.416   0.548  -0.566  1.00  0.00     0.147 A 
HETATM    3  N2  UNL     1      -0.215  -0.482  -1.495  1.00  0.00    -0.081 NA
HETATM    4  C5  UNL     1       0.677   0.863   0.246  1.00  0.00     0.118 A 
HETATM    5  C10 UNL     1       0.537   1.905   1.113  1.00  0.00     0.266 A 
HETATM    6  O3  UNL     1       1.490   2.256   1.889  1.00  0.00    -0.267 OA
HETATM    7  N8  UNL     1      -0.636   2.605   1.174  1.00  0.00    -0.274 N 
ATOM      8  H8  UNL     1      -0.741   3.385   1.823  1.00  0.00     0.173 HD
HETATM    9  C11 UNL     1      -1.639   2.251   0.372  1.00  0.00     0.336 A 
HETATM   10  O4  UNL     1      -2.724   2.887   0.418  1.00  0.00    -0.246 OA
ENDROOT
BRANCH   4  11
HETATM   11  C6  UNL     1       1.912   0.089   0.141  1.00  0.00     0.127 A 
HETATM   12  N3  UNL     1       2.101  -0.954  -0.734  1.00  0.00    -0.325 N 
HETATM   13  C7  UNL     1       3.332  -1.459  -0.596  1.00  0.00     0.152 A 
ATOM     14  H3  UNL     1       1.402  -1.294  -1.394  1.00  0.00     0.169 HD
HETATM   15  C8  UNL     1       3.968  -0.744   0.378  1.00  0.00     0.125 A 
HETATM   16  N7  UNL     1       4.280  -2.444  -1.043  1.00  0.00    -0.282 N 
HETATM   17  N4  UNL     1       3.071   0.186   0.799  1.00  0.00    -0.335 N 
HETATM   18  C9  UNL     1       5.309  -1.290   0.531  1.00  0.00     0.144 A 
ATOM     19  H4  UNL     1       3.259   0.874   1.528  1.00  0.00     0.168 HD
HETATM   20  N5  UNL     1       6.244  -0.922   1.331  1.00  0.00    -0.382 N 
HETATM   21  N6  UNL     1       5.375  -2.345  -0.414  1.00  0.00    -0.282 N 
ATOM     22  H52 UNL     1       6.197  -0.163   2.011  1.00  0.00     0.157 HD
ATOM     23  H51 UNL     1       7.183  -1.305   1.438  1.00  0.00     0.157 HD
ATOM     24  H6  UNL     1       6.189  -2.940  -0.566  1.00  0.00     0.188 HD
ATOM     25  H7  UNL     1       4.095  -3.133  -1.772  1.00  0.00     0.188 HD
ENDBRANCH   4  11
BRANCH   1  26
HETATM   26  C3  UNL     1      -2.718   0.883  -1.274  1.00  0.00     0.250 C 
BRANCH  26  27
HETATM   27  O2  UNL     1      -3.747   0.228  -0.698  1.00  0.00    -0.274 OA
BRANCH  27  28
HETATM   28  C2  UNL     1      -3.892  -0.937  -0.074  1.00  0.00     0.260 C 
HETATM   29  C1  UNL     1      -5.229  -1.417   0.482  1.00  0.00     0.126 C 
HETATM   30  O1  UNL     1      -2.905  -1.691   0.075  1.00  0.00    -0.265 OA
ENDBRANCH  27  28
ENDBRANCH  26  27
ENDBRANCH   1  26
TORSDOF 4
