REMARK  5 active torsions:
REMARK  status: ('A' for Active; 'I' for Inactive)
REMARK    1  A    between atoms: C3_4  and  N2_5 
REMARK    2  A    between atoms: N2_5  and  N3_7 
REMARK    3  A    between atoms: N3_7  and  C4_9 
REMARK    4  A    between atoms: C6_19  and  N8_20 
REMARK    5  A    between atoms: C9_26  and  C10_27 
ROOT
HETATM    1  N1  UNL     1      -0.994  -3.165  -0.746  1.00  0.00    -0.191 NA
HETATM    2  C1  UNL     1      -0.797  -2.027  -0.612  1.00  0.00     0.104 C 
HETATM    3  C2  UNL     1      -0.537  -0.623  -0.461  1.00  0.00     0.104 A 
HETATM    4  C3  UNL     1       0.735  -0.162  -0.731  1.00  0.00     0.143 A 
HETATM    5  N7  UNL     1       0.958   1.157  -0.583  1.00  0.00    -0.325 N 
ATOM      6  H7  UNL     1       1.891   1.520  -0.777  1.00  0.00     0.169 HD
HETATM    7  C6  UNL     1      -0.005   2.022  -0.187  1.00  0.00     0.122 A 
HETATM    8  C7  UNL     1      -1.293   1.541   0.085  1.00  0.00     0.102 A 
HETATM    9  C8  UNL     1      -2.342   2.431   0.507  1.00  0.00     0.104 C 
HETATM   10  N9  UNL     1      -3.183   3.167   0.859  1.00  0.00    -0.191 NA
HETATM   11  C9  UNL     1      -1.561   0.198  -0.055  1.00  0.00     0.041 A 
ENDROOT
BRANCH   4  12
HETATM   12  N2  UNL     1       1.772  -1.040  -1.149  1.00  0.00    -0.282 N 
ATOM     13  H2  UNL     1       1.560  -2.033  -1.248  1.00  0.00     0.188 HD
BRANCH  12  14
HETATM   14  N3  UNL     1       3.066  -0.603  -1.429  1.00  0.00    -0.282 N 
ATOM     15  H3  UNL     1       3.319  -0.395  -2.395  1.00  0.00     0.188 HD
BRANCH  14  16
HETATM   16  C4  UNL     1       3.962  -0.452  -0.497  1.00  0.00     0.153 A 
HETATM   17  C5  UNL     1       3.843  -0.670   0.851  1.00  0.00     0.159 A 
HETATM   18  N4  UNL     1       5.034  -0.376   1.396  1.00  0.00    -0.294 N 
HETATM   19  N5  UNL     1       5.864   0.009   0.440  1.00  0.00    -0.241 N 
ATOM     20  H4  UNL     1       5.263  -0.439   2.388  1.00  0.00     0.187 HD
HETATM   21  N6  UNL     1       5.218  -0.036  -0.709  1.00  0.00    -0.269 N 
ATOM     22  H5  UNL     1       6.835   0.292   0.569  1.00  0.00     0.208 HD
ATOM     23  H6  UNL     1       5.613   0.208  -1.617  1.00  0.00     0.190 HD
ENDBRANCH  14  16
ENDBRANCH  12  14
ENDBRANCH   4  12
BRANCH  11  24
HETATM   24  C10 UNL     1      -2.908  -0.270   0.234  1.00  0.00     0.061 A 
HETATM   25  C11 UNL     1      -3.277  -0.681   1.500  1.00  0.00     0.118 A 
HETATM   26  N10 UNL     1      -4.516  -1.117   1.785  1.00  0.00    -0.372 N 
HETATM   27  C12 UNL     1      -5.466  -1.173   0.835  1.00  0.00     0.104 A 
ATOM     28  H10 UNL     1      -4.739  -1.410   2.736  1.00  0.00     0.164 HD
HETATM   29  C13 UNL     1      -5.109  -0.765  -0.432  1.00  0.00     0.105 A 
HETATM   30  N11 UNL     1      -3.869  -0.330  -0.715  1.00  0.00    -0.363 N 
ATOM     31  H11 UNL     1      -3.648  -0.039  -1.667  1.00  0.00     0.165 HD
ENDBRANCH  11  24
BRANCH   7  32
HETATM   32  N8  UNL     1       0.209   3.286  -0.045  1.00  0.00    -0.384 N 
ATOM     33  H82 UNL     1       1.146   3.636  -0.243  1.00  0.00     0.157 HD
ATOM     34  H81 UNL     1      -0.517   3.938   0.253  1.00  0.00     0.157 HD
ENDBRANCH   7  32
TORSDOF 5
