REMARK  1 active torsions:
REMARK  status: ('A' for Active; 'I' for Inactive)
REMARK    1  A    between atoms: C8_8  and  N1_9 
ROOT
HETATM    1  C1  UNL     1       0.009   1.547   2.956  1.00  0.00     0.012 C 
HETATM    2  C2  UNL     1      -0.357   0.710   2.169  1.00  0.00    -0.111 C 
HETATM    3  C3  UNL     1      -0.826  -0.312   1.203  1.00  0.00     0.087 C 
HETATM    4  C4  UNL     1      -2.220   0.010   0.844  1.00  0.00     0.019 C 
HETATM    5  C5  UNL     1      -2.702  -0.485  -0.465  1.00  0.00     0.001 C 
HETATM    6  C6  UNL     1      -1.662  -0.628  -1.519  1.00  0.00     0.002 C 
HETATM    7  C7  UNL     1      -0.404   0.142  -1.232  1.00  0.00     0.026 C 
HETATM    8  C8  UNL     1       0.153  -0.325   0.074  1.00  0.00     0.099 C 
ENDROOT
BRANCH   8   9
HETATM    9  N1  UNL     1       1.350   0.432   0.353  1.00  0.00    -0.361 N 
HETATM   10  C9  UNL     1       2.481   0.211  -0.219  1.00  0.00     0.197 C 
HETATM   11  N2  UNL     1       2.717  -0.783  -1.185  1.00  0.00    -0.067 NA
HETATM   12  N3  UNL     1       3.582   1.038   0.155  1.00  0.00    -0.067 NA
ATOM     13  H1  UNL     1       1.296   1.183   1.041  1.00  0.00     0.162 HD
ENDBRANCH   8   9
TORSDOF 1
