REMARK  2 active torsions:
REMARK  status: ('A' for Active; 'I' for Inactive)
REMARK    1  A    between atoms: C2_2  and  N1_4 
REMARK    2  A    between atoms: N1_4  and  C4_5 
ROOT
HETATM    1  N1  UNL     1      -0.275   0.452  -0.064  1.00  0.00    -0.035 N 
HETATM    2  C7  UNL     1      -0.918   1.624   0.557  1.00  0.00     0.242 C 
HETATM    3  C8  UNL     1      -1.398   2.070  -0.784  1.00  0.00     0.056 C 
HETATM    4  C9  UNL     1      -0.215   1.226  -1.277  1.00  0.00     0.242 C 
ENDROOT
BRANCH   1   5
HETATM    5  C2  UNL     1      -1.249  -0.617  -0.118  1.00  0.00     0.185 C 
HETATM    6  C1  UNL     1      -1.519  -1.171   1.272  1.00  0.00     0.040 C 
HETATM    7  C3  UNL     1      -0.897  -1.705  -1.077  1.00  0.00     0.040 C 
ENDBRANCH   1   5
BRANCH   1   8
HETATM    8  C4  UNL     1       0.952   0.175   0.599  1.00  0.00     0.389 C 
HETATM    9  C5  UNL     1       2.223   0.514  -0.105  1.00  0.00     0.090 C 
HETATM   10  C6  UNL     1       2.743  -0.858   0.326  1.00  0.00     0.238 C 
HETATM   11  N2  UNL     1       1.379  -1.205   0.647  1.00  0.00    -0.045 N 
ATOM     12  H22 UNL     1       1.193  -1.751   1.489  1.00  0.00     0.279 HD
ATOM     13  H21 UNL     1       0.895  -1.892   0.069  1.00  0.00     0.279 HD
ENDBRANCH   1   8
TORSDOF 2
