REMARK  2 active torsions:
REMARK  status: ('A' for Active; 'I' for Inactive)
REMARK    1  A    between atoms: C2_2  and  N1_3 
REMARK    2  A    between atoms: C2_2  and  C3_7 
ROOT
HETATM    1  C3  UNL     1       0.669  -0.375   0.392  1.00  0.00     0.222 C 
HETATM    2  C4  UNL     1       0.622  -1.899   0.174  1.00  0.00     0.063 C 
HETATM    3  C5  UNL     1      -0.169  -1.454  -1.067  1.00  0.00     0.240 C 
HETATM    4  N2  UNL     1      -0.584  -0.335  -0.243  1.00  0.00    -0.061 N 
HETATM    5  C6  UNL     1      -1.627  -0.805   0.660  1.00  0.00     0.238 C 
HETATM    6  C7  UNL     1      -2.667   0.271   0.762  1.00  0.00     0.029 C 
HETATM    7  C8  UNL     1      -1.949   1.469   0.175  1.00  0.00     0.029 C 
HETATM    8  C9  UNL     1      -1.106   0.790  -0.883  1.00  0.00     0.238 C 
ENDROOT
BRANCH   1   9
HETATM    9  C2  UNL     1       1.872   0.256  -0.232  1.00  0.00     0.210 C 
HETATM   10  C1  UNL     1       1.897   1.752   0.002  1.00  0.00     0.042 C 
BRANCH   9  11
HETATM   11  N1  UNL     1       3.093  -0.274   0.339  1.00  0.00    -0.073 N 
ATOM     12  H13 UNL     1       3.935   0.176  -0.021  1.00  0.00     0.274 HD
ATOM     13  H12 UNL     1       3.222  -0.022   1.319  1.00  0.00     0.274 HD
ATOM     14  H11 UNL     1       3.076  -1.282   0.181  1.00  0.00     0.274 HD
ENDBRANCH   9  11
ENDBRANCH   1   9
TORSDOF 2
