REMARK  2 active torsions:
REMARK  status: ('A' for Active; 'I' for Inactive)
REMARK    1  A    between atoms: N1_2  and  C2_5 
REMARK    2  A    between atoms: C2_5  and  C3_6 
ROOT
HETATM    1  C3  UNL     1      -1.039   0.091  -0.143  1.00  0.00     0.034 C 
HETATM    2  C4  UNL     1      -0.388   0.907   0.806  1.00  0.00    -0.020 C 
HETATM    3  C5  UNL     1       0.399   1.366   1.295  1.00  0.00    -0.004 C 
HETATM    4  C6  UNL     1       1.590   1.595   1.419  1.00  0.00    -0.004 C 
HETATM    5  C7  UNL     1       2.555   1.475   1.116  1.00  0.00    -0.027 C 
HETATM    6  C8  UNL     1       3.637   0.981   0.334  1.00  0.00     0.027 C 
HETATM    7  C9  UNL     1       2.831  -0.165  -0.490  1.00  0.00     0.004 C 
HETATM    8  C10 UNL     1       1.472   0.200  -0.976  1.00  0.00     0.001 C 
HETATM    9  C11 UNL     1       0.304  -0.679  -0.705  1.00  0.00     0.010 C 
ENDROOT
BRANCH   1  10
HETATM   10  C2  UNL     1      -1.809  -1.008   0.470  1.00  0.00     0.240 C 
BRANCH  10  11
HETATM   11  N1  UNL     1      -2.848  -0.616   1.362  1.00  0.00    -0.078 N 
HETATM   12  C1  UNL     1      -3.954   0.049   0.716  1.00  0.00     0.267 C 
ATOM     13  H12 UNL     1      -2.475  -0.040   2.116  1.00  0.00     0.276 HD
ATOM     14  H11 UNL     1      -3.177  -1.416   1.903  1.00  0.00     0.276 HD
ENDBRANCH  10  11
ENDBRANCH   1  10
TORSDOF 2
