REMARK  2 active torsions:
REMARK  status: ('A' for Active; 'I' for Inactive)
REMARK    1  A    between atoms: C2_2  and  N2_6 
REMARK    2  A    between atoms: N2_6  and  C3_8 
ROOT
HETATM    1  C3  UNL     1       0.246  -0.757  -0.194  1.00  0.00     0.119 C 
HETATM    2  C4  UNL     1       0.305   0.767  -0.383  1.00  0.00     0.038 C 
HETATM    3  C5  UNL     1       0.184   0.818   1.109  1.00  0.00     0.044 C 
HETATM    4  C6  UNL     1      -0.777  -0.357   0.883  1.00  0.00     0.213 C 
HETATM    5  N3  UNL     1      -1.842   0.226   0.154  1.00  0.00    -0.068 N 
HETATM    6  C7  UNL     1      -2.711  -0.715  -0.510  1.00  0.00     0.272 C 
HETATM    7  C8  UNL     1      -2.668   1.138   0.892  1.00  0.00     0.272 C 
HETATM    8  C9  UNL     1      -1.099   1.028  -0.840  1.00  0.00     0.243 C 
ENDROOT
BRANCH   1   9
HETATM    9  N2  UNL     1       1.491  -1.225   0.304  1.00  0.00    -0.373 N 
ATOM     10  H2  UNL     1       1.528  -1.707   1.202  1.00  0.00     0.161 HD
BRANCH   9  11
HETATM   11  C2  UNL     1       2.678  -1.028  -0.435  1.00  0.00     0.066 C 
HETATM   12  C1  UNL     1       3.796  -0.165   0.015  1.00  0.00     0.088 C 
HETATM   13  N1  UNL     1       2.749  -1.665  -1.578  1.00  0.00    -0.389 N 
ATOM     14  H12 UNL     1       3.606  -1.523  -2.112  1.00  0.00     0.157 HD
ATOM     15  H11 UNL     1       1.980  -2.259  -1.888  1.00  0.00     0.157 HD
ENDBRANCH   9  11
ENDBRANCH   1   9
TORSDOF 2
