REMARK  2 active torsions:
REMARK  status: ('A' for Active; 'I' for Inactive)
REMARK    1  A    between atoms: C2_2  and  O1_4 
REMARK    2  A    between atoms: O1_4  and  C4_5 
ROOT
HETATM    1  C4  UNL     1       1.003  -0.268  -0.312  1.00  0.00     0.161 A 
HETATM    2  N1  UNL     1       1.447   0.993  -0.166  1.00  0.00    -0.330 N 
ATOM      3  H1  UNL     1       0.888   1.788   0.144  1.00  0.00     0.168 HD
HETATM    4  C5  UNL     1       2.761   1.034  -0.499  1.00  0.00     0.083 A 
HETATM    5 BR1  UNL     1       3.875   2.579  -0.468  1.00  0.00    -0.031 Br
HETATM    6  C6  UNL     1       3.145  -0.238  -0.863  1.00  0.00     0.061 A 
HETATM    7  C7  UNL     1       2.048  -1.050  -0.746  1.00  0.00     0.064 A 
HETATM    8 BR2  UNL     1       1.958  -2.941  -1.115  1.00  0.00    -0.046 Br
ENDROOT
BRANCH   1   9
HETATM    9  O1  UNL     1      -0.285  -0.716  -0.070  1.00  0.00    -0.330 OA
BRANCH   9  10
HETATM   10  C2  UNL     1      -1.334   0.083   0.369  1.00  0.00     0.122 C 
HETATM   11  C1  UNL     1      -1.898  -0.363   1.707  1.00  0.00     0.040 C 
HETATM   12  C3  UNL     1      -2.462   0.007  -0.664  1.00  0.00     0.040 C 
ENDBRANCH   9  10
ENDBRANCH   1   9
TORSDOF 2
