REMARK  3 active torsions:
REMARK  status: ('A' for Active; 'I' for Inactive)
REMARK       I    between atoms: N1_2  and  C2_3 
REMARK    1  A    between atoms: N1_2  and  C3_6 
REMARK    2  A    between atoms: C8_11  and  N3_12 
REMARK    3  A    between atoms: C13_17  and  C14_18 
ROOT
HETATM    1  C3  UNL     1       1.407  -0.334  -0.394  1.00  0.00     0.134 C 
HETATM    2  C4  UNL     1       2.348  -1.379   0.087  1.00  0.00     0.031 C 
HETATM    3  C5  UNL     1       1.894  -2.377   1.074  1.00  0.00     0.003 C 
HETATM    4  C6  UNL     1       0.461  -2.740   1.077  1.00  0.00     0.006 C 
HETATM    5  C7  UNL     1      -0.330  -2.008   0.005  1.00  0.00     0.055 C 
HETATM    6  C8  UNL     1       0.035  -0.556   0.105  1.00  0.00     0.012 C 
ENDROOT
BRANCH   6   7
HETATM    7  N3  UNL     1      -1.003   0.353  -0.159  1.00  0.00    -0.351 N 
HETATM    8  C9  UNL     1      -1.370   1.507   0.677  1.00  0.00     0.129 C 
HETATM    9  C10 UNL     1      -2.833   1.256   1.101  1.00  0.00     0.024 C 
HETATM   10  C11 UNL     1      -3.709   1.281  -0.092  1.00  0.00     0.031 C 
HETATM   11  C12 UNL     1      -3.094   0.659  -1.285  1.00  0.00     0.004 C 
HETATM   12  C13 UNL     1      -1.812   0.225  -1.306  1.00  0.00     0.072 C 
BRANCH  12  13
HETATM   13  C14 UNL     1      -1.330  -0.317  -2.543  1.00  0.00     0.402 C 
HETATM   14  F1  UNL     1      -2.393  -0.541  -3.433  1.00  0.00    -0.208 F 
HETATM   15  F2  UNL     1      -0.660   0.761  -3.195  1.00  0.00    -0.208 F 
ENDBRANCH  12  13
ENDBRANCH   6   7
BRANCH   1  16
HETATM   16  N1  UNL     1       1.980   0.976  -0.188  1.00  0.00    -0.331 N 
HETATM   17  C1  UNL     1       2.303   1.787  -1.349  1.00  0.00     0.155 C 
HETATM   18  C2  UNL     1       2.239   1.533   1.074  1.00  0.00     0.331 C 
HETATM   19  N2  UNL     1       2.034   0.920   2.330  1.00  0.00    -0.040 NA
HETATM   20  O1  UNL     1       2.719   2.729   1.112  1.00  0.00    -0.251 OA
ENDBRANCH   1  16
TORSDOF 3
