REMARK  3 active torsions:
REMARK  status: ('A' for Active; 'I' for Inactive)
REMARK    1  A    between atoms: C7_8  and  C8_9 
REMARK    2  A    between atoms: C10_11  and  C11_12 
REMARK    3  A    between atoms: C11_12  and  O1_13 
ROOT
HETATM    1  N1  UNL     1      -1.920   3.701  -0.149  1.00  0.00    -0.196 NA
HETATM    2  C1  UNL     1      -1.738   2.565   0.060  1.00  0.00     0.073 C 
HETATM    3  C2  UNL     1      -1.511   1.147   0.330  1.00  0.00     0.074 C 
HETATM    4  C3  UNL     1      -2.628   0.604   1.127  1.00  0.00    -0.005 C 
HETATM    5  C4  UNL     1      -2.974  -0.681   1.069  1.00  0.00    -0.021 C 
HETATM    6  C5  UNL     1      -2.130  -1.510   0.130  1.00  0.00     0.048 C 
HETATM    7  C6  UNL     1      -0.722  -1.482   0.577  1.00  0.00     0.022 C 
HETATM    8  C7  UNL     1      -0.017  -0.274  -0.043  1.00  0.00    -0.025 C 
HETATM    9  C12 UNL     1      -0.111   0.857   0.893  1.00  0.00     0.039 C 
HETATM   10  C13 UNL     1      -1.121   0.328  -0.856  1.00  0.00     0.060 C 
HETATM   11  C14 UNL     1      -2.111  -0.763  -1.176  1.00  0.00     0.126 C 
HETATM   12 CL1  UNL     1      -3.711  -0.090  -1.549  1.00  0.00    -0.100 Cl
HETATM   13 CL2  UNL     1      -1.509  -1.730  -2.514  1.00  0.00    -0.100 Cl
ENDROOT
BRANCH   8  14
HETATM   14  C8  UNL     1       1.240  -0.634  -0.740  1.00  0.00     0.001 A 
HETATM   15  C9  UNL     1       2.126   0.387  -1.402  1.00  0.00     0.013 A 
HETATM   16  C10 UNL     1       2.607  -0.657  -0.335  1.00  0.00     0.014 A 
BRANCH  16  17
HETATM   17  C11 UNL     1       3.362   0.018   0.735  1.00  0.00     0.169 C 
BRANCH  17  18
HETATM   18  O1  UNL     1       3.383   1.405   0.705  1.00  0.00    -0.400 OA
ATOM     19  H1  UNL     1       3.870   1.840   1.395  1.00  0.00     0.209 HD
ENDBRANCH  17  18
ENDBRANCH  16  17
ENDBRANCH   8  14
TORSDOF 3
