REMARK  2 active torsions:
REMARK  status: ('A' for Active; 'I' for Inactive)
REMARK    1  A    between atoms: C1_2  and  C2_3 
REMARK       I    between atoms: C1_2  and  N2_10 
REMARK    2  A    between atoms: C10_16  and  C11_17 
ROOT
HETATM    1  O1  UNL     1       1.383   1.410   1.421  1.00  0.00    -0.271 OA
HETATM    2  C1  UNL     1       1.460   1.013   0.205  1.00  0.00     0.251 C 
HETATM    3  N2  UNL     1       0.323   0.809  -0.585  1.00  0.00    -0.342 N 
HETATM    4  C6  UNL     1       0.286   0.384  -1.966  1.00  0.00     0.129 C 
HETATM    5  C7  UNL     1      -0.713  -0.776  -1.820  1.00  0.00     0.065 C 
HETATM    6  C8  UNL     1      -1.830  -0.036  -1.097  1.00  0.00     0.126 C 
HETATM    7  F1  UNL     1      -2.572   0.593  -2.080  1.00  0.00    -0.241 F 
HETATM    8  C9  UNL     1      -2.691  -0.971  -0.289  1.00  0.00     0.051 C 
HETATM    9  C10 UNL     1      -3.590  -0.067   0.562  1.00  0.00     0.003 C 
HETATM   10  C12 UNL     1      -2.721   0.525   1.623  1.00  0.00     0.008 C 
HETATM   11  C13 UNL     1      -1.314   0.794   1.227  1.00  0.00     0.029 C 
HETATM   12  C14 UNL     1      -1.086   0.960  -0.236  1.00  0.00     0.127 C 
ENDROOT
BRANCH   2  13
HETATM   13  C2  UNL     1       2.833   0.784  -0.320  1.00  0.00     0.277 C 
HETATM   14  C3  UNL     1       3.065  -0.665  -0.626  1.00  0.00     0.044 C 
HETATM   15  C4  UNL     1       4.318  -1.037   0.165  1.00  0.00     0.030 C 
HETATM   16  C5  UNL     1       4.976   0.327   0.362  1.00  0.00     0.233 C 
HETATM   17  N1  UNL     1       3.831   1.136   0.683  1.00  0.00    -0.062 N 
ATOM     18  H12 UNL     1       4.031   2.135   0.736  1.00  0.00     0.278 HD
ATOM     19  H11 UNL     1       3.507   1.032   1.644  1.00  0.00     0.278 HD
ENDBRANCH   2  13
BRANCH   9  20
HETATM   20  C11 UNL     1      -4.744  -0.833   1.139  1.00  0.00     0.119 C 
HETATM   21 CL1  UNL     1      -4.144  -2.156   2.173  1.00  0.00    -0.130 Cl
ENDBRANCH   9  20
TORSDOF 2
