REMARK  2 active torsions:
REMARK  status: ('A' for Active; 'I' for Inactive)
REMARK       I    between atoms: C2_2  and  N1_4 
REMARK    1  A    between atoms: N1_4  and  C3_6 
REMARK    2  A    between atoms: N2_9  and  C6_10 
ROOT
HETATM    1  C3  UNL     1       2.237   0.322  -0.265  1.00  0.00     0.091 C 
HETATM    2  C4  UNL     1       1.273   1.489  -0.240  1.00  0.00     0.056 C 
HETATM    3  C5  UNL     1       0.081   1.077  -1.100  1.00  0.00     0.275 C 
HETATM    4  N2  UNL     1      -0.546  -0.116  -0.652  1.00  0.00     0.093 N 
HETATM    5  C12 UNL     1       0.081  -0.713   0.502  1.00  0.00     0.279 C 
HETATM    6  C13 UNL     1       1.550  -0.941   0.204  1.00  0.00     0.033 C 
HETATM    7  C14 UNL     1       1.666  -2.062  -0.793  1.00  0.00     0.014 C 
ENDROOT
BRANCH   4   8
HETATM    8  C6  UNL     1      -1.971  -0.044  -0.555  1.00  0.00     0.223 C 
HETATM    9  C7  UNL     1      -2.563  -1.337  -0.095  1.00  0.00     0.041 C 
HETATM   10  C8  UNL     1      -4.061  -1.307  -0.254  1.00  0.00     0.081 C 
HETATM   11  C9  UNL     1      -4.707  -0.079   0.273  1.00  0.00     0.243 C 
HETATM   12  F1  UNL     1      -5.044  -0.185   1.627  1.00  0.00    -0.206 F 
HETATM   13  F2  UNL     1      -5.936   0.061  -0.388  1.00  0.00    -0.206 F 
HETATM   14  C10 UNL     1      -3.951   1.183   0.066  1.00  0.00     0.081 C 
HETATM   15  C11 UNL     1      -2.463   1.030   0.389  1.00  0.00     0.041 C 
ENDBRANCH   4   8
BRANCH   1  16
HETATM   16  N1  UNL     1       3.433   0.581   0.499  1.00  0.00    -0.356 N 
HETATM   17  C2  UNL     1       4.700   0.588  -0.142  1.00  0.00     0.213 C 
HETATM   18  C1  UNL     1       5.956   0.848   0.592  1.00  0.00     0.117 C 
HETATM   19  O1  UNL     1       4.782   0.370  -1.377  1.00  0.00    -0.274 OA
ATOM     20  H1  UNL     1       3.368   0.759   1.501  1.00  0.00     0.162 HD
ENDBRANCH   1  16
TORSDOF 2
