REMARK  7 active torsions:
REMARK  status: ('A' for Active; 'I' for Inactive)
REMARK    1  A    between atoms: O1_2  and  N1_3 
REMARK    2  A    between atoms: N1_3  and  C2_5 
REMARK    3  A    between atoms: C6_10  and  O2_11 
REMARK    4  A    between atoms: N3_13  and  C7_14 
REMARK    5  A    between atoms: C12_20  and  O3_21 
REMARK    6  A    between atoms: O3_21  and  C13_22 
REMARK    7  A    between atoms: C13_22  and  C14_23 
ROOT
HETATM    1  C7  UNL     1      -0.483   1.460  -0.566  1.00  0.00     0.093 A 
HETATM    2  C8  UNL     1      -0.892   2.738  -0.251  1.00  0.00     0.035 A 
HETATM    3  C9  UNL     1       0.009   3.792  -0.214  1.00  0.00     0.021 A 
HETATM    4  C10 UNL     1       1.348   3.557  -0.499  1.00  0.00     0.013 A 
HETATM    5 BR1  UNL     1       2.627   4.966  -0.463  1.00  0.00    -0.051 Br
HETATM    6  C11 UNL     1       1.761   2.280  -0.815  1.00  0.00     0.058 A 
HETATM    7  C12 UNL     1       0.869   1.228  -0.853  1.00  0.00     0.104 A 
ENDROOT
BRANCH   1   8
HETATM    8  N3  UNL     1      -1.460   0.447  -0.583  1.00  0.00    -0.120 N 
HETATM    9  C2  UNL     1      -1.992  -0.132   0.498  1.00  0.00     0.713 A 
HETATM   10  N2  UNL     1      -2.886  -1.048   0.090  1.00  0.00    -0.185 N 
HETATM   11  C3  UNL     1      -3.696  -1.907   0.915  1.00  0.00     0.175 C 
HETATM   12  C4  UNL     1      -2.936  -1.064  -1.267  1.00  0.00     0.076 A 
HETATM   13  C5  UNL     1      -3.779  -1.914  -2.139  1.00  0.00     0.074 C 
HETATM   14  C6  UNL     1      -2.027  -0.113  -1.683  1.00  0.00     0.186 A 
BRANCH   9  15
HETATM   15  N1  UNL     1      -1.720   0.118   1.733  1.00  0.00    -0.096 N 
ATOM     16  H1  UNL     1      -1.022   0.835   1.932  1.00  0.00     0.213 HD
BRANCH  15  17
HETATM   17  O1  UNL     1      -2.308  -0.517   2.797  1.00  0.00    -0.271 OA
HETATM   18  C1  UNL     1      -2.551   0.252   3.965  1.00  0.00     0.238 C 
ENDBRANCH  15  17
ENDBRANCH   9  15
BRANCH  14  19
HETATM   19  O2  UNL     1      -1.703   0.258  -2.992  1.00  0.00    -0.344 OA
ATOM     20  H2  UNL     1      -1.077   0.913  -3.278  1.00  0.00     0.219 HD
ENDBRANCH  14  19
ENDBRANCH   1   8
BRANCH   7  21
HETATM   21  O3  UNL     1       1.264  -0.033  -1.170  1.00  0.00    -0.319 OA
BRANCH  21  22
HETATM   22  C13 UNL     1       2.430  -0.615  -1.473  1.00  0.00     0.159 C 
BRANCH  22  23
HETATM   23  C14 UNL     1       3.525  -0.846  -0.535  1.00  0.00     0.053 A 
HETATM   24  C15 UNL     1       4.748  -1.309  -1.100  1.00  0.00     0.132 A 
HETATM   25 CL1  UNL     1       4.777  -1.446  -2.857  1.00  0.00    -0.062 Cl
HETATM   26  N4  UNL     1       5.777  -1.609  -0.348  1.00  0.00    -0.286 N 
HETATM   27  N5  UNL     1       5.779  -1.514   0.961  1.00  0.00    -0.264 N 
ATOM     28  H4  UNL     1       6.627  -1.936  -0.807  1.00  0.00     0.188 HD
HETATM   29  C16 UNL     1       4.668  -1.091   1.535  1.00  0.00     0.282 A 
ATOM     30  H5  UNL     1       6.603  -1.756   1.511  1.00  0.00     0.190 HD
HETATM   31  O4  UNL     1       4.628  -0.985   2.800  1.00  0.00    -0.265 OA
HETATM   32  C17 UNL     1       3.519  -0.749   0.824  1.00  0.00     0.118 A 
HETATM   33 CL2  UNL     1       2.072  -0.320   1.728  1.00  0.00    -0.077 Cl
ENDBRANCH  22  23
ENDBRANCH  21  22
ENDBRANCH   7  21
TORSDOF 7
