REMARK  7 active torsions:
REMARK  status: ('A' for Active; 'I' for Inactive)
REMARK    1  A    between atoms: C4_6  and  C5_7 
REMARK    2  A    between atoms: C5_7  and  C6_9 
REMARK    3  A    between atoms: C6_9  and  O2_10 
REMARK    4  A    between atoms: O2_10  and  C7_11 
REMARK    5  A    between atoms: C7_11  and  C8_13 
REMARK    6  A    between atoms: C14_22  and  O4_23 
REMARK    7  A    between atoms: O4_23  and  C15_24 
ROOT
HETATM    1  C8  UNL     1      -1.918  -1.598   0.224  1.00  0.00     0.082 A 
HETATM    2  C9  UNL     1      -1.602  -2.942   0.007  1.00  0.00    -0.019 A 
HETATM    3  C10 UNL     1      -0.246  -3.427  -0.342  1.00  0.00     0.051 C 
HETATM    4  C11 UNL     1      -2.641  -3.864   0.120  1.00  0.00     0.064 A 
HETATM    5 CL1  UNL     1      -2.270  -5.569  -0.148  1.00  0.00    -0.082 Cl
HETATM    6  C12 UNL     1      -3.905  -3.460   0.429  1.00  0.00     0.080 A 
HETATM    7 CL2  UNL     1      -5.199  -4.636   0.571  1.00  0.00    -0.081 Cl
HETATM    8  C13 UNL     1      -4.227  -2.140   0.640  1.00  0.00     0.091 A 
HETATM    9 CL3  UNL     1      -5.881  -1.703   1.075  1.00  0.00    -0.079 Cl
HETATM   10  C14 UNL     1      -3.205  -1.198   0.528  1.00  0.00     0.109 A 
ENDROOT
BRANCH   1  11
HETATM   11  C7  UNL     1      -0.800  -0.675   0.239  1.00  0.00     0.297 C 
HETATM   12  O3  UNL     1      -0.966   0.533   0.506  1.00  0.00    -0.259 OA
BRANCH  11  13
HETATM   13  O2  UNL     1       0.519  -1.041  -0.034  1.00  0.00    -0.309 OA
BRANCH  13  14
HETATM   14  C6  UNL     1       1.547  -0.041   0.010  1.00  0.00     0.264 C 
BRANCH  14  15
HETATM   15  C5  UNL     1       2.839  -0.690  -0.317  1.00  0.00     0.201 C 
HETATM   16  O1  UNL     1       2.952  -1.904  -0.581  1.00  0.00    -0.288 OA
BRANCH  15  17
HETATM   17  C4  UNL     1       4.067   0.138  -0.336  1.00  0.00     0.103 A 
HETATM   18  N1  UNL     1       3.933   1.469  -0.045  1.00  0.00    -0.359 N 
HETATM   19  C3  UNL     1       5.003   2.259  -0.047  1.00  0.00     0.113 A 
ATOM     20  H1  UNL     1       3.014   1.854   0.173  1.00  0.00     0.165 HD
HETATM   21  C2  UNL     1       6.272   1.789  -0.335  1.00  0.00     0.021 A 
HETATM   22  C1  UNL     1       7.462   2.697  -0.331  1.00  0.00     0.069 C 
HETATM   23  N4  UNL     1       6.375   0.497  -0.612  1.00  0.00    -0.360 N 
HETATM   24  C19 UNL     1       5.302  -0.348  -0.621  1.00  0.00     0.036 A 
ATOM     25  H4  UNL     1       7.297   0.117  -0.828  1.00  0.00     0.165 HD
HETATM   26  C20 UNL     1       5.509  -1.774  -0.941  1.00  0.00     0.070 C 
ENDBRANCH  15  17
ENDBRANCH  14  15
ENDBRANCH  13  14
ENDBRANCH  11  13
ENDBRANCH   1  11
BRANCH  10  27
HETATM   27  O4  UNL     1      -3.574   0.136   0.715  1.00  0.00    -0.341 OA
BRANCH  27  28
HETATM   28  C15 UNL     1      -4.289   0.892  -0.260  1.00  0.00     0.154 C 
HETATM   29  C16 UNL     1      -3.561   1.918  -1.039  1.00  0.00     0.167 C 
HETATM   30  N2  UNL     1      -3.185   3.106  -0.303  1.00  0.00    -0.136 NA
HETATM   31  N3  UNL     1      -4.371   3.702   0.192  1.00  0.00    -0.274 N 
HETATM   32  C17 UNL     1      -5.561   2.950   0.078  1.00  0.00     0.235 C 
ATOM     33  H3  UNL     1      -4.366   4.632   0.612  1.00  0.00     0.185 HD
HETATM   34  O5  UNL     1      -6.642   3.521  -0.312  1.00  0.00    -0.272 OA
HETATM   35  C18 UNL     1      -5.525   1.502   0.418  1.00  0.00     0.138 C 
ENDBRANCH  27  28
ENDBRANCH  10  27
TORSDOF 7
