REMARK  7 active torsions:
REMARK  status: ('A' for Active; 'I' for Inactive)
REMARK    1  A    between atoms: C6_6  and  C7_7 
REMARK    2  A    between atoms: C7_7  and  C8_8 
REMARK    3  A    between atoms: C7_7  and  N1_14 
REMARK    4  A    between atoms: C15_16  and  C16_17 
REMARK    5  A    between atoms: C20_23  and  O2_24 
REMARK    6  A    between atoms: C21_26  and  O3_27 
REMARK    7  A    between atoms: C22_29  and  O4_30 
ROOT
HETATM    1  C16 UNL     1      -2.694  -0.530   0.029  1.00  0.00     0.207 C 
HETATM    2  O1  UNL     1      -3.568  -0.537  -1.042  1.00  0.00    -0.349 OA
HETATM    3  C17 UNL     1      -4.834  -0.964  -0.719  1.00  0.00     0.174 C 
HETATM    4  C18 UNL     1      -5.639  -1.039  -1.999  1.00  0.00     0.066 C 
HETATM    5  C19 UNL     1      -4.767  -2.252  -0.036  1.00  0.00     0.100 C 
HETATM    6  N2  UNL     1      -4.725  -3.275   0.491  1.00  0.00    -0.194 NA
HETATM    7  C20 UNL     1      -5.441   0.098   0.180  1.00  0.00     0.198 C 
HETATM    8  C21 UNL     1      -4.621   0.326   1.409  1.00  0.00     0.182 C 
HETATM    9  C22 UNL     1      -3.146   0.278   1.191  1.00  0.00     0.184 C 
ENDROOT
BRANCH   7  10
HETATM   10  O2  UNL     1      -5.603   1.271  -0.524  1.00  0.00    -0.389 OA
ATOM     11  H2  UNL     1      -5.983   1.936   0.039  1.00  0.00     0.210 HD
ENDBRANCH   7  10
BRANCH   1  12
HETATM   12  C15 UNL     1      -1.383   0.005  -0.478  1.00  0.00     0.076 A 
HETATM   13  C14 UNL     1      -0.125  -0.499  -0.229  1.00  0.00     0.142 A 
HETATM   14  N1  UNL     1       0.762   0.258  -0.858  1.00  0.00    -0.274 N 
HETATM   15  N4  UNL     1       0.093   1.210  -1.487  1.00  0.00    -0.240 N 
HETATM   16  N3  UNL     1      -1.190   1.072  -1.268  1.00  0.00    -0.286 N 
ATOM     17  H4  UNL     1       0.514   1.943  -2.058  1.00  0.00     0.208 HD
ATOM     18  H3  UNL     1      -1.923   1.677  -1.638  1.00  0.00     0.188 HD
BRANCH  14  19
HETATM   19  C7  UNL     1       2.211   0.179  -0.935  1.00  0.00     0.175 C 
BRANCH  19  20
HETATM   20  C6  UNL     1       2.812  -0.565   0.186  1.00  0.00    -0.029 A 
HETATM   21  C5  UNL     1       2.385  -0.479   1.496  1.00  0.00     0.010 A 
HETATM   22  C4  UNL     1       2.982  -1.200   2.523  1.00  0.00     0.001 A 
HETATM   23  C3  UNL     1       4.036  -2.035   2.244  1.00  0.00     0.007 A 
HETATM   24  C2  UNL     1       4.485  -2.144   0.954  1.00  0.00    -0.061 A 
HETATM   25  C1  UNL     1       5.629  -3.050   0.656  1.00  0.00     0.048 C 
HETATM   26  C23 UNL     1       3.880  -1.421  -0.050  1.00  0.00     0.016 A 
ENDBRANCH  19  20
BRANCH  19  27
HETATM   27  C8  UNL     1       2.840   1.511  -1.136  1.00  0.00    -0.029 A 
HETATM   28  C9  UNL     1       2.384   2.635  -0.482  1.00  0.00     0.009 A 
HETATM   29  C10 UNL     1       2.969   3.884  -0.667  1.00  0.00     0.001 A 
HETATM   30  C11 UNL     1       4.039   4.046  -1.522  1.00  0.00     0.000 A 
HETATM   31  C12 UNL     1       4.495   2.923  -2.176  1.00  0.00     0.001 A 
HETATM   32  C13 UNL     1       3.917   1.684  -1.994  1.00  0.00     0.009 A 
ENDBRANCH  19  27
ENDBRANCH  14  19
ENDBRANCH   1  12
BRANCH   8  33
HETATM   33  O3  UNL     1      -4.997   1.557   1.947  1.00  0.00    -0.390 OA
ATOM     34  H3  UNL     1      -4.476   1.702   2.728  1.00  0.00     0.210 HD
ENDBRANCH   8  33
BRANCH   9  35
HETATM   35  O4  UNL     1      -2.569  -0.296   2.349  1.00  0.00    -0.390 OA
ATOM     36  H4  UNL     1      -2.858   0.221   3.092  1.00  0.00     0.210 HD
ENDBRANCH   9  35
TORSDOF 7
