REMARK  6 active torsions:
REMARK  status: ('A' for Active; 'I' for Inactive)
REMARK       I    between atoms: N1_2  and  C2_4 
REMARK    1  A    between atoms: C2_4  and  C3_6 
REMARK    2  A    between atoms: C8_11  and  O2_12 
REMARK    3  A    between atoms: O2_12  and  C9_13 
REMARK    4  A    between atoms: C9_13  and  C11_15 
REMARK    5  A    between atoms: C12_16  and  C13_17 
REMARK    6  A    between atoms: C16_20  and  N2_21 
ROOT
HETATM    1  C13 UNL     1      -0.720  -0.324   0.264  1.00  0.00     0.060 A 
HETATM    2  C14 UNL     1      -0.879   1.033   0.165  1.00  0.00     0.031 A 
HETATM    3  C15 UNL     1      -2.113   1.531   0.293  1.00  0.00     0.039 A 
HETATM    4  C16 UNL     1      -3.130   0.630   0.516  1.00  0.00     0.082 A 
HETATM    5  S1  UNL     1      -2.311  -0.860   0.534  1.00  0.00    -0.063 SA
ENDROOT
BRANCH   1   6
HETATM    6  C12 UNL     1       0.523  -1.086   0.158  1.00  0.00    -0.057 C 
HETATM    7  C11 UNL     1       1.536  -1.730   0.080  1.00  0.00    -0.068 C 
BRANCH   7   8
HETATM    8  C9  UNL     1       2.802  -2.504  -0.015  1.00  0.00     0.204 C 
HETATM    9  C10 UNL     1       2.622  -3.622  -1.056  1.00  0.00     0.054 C 
BRANCH   8  10
HETATM   10  O2  UNL     1       3.772  -1.657  -0.517  1.00  0.00    -0.333 OA
BRANCH  10  11
HETATM   11  C8  UNL     1       4.981  -1.300   0.030  1.00  0.00     0.086 A 
HETATM   12  C3  UNL     1       5.804  -0.430  -0.650  1.00  0.00     0.065 A 
HETATM   13  C4  UNL     1       7.023  -0.107  -0.037  1.00  0.00     0.020 A 
HETATM   14  C5  UNL     1       7.399  -0.612   1.167  1.00  0.00     0.001 A 
HETATM   15  C6  UNL     1       6.558  -1.478   1.821  1.00  0.00     0.003 A 
HETATM   16  C7  UNL     1       5.359  -1.818   1.256  1.00  0.00     0.038 A 
BRANCH  12  17
HETATM   17  C2  UNL     1       5.490   0.162  -1.942  1.00  0.00     0.254 C 
HETATM   18  N1  UNL     1       4.362  -0.008  -2.727  1.00  0.00    -0.361 N 
HETATM   19  C1  UNL     1       4.253   0.693  -4.009  1.00  0.00     0.149 C 
ATOM     20  H1  UNL     1       3.609  -0.620  -2.413  1.00  0.00     0.162 HD
HETATM   21  O1  UNL     1       6.395   0.954  -2.415  1.00  0.00    -0.268 OA
ENDBRANCH  12  17
ENDBRANCH  10  11
ENDBRANCH   8  10
ENDBRANCH   7   8
ENDBRANCH   1   6
BRANCH   4  22
HETATM   22  N2  UNL     1      -4.543   0.917   0.689  1.00  0.00    -0.288 N 
HETATM   23  C17 UNL     1      -5.343   0.937  -0.468  1.00  0.00     0.200 A 
HETATM   24  N3  UNL     1      -4.669   0.664  -1.726  1.00  0.00    -0.063 NA
HETATM   25  N4  UNL     1      -6.616   1.179  -0.472  1.00  0.00    -0.304 N 
HETATM   26  C18 UNL     1      -7.178   1.432   0.810  1.00  0.00     0.192 A 
ATOM     27  H4  UNL     1      -7.172   1.187  -1.327  1.00  0.00     0.171 HD
HETATM   28  N5  UNL     1      -8.588   1.716   0.948  1.00  0.00    -0.063 NA
HETATM   29  N6  UNL     1      -6.508   1.427   1.884  1.00  0.00    -0.338 N 
HETATM   30  C19 UNL     1      -5.121   1.171   1.952  1.00  0.00     0.108 A 
ATOM     31  H6  UNL     1      -7.001   1.620   2.756  1.00  0.00     0.164 HD
HETATM   32  C20 UNL     1      -4.762   0.143   3.012  1.00  0.00     0.063 C 
HETATM   33  C21 UNL     1      -4.486   2.477   2.507  1.00  0.00     0.063 C 
ENDBRANCH   4  22
TORSDOF 6
