REMARK  5 active torsions:
REMARK  status: ('A' for Active; 'I' for Inactive)
REMARK    1  A    between atoms: N1_2  and  C2_4 
REMARK    2  A    between atoms: C2_4  and  C3_5 
REMARK    3  A    between atoms: C6_8  and  N2_9 
REMARK    4  A    between atoms: N2_9  and  C7_11 
REMARK    5  A    between atoms: C7_11  and  C8_12 
ROOT
HETATM    1  C3  UNL     1      -1.822  -0.136   0.353  1.00  0.00    -0.025 A 
HETATM    2  C4  UNL     1      -0.912   0.892   0.469  1.00  0.00     0.014 A 
HETATM    3  C5  UNL     1       0.326   0.793  -0.140  1.00  0.00     0.049 A 
HETATM    4  C6  UNL     1       0.652  -0.333  -0.864  1.00  0.00     0.102 A 
HETATM    5  N5  UNL     1      -0.250  -1.346  -0.977  1.00  0.00    -0.347 N 
HETATM    6  C11 UNL     1       0.124  -2.530  -1.753  1.00  0.00     0.157 C 
HETATM    7  C12 UNL     1      -1.427  -1.231  -0.387  1.00  0.00     0.100 A 
ENDROOT
BRANCH   4   8
HETATM    8  N2  UNL     1       1.928  -0.439  -1.485  1.00  0.00    -0.370 N 
ATOM      9  H2  UNL     1       2.121  -1.278  -2.033  1.00  0.00     0.161 HD
BRANCH   8  10
HETATM   10  C7  UNL     1       2.961   0.552  -1.394  1.00  0.00     0.179 C 
BRANCH  10  11
HETATM   11  C8  UNL     1       3.504   0.743  -0.031  1.00  0.00     0.043 A 
HETATM   12  C9  UNL     1       3.370  -0.015   1.108  1.00  0.00     0.115 A 
HETATM   13  N3  UNL     1       4.053   0.575   2.099  1.00  0.00    -0.360 N 
HETATM   14  C10 UNL     1       4.609   1.683   1.598  1.00  0.00     0.180 A 
ATOM     15  H3  UNL     1       4.134   0.240   3.059  1.00  0.00     0.166 HD
HETATM   16  N4  UNL     1       4.277   1.786   0.306  1.00  0.00    -0.353 N 
ATOM     17  H4  UNL     1       4.565   2.537  -0.322  1.00  0.00     0.166 HD
ENDBRANCH  10  11
ENDBRANCH   8  10
ENDBRANCH   4   8
BRANCH   1  18
HETATM   18  C2  UNL     1      -3.145  -0.011   1.015  1.00  0.00     0.153 C 
BRANCH  18  19
HETATM   19  N1  UNL     1      -4.047   0.603   0.088  1.00  0.00    -0.421 N 
HETATM   20  C1  UNL     1      -5.372   0.795   0.577  1.00  0.00     0.140 C 
ATOM     21  H1  UNL     1      -3.763   0.882  -0.851  1.00  0.00     0.153 HD
ENDBRANCH  18  19
ENDBRANCH   1  18
TORSDOF 5
