REMARK  5 active torsions:
REMARK  status: ('A' for Active; 'I' for Inactive)
REMARK    1  A    between atoms: C2_2  and  C3_3 
REMARK    2  A    between atoms: C2_2  and  N5_19 
REMARK    3  A    between atoms: C3_3  and  C4_4 
REMARK    4  A    between atoms: C4_4  and  C5_5 
REMARK    5  A    between atoms: N1_10  and  N2_12 
REMARK       I    between atoms: N2_12  and  C9_14 
ROOT
HETATM    1  C3  UNL     1      -0.018  -0.047  -0.419  1.00  0.00     0.065 C 
HETATM    2  N1  UNL     1      -1.131   0.478  -0.598  1.00  0.00    -0.300 N 
ATOM      3  H1  UNL     1      -1.816  -0.277  -0.626  1.00  0.00     0.186 HD
ENDROOT
BRANCH   1   4
HETATM    4  C2  UNL     1       1.282   0.659  -0.312  1.00  0.00     0.150 C 
HETATM    5  C1  UNL     1       1.263   1.971  -0.430  1.00  0.00     0.053 C 
BRANCH   4   6
HETATM    6  N5  UNL     1       2.505   0.013  -0.073  1.00  0.00    -0.048 N 
HETATM    7  C10 UNL     1       2.816  -1.095  -0.918  1.00  0.00     0.278 C 
HETATM    8  C11 UNL     1       3.613   0.963  -0.228  1.00  0.00     0.278 C 
HETATM    9  C12 UNL     1       2.470  -0.454   1.310  1.00  0.00     0.278 C 
ENDBRANCH   4   6
ENDBRANCH   1   4
BRANCH   1  10
HETATM   10  C4  UNL     1      -0.061  -1.569  -0.328  1.00  0.00     0.126 C 
BRANCH  10  11
HETATM   11  C5  UNL     1      -1.487  -2.026  -0.353  1.00  0.00     0.058 A 
HETATM   12  C6  UNL     1      -2.272  -2.195   0.763  1.00  0.00     0.035 A 
HETATM   13  C7  UNL     1      -3.513  -2.622   0.344  1.00  0.00     0.027 A 
HETATM   14  C8  UNL     1      -3.432  -2.696  -1.026  1.00  0.00     0.142 A 
HETATM   15  O1  UNL     1      -2.219  -2.335  -1.377  1.00  0.00    -0.327 OA
ENDBRANCH  10  11
ENDBRANCH   1  10
BRANCH   2  16
HETATM   16  N2  UNL     1      -1.790   1.602  -0.766  1.00  0.00    -0.274 N 
HETATM   17  C9  UNL     1      -2.641   2.136   0.266  1.00  0.00     0.200 C 
HETATM   18  N3  UNL     1      -3.785   1.596   0.520  1.00  0.00    -0.372 N 
HETATM   19  N4  UNL     1      -2.254   3.263   1.032  1.00  0.00    -0.062 NA
ATOM     20  H32 UNL     1      -4.064   0.785  -0.032  1.00  0.00     0.158 HD
ATOM     21  H31 UNL     1      -4.388   1.974   1.251  1.00  0.00     0.158 HD
ATOM     22  H2  UNL     1      -1.697   2.108  -1.647  1.00  0.00     0.189 HD
ENDBRANCH   2  16
TORSDOF 5
