REMARK  8 active torsions:
REMARK  status: ('A' for Active; 'I' for Inactive)
REMARK    1  A    between atoms: C2_2  and  N1_3 
REMARK    2  A    between atoms: N1_3  and  C3_5 
REMARK    3  A    between atoms: C3_5  and  N2_7 
REMARK    4  A    between atoms: N2_7  and  C4_9 
REMARK    5  A    between atoms: C4_9  and  C5_10 
REMARK    6  A    between atoms: C5_10  and  N3_11 
REMARK    7  A    between atoms: C5_10  and  C6_15 
REMARK    8  A    between atoms: C6_15  and  O1_16 
ROOT
HETATM    1  C5  UNL     1      -0.854  -0.320  -0.312  1.00  0.00     0.235 C 
ENDROOT
BRANCH   1   2
HETATM    2  C4  UNL     1       0.366   0.191   0.365  1.00  0.00     0.158 C 
BRANCH   2   3
HETATM    3  N2  UNL     1       1.458   0.030  -0.630  1.00  0.00    -0.365 N 
ATOM      4  H2  UNL     1       1.240  -0.315  -1.565  1.00  0.00     0.161 HD
BRANCH   3   5
HETATM    5  C3  UNL     1       2.789   0.347  -0.300  1.00  0.00     0.167 C 
HETATM    6  S1  UNL     1       3.146   0.898   1.178  1.00  0.00    -0.041 SA
BRANCH   5   7
HETATM    7  N1  UNL     1       3.804   0.187  -1.258  1.00  0.00    -0.368 N 
ATOM      8  H1  UNL     1       3.548  -0.151  -2.185  1.00  0.00     0.161 HD
BRANCH   7   9
HETATM    9  C2  UNL     1       5.208   0.482  -0.989  1.00  0.00     0.117 C 
HETATM   10  C1  UNL     1       5.692  -0.582  -0.004  1.00  0.00     0.026 C 
ENDBRANCH   7   9
ENDBRANCH   5   7
ENDBRANCH   3   5
ENDBRANCH   2   3
ENDBRANCH   1   2
BRANCH   1  11
HETATM   11  N3  UNL     1      -1.025   0.506  -1.513  1.00  0.00    -0.071 N 
ATOM     12  H33 UNL     1      -1.057   1.507  -1.318  1.00  0.00     0.274 HD
ATOM     13  H32 UNL     1      -0.202   0.524  -2.116  1.00  0.00     0.274 HD
ATOM     14  H31 UNL     1      -1.862   0.155  -1.978  1.00  0.00     0.274 HD
ENDBRANCH   1  11
BRANCH   1  15
HETATM   15  C6  UNL     1      -2.127  -0.326   0.505  1.00  0.00     0.090 C 
HETATM   16  C8  UNL     1      -2.737   1.057   0.571  1.00  0.00     0.040 C 
HETATM   17  C9  UNL     1      -4.198   0.919   0.187  1.00  0.00     0.003 C 
HETATM   18  C10 UNL     1      -4.012   0.004  -1.033  1.00  0.00     0.003 C 
HETATM   19  C11 UNL     1      -3.136  -1.040  -0.431  1.00  0.00     0.040 C 
BRANCH  15  20
HETATM   20  O1  UNL     1      -2.165  -1.035   1.612  1.00  0.00    -0.383 OA
HETATM   21  C7  UNL     1      -1.473  -0.999   2.714  1.00  0.00     0.202 C 
ENDBRANCH  15  20
ENDBRANCH   1  15
TORSDOF 8
