REMARK  8 active torsions:
REMARK  status: ('A' for Active; 'I' for Inactive)
REMARK    1  A    between atoms: C3_3  and  C5_5 
REMARK    2  A    between atoms: C5_5  and  N1_6 
REMARK    3  A    between atoms: C5_5  and  C6_10 
REMARK    4  A    between atoms: C6_10  and  C7_11 
REMARK    5  A    between atoms: C7_11  and  N2_12 
REMARK    6  A    between atoms: C7_11  and  C10_17 
REMARK    7  A    between atoms: N2_12  and  C8_14 
REMARK    8  A    between atoms: C10_17  and  O2_19 
ROOT
HETATM    1  C6  UNL     1      -0.126  -0.376   0.070  1.00  0.00     0.072 C 
ENDROOT
BRANCH   1   2
HETATM    2  C5  UNL     1       0.794   0.774   0.336  1.00  0.00     0.214 C 
BRANCH   2   3
HETATM    3  C3  UNL     1       2.203   0.379   0.032  1.00  0.00    -0.058 C 
HETATM    4  C2  UNL     1       2.546  -0.806  -0.402  1.00  0.00    -0.026 C 
HETATM    5  C1  UNL     1       3.968  -1.129  -0.683  1.00  0.00     0.036 C 
HETATM    6  C4  UNL     1       3.245   1.420   0.250  1.00  0.00     0.045 C 
ENDBRANCH   2   3
BRANCH   2   7
HETATM    7  N1  UNL     1       0.761   1.270   1.684  1.00  0.00    -0.071 N 
ATOM      8  H13 UNL     1       1.142   0.607   2.360  1.00  0.00     0.275 HD
ATOM      9  H12 UNL     1       1.428   2.025   1.845  1.00  0.00     0.275 HD
ATOM     10  H11 UNL     1      -0.201   1.540   1.891  1.00  0.00     0.275 HD
ENDBRANCH   2   7
ENDBRANCH   1   2
BRANCH   1  11
HETATM   11  C7  UNL     1      -1.559  -0.109   0.348  1.00  0.00     0.184 C 
BRANCH  11  12
HETATM   12  N2  UNL     1      -2.322  -1.306   0.050  1.00  0.00    -0.371 N 
ATOM     13  H2  UNL     1      -2.932  -1.293  -0.768  1.00  0.00     0.161 HD
BRANCH  12  14
HETATM   14  C8  UNL     1      -2.274  -2.481   0.816  1.00  0.00     0.070 C 
HETATM   15  C9  UNL     1      -3.111  -3.647   0.378  1.00  0.00     0.081 C 
HETATM   16  S1  UNL     1      -1.392  -2.668   2.163  1.00  0.00    -0.066 SA
ENDBRANCH  12  14
ENDBRANCH  11  12
BRANCH  11  17
HETATM   17  C10 UNL     1      -2.154   1.021  -0.406  1.00  0.00     0.281 C 
HETATM   18  O1  UNL     1      -3.146   0.824  -1.196  1.00  0.00    -0.263 OA
BRANCH  17  19
HETATM   19  O2  UNL     1      -1.714   2.317  -0.326  1.00  0.00    -0.325 OA
HETATM   20  C11 UNL     1      -2.239   3.411  -1.011  1.00  0.00     0.213 C 
ENDBRANCH  17  19
ENDBRANCH  11  17
ENDBRANCH   1  11
TORSDOF 8
