REMARK  6 active torsions:
REMARK  status: ('A' for Active; 'I' for Inactive)
REMARK    1  A    between atoms: O1_2  and  C2_3 
REMARK    2  A    between atoms: C7_8  and  N1_9 
REMARK       I    between atoms: N1_9  and  C8_11 
REMARK    3  A    between atoms: N3_13  and  C9_15 
REMARK    4  A    between atoms: C9_15  and  C10_16 
REMARK    5  A    between atoms: C10_16  and  C11_17 
REMARK    6  A    between atoms: C11_17  and  N4_19 
ROOT
HETATM    1  N1  UNL     1      -1.251  -0.503   1.033  1.00  0.00    -0.328 N 
ATOM      2  H1  UNL     1      -1.550  -1.029   1.854  1.00  0.00     0.168 HD
HETATM    3  C8  UNL     1       0.164  -0.189   0.856  1.00  0.00     0.192 C 
HETATM    4  N2  UNL     1       0.502   1.131   1.253  1.00  0.00    -0.063 NA
HETATM    5  N3  UNL     1       0.917  -1.079   0.388  1.00  0.00    -0.344 N 
ATOM      6  H3  UNL     1       0.426  -1.949   0.180  1.00  0.00     0.167 HD
ENDROOT
BRANCH   1   7
HETATM    7  C7  UNL     1      -2.206  -0.091   0.090  1.00  0.00     0.068 A 
HETATM    8  C2  UNL     1      -3.535  -0.414   0.305  1.00  0.00     0.095 A 
HETATM    9  C3  UNL     1      -4.436   0.001  -0.630  1.00  0.00     0.039 A 
HETATM   10  C4  UNL     1      -4.123   0.714  -1.764  1.00  0.00     0.003 A 
HETATM   11  C5  UNL     1      -2.791   1.027  -1.960  1.00  0.00     0.002 A 
HETATM   12  C6  UNL     1      -1.835   0.634  -1.049  1.00  0.00     0.032 A 
BRANCH   8  13
HETATM   13  O1  UNL     1      -3.955  -1.127   1.412  1.00  0.00    -0.354 OA
HETATM   14  C1  UNL     1      -5.332  -1.411   1.546  1.00  0.00     0.210 C 
ENDBRANCH   8  13
ENDBRANCH   1   7
BRANCH   5  15
HETATM   15  C9  UNL     1       2.290  -1.136   0.089  1.00  0.00     0.065 C 
BRANCH  15  16
HETATM   16  C10 UNL     1       3.003   0.133   0.410  1.00  0.00     0.077 C 
BRANCH  16  17
HETATM   17  C11 UNL     1       4.490   0.049   0.079  1.00  0.00     0.184 C 
HETATM   18  C12 UNL     1       4.718  -0.227  -1.377  1.00  0.00     0.040 C 
BRANCH  17  19
HETATM   19  N4  UNL     1       5.044   1.359   0.370  1.00  0.00    -0.075 N 
ATOM     20  H43 UNL     1       4.563   2.119  -0.112  1.00  0.00     0.274 HD
ATOM     21  H42 UNL     1       4.857   1.676   1.321  1.00  0.00     0.274 HD
ATOM     22  H41 UNL     1       6.038   1.303   0.149  1.00  0.00     0.274 HD
ENDBRANCH  17  19
ENDBRANCH  16  17
ENDBRANCH  15  16
ENDBRANCH   5  15
TORSDOF 6
