REMARK  5 active torsions:
REMARK  status: ('A' for Active; 'I' for Inactive)
REMARK    1  A    between atoms: C2_2  and  C4_5 
REMARK    2  A    between atoms: C6_10  and  S2_11 
REMARK    3  A    between atoms: S2_11  and  C7_12 
REMARK    4  A    between atoms: C7_12  and  C8_13 
REMARK    5  A    between atoms: C9_18  and  O1_19 
ROOT
HETATM    1  C4  UNL     1      -2.097   0.345   0.122  1.00  0.00     0.087 A 
HETATM    2  N1  UNL     1      -1.487   1.234  -0.669  1.00  0.00    -0.333 N 
ATOM      3  H1  UNL     1      -1.945   1.814  -1.372  1.00  0.00     0.168 HD
HETATM    4  C5  UNL     1      -0.157   1.239  -0.384  1.00  0.00     0.175 A 
HETATM    5  S1  UNL     1       1.433   1.863  -0.691  1.00  0.00    -0.026 SA
HETATM    6  C6  UNL     1       2.290   0.952   0.448  1.00  0.00     0.130 A 
HETATM    7  N2  UNL     1       1.305   0.231   0.985  1.00  0.00    -0.277 N 
ATOM      8  H2  UNL     1       1.518  -0.436   1.726  1.00  0.00     0.189 HD
HETATM    9  N3  UNL     1       0.109   0.362   0.589  1.00  0.00    -0.208 N 
HETATM   10  C9  UNL     1      -1.108  -0.206   0.913  1.00  0.00     0.189 A 
ENDROOT
BRANCH   1  11
HETATM   11  C2  UNL     1      -3.559  -0.053   0.183  1.00  0.00     0.076 C 
HETATM   12  C1  UNL     1      -3.722  -1.503  -0.160  1.00  0.00     0.039 C 
HETATM   13  C3  UNL     1      -4.434   0.850  -0.643  1.00  0.00     0.039 C 
HETATM   14 CL1  UNL     1      -4.064   0.227   1.897  1.00  0.00    -0.113 Cl
ENDBRANCH   1  11
BRANCH  10  15
HETATM   15  O1  UNL     1      -1.328  -1.173   1.874  1.00  0.00    -0.343 OA
ATOM     16  H1  UNL     1      -0.648  -1.552   2.418  1.00  0.00     0.219 HD
ENDBRANCH  10  15
BRANCH   6  17
HETATM   17  S2  UNL     1       4.012   0.836   0.976  1.00  0.00    -0.102 SA
BRANCH  17  18
HETATM   18  C7  UNL     1       4.823  -0.405  -0.036  1.00  0.00     0.096 C 
BRANCH  18  19
HETATM   19  C8  UNL     1       6.009   0.141  -0.813  1.00  0.00     0.125 C 
HETATM   20 CL2  UNL     1       5.493   1.440  -1.881  1.00  0.00    -0.130 Cl
ENDBRANCH  18  19
ENDBRANCH  17  18
ENDBRANCH   6  17
TORSDOF 5
