REMARK  4 active torsions:
REMARK  status: ('A' for Active; 'I' for Inactive)
REMARK    1  A    between atoms: C4_6  and  C5_7 
REMARK    2  A    between atoms: C5_7  and  O2_9 
REMARK    3  A    between atoms: O2_9  and  C6_10 
REMARK    4  A    between atoms: C7_12  and  S2_13 
ROOT
HETATM    1  C5  UNL     1       0.343  -0.210   0.141  1.00  0.00     0.308 C 
HETATM    2  O1  UNL     1       0.820  -0.474  -0.961  1.00  0.00    -0.258 OA
ENDROOT
BRANCH   1   3
HETATM    3  C4  UNL     1      -1.063   0.229   0.320  1.00  0.00     0.104 A 
HETATM    4  C1  UNL     1      -2.014   0.406  -0.649  1.00  0.00     0.070 A 
HETATM    5  N1  UNL     1      -1.678   0.151  -2.044  1.00  0.00    -0.101 NA
HETATM    6  C2  UNL     1      -3.226   0.810  -0.262  1.00  0.00     0.035 A 
HETATM    7  C3  UNL     1      -3.423   1.017   1.080  1.00  0.00     0.052 A 
HETATM    8  S1  UNL     1      -1.900   0.636   1.748  1.00  0.00    -0.094 SA
ENDBRANCH   1   3
BRANCH   1   9
HETATM    9  O2  UNL     1       1.115  -0.318   1.249  1.00  0.00    -0.266 OA
BRANCH   9  10
HETATM   10  C6  UNL     1       2.412  -0.688   1.402  1.00  0.00     0.133 C 
HETATM   11 BR1  UNL     1       3.011  -0.662   3.254  1.00  0.00    -0.022 Br
HETATM   12  C7  UNL     1       3.291  -1.047   0.522  1.00  0.00     0.107 C 
BRANCH  12  13
HETATM   13  S2  UNL     1       4.947  -1.489   0.998  1.00  0.00    -0.028 SA
HETATM   14 CL1  UNL     1       5.859   0.269   1.761  1.00  0.00    -0.039 Cl
ENDBRANCH  12  13
ENDBRANCH   9  10
ENDBRANCH   1   9
TORSDOF 4
