REMARK  18 active torsions:
REMARK  status: ('A' for Active; 'I' for Inactive)
REMARK    1  A    between atoms: C2_2  and  C3_3 
REMARK    2  A    between atoms: C3_3  and  N1_4 
REMARK    3  A    between atoms: C3_3  and  C11_14 
REMARK       I    between atoms: N1_4  and  C4_6 
REMARK    4  A    between atoms: C4_6  and  C5_8 
REMARK    5  A    between atoms: C11_14  and  O2_15 
REMARK    6  A    between atoms: C11_14  and  N2_17 
REMARK    7  A    between atoms: C15_21  and  C16_22 
REMARK       I    between atoms: C16_22  and  N3_24 
REMARK    8  A    between atoms: N3_24  and  C17_26 
REMARK    9  A    between atoms: C17_26  and  C18_27 
REMARK   10  A    between atoms: C17_26  and  C25_36 
REMARK   11  A    between atoms: C18_27  and  C19_28 
REMARK   12  A    between atoms: C19_28  and  C20_29 
REMARK   13  A    between atoms: C20_29  and  C21_30 
REMARK   14  A    between atoms: C21_30  and  C22_31 
REMARK   15  A    between atoms: C22_31  and  C23_32 
REMARK   16  A    between atoms: C23_32  and  C24_33 
REMARK       I    between atoms: C25_36  and  N5_38 
REMARK   17  A    between atoms: N5_38  and  C26_40 
REMARK   18  A    between atoms: C26_40  and  C27_41 
REMARK       I    between atoms: N6_45  and  C31_46 
ROOT
HETATM    1  C16 UNL     1      -0.673  -0.416   0.624  1.00  0.00     0.241 C 
HETATM    2  O3  UNL     1      -0.906  -0.766  -0.557  1.00  0.00    -0.271 OA
HETATM    3  N3  UNL     1       0.593   0.127   0.950  1.00  0.00    -0.346 N 
ATOM      4  H3  UNL     1       0.785   0.410   1.911  1.00  0.00     0.163 HD
ENDROOT
BRANCH   1   5
HETATM    5  C15 UNL     1      -1.738  -0.585   1.642  1.00  0.00     0.183 C 
HETATM    6  N2  UNL     1      -2.875  -1.318   1.055  1.00  0.00    -0.346 N 
HETATM    7  C12 UNL     1      -2.928  -2.594   1.805  1.00  0.00     0.132 C 
HETATM    8  C13 UNL     1      -2.666  -1.951   3.157  1.00  0.00     0.019 A 
HETATM    9  C14 UNL     1      -1.249  -1.506   2.674  1.00  0.00     0.032 A 
HETATM   10  C33 UNL     1      -1.565  -1.831   4.001  1.00  0.00    -0.036 A 
HETATM   11  C34 UNL     1      -1.508  -0.720   5.037  1.00  0.00     0.016 C 
HETATM   12  C35 UNL     1      -1.047  -3.134   4.628  1.00  0.00     0.016 C 
BRANCH   6  13
HETATM   13  C11 UNL     1      -3.671  -0.813   0.022  1.00  0.00     0.162 C 
BRANCH  13  14
HETATM   14  C3  UNL     1      -4.767  -1.441  -0.735  1.00  0.00     0.062 C 
BRANCH  14  15
HETATM   15  C2  UNL     1      -4.826  -2.912  -0.669  1.00  0.00     0.057 C 
HETATM   16  C1  UNL     1      -5.372  -3.613  -1.911  1.00  0.00     0.011 C 
ENDBRANCH  14  15
BRANCH  14  17
HETATM   17  N1  UNL     1      -5.918  -0.641  -0.842  1.00  0.00    -0.327 N 
HETATM   18  C4  UNL     1      -7.043  -0.529  -1.631  1.00  0.00     0.226 C 
HETATM   19  O1  UNL     1      -7.292  -1.304  -2.581  1.00  0.00    -0.273 OA
ATOM     20  H1  UNL     1      -5.922   0.074  -0.115  1.00  0.00     0.168 HD
BRANCH  18  21
HETATM   21  C5  UNL     1      -8.074   0.545  -1.426  1.00  0.00     0.078 C 
HETATM   22  C6  UNL     1      -9.412  -0.007  -1.855  1.00  0.00     0.014 C 
HETATM   23  C7  UNL     1     -10.475   1.071  -1.861  1.00  0.00     0.001 C 
HETATM   24  C8  UNL     1     -10.053   2.160  -0.922  1.00  0.00     0.000 C 
HETATM   25  C9  UNL     1      -9.493   1.534   0.351  1.00  0.00     0.001 C 
HETATM   26  C10 UNL     1      -8.155   0.862   0.058  1.00  0.00     0.014 C 
ENDBRANCH  18  21
ENDBRANCH  14  17
ENDBRANCH  13  14
BRANCH  13  27
HETATM   27  O2  UNL     1      -3.398   0.431  -0.319  1.00  0.00    -0.345 OA
ATOM     28  H2  UNL     1      -2.691   0.836   0.169  1.00  0.00     0.219 HD
ENDBRANCH  13  27
ENDBRANCH   6  13
ENDBRANCH   1   5
BRANCH   3  29
HETATM   29  C17 UNL     1       1.645   0.292  -0.083  1.00  0.00     0.177 C 
BRANCH  29  30
HETATM   30  C18 UNL     1       2.238   1.613   0.207  1.00  0.00     0.035 C 
BRANCH  30  31
HETATM   31  C19 UNL     1       3.304   2.168  -0.638  1.00  0.00     0.002 C 
BRANCH  31  32
HETATM   32  C20 UNL     1       2.924   2.448  -2.063  1.00  0.00     0.000 C 
BRANCH  32  33
HETATM   33  C21 UNL     1       4.127   3.034  -2.798  1.00  0.00     0.000 C 
BRANCH  33  34
HETATM   34  C22 UNL     1       4.605   4.313  -2.184  1.00  0.00     0.009 C 
BRANCH  34  35
HETATM   35  C23 UNL     1       5.791   4.891  -2.947  1.00  0.00     0.099 C 
BRANCH  35  36
HETATM   36  C24 UNL     1       6.199   6.160  -2.286  1.00  0.00     0.231 C 
HETATM   37  N4  UNL     1       7.240   6.997  -2.691  1.00  0.00    -0.062 NA
HETATM   38  O4  UNL     1       5.548   6.532  -1.242  1.00  0.00    -0.277 OA
ENDBRANCH  35  36
ENDBRANCH  34  35
ENDBRANCH  33  34
ENDBRANCH  32  33
ENDBRANCH  31  32
ENDBRANCH  30  31
ENDBRANCH  29  30
BRANCH  29  39
HETATM   39  C25 UNL     1       2.582  -0.868   0.052  1.00  0.00     0.244 C 
HETATM   40  O5  UNL     1       2.425  -1.586   1.057  1.00  0.00    -0.271 OA
HETATM   41  N5  UNL     1       3.576  -1.151  -0.885  1.00  0.00    -0.339 N 
ATOM     42  H5  UNL     1       3.607  -0.499  -1.669  1.00  0.00     0.167 HD
BRANCH  41  43
HETATM   43  C26 UNL     1       4.552  -2.179  -0.948  1.00  0.00     0.070 C 
BRANCH  43  44
HETATM   44  C27 UNL     1       5.626  -2.295   0.041  1.00  0.00     0.042 C 
HETATM   45  C28 UNL     1       5.335  -2.526   1.464  1.00  0.00     0.013 C 
HETATM   46  C29 UNL     1       6.593  -3.165   2.095  1.00  0.00     0.021 C 
HETATM   47  C30 UNL     1       7.815  -2.648   1.425  1.00  0.00     0.127 C 
HETATM   48  N6  UNL     1       7.620  -1.316   0.925  1.00  0.00    -0.336 N 
HETATM   49  C31 UNL     1       8.445  -0.233   1.351  1.00  0.00     0.330 C 
HETATM   50  C32 UNL     1       6.569  -1.061  -0.027  1.00  0.00     0.137 C 
HETATM   51  N7  UNL     1       8.242   1.072   0.839  1.00  0.00    -0.040 NA
HETATM   52  O6  UNL     1       9.345  -0.487   2.190  1.00  0.00    -0.251 OA
ENDBRANCH  43  44
ENDBRANCH  41  43
ENDBRANCH  29  39
ENDBRANCH   3  29
TORSDOF 18
