REMARK  17 active torsions:
REMARK  status: ('A' for Active; 'I' for Inactive)
REMARK    1  A    between atoms: C2_2  and  C3_3 
REMARK    2  A    between atoms: C3_3  and  C4_4 
REMARK    3  A    between atoms: C4_4  and  C5_5 
REMARK    4  A    between atoms: C5_5  and  C6_6 
REMARK    5  A    between atoms: C6_6  and  C7_7 
REMARK    6  A    between atoms: C8_8  and  N1_9 
REMARK    7  A    between atoms: N1_9  and  C9_10 
REMARK    8  A    between atoms: C12_15  and  N3_16 
REMARK       I    between atoms: N3_16  and  C13_18 
REMARK    9  A    between atoms: C13_18  and  C14_20 
REMARK   10  A    between atoms: C14_20  and  N4_22 
REMARK       I    between atoms: N4_22  and  C16_24 
REMARK   11  A    between atoms: C16_24  and  C17_26 
REMARK   12  A    between atoms: C19_28  and  C20_29 
REMARK       I    between atoms: C20_29  and  N5_31 
REMARK   13  A    between atoms: N5_31  and  C21_32 
REMARK   14  A    between atoms: N5_31  and  C23_34 
REMARK       I    between atoms: N6_38  and  C27_39 
REMARK   15  A    between atoms: C27_39  and  C28_41 
REMARK   16  A    between atoms: C28_41  and  N7_42 
REMARK   17  A    between atoms: C28_41  and  C30_47 
REMARK       I    between atoms: N7_42  and  C29_44 
ROOT
HETATM    1  C17 UNL     1      -2.304  -0.193  -0.169  1.00  0.00     0.180 C 
HETATM    2  C18 UNL     1      -2.833   0.941   0.710  1.00  0.00     0.049 C 
HETATM    3  C19 UNL     1      -3.952   1.616  -0.020  1.00  0.00     0.082 C 
HETATM    4  C25 UNL     1      -4.530   0.966  -1.214  1.00  0.00     0.034 C 
HETATM    5  C26 UNL     1      -4.350  -0.511  -1.410  1.00  0.00     0.127 C 
HETATM    6  N6  UNL     1      -3.426  -1.035  -0.378  1.00  0.00    -0.337 N 
HETATM    7  C27 UNL     1      -3.729  -2.208   0.290  1.00  0.00     0.243 C 
HETATM    8  O4  UNL     1      -3.035  -2.716   1.238  1.00  0.00    -0.271 OA
ENDROOT
BRANCH   1   9
HETATM    9  C16 UNL     1      -1.014  -0.712   0.208  1.00  0.00     0.241 C 
HETATM   10  N4  UNL     1       0.081   0.219   0.415  1.00  0.00    -0.346 N 
ATOM     11  H4  UNL     1      -0.102   1.212   0.273  1.00  0.00     0.163 HD
HETATM   12  O2  UNL     1      -0.727  -1.895   0.378  1.00  0.00    -0.271 OA
BRANCH  10  13
HETATM   13  C14 UNL     1       1.396  -0.171   0.804  1.00  0.00     0.172 C 
HETATM   14  C15 UNL     1       1.990   0.846   1.740  1.00  0.00     0.042 C 
BRANCH  13  15
HETATM   15  C13 UNL     1       2.314  -0.259  -0.393  1.00  0.00     0.240 C 
HETATM   16  N3  UNL     1       3.654   0.182  -0.385  1.00  0.00    -0.352 N 
ATOM     17  H3  UNL     1       4.054   0.602   0.454  1.00  0.00     0.163 HD
HETATM   18  O1  UNL     1       1.780  -0.773  -1.439  1.00  0.00    -0.271 OA
BRANCH  16  19
HETATM   19  C12 UNL     1       4.456   0.031  -1.585  1.00  0.00     0.114 C 
HETATM   20  C7  UNL     1       5.906  -0.232  -1.259  1.00  0.00     0.092 C 
HETATM   21  C8  UNL     1       6.262   1.116  -0.680  1.00  0.00     0.156 C 
HETATM   22  N2  UNL     1       5.687   2.000  -1.713  1.00  0.00    -0.366 N 
HETATM   23  C11 UNL     1       4.512   1.381  -2.264  1.00  0.00     0.147 C 
ATOM     24  H2  UNL     1       6.063   2.906  -1.992  1.00  0.00     0.161 HD
BRANCH  20  25
HETATM   25  C6  UNL     1       6.123  -1.383  -0.380  1.00  0.00     0.015 C 
BRANCH  25  26
HETATM   26  C5  UNL     1       7.529  -1.667   0.085  1.00  0.00     0.001 C 
BRANCH  26  27
HETATM   27  C4  UNL     1       8.476  -1.948  -1.002  1.00  0.00     0.000 C 
BRANCH  27  28
HETATM   28  C3  UNL     1       9.876  -2.298  -0.671  1.00  0.00    -0.000 C 
BRANCH  28  29
HETATM   29  C2  UNL     1      10.712  -1.298   0.048  1.00  0.00    -0.005 C 
HETATM   30  C1  UNL     1      10.313  -0.920   1.422  1.00  0.00     0.005 C 
ENDBRANCH  28  29
ENDBRANCH  27  28
ENDBRANCH  26  27
ENDBRANCH  25  26
ENDBRANCH  20  25
BRANCH  21  31
HETATM   31  N1  UNL     1       6.811   1.528   0.285  1.00  0.00    -0.409 NA
BRANCH  31  32
HETATM   32  C9  UNL     1       7.418   2.097   1.347  1.00  0.00     0.152 C 
HETATM   33  C10 UNL     1       7.031   3.544   1.646  1.00  0.00     0.070 C 
ENDBRANCH  31  32
ENDBRANCH  21  31
ENDBRANCH  16  19
ENDBRANCH  13  15
ENDBRANCH  10  13
ENDBRANCH   1   9
BRANCH   3  34
HETATM   34  C20 UNL     1      -3.375   2.942  -0.484  1.00  0.00     0.224 C 
HETATM   35  O3  UNL     1      -2.142   2.983  -0.772  1.00  0.00    -0.273 OA
HETATM   36  N5  UNL     1      -4.138   4.114  -0.612  1.00  0.00    -0.353 N 
BRANCH  36  37
HETATM   37  C21 UNL     1      -3.486   5.335  -1.118  1.00  0.00     0.121 C 
HETATM   38  C22 UNL     1      -3.552   5.441  -2.604  1.00  0.00     0.026 C 
ENDBRANCH  36  37
BRANCH  36  39
HETATM   39  C23 UNL     1      -5.516   4.153  -0.222  1.00  0.00     0.121 C 
HETATM   40  C24 UNL     1      -5.665   4.568   1.232  1.00  0.00     0.026 C 
ENDBRANCH  36  39
ENDBRANCH   3  34
BRANCH   7  41
HETATM   41  C28 UNL     1      -4.936  -3.030  -0.042  1.00  0.00     0.182 C 
BRANCH  41  42
HETATM   42  N7  UNL     1      -4.375  -4.389  -0.051  1.00  0.00    -0.332 N 
HETATM   43  C29 UNL     1      -4.697  -5.574   0.540  1.00  0.00     0.329 C 
HETATM   44  N8  UNL     1      -3.842  -6.728   0.213  1.00  0.00    -0.040 NA
HETATM   45  O5  UNL     1      -5.610  -5.849   1.325  1.00  0.00    -0.251 OA
ATOM     46  H7  UNL     1      -3.546  -4.462  -0.641  1.00  0.00     0.164 HD
ENDBRANCH  41  42
BRANCH  41  47
HETATM   47  C30 UNL     1      -5.948  -2.949   1.112  1.00  0.00     0.018 C 
HETATM   48  C31 UNL     1      -6.268  -1.535   1.502  1.00  0.00     0.007 C 
HETATM   49  C32 UNL     1      -7.468  -0.940   0.866  1.00  0.00     0.000 C 
HETATM   50  C33 UNL     1      -8.741  -1.643   1.267  1.00  0.00     0.000 C 
HETATM   51  C34 UNL     1      -8.444  -3.131   1.335  1.00  0.00     0.000 C 
HETATM   52  C35 UNL     1      -7.263  -3.432   0.453  1.00  0.00     0.007 C 
ENDBRANCH  41  47
ENDBRANCH   7  41
TORSDOF 17
