REMARK  16 active torsions:
REMARK  status: ('A' for Active; 'I' for Inactive)
REMARK    1  A    between atoms: C2_2  and  C3_3 
REMARK       I    between atoms: N1_8  and  C8_9 
REMARK    2  A    between atoms: C8_9  and  C9_11 
REMARK    3  A    between atoms: C9_11  and  C10_12 
REMARK    4  A    between atoms: C9_11  and  N2_16 
REMARK    5  A    between atoms: C10_12  and  C11_13 
REMARK    6  A    between atoms: C11_13  and  C12_14 
REMARK    7  A    between atoms: N2_16  and  S1_18 
REMARK    8  A    between atoms: S1_18  and  C14_21 
REMARK    9  A    between atoms: C14_21  and  C15_22 
REMARK       I    between atoms: N3_26  and  C19_27 
REMARK   10  A    between atoms: C19_27  and  C20_29 
REMARK   11  A    between atoms: C20_29  and  C21_30 
REMARK   12  A    between atoms: C20_29  and  N7_40 
REMARK   13  A    between atoms: C21_30  and  C22_31 
REMARK   14  A    between atoms: C22_31  and  C23_32 
REMARK   15  A    between atoms: C23_32  and  N4_33 
REMARK       I    between atoms: N4_33  and  C24_35 
REMARK       I    between atoms: N7_40  and  C25_42 
REMARK   16  A    between atoms: C25_42  and  C26_44 
ROOT
HETATM    1  C15 UNL     1       0.039   0.350   0.569  1.00  0.00     0.102 C 
HETATM    2  C16 UNL     1       0.967  -0.797   0.743  1.00  0.00     0.028 C 
HETATM    3  C17 UNL     1       1.252  -1.351  -0.642  1.00  0.00     0.022 C 
HETATM    4  C18 UNL     1       0.432  -0.419  -1.529  1.00  0.00     0.126 C 
HETATM    5  N3  UNL     1      -0.682  -0.050  -0.623  1.00  0.00    -0.345 N 
HETATM    6  C19 UNL     1      -2.047  -0.191  -0.933  1.00  0.00     0.243 C 
HETATM    7  O4  UNL     1      -2.313  -0.522  -2.154  1.00  0.00    -0.271 OA
ENDROOT
BRANCH   1   8
HETATM    8  C14 UNL     1       0.582   1.706   0.426  1.00  0.00     0.188 C 
BRANCH   8   9
HETATM    9  S1  UNL     1       1.503   2.431   1.699  1.00  0.00     0.229 S 
HETATM   10  O2  UNL     1       0.572   2.546   2.942  1.00  0.00    -0.206 OA
HETATM   11  O3  UNL     1       1.617   3.938   1.315  1.00  0.00    -0.206 OA
BRANCH   9  12
HETATM   12  N2  UNL     1       2.972   1.818   2.142  1.00  0.00    -0.306 N 
ATOM     13  H2  UNL     1       3.130   1.441   3.077  1.00  0.00     0.173 HD
BRANCH  12  14
HETATM   14  C9  UNL     1       4.051   1.838   1.125  1.00  0.00     0.184 C 
BRANCH  14  15
HETATM   15  C8  UNL     1       4.624   0.514   0.988  1.00  0.00     0.243 C 
HETATM   16  N1  UNL     1       4.926  -0.110  -0.281  1.00  0.00    -0.342 N 
HETATM   17  C3  UNL     1       5.473  -1.437  -0.480  1.00  0.00     0.113 C 
HETATM   18  C7  UNL     1       4.729   0.473  -1.581  1.00  0.00     0.131 C 
HETATM   19  C4  UNL     1       5.839  -1.586  -1.920  1.00  0.00     0.018 A 
HETATM   20  C5  UNL     1       4.801  -1.674  -2.998  1.00  0.00     0.014 A 
HETATM   21  C6  UNL     1       5.402  -0.371  -2.609  1.00  0.00     0.010 A 
HETATM   22  O1  UNL     1       4.904  -0.225   1.994  1.00  0.00    -0.271 OA
BRANCH  17  23
HETATM   23  C2  UNL     1       6.667  -1.613   0.362  1.00  0.00    -0.012 C 
HETATM   24  C1  UNL     1       7.890  -1.371  -0.056  1.00  0.00     0.009 C 
ENDBRANCH  17  23
ENDBRANCH  14  15
BRANCH  14  25
HETATM   25  C10 UNL     1       4.975   2.955   1.547  1.00  0.00     0.035 C 
BRANCH  25  26
HETATM   26  C11 UNL     1       6.151   3.350   0.789  1.00  0.00     0.002 C 
BRANCH  26  27
HETATM   27  C12 UNL     1       7.298   2.436   0.616  1.00  0.00    -0.004 C 
HETATM   28  C13 UNL     1       7.905   1.974   1.926  1.00  0.00     0.005 C 
ENDBRANCH  26  27
ENDBRANCH  25  26
ENDBRANCH  14  25
ENDBRANCH  12  14
ENDBRANCH   9  12
ENDBRANCH   8   9
ENDBRANCH   1   8
BRANCH   6  29
HETATM   29  C20 UNL     1      -3.195  -0.018  -0.039  1.00  0.00     0.176 C 
BRANCH  29  30
HETATM   30  C21 UNL     1      -3.939   1.249  -0.265  1.00  0.00     0.036 C 
BRANCH  30  31
HETATM   31  C22 UNL     1      -3.236   2.526  -0.100  1.00  0.00     0.022 C 
BRANCH  31  32
HETATM   32  C23 UNL     1      -4.237   3.655  -0.379  1.00  0.00     0.122 C 
BRANCH  32  33
HETATM   33  N4  UNL     1      -3.594   4.946  -0.226  1.00  0.00    -0.365 N 
HETATM   34  C24 UNL     1      -2.582   5.383  -1.132  1.00  0.00     0.181 C 
HETATM   35  N5  UNL     1      -2.603   4.864  -2.314  1.00  0.00    -0.374 N 
HETATM   36  N6  UNL     1      -1.637   6.332  -0.697  1.00  0.00    -0.064 NA
ATOM     37  H52 UNL     1      -3.288   4.177  -2.629  1.00  0.00     0.158 HD
ATOM     38  H51 UNL     1      -1.880   5.176  -2.962  1.00  0.00     0.158 HD
ATOM     39  H4  UNL     1      -3.871   5.554   0.545  1.00  0.00     0.162 HD
ENDBRANCH  32  33
ENDBRANCH  31  32
ENDBRANCH  30  31
ENDBRANCH  29  30
BRANCH  29  40
HETATM   40  N7  UNL     1      -4.224  -1.061  -0.352  1.00  0.00    -0.347 N 
HETATM   41  C25 UNL     1      -4.554  -2.045   0.612  1.00  0.00     0.227 C 
HETATM   42  O5  UNL     1      -3.960  -2.022   1.715  1.00  0.00    -0.273 OA
ATOM     43  H7  UNL     1      -4.688  -1.063  -1.261  1.00  0.00     0.163 HD
BRANCH  41  44
HETATM   44  C26 UNL     1      -5.565  -3.090   0.379  1.00  0.00     0.042 C 
HETATM   45  C27 UNL     1      -5.264  -3.921  -0.822  1.00  0.00     0.024 C 
HETATM   46  C28 UNL     1      -6.353  -4.921  -1.095  1.00  0.00    -0.013 C 
HETATM   47  C29 UNL     1      -7.741  -4.280  -1.148  1.00  0.00     0.010 C 
HETATM   48  C33 UNL     1      -6.533  -5.773   0.170  1.00  0.00     0.010 C 
HETATM   49  C30 UNL     1      -7.812  -3.720   0.280  1.00  0.00    -0.009 C 
HETATM   50  C31 UNL     1      -6.964  -2.466   0.227  1.00  0.00     0.024 C 
HETATM   51  C32 UNL     1      -7.054  -4.708   1.129  1.00  0.00    -0.009 C 
HETATM   52  C34 UNL     1      -5.807  -3.946   1.602  1.00  0.00     0.024 C 
ENDBRANCH  41  44
ENDBRANCH  29  40
ENDBRANCH   6  29
TORSDOF 16
