REMARK  4 active torsions:
REMARK  status: ('A' for Active; 'I' for Inactive)
REMARK    1  A    between atoms: C9_9  and  N1_10 
REMARK    2  A    between atoms: C11_14  and  C12_15 
REMARK    3  A    between atoms: C12_15  and  C13_17 
REMARK    4  A    between atoms: C13_17  and  C14_18 
ROOT
HETATM    1  N1  UNL     1      -1.203   0.440  -0.805  1.00  0.00    -0.271 N 
HETATM    2  N2  UNL     1      -0.699   1.625  -0.519  1.00  0.00    -0.307 N 
ATOM      3  H2  UNL     1      -1.241   2.442  -0.237  1.00  0.00     0.186 HD
HETATM    4  C10 UNL     1       0.641   1.592  -0.656  1.00  0.00     0.126 A 
HETATM    5  C11 UNL     1       1.018   0.345  -1.043  1.00  0.00     0.071 A 
HETATM    6  C19 UNL     1      -0.192  -0.390  -1.137  1.00  0.00     0.131 A 
HETATM    7  N3  UNL     1      -0.224  -1.579  -1.499  1.00  0.00    -0.383 N 
ATOM      8  H31 UNL     1       0.540  -2.206  -1.750  1.00  0.00     0.157 HD
ATOM      9  H32 UNL     1      -1.094  -2.107  -1.567  1.00  0.00     0.157 HD
ENDROOT
BRANCH   5  10
HETATM   10  C12 UNL     1       2.352  -0.186  -1.291  1.00  0.00     0.165 C 
HETATM   11  O1  UNL     1       2.493  -1.392  -1.571  1.00  0.00    -0.292 OA
BRANCH  10  12
HETATM   12  C13 UNL     1       3.513   0.709  -1.204  1.00  0.00     0.089 C 
BRANCH  12  13
HETATM   13  C14 UNL     1       4.646   0.255  -0.374  1.00  0.00    -0.001 C 
HETATM   14  C15 UNL     1       4.242   0.032   1.090  1.00  0.00     0.011 C 
HETATM   15  C16 UNL     1       5.538  -0.507   1.655  1.00  0.00     0.079 C 
HETATM   16  C17 UNL     1       6.269  -1.178   0.484  1.00  0.00     0.244 C 
HETATM   17  F1  UNL     1       6.566  -2.486   0.747  1.00  0.00    -0.206 F 
HETATM   18  F2  UNL     1       7.372  -0.438   0.141  1.00  0.00    -0.206 F 
HETATM   19  C18 UNL     1       5.272  -1.053  -0.692  1.00  0.00     0.084 C 
ENDBRANCH  12  13
ENDBRANCH  10  12
ENDBRANCH   5  10
BRANCH   1  20
HETATM   20  C9  UNL     1      -2.633   0.182  -0.727  1.00  0.00     0.118 C 
HETATM   21  C2  UNL     1      -3.242   0.817   0.490  1.00  0.00    -0.021 C 
HETATM   22  C1  UNL     1      -3.679   2.253   0.201  1.00  0.00     0.017 C 
HETATM   23  C3  UNL     1      -2.248   0.783   1.625  1.00  0.00     0.017 C 
HETATM   24  C4  UNL     1      -4.519   0.110   0.912  1.00  0.00    -0.004 C 
HETATM   25  C5  UNL     1      -5.271  -0.293  -0.346  1.00  0.00     0.010 C 
HETATM   26  C7  UNL     1      -4.289  -1.358   1.162  1.00  0.00     0.010 C 
HETATM   27  C6  UNL     1      -4.413  -1.507  -0.368  1.00  0.00    -0.012 C 
HETATM   28  C8  UNL     1      -2.990  -1.249  -0.858  1.00  0.00     0.033 C 
ENDBRANCH   1  20
TORSDOF 4
