REMARK  7 active torsions:
REMARK  status: ('A' for Active; 'I' for Inactive)
REMARK    1  A    between atoms: N1_2  and  C2_4 
REMARK    2  A    between atoms: C2_4  and  C3_5 
REMARK    3  A    between atoms: C3_5  and  C6_8 
REMARK    4  A    between atoms: C7_9  and  C8_10 
REMARK    5  A    between atoms: C12_14  and  C13_15 
REMARK    6  A    between atoms: C13_15  and  O1_16 
REMARK    7  A    between atoms: C13_15  and  C14_18 
ROOT
HETATM    1  C8  UNL     1      -0.226  -1.044   0.129  1.00  0.00     0.059 A 
HETATM    2  C9  UNL     1      -1.229  -0.136  -0.046  1.00  0.00     0.041 A 
HETATM    3  C10 UNL     1      -2.498  -0.566   0.148  1.00  0.00    -0.016 A 
HETATM    4  C11 UNL     1      -3.674   0.201   0.018  1.00  0.00     0.025 A 
HETATM    5  C12 UNL     1      -4.891  -0.389   0.247  1.00  0.00     0.011 A 
HETATM    6  C15 UNL     1      -5.072  -1.711   0.607  1.00  0.00     0.126 A 
HETATM    7  F1  UNL     1      -6.251  -2.293   0.834  1.00  0.00    -0.205 F 
HETATM    8  C16 UNL     1      -3.905  -2.457   0.733  1.00  0.00     0.062 A 
HETATM    9  C17 UNL     1      -2.665  -1.873   0.503  1.00  0.00     0.019 A 
HETATM   10  S1  UNL     1      -1.070  -2.466   0.557  1.00  0.00    -0.080 SA
ENDROOT
BRANCH   1  11
HETATM   11  C7  UNL     1       1.213  -0.833  -0.019  1.00  0.00    -0.059 C 
HETATM   12  C6  UNL     1       2.397  -0.639  -0.126  1.00  0.00    -0.089 C 
BRANCH  12  13
HETATM   13  C3  UNL     1       3.858  -0.365  -0.241  1.00  0.00     0.032 C 
HETATM   14  C4  UNL     1       4.440  -0.612   1.104  1.00  0.00     0.030 C 
HETATM   15  C5  UNL     1       4.474  -1.364  -1.232  1.00  0.00     0.030 C 
BRANCH  13  16
HETATM   16  C2  UNL     1       3.968   1.007  -0.791  1.00  0.00     0.135 C 
BRANCH  16  17
HETATM   17  N1  UNL     1       5.251   1.560  -0.987  1.00  0.00    -0.424 N 
HETATM   18  C1  UNL     1       6.021   1.916   0.163  1.00  0.00     0.139 C 
ATOM     19  H1  UNL     1       5.620   1.702  -1.927  1.00  0.00     0.152 HD
ENDBRANCH  16  17
ENDBRANCH  13  16
ENDBRANCH  12  13
ENDBRANCH   1  11
BRANCH   5  20
HETATM   20  C13 UNL     1      -6.160   0.407   0.110  1.00  0.00     0.168 C 
BRANCH  20  21
HETATM   21  O1  UNL     1      -6.872  -0.144  -0.955  1.00  0.00    -0.390 OA
ATOM     22  H1  UNL     1      -7.673   0.359  -1.042  1.00  0.00     0.210 HD
ENDBRANCH  20  21
BRANCH  20  23
HETATM   23  C14 UNL     1      -5.858   1.850  -0.249  1.00  0.00     0.151 C 
HETATM   24 CL1  UNL     1      -7.419   2.693  -0.387  1.00  0.00    -0.128 Cl
ENDBRANCH  20  23
ENDBRANCH   5  20
TORSDOF 7
