REMARK  6 active torsions:
REMARK  status: ('A' for Active; 'I' for Inactive)
REMARK    1  A    between atoms: O1_2  and  C2_3 
REMARK    2  A    between atoms: C6_7  and  C7_8 
REMARK    3  A    between atoms: C7_8  and  O2_9 
REMARK    4  A    between atoms: C7_8  and  N1_11 
REMARK    5  A    between atoms: N1_11  and  C8_13 
REMARK    6  A    between atoms: C15_23  and  C16_24 
ROOT
HETATM    1  C2  UNL     1      -3.496  -0.917   0.167  1.00  0.00     0.080 A 
HETATM    2  C3  UNL     1      -3.591  -2.297   0.292  1.00  0.00     0.037 A 
HETATM    3  C4  UNL     1      -2.506  -3.097   0.584  1.00  0.00     0.003 A 
HETATM    4  C5  UNL     1      -1.289  -2.468   0.753  1.00  0.00     0.012 A 
HETATM    5  C6  UNL     1      -1.183  -1.088   0.630  1.00  0.00     0.004 A 
HETATM    6  C15 UNL     1      -2.276  -0.300   0.338  1.00  0.00     0.021 A 
ENDROOT
BRANCH   5   7
HETATM    7  C7  UNL     1       0.135  -0.428   0.814  1.00  0.00     0.256 C 
BRANCH   7   8
HETATM    8  O2  UNL     1       0.701  -1.016   1.970  1.00  0.00    -0.372 OA
ATOM      9  H2  UNL     1       1.544  -0.594   2.088  1.00  0.00     0.212 HD
ENDBRANCH   7   8
BRANCH   7  10
HETATM   10  N1  UNL     1       0.971  -0.800  -0.294  1.00  0.00    -0.325 N 
ATOM     11  H1  UNL     1       0.521  -1.240  -1.097  1.00  0.00     0.166 HD
BRANCH  10  12
HETATM   12  C8  UNL     1       2.230  -0.622  -0.350  1.00  0.00     0.227 A 
HETATM   13  N2  UNL     1       3.058  -0.069   0.563  1.00  0.00    -0.320 N 
HETATM   14  C9  UNL     1       4.334  -0.082   0.085  1.00  0.00     0.069 A 
ATOM     15  H2  UNL     1       2.772   0.301   1.470  1.00  0.00     0.169 HD
HETATM   16  C10 UNL     1       5.532   0.348   0.598  1.00  0.00     0.032 A 
HETATM   17  C14 UNL     1       4.223  -0.670  -1.160  1.00  0.00     0.106 A 
HETATM   18  C11 UNL     1       6.656   0.162  -0.204  1.00  0.00     0.002 A 
HETATM   19  C12 UNL     1       6.571  -0.422  -1.450  1.00  0.00     0.003 A 
HETATM   20  C13 UNL     1       5.345  -0.847  -1.943  1.00  0.00     0.040 A 
HETATM   21  O3  UNL     1       2.975  -0.969  -1.372  1.00  0.00    -0.277 OA
ENDBRANCH  10  12
ENDBRANCH   7  10
ENDBRANCH   5   7
BRANCH   6  22
HETATM   22  C16 UNL     1      -2.097   1.141   0.222  1.00  0.00     0.016 A 
HETATM   23  C17 UNL     1      -1.788   1.640  -1.027  1.00  0.00     0.018 A 
HETATM   24  C18 UNL     1      -1.604   2.991  -1.209  1.00  0.00     0.043 A 
HETATM   25  C19 UNL     1      -1.731   3.849  -0.136  1.00  0.00     0.119 A 
HETATM   26  F1  UNL     1      -1.550   5.196  -0.311  1.00  0.00    -0.206 F 
HETATM   27  C20 UNL     1      -2.040   3.345   1.110  1.00  0.00     0.085 A 
HETATM   28  C21 UNL     1      -2.226   1.997   1.308  1.00  0.00     0.130 A 
HETATM   29  F2  UNL     1      -2.528   1.446   2.494  1.00  0.00    -0.205 F 
ENDBRANCH   6  22
BRANCH   1  30
HETATM   30  O1  UNL     1      -4.589  -0.119  -0.126  1.00  0.00    -0.355 OA
HETATM   31  C1  UNL     1      -5.845  -0.768  -0.300  1.00  0.00     0.210 C 
ENDBRANCH   1  30
TORSDOF 6
