REMARK  3 active torsions:
REMARK  status: ('A' for Active; 'I' for Inactive)
REMARK    1  A    between atoms: C2_2  and  C3_3 
REMARK    2  A    between atoms: C4_6  and  S1_7 
REMARK    3  A    between atoms: S1_7  and  C5_8 
ROOT
HETATM    1  C5  UNL     1      -1.615   0.611  -0.109  1.00  0.00     0.078 A 
HETATM    2  C6  UNL     1      -2.870   1.191  -0.168  1.00  0.00     0.065 A 
HETATM    3  C7  UNL     1      -4.030   0.414  -0.146  1.00  0.00     0.069 A 
HETATM    4  N2  UNL     1      -5.299   1.028  -0.207  1.00  0.00    -0.101 NA
HETATM    5  C8  UNL     1      -3.928  -0.956  -0.064  1.00  0.00     0.069 A 
HETATM    6 BR1  UNL     1      -5.473  -2.066  -0.030  1.00  0.00    -0.046 Br
HETATM    7  C9  UNL     1      -2.670  -1.517  -0.006  1.00  0.00     0.100 A 
HETATM    8 BR2  UNL     1      -2.481  -3.430   0.110  1.00  0.00    -0.030 Br
HETATM    9  N3  UNL     1      -1.591  -0.723  -0.030  1.00  0.00    -0.344 N 
ATOM     10  H3  UNL     1      -0.677  -1.173   0.016  1.00  0.00     0.167 HD
ENDROOT
BRANCH   1  11
HETATM   11  S1  UNL     1      -0.199   1.668  -0.142  1.00  0.00    -0.053 SA
BRANCH  11  12
HETATM   12  C4  UNL     1       1.330   0.779  -0.059  1.00  0.00     0.093 A 
HETATM   13  N1  UNL     1       2.548   1.395  -0.071  1.00  0.00    -0.336 N 
HETATM   14  C3  UNL     1       3.500   0.454   0.003  1.00  0.00     0.104 A 
ATOM     15  H1  UNL     1       2.707   2.401  -0.127  1.00  0.00     0.168 HD
HETATM   16  N4  UNL     1       2.956  -0.751   0.063  1.00  0.00    -0.350 N 
HETATM   17  C10 UNL     1       1.601  -0.562   0.024  1.00  0.00     0.127 A 
ATOM     18  H4  UNL     1       3.448  -1.642   0.126  1.00  0.00     0.166 HD
BRANCH  14  19
HETATM   19  C2  UNL     1       4.950   0.688   0.019  1.00  0.00     0.038 C 
HETATM   20  C1  UNL     1       5.821  -0.283   0.093  1.00  0.00     0.015 C 
ENDBRANCH  14  19
ENDBRANCH  11  12
ENDBRANCH   1  11
TORSDOF 3
