REMARK  9 active torsions:
REMARK  status: ('A' for Active; 'I' for Inactive)
REMARK    1  A    between atoms: C2_2  and  O1_3 
REMARK    2  A    between atoms: N1_5  and  N2_7 
REMARK    3  A    between atoms: N2_7  and  C3_9 
REMARK    4  A    between atoms: C3_9  and  O2_10 
REMARK    5  A    between atoms: C3_9  and  N3_12 
REMARK    6  A    between atoms: N3_12  and  C4_13 
REMARK    7  A    between atoms: N3_12  and  C15_27 
REMARK    8  A    between atoms: C4_13  and  C5_14 
REMARK    9  A    between atoms: C5_14  and  C6_15 
ROOT
HETATM    1  N3  UNL     1       1.211  -0.873  -0.171  1.00  0.00    -0.341 N 
ENDROOT
BRANCH   1   2
HETATM    2  C3  UNL     1       2.209  -0.195   0.544  1.00  0.00     0.234 C 
BRANCH   2   3
HETATM    3  N2  UNL     1       3.520   0.114   0.169  1.00  0.00    -0.264 N 
ATOM      4  H2  UNL     1       3.871  -0.162  -0.748  1.00  0.00     0.190 HD
BRANCH   3   5
HETATM    5  N1  UNL     1       4.366   0.822   1.084  1.00  0.00    -0.281 N 
HETATM    6  C2  UNL     1       4.307   2.108   1.149  1.00  0.00     0.126 C 
HETATM    7  C1  UNL     1       5.180   2.869   2.097  1.00  0.00     0.098 C 
ATOM      8  H1  UNL     1       5.013   0.309   1.683  1.00  0.00     0.189 HD
BRANCH   6   9
HETATM    9  O1  UNL     1       3.424   2.778   0.329  1.00  0.00    -0.349 OA
ATOM     10  H1  UNL     1       2.870   2.295  -0.273  1.00  0.00     0.219 HD
ENDBRANCH   6   9
ENDBRANCH   3   5
ENDBRANCH   2   3
BRANCH   2  11
HETATM   11  O2  UNL     1       1.928   0.238   1.749  1.00  0.00    -0.331 OA
ATOM     12  H2  UNL     1       1.037   0.028   2.004  1.00  0.00     0.221 HD
ENDBRANCH   2  11
ENDBRANCH   1   2
BRANCH   1  13
HETATM   13  C4  UNL     1      -0.103  -0.903   0.445  1.00  0.00     0.146 C 
BRANCH  13  14
HETATM   14  C5  UNL     1      -1.157   0.066   0.018  1.00  0.00     0.085 C 
HETATM   15  C7  UNL     1      -1.798  -0.394  -1.253  1.00  0.00     0.005 C 
HETATM   16  C8  UNL     1      -3.036   0.328  -1.699  1.00  0.00     0.006 C 
HETATM   17  C14 UNL     1      -2.336  -1.800  -0.907  1.00  0.00     0.006 C 
HETATM   18  C9  UNL     1      -4.105   0.438  -0.652  1.00  0.00     0.001 C 
HETATM   19  C10 UNL     1      -3.561   0.488   0.746  1.00  0.00     0.010 C 
HETATM   20  C11 UNL     1      -2.328  -0.280   0.982  1.00  0.00    -0.026 C 
HETATM   21  C12 UNL     1      -1.948  -0.332   2.413  1.00  0.00     0.016 C 
HETATM   22  C13 UNL     1      -2.633  -1.714   0.530  1.00  0.00     0.011 C 
BRANCH  14  23
HETATM   23  C6  UNL     1      -0.831   1.495   0.104  1.00  0.00     0.398 C 
HETATM   24  F1  UNL     1       0.282   1.857  -0.670  1.00  0.00    -0.170 F 
HETATM   25  F2  UNL     1      -1.831   2.350  -0.443  1.00  0.00    -0.170 F 
HETATM   26  F3  UNL     1      -0.665   2.076   1.325  1.00  0.00    -0.170 F 
ENDBRANCH  14  23
ENDBRANCH  13  14
ENDBRANCH   1  13
BRANCH   1  27
HETATM   27  C15 UNL     1       1.470  -1.522  -1.404  1.00  0.00     0.088 A 
HETATM   28  C16 UNL     1       2.289  -1.016  -2.529  1.00  0.00     0.027 A 
HETATM   29  C17 UNL     1       2.762  -2.168  -1.783  1.00  0.00     0.027 A 
ENDBRANCH   1  27
TORSDOF 9
