REMARK  7 active torsions:
REMARK  status: ('A' for Active; 'I' for Inactive)
REMARK    1  A    between atoms: O1_2  and  C2_3 
REMARK    2  A    between atoms: C2_3  and  C3_4 
REMARK    3  A    between atoms: C3_4  and  C4_5 
REMARK    4  A    between atoms: C4_5  and  C5_6 
REMARK    5  A    between atoms: C8_11  and  C9_12 
REMARK    6  A    between atoms: C11_17  and  C12_18 
REMARK    7  A    between atoms: C18_24  and  N2_25 
ROOT
HETATM    1  N2  UNL     1       0.827  -1.772   0.173  1.00  0.00    -0.329 NA
HETATM    2  C19 UNL     1       0.823  -3.012   0.513  1.00  0.00     0.269 C 
HETATM    3  N3  UNL     1       0.868  -4.102   0.773  1.00  0.00    -0.156 NA
ENDROOT
BRANCH   1   4
HETATM    4  C18 UNL     1       0.808  -0.604  -0.144  1.00  0.00     0.141 A 
HETATM    5  C5  UNL     1       1.999   0.039  -0.446  1.00  0.00    -0.000 A 
HETATM    6  C6  UNL     1       1.923   1.361  -0.892  1.00  0.00     0.099 A 
HETATM    7  N1  UNL     1       0.751   1.944  -1.022  1.00  0.00    -0.364 N 
HETATM    8  C7  UNL     1      -0.426   1.349  -0.745  1.00  0.00     0.060 A 
ATOM      9  H1  UNL     1       0.732   2.908  -1.354  1.00  0.00     0.165 HD
HETATM   10  C8  UNL     1      -1.562   2.047  -0.995  1.00  0.00     0.076 A 
HETATM   11  C17 UNL     1      -0.439   0.049  -0.285  1.00  0.00     0.034 A 
HETATM   12  C10 UNL     1      -2.792   1.388  -0.731  1.00  0.00     0.026 A 
HETATM   13  C11 UNL     1      -2.831   0.098  -0.234  1.00  0.00    -0.049 A 
HETATM   14  C16 UNL     1      -1.646  -0.581  -0.018  1.00  0.00     0.025 A 
BRANCH   5  15
HETATM   15  C4  UNL     1       3.312  -0.576  -0.464  1.00  0.00     0.045 C 
BRANCH  15  16
HETATM   16  C3  UNL     1       3.925  -0.977   0.891  1.00  0.00     0.031 C 
BRANCH  16  17
HETATM   17  C2  UNL     1       5.369  -1.391   0.476  1.00  0.00     0.167 C 
BRANCH  17  18
HETATM   18  O1  UNL     1       6.018  -0.312  -0.068  1.00  0.00    -0.396 OA
HETATM   19  C1  UNL     1       6.321   0.637   0.865  1.00  0.00     0.201 C 
ENDBRANCH  17  18
ENDBRANCH  16  17
ENDBRANCH  15  16
ENDBRANCH   5  15
BRANCH  10  20
HETATM   20  C9  UNL     1      -1.678   3.425  -1.534  1.00  0.00     0.419 C 
HETATM   21  F1  UNL     1      -1.223   4.403  -0.687  1.00  0.00    -0.166 F 
HETATM   22  F2  UNL     1      -3.013   3.653  -1.915  1.00  0.00    -0.166 F 
HETATM   23  F3  UNL     1      -1.005   3.531  -2.788  1.00  0.00    -0.166 F 
ENDBRANCH  10  20
BRANCH  13  24
HETATM   24  C12 UNL     1      -4.097  -0.506   0.219  1.00  0.00    -0.024 C 
HETATM   25  C13 UNL     1      -3.916  -0.629   1.742  1.00  0.00     0.019 C 
HETATM   26  C14 UNL     1      -4.262  -1.966  -0.301  1.00  0.00     0.019 C 
HETATM   27  C15 UNL     1      -5.326   0.211  -0.035  1.00  0.00     0.019 C 
ENDBRANCH  13  24
ENDBRANCH   1   4
TORSDOF 7
