REMARK  6 active torsions:
REMARK  status: ('A' for Active; 'I' for Inactive)
REMARK    1  A    between atoms: C4_4  and  C5_5 
REMARK    2  A    between atoms: N1_11  and  C8_12 
REMARK    3  A    between atoms: C8_12  and  C9_13 
REMARK    4  A    between atoms: C9_13  and  N2_14 
REMARK    5  A    between atoms: C11_16  and  C12_17 
REMARK    6  A    between atoms: C18_23  and  N3_24 
ROOT
HETATM    1  N2  UNL     1      -0.872   0.856   0.601  1.00  0.00    -0.340 N 
HETATM    2  C10 UNL     1      -1.771  -0.096   0.382  1.00  0.00     0.101 A 
HETATM    3  C11 UNL     1      -2.998   0.456  -0.005  1.00  0.00    -0.021 A 
HETATM    4  C17 UNL     1      -2.777   1.822  -0.005  1.00  0.00     0.060 A 
HETATM    5  C18 UNL     1      -3.547   2.924  -0.287  1.00  0.00     0.114 A 
HETATM    6  N4  UNL     1      -3.017   4.174  -0.192  1.00  0.00    -0.338 N 
ATOM      7  H4  UNL     1      -3.592   4.990  -0.401  1.00  0.00     0.168 HD
HETATM    8  C19 UNL     1      -1.751   4.329   0.173  1.00  0.00     0.183 A 
HETATM    9  N5  UNL     1      -0.961   3.306   0.456  1.00  0.00    -0.338 N 
ATOM     10  H5  UNL     1       0.008   3.464   0.734  1.00  0.00     0.168 HD
HETATM   11  C20 UNL     1      -1.453   2.047   0.373  1.00  0.00     0.123 A 
ENDROOT
BRANCH   1  12
HETATM   12  C9  UNL     1       0.505   0.672   1.011  1.00  0.00     0.160 C 
BRANCH  12  13
HETATM   13  C8  UNL     1       1.361   0.532  -0.203  1.00  0.00     0.293 C 
BRANCH  13  14
HETATM   14  N1  UNL     1       2.764   0.357   0.047  1.00  0.00     0.094 N 
HETATM   15  C2  UNL     1       2.982  -0.929   0.664  1.00  0.00     0.219 C 
HETATM   16  C1  UNL     1       3.100  -0.806   2.175  1.00  0.00     0.043 C 
HETATM   17  C3  UNL     1       4.199  -1.637   0.155  1.00  0.00     0.049 C 
HETATM   18  C4  UNL     1       5.360  -0.657  -0.038  1.00  0.00     0.097 C 
HETATM   19  C6  UNL     1       4.957   0.393  -1.065  1.00  0.00     0.044 C 
HETATM   20  C7  UNL     1       3.452   0.376  -1.226  1.00  0.00     0.273 C 
BRANCH  18  21
HETATM   21  C5  UNL     1       6.544  -1.452  -0.484  1.00  0.00     0.391 C 
HETATM   22  F1  UNL     1       6.837  -2.385   0.498  1.00  0.00    -0.171 F 
HETATM   23  F2  UNL     1       6.319  -2.129  -1.667  1.00  0.00    -0.171 F 
HETATM   24  F3  UNL     1       7.680  -0.668  -0.621  1.00  0.00    -0.171 F 
ENDBRANCH  18  21
ENDBRANCH  13  14
ENDBRANCH  12  13
ENDBRANCH   1  12
BRANCH   3  25
HETATM   25  C12 UNL     1      -4.234  -0.285  -0.317  1.00  0.00     0.021 C 
HETATM   26  C13 UNL     1      -3.831  -1.785  -0.394  1.00  0.00     0.009 C 
HETATM   27  C14 UNL     1      -5.190  -2.450  -0.462  1.00  0.00     0.001 C 
HETATM   28  C15 UNL     1      -6.058  -1.567   0.436  1.00  0.00     0.001 C 
HETATM   29  C16 UNL     1      -5.183  -0.406   0.864  1.00  0.00     0.009 C 
ENDBRANCH   3  25
BRANCH   5  30
HETATM   30  N3  UNL     1      -4.736   2.836  -0.645  1.00  0.00    -0.385 N 
ATOM     31  H32 UNL     1      -5.133   1.899  -0.716  1.00  0.00     0.157 HD
ATOM     32  H31 UNL     1      -5.308   3.654  -0.854  1.00  0.00     0.157 HD
ENDBRANCH   5  30
TORSDOF 6
