REMARK  6 active torsions:
REMARK  status: ('A' for Active; 'I' for Inactive)
REMARK    1  A    between atoms: N2_8  and  C7_9 
REMARK    2  A    between atoms: C7_9  and  C8_10 
REMARK    3  A    between atoms: C8_10  and  C9_11 
REMARK    4  A    between atoms: C9_11  and  N3_12 
REMARK    5  A    between atoms: C10_13  and  O1_14 
REMARK    6  A    between atoms: C13_18  and  O2_19 
ROOT
HETATM    1  N3  UNL     1       1.810  -1.307   0.043  1.00  0.00    -0.308 N 
HETATM    2  C10 UNL     1       2.308  -0.391   0.892  1.00  0.00     0.151 A 
HETATM    3  C11 UNL     1       3.314   0.316   0.281  1.00  0.00     0.008 A 
HETATM    4  C12 UNL     1       3.428  -0.196  -0.986  1.00  0.00     0.014 A 
HETATM    5  C13 UNL     1       2.493  -1.195  -1.109  1.00  0.00     0.151 A 
HETATM    6  C14 UNL     1       4.511   0.529  -1.713  1.00  0.00     0.096 C 
HETATM    7  C15 UNL     1       4.492   1.871  -0.999  1.00  0.00     0.025 C 
HETATM    8  C16 UNL     1       4.337   1.411   0.431  1.00  0.00     0.025 C 
HETATM    9  C17 UNL     1       5.616   0.800   0.900  1.00  0.00     0.015 C 
HETATM   10  C18 UNL     1       6.532   0.402  -0.224  1.00  0.00     0.080 C 
HETATM   11  C19 UNL     1       5.803  -0.166  -1.417  1.00  0.00     0.251 C 
HETATM   12  F1  UNL     1       6.644   0.050  -2.520  1.00  0.00    -0.206 F 
HETATM   13  F2  UNL     1       5.671  -1.539  -1.328  1.00  0.00    -0.206 F 
ENDROOT
BRANCH   1  14
HETATM   14  C9  UNL     1       0.747  -2.246   0.302  1.00  0.00     0.135 C 
BRANCH  14  15
HETATM   15  C8  UNL     1      -0.627  -1.778  -0.067  1.00  0.00     0.040 C 
BRANCH  15  16
HETATM   16  C7  UNL     1      -1.021  -0.521   0.664  1.00  0.00     0.128 C 
BRANCH  16  17
HETATM   17  N2  UNL     1      -2.329  -0.072   0.376  1.00  0.00    -0.372 N 
HETATM   18  C6  UNL     1      -2.675   0.431  -0.861  1.00  0.00     0.093 C 
HETATM   19  C5  UNL     1      -3.827   1.404  -0.891  1.00  0.00     0.316 C 
HETATM   20  N1  UNL     1      -5.110   0.771  -0.650  1.00  0.00     0.089 N 
HETATM   21  C3  UNL     1      -5.373   0.626   0.790  1.00  0.00     0.281 C 
HETATM   22  C4  UNL     1      -6.206   1.596  -1.140  1.00  0.00     0.310 C 
HETATM   23  C2  UNL     1      -4.537  -0.463   1.372  1.00  0.00     0.048 C 
HETATM   24  C1  UNL     1      -4.635  -1.692   0.519  1.00  0.00     0.017 C 
HETATM   25  C20 UNL     1      -3.129   0.069   1.512  1.00  0.00     0.069 C 
ENDBRANCH  16  17
ENDBRANCH  15  16
ENDBRANCH  14  15
ENDBRANCH   1  14
BRANCH   2  26
HETATM   26  O1  UNL     1       1.929  -0.119   2.213  1.00  0.00    -0.345 OA
ATOM     27  H1  UNL     1       2.281   0.528   2.813  1.00  0.00     0.219 HD
ENDBRANCH   2  26
BRANCH   5  28
HETATM   28  O2  UNL     1       2.286  -1.977  -2.273  1.00  0.00    -0.345 OA
ATOM     29  H2  UNL     1       2.769  -1.898  -3.087  1.00  0.00     0.219 HD
ENDBRANCH   5  28
TORSDOF 6
