REMARK  7 active torsions:
REMARK  status: ('A' for Active; 'I' for Inactive)
REMARK    1  A    between atoms: O1_1  and  C1_3 
REMARK    2  A    between atoms: C4_6  and  N1_7 
REMARK    3  A    between atoms: C7_10  and  O2_11 
REMARK    4  A    between atoms: C10_15  and  C11_16 
REMARK    5  A    between atoms: C11_16  and  C12_17 
REMARK    6  A    between atoms: N2_23  and  C15_24 
REMARK    7  A    between atoms: C15_24  and  C16_25 
ROOT
HETATM    1  C1  UNL     1       1.690  -2.486   1.775  1.00  0.00     0.073 A 
HETATM    2  C2  UNL     1       3.067  -2.449   2.026  1.00  0.00     0.039 A 
HETATM    3  C3  UNL     1       3.861  -1.568   1.337  1.00  0.00     0.032 A 
HETATM    4  C4  UNL     1       3.315  -0.718   0.400  1.00  0.00     0.030 A 
HETATM    5  C9  UNL     1       1.961  -0.792   0.187  1.00  0.00     0.040 A 
HETATM    6  C10 UNL     1       1.108  -1.677   0.867  1.00  0.00    -0.004 A 
ENDROOT
BRANCH   6   7
HETATM    7  C11 UNL     1      -0.322  -1.741   0.501  1.00  0.00     0.105 C 
HETATM    8  C13 UNL     1      -1.187  -1.690   1.764  1.00  0.00     0.045 C 
HETATM    9  C14 UNL     1      -2.467  -1.007   1.263  1.00  0.00     0.123 C 
HETATM   10  N2  UNL     1      -2.132  -0.259   0.137  1.00  0.00    -0.392 N 
HETATM   11  C21 UNL     1      -0.789  -0.538  -0.259  1.00  0.00     0.145 C 
BRANCH   7  12
HETATM   12  C12 UNL     1      -0.650  -3.032  -0.163  1.00  0.00     0.401 C 
HETATM   13  F1  UNL     1      -2.004  -3.095  -0.520  1.00  0.00    -0.170 F 
HETATM   14  F2  UNL     1      -0.410  -4.187   0.505  1.00  0.00    -0.170 F 
HETATM   15  F3  UNL     1       0.054  -3.150  -1.382  1.00  0.00    -0.170 F 
ENDBRANCH   7  12
BRANCH  10  16
HETATM   16  C15 UNL     1      -3.068   0.060  -0.839  1.00  0.00     0.062 C 
BRANCH  16  17
HETATM   17  C16 UNL     1      -4.160   1.011  -0.561  1.00  0.00     0.024 C 
HETATM   18  C17 UNL     1      -5.122   0.656   0.541  1.00  0.00     0.010 C 
HETATM   19  C18 UNL     1      -6.063   1.885   0.418  1.00  0.00     0.001 C 
HETATM   20  C19 UNL     1      -5.012   2.999   0.469  1.00  0.00     0.001 C 
HETATM   21  C20 UNL     1      -3.734   2.396  -0.126  1.00  0.00     0.010 C 
ENDBRANCH  16  17
ENDBRANCH  10  16
ENDBRANCH   6   7
BRANCH   1  22
HETATM   22  O1  UNL     1       1.000  -3.412   2.543  1.00  0.00    -0.360 OA
ATOM     23  H1  UNL     1       0.066  -3.437   2.373  1.00  0.00     0.217 HD
ENDBRANCH   1  22
BRANCH   4  24
HETATM   24  N1  UNL     1       4.125   0.206  -0.325  1.00  0.00    -0.378 N 
HETATM   25  C5  UNL     1       5.550   0.338  -0.152  1.00  0.00     0.125 C 
HETATM   26  C6  UNL     1       5.974   1.530  -0.979  1.00  0.00     0.053 C 
HETATM   27  C7  UNL     1       4.705   2.193  -1.471  1.00  0.00     0.137 C 
HETATM   28  C8  UNL     1       3.640   1.130  -1.323  1.00  0.00     0.154 C 
BRANCH  27  29
HETATM   29  O2  UNL     1       4.792   2.513  -2.825  1.00  0.00    -0.394 OA
ATOM     30  H2  UNL     1       3.996   2.929  -3.134  1.00  0.00     0.210 HD
ENDBRANCH  27  29
ENDBRANCH   4  24
TORSDOF 7
