REMARK  1 active torsions:
REMARK  status: ('A' for Active; 'I' for Inactive)
REMARK    1  A    between atoms: C17_20  and  O4_22 
ROOT
HETATM    1  C1  UNL     1       2.136   2.160  -0.671  1.00  0.00     0.043 C 
HETATM    2  C2  UNL     1       1.931   1.780   0.755  1.00  0.00     0.157 C 
HETATM    3  O1  UNL     1       0.617   1.807   1.207  1.00  0.00    -0.314 OA
HETATM    4  C3  UNL     1      -0.448   2.526   0.768  1.00  0.00     0.259 C 
HETATM    5  O2  UNL     1      -1.076   3.402   1.459  1.00  0.00    -0.265 OA
HETATM    6  C4  UNL     1      -0.959   2.315  -0.608  1.00  0.00     0.111 C 
HETATM    7  C5  UNL     1      -2.385   2.729  -0.785  1.00  0.00     0.010 C 
HETATM    8  C6  UNL     1      -3.379   2.052   0.076  1.00  0.00     0.000 C 
HETATM    9  C7  UNL     1      -2.976   0.714   0.613  1.00  0.00     0.000 C 
HETATM   10  C8  UNL     1      -4.028  -0.347   0.368  1.00  0.00     0.000 C 
HETATM   11  C9  UNL     1      -3.707  -1.290  -0.727  1.00  0.00     0.000 C 
HETATM   12  C10 UNL     1      -2.280  -1.720  -0.827  1.00  0.00     0.000 C 
HETATM   13  C11 UNL     1      -1.771  -2.413   0.419  1.00  0.00     0.000 C 
HETATM   14  C12 UNL     1      -0.386  -2.943   0.163  1.00  0.00     0.000 C 
HETATM   15  C13 UNL     1       0.506  -1.824  -0.252  1.00  0.00     0.001 C 
HETATM   16  C14 UNL     1       1.850  -1.834   0.478  1.00  0.00     0.013 C 
HETATM   17  C15 UNL     1       2.567  -0.561   0.048  1.00  0.00     0.079 C 
HETATM   18  C16 UNL     1       2.628   0.476   1.107  1.00  0.00     0.163 C 
HETATM   19  O3  UNL     1       3.993   0.633   0.928  1.00  0.00    -0.347 OA
HETATM   20  C17 UNL     1       4.054  -0.639   0.415  1.00  0.00     0.164 C 
HETATM   21  C18 UNL     1       4.884  -0.740  -0.847  1.00  0.00     0.079 C 
ENDROOT
BRANCH  20  22
HETATM   22  O4  UNL     1       4.314  -1.604   1.375  1.00  0.00    -0.365 OA
ATOM     23  H4  UNL     1       5.235  -1.652   1.602  1.00  0.00     0.213 HD
ENDBRANCH  20  22
TORSDOF 1
