REMARK  3 active torsions:
REMARK  status: ('A' for Active; 'I' for Inactive)
REMARK    1  A    between atoms: C3_6  and  C4_7 
REMARK    2  A    between atoms: C11_15  and  C12_16 
REMARK    3  A    between atoms: C12_16  and  O2_17 
ROOT
HETATM    1  C4  UNL     1       2.680   0.025  -0.246  1.00  0.00     0.059 A 
HETATM    2  C5  UNL     1       1.353   0.369  -0.191  1.00  0.00     0.032 A 
HETATM    3  C6  UNL     1       0.445  -0.617  -0.397  1.00  0.00    -0.036 A 
HETATM    4  C7  UNL     1       0.967  -1.867  -0.642  1.00  0.00    -0.010 A 
HETATM    5  S1  UNL     1       2.653  -1.643  -0.579  1.00  0.00    -0.090 SA
HETATM    6  C8  UNL     1       0.019  -3.020  -0.895  1.00  0.00     0.046 C 
HETATM    7  C9  UNL     1      -0.905  -3.044   0.274  1.00  0.00     0.006 C 
HETATM    8  C10 UNL     1      -1.449  -1.681   0.635  1.00  0.00     0.013 C 
HETATM    9  C11 UNL     1      -1.063  -0.678  -0.429  1.00  0.00     0.061 C 
ENDROOT
BRANCH   9  10
HETATM   10  C12 UNL     1      -1.796   0.590  -0.386  1.00  0.00     0.125 C 
HETATM   11  C13 UNL     1      -3.192   0.296  -0.963  1.00  0.00     0.047 C 
HETATM   12  C14 UNL     1      -4.312   0.331  -0.018  1.00  0.00     0.004 C 
HETATM   13  C15 UNL     1      -4.223   1.403   1.046  1.00  0.00     0.008 C 
HETATM   14  C16 UNL     1      -2.944   1.044   1.826  1.00  0.00     0.081 C 
HETATM   15  C17 UNL     1      -1.866   1.388   0.814  1.00  0.00     0.161 C 
HETATM   16  O3  UNL     1      -1.181   2.322   1.156  1.00  0.00    -0.295 OA
BRANCH  10  17
HETATM   17  O2  UNL     1      -1.218   1.384  -1.420  1.00  0.00    -0.381 OA
ATOM     18  H2  UNL     1      -1.693   2.206  -1.392  1.00  0.00     0.211 HD
ENDBRANCH  10  17
ENDBRANCH   9  10
BRANCH   1  19
HETATM   19  C3  UNL     1       3.849   0.898  -0.059  1.00  0.00     0.189 A 
HETATM   20  O1  UNL     1       3.842   2.163   0.194  1.00  0.00    -0.217 OA
HETATM   21  N1  UNL     1       5.077   2.616   0.298  1.00  0.00    -0.247 N 
HETATM   22  C2  UNL     1       5.933   1.592   0.102  1.00  0.00     0.100 A 
ATOM     23  H1  UNL     1       5.341   3.582   0.494  1.00  0.00     0.196 HD
HETATM   24  C1  UNL     1       7.418   1.568   0.113  1.00  0.00     0.091 C 
HETATM   25  N2  UNL     1       5.124   0.515  -0.122  1.00  0.00    -0.323 N 
ATOM     26  H2  UNL     1       5.445  -0.435  -0.309  1.00  0.00     0.169 HD
ENDBRANCH   1  19
TORSDOF 3
