REMARK  2 active torsions:
REMARK  status: ('A' for Active; 'I' for Inactive)
REMARK    1  A    between atoms: C3_3  and  C4_4 
REMARK    2  A    between atoms: C7_12  and  C8_13 
ROOT
HETATM    1  C4  UNL     1       0.067   0.103   0.577  1.00  0.00     0.083 A 
HETATM    2  N1  UNL     1       0.763  -1.004   0.425  1.00  0.00    -0.345 N 
ATOM      3  H1  UNL     1       0.288  -1.907   0.439  1.00  0.00     0.166 HD
HETATM    4  C5  UNL     1       2.055  -0.955   0.257  1.00  0.00     0.136 A 
HETATM    5  C6  UNL     1       2.927  -2.051   0.082  1.00  0.00     0.276 A 
HETATM    6  O1  UNL     1       2.498  -3.233   0.074  1.00  0.00    -0.266 OA
HETATM    7  N2  UNL     1       4.224  -1.802  -0.076  1.00  0.00    -0.311 N 
ATOM      8  H2  UNL     1       4.832  -2.612  -0.200  1.00  0.00     0.170 HD
HETATM    9  C7  UNL     1       4.812  -0.610  -0.089  1.00  0.00     0.089 A 
HETATM   10  N3  UNL     1       3.989   0.451   0.077  1.00  0.00    -0.338 N 
ATOM     11  H3  UNL     1       4.377   1.394   0.076  1.00  0.00     0.168 HD
HETATM   12  C11 UNL     1       2.650   0.276   0.245  1.00  0.00     0.110 A 
HETATM   13  S1  UNL     1       1.290   1.303   0.480  1.00  0.00    -0.054 SA
ENDROOT
BRANCH   1  14
HETATM   14  C3  UNL     1      -1.400   0.210   0.776  1.00  0.00     0.183 C 
HETATM   15  C2  UNL     1      -2.014  -1.101   0.311  1.00  0.00     0.024 C 
HETATM   16  C1  UNL     1      -1.460  -1.542  -1.024  1.00  0.00     0.013 C 
HETATM   17  C17 UNL     1      -3.431  -0.581   0.002  1.00  0.00     0.021 C 
HETATM   18  C12 UNL     1      -3.045   0.720  -0.679  1.00  0.00     0.127 C 
HETATM   19  C16 UNL     1      -4.106  -0.386   1.323  1.00  0.00     0.007 C 
HETATM   20  O2  UNL     1      -1.970   1.206   0.008  1.00  0.00    -0.373 OA
HETATM   21  C13 UNL     1      -4.175   1.672  -0.841  1.00  0.00     0.032 C 
HETATM   22  C14 UNL     1      -5.341   1.228  -0.009  1.00  0.00     0.002 C 
HETATM   23  C15 UNL     1      -4.866   0.917   1.406  1.00  0.00     0.001 C 
ENDBRANCH   1  14
BRANCH   9  24
HETATM   24  C8  UNL     1       6.269  -0.406  -0.271  1.00  0.00     0.053 A 
HETATM   25  C9  UNL     1       6.986   0.622   0.550  1.00  0.00     0.013 A 
HETATM   26  C10 UNL     1       6.767   0.862  -0.899  1.00  0.00     0.013 A 
ENDBRANCH   9  24
TORSDOF 2
