REMARK  6 active torsions:
REMARK  status: ('A' for Active; 'I' for Inactive)
REMARK    1  A    between atoms: C2_2  and  C4_4 
REMARK    2  A    between atoms: C9_9  and  C11_11 
REMARK    3  A    between atoms: C11_11  and  O1_12 
REMARK    4  A    between atoms: C14_16  and  C15_17 
REMARK    5  A    between atoms: C16_18  and  C17_19 
REMARK    6  A    between atoms: C17_19  and  O2_20 
ROOT
HETATM    1  C4  UNL     1       1.780   0.302  -0.711  1.00  0.00    -0.010 C 
HETATM    2  C5  UNL     1       0.770   0.891  -1.840  1.00  0.00     0.010 C 
HETATM    3  C6  UNL     1      -0.260  -0.055  -1.412  1.00  0.00    -0.006 C 
HETATM    4  C7  UNL     1      -0.585  -1.179  -1.944  1.00  0.00     0.006 C 
HETATM    5  C8  UNL     1      -1.671  -1.959  -1.173  1.00  0.00     0.012 C 
HETATM    6  C9  UNL     1      -1.007  -2.045   0.245  1.00  0.00    -0.018 C 
HETATM    7  C10 UNL     1      -0.093  -3.260   0.187  1.00  0.00     0.018 C 
HETATM    8  C12 UNL     1      -0.240  -0.803   0.636  1.00  0.00     0.004 C 
HETATM    9  C13 UNL     1       1.192  -0.675   0.197  1.00  0.00     0.011 C 
HETATM   10  C14 UNL     1      -0.881   0.399  -0.110  1.00  0.00     0.017 C 
ENDROOT
BRANCH  10  11
HETATM   11  C15 UNL     1      -2.217   0.735   0.034  1.00  0.00    -0.023 C 
HETATM   12  C16 UNL     1      -2.714   1.900   0.466  1.00  0.00    -0.005 C 
BRANCH  12  13
HETATM   13  C17 UNL     1      -1.863   3.020   0.857  1.00  0.00     0.191 C 
BRANCH  13  14
HETATM   14  O2  UNL     1      -2.055   3.397   2.198  1.00  0.00    -0.397 OA
ATOM     15  H2  UNL     1      -1.501   4.126   2.452  1.00  0.00     0.209 HD
ENDBRANCH  13  14
ENDBRANCH  12  13
ENDBRANCH  10  11
BRANCH   6  16
HETATM   16  C11 UNL     1      -2.079  -2.371   1.235  1.00  0.00     0.173 C 
BRANCH  16  17
HETATM   17  O1  UNL     1      -2.666  -3.592   0.895  1.00  0.00    -0.400 OA
ATOM     18  H1  UNL     1      -3.347  -3.799   1.524  1.00  0.00     0.209 HD
ENDBRANCH  16  17
ENDBRANCH   6  16
BRANCH   1  19
HETATM   19  C2  UNL     1       2.404   1.472  -0.099  1.00  0.00    -0.019 C 
HETATM   20  C1  UNL     1       3.173   2.260  -1.197  1.00  0.00     0.010 C 
HETATM   21  C3  UNL     1       3.491   1.130   0.910  1.00  0.00     0.010 C 
ENDBRANCH   1  19
TORSDOF 6
