REMARK  3 active torsions:
REMARK  status: ('A' for Active; 'I' for Inactive)
REMARK    1  A    between atoms: O1_1  and  C1_3 
REMARK    2  A    between atoms: C3_6  and  N1_7 
REMARK    3  A    between atoms: N1_7  and  N2_9 
ROOT
HETATM    1  N1  UNL     1       0.942   0.489  -0.996  1.00  0.00    -0.304 N 
ATOM      2  H1  UNL     1       0.802   1.144  -1.765  1.00  0.00     0.183 HD
ENDROOT
BRANCH   1   3
HETATM    3  C3  UNL     1      -0.084  -0.458  -0.636  1.00  0.00     0.225 C 
HETATM    4  S1  UNL     1      -1.542  -0.316  -1.676  1.00  0.00    -0.129 SA
HETATM    5  C2  UNL     1      -2.852   0.174  -0.531  1.00  0.00     0.119 C 
HETATM    6  C1  UNL     1      -2.499  -0.377   0.812  1.00  0.00     0.191 C 
HETATM    7  S2  UNL     1      -0.735   0.061   0.998  1.00  0.00    -0.100 SA
BRANCH   6   8
HETATM    8  O1  UNL     1      -2.574  -1.766   0.814  1.00  0.00    -0.384 OA
ATOM      9  H1  UNL     1      -2.350  -2.116   1.668  1.00  0.00     0.211 HD
ENDBRANCH   6   8
ENDBRANCH   1   3
BRANCH   1  10
HETATM   10  N2  UNL     1       2.132   0.488  -0.266  1.00  0.00    -0.247 N 
HETATM   11  C4  UNL     1       2.465  -0.299   0.757  1.00  0.00     0.223 A 
HETATM   12  N3  UNL     1       3.698   0.020   1.179  1.00  0.00    -0.293 N 
HETATM   13  N4  UNL     1       4.151   1.003   0.432  1.00  0.00    -0.293 N 
ATOM     14  H3  UNL     1       4.199  -0.424   1.948  1.00  0.00     0.187 HD
HETATM   15  C5  UNL     1       3.204   1.307  -0.464  1.00  0.00     0.223 A 
ATOM     16  H4  UNL     1       5.062   1.454   0.520  1.00  0.00     0.187 HD
ENDBRANCH   1  10
TORSDOF 3
