REMARK  3 active torsions:
REMARK  status: ('A' for Active; 'I' for Inactive)
REMARK    1  A    between atoms: O1_1  and  C1_3 
REMARK    2  A    between atoms: C1_3  and  C2_4 
REMARK    3  A    between atoms: C3_7  and  N1_8 
ROOT
HETATM    1  C2  UNL     1       1.876  -0.606   0.068  1.00  0.00     0.325 C 
HETATM    2  O2  UNL     1       1.435  -1.470   1.073  1.00  0.00    -0.201 OA
HETATM    3  O3  UNL     1       0.194  -1.117   1.338  1.00  0.00    -0.182 OA
HETATM    4  C3  UNL     1      -0.265  -0.845   0.027  1.00  0.00     0.416 C 
HETATM    5  O4  UNL     1       0.707   0.021  -0.420  1.00  0.00    -0.306 OA
ENDROOT
BRANCH   4   6
HETATM    6  N1  UNL     1      -1.589  -0.327   0.017  1.00  0.00    -0.265 N 
HETATM    7  C4  UNL     1      -2.695  -1.076   0.013  1.00  0.00     0.207 A 
HETATM    8  N2  UNL     1      -3.751  -0.233   0.004  1.00  0.00    -0.294 N 
HETATM    9  N3  UNL     1      -3.289   1.002   0.002  1.00  0.00    -0.275 N 
ATOM     10  H2  UNL     1      -4.734  -0.505  -0.000  1.00  0.00     0.187 HD
HETATM   11  C5  UNL     1      -1.947   0.953   0.010  1.00  0.00     0.197 A 
ATOM     12  H3  UNL     1      -3.855   1.851  -0.005  1.00  0.00     0.189 HD
HETATM   13  S1  UNL     1      -1.010   2.292   0.011  1.00  0.00    -0.039 SA
ENDBRANCH   4   6
BRANCH   1  14
HETATM   14  C1  UNL     1       2.826   0.423   0.667  1.00  0.00     0.228 C 
BRANCH  14  15
HETATM   15  O1  UNL     1       3.234   1.253  -0.364  1.00  0.00    -0.396 OA
ATOM     16  H1  UNL     1       3.827   1.895   0.010  1.00  0.00     0.209 HD
ENDBRANCH  14  15
ENDBRANCH   1  14
TORSDOF 3
