REMARK  2 active torsions:
REMARK  status: ('A' for Active; 'I' for Inactive)
REMARK    1  A    between atoms: N1_2  and  N2_4 
REMARK    2  A    between atoms: C1_6  and  C2_7 
ROOT
HETATM    1  C2  UNL     1       0.263   0.667  -0.028  1.00  0.00    -0.016 A 
HETATM    2  C3  UNL     1      -0.636   1.702   0.121  1.00  0.00     0.016 A 
HETATM    3  C4  UNL     1      -2.008   1.479   0.131  1.00  0.00     0.040 A 
HETATM    4  C5  UNL     1      -2.519   0.204  -0.010  1.00  0.00     0.105 A 
HETATM    5  C6  UNL     1      -1.632  -0.841  -0.160  1.00  0.00     0.105 A 
HETATM    6  C7  UNL     1      -0.271  -0.599  -0.167  1.00  0.00     0.052 A 
HETATM    7  O3  UNL     1      -2.415  -1.983  -0.277  1.00  0.00    -0.323 OA
HETATM    8  C8  UNL     1      -3.716  -1.709   0.270  1.00  0.00     0.352 C 
HETATM    9  O4  UNL     1      -3.826  -0.321  -0.039  1.00  0.00    -0.323 OA
ENDROOT
BRANCH   1  10
HETATM   10  C1  UNL     1       1.705   0.878  -0.041  1.00  0.00     0.124 C 
HETATM   11  N2  UNL     1       2.514  -0.101  -0.181  1.00  0.00    -0.252 N 
ATOM     12  H2  UNL     1       2.096  -1.026  -0.282  1.00  0.00     0.192 HD
BRANCH  11  13
HETATM   13  N1  UNL     1       3.875  -0.042  -0.210  1.00  0.00    -0.039 N 
HETATM   14  O1  UNL     1       4.544  -0.018  -1.376  1.00  0.00    -0.516 OA
HETATM   15  O2  UNL     1       4.582  -0.008   0.933  1.00  0.00    -0.516 OA
ENDBRANCH  11  13
ENDBRANCH   1  10
TORSDOF 2
