REMARK  3 active torsions:
REMARK  status: ('A' for Active; 'I' for Inactive)
REMARK    1  A    between atoms: C2_7  and  O2_8 
REMARK    2  A    between atoms: C2_7  and  C3_10 
REMARK    3  A    between atoms: C3_10  and  O3_11 
ROOT
HETATM    1  O1  UNL     1      -0.330  -1.754   1.341  1.00  0.00    -0.280 OA
HETATM    2  C1  UNL     1       0.487  -1.000   0.857  1.00  0.00     0.245 C 
HETATM    3  S1  UNL     1       2.201  -1.472   0.969  1.00  0.00    -0.003 SA
HETATM    4  S2  UNL     1       3.249  -0.577  -0.669  1.00  0.00    -0.005 SA
HETATM    5  S3  UNL     1       2.794   1.508  -0.574  1.00  0.00    -0.009 SA
HETATM    6  S4  UNL     1       1.068   1.666   0.671  1.00  0.00    -0.036 SA
HETATM    7  C2  UNL     1       0.006   0.240   0.216  1.00  0.00     0.210 C 
ENDROOT
BRANCH   7   8
HETATM    8  O2  UNL     1       0.055   0.069  -1.164  1.00  0.00    -0.369 OA
ATOM      9  H2  UNL     1      -0.254   0.867  -1.576  1.00  0.00     0.212 HD
ENDBRANCH   7   8
BRANCH   7  10
HETATM   10  C3  UNL     1      -1.386   0.583   0.619  1.00  0.00     0.223 C 
BRANCH  10  11
HETATM   11  O3  UNL     1      -2.251  -0.449   0.245  1.00  0.00    -0.397 OA
ATOM     12  H3  UNL     1      -3.139  -0.230   0.502  1.00  0.00     0.209 HD
ENDBRANCH  10  11
ENDBRANCH   7  10
TORSDOF 3
