REMARK  2 active torsions:
REMARK  status: ('A' for Active; 'I' for Inactive)
REMARK    1  A    between atoms: C2_5  and  N2_6 
REMARK       I    between atoms: N2_6  and  C3_8 
REMARK       I    between atoms: C3_8  and  N4_12 
REMARK    2  A    between atoms: N4_12  and  N5_14 
ROOT
HETATM    1  N2  UNL     1       0.090  -1.534   0.672  1.00  0.00    -0.168 N 
ATOM      2  H2  UNL     1       0.390  -2.381   1.155  1.00  0.00     0.186 HD
HETATM    3  C3  UNL     1       1.038  -0.869  -0.102  1.00  0.00     0.697 C 
HETATM    4  N3  UNL     1       1.041  -0.952  -1.379  1.00  0.00    -0.233 N 
ATOM      5  H31 UNL     1       1.735  -0.465  -1.946  1.00  0.00     0.174 HD
ATOM      6  H32 UNL     1       0.323  -1.524  -1.824  1.00  0.00     0.174 HD
HETATM    7  N4  UNL     1       2.035  -0.074   0.516  1.00  0.00    -0.072 N 
ATOM      8  H4  UNL     1       2.441  -0.380   1.400  1.00  0.00     0.212 HD
ENDROOT
BRANCH   1   9
HETATM    9  C2  UNL     1      -1.157  -1.159   0.830  1.00  0.00     0.180 A 
HETATM   10  N1  UNL     1      -1.948  -0.157   0.407  1.00  0.00    -0.295 N 
HETATM   11  C1  UNL     1      -1.586   0.959  -0.480  1.00  0.00     0.167 C 
HETATM   12  S1  UNL     1      -3.429  -0.483   1.125  1.00  0.00     0.032 SA
HETATM   13  S2  UNL     1      -2.287  -1.998   1.783  1.00  0.00     0.003 SA
ENDBRANCH   1   9
BRANCH   7  14
HETATM   14  N5  UNL     1       2.473   1.117  -0.059  1.00  0.00    -0.024 N 
HETATM   15  O1  UNL     1       2.714   2.110   0.660  1.00  0.00    -0.516 OA
HETATM   16  O2  UNL     1       2.624   1.150  -1.436  1.00  0.00    -0.516 OA
ENDBRANCH   7  14
TORSDOF 2
