REMARK  7 active torsions:
REMARK  status: ('A' for Active; 'I' for Inactive)
REMARK    1  A    between atoms: C2_2  and  C3_3 
REMARK    2  A    between atoms: C3_3  and  C4_4 
REMARK    3  A    between atoms: C4_4  and  C5_5 
REMARK    4  A    between atoms: C5_5  and  C6_6 
REMARK    5  A    between atoms: C6_6  and  C7_7 
REMARK    6  A    between atoms: C12_12  and  S1_14 
REMARK    7  A    between atoms: S1_14  and  O1_15 
ROOT
HETATM    1  C7  UNL     1      -1.307  -0.309  -0.806  1.00  0.00     0.039 C 
HETATM    2  C8  UNL     1      -2.270   0.562  -1.587  1.00  0.00     0.009 C 
HETATM    3  C9  UNL     1      -3.642   0.244  -1.043  1.00  0.00     0.009 C 
HETATM    4  C10 UNL     1      -3.453  -0.783   0.045  1.00  0.00     0.035 C 
HETATM    5  C11 UNL     1      -4.428  -0.599   1.186  1.00  0.00     0.014 C 
HETATM    6  C12 UNL     1      -2.018  -0.572   0.468  1.00  0.00     0.186 C 
HETATM    7  F1  UNL     1      -1.563  -1.719   1.114  1.00  0.00    -0.228 F 
ENDROOT
BRANCH   1   8
HETATM    8  C6  UNL     1       0.051   0.283  -0.711  1.00  0.00     0.009 C 
BRANCH   8   9
HETATM    9  C5  UNL     1       1.015  -0.578   0.062  1.00  0.00     0.001 C 
BRANCH   9  10
HETATM   10  C4  UNL     1       2.359   0.153   0.060  1.00  0.00     0.000 C 
BRANCH  10  11
HETATM   11  C3  UNL     1       3.403  -0.614   0.804  1.00  0.00    -0.000 C 
BRANCH  11  12
HETATM   12  C2  UNL     1       4.694   0.165   0.761  1.00  0.00    -0.005 C 
HETATM   13  C1  UNL     1       5.158   0.380  -0.644  1.00  0.00     0.005 C 
ENDBRANCH  11  12
ENDBRANCH  10  11
ENDBRANCH   9  10
ENDBRANCH   8   9
ENDBRANCH   1   8
BRANCH   6  14
HETATM   14  S1  UNL     1      -1.923   0.765   1.655  1.00  0.00     0.078 SA
BRANCH  14  15
HETATM   15  O1  UNL     1      -2.709   2.191   1.192  1.00  0.00    -0.117 OA
HETATM   16  F2  UNL     1      -1.911   3.211   1.401  1.00  0.00    -0.034 F 
ENDBRANCH  14  15
ENDBRANCH   6  14
TORSDOF 7
