REMARK  7 active torsions:
REMARK  status: ('A' for Active; 'I' for Inactive)
REMARK    1  A    between atoms: C2_2  and  C3_3 
REMARK    2  A    between atoms: C3_3  and  C4_4 
REMARK    3  A    between atoms: C8_8  and  O1_9 
REMARK    4  A    between atoms: O1_9  and  C9_10 
REMARK    5  A    between atoms: C9_10  and  C10_11 
REMARK    6  A    between atoms: C9_10  and  S1_13 
REMARK    7  A    between atoms: S1_13  and  C11_14 
ROOT
HETATM    1  C4  UNL     1      -1.414   0.535   0.166  1.00  0.00     0.015 C 
HETATM    2  C5  UNL     1      -2.223   1.498   0.959  1.00  0.00     0.007 C 
HETATM    3  C6  UNL     1      -1.543   2.832   0.575  1.00  0.00     0.003 C 
HETATM    4  C7  UNL     1      -0.098   2.457   0.803  1.00  0.00     0.032 C 
HETATM    5  C8  UNL     1       0.026   1.013   0.386  1.00  0.00     0.127 C 
ENDROOT
BRANCH   5   6
HETATM    6  O1  UNL     1       0.713   0.946  -0.794  1.00  0.00    -0.367 OA
BRANCH   6   7
HETATM    7  C9  UNL     1       1.833   0.168  -0.798  1.00  0.00     0.211 C 
BRANCH   7   8
HETATM    8  C10 UNL     1       3.107   0.942  -1.055  1.00  0.00     0.264 C 
HETATM    9  F1  UNL     1       3.342   1.908  -0.121  1.00  0.00    -0.252 F 
ENDBRANCH   7   8
BRANCH   7  10
HETATM   10  S1  UNL     1       1.777  -1.195  -1.973  1.00  0.00    -0.135 SA
BRANCH  10  11
HETATM   11  C11 UNL     1       3.302  -2.167  -1.900  1.00  0.00     0.072 C 
HETATM   12  C12 UNL     1       3.411  -2.870  -0.544  1.00  0.00     0.016 C 
ENDBRANCH  10  11
ENDBRANCH   7  10
ENDBRANCH   6   7
ENDBRANCH   5   6
BRANCH   1  13
HETATM   13  C3  UNL     1      -1.549  -0.907   0.449  1.00  0.00     0.007 C 
BRANCH  13  14
HETATM   14  C2  UNL     1      -2.910  -1.453   0.241  1.00  0.00    -0.004 C 
HETATM   15  C1  UNL     1      -3.971  -0.913   1.128  1.00  0.00     0.005 C 
ENDBRANCH  13  14
ENDBRANCH   1  13
TORSDOF 7
