REMARK  4 active torsions:
REMARK  status: ('A' for Active; 'I' for Inactive)
REMARK    1  A    between atoms: C2_2  and  C3_3 
REMARK    2  A    between atoms: C3_3  and  C4_4 
REMARK    3  A    between atoms: C9_9  and  C11_11 
REMARK    4  A    between atoms: C11_11  and  O1_13 
ROOT
HETATM    1  C4  UNL     1       0.622  -0.075  -0.187  1.00  0.00    -0.003 C 
HETATM    2  C5  UNL     1       1.036  -1.458  -0.631  1.00  0.00     0.005 C 
HETATM    3  C6  UNL     1       0.862  -2.328   0.636  1.00  0.00     0.000 C 
HETATM    4  C7  UNL     1      -0.638  -2.412   0.824  1.00  0.00     0.001 C 
HETATM    5  C8  UNL     1      -1.295  -1.087   0.913  1.00  0.00     0.013 C 
HETATM    6  C9  UNL     1      -0.870  -0.062  -0.107  1.00  0.00     0.001 C 
HETATM    7  C10 UNL     1      -1.506  -0.433  -1.437  1.00  0.00     0.019 C 
ENDROOT
BRANCH   6   8
HETATM    8  C11 UNL     1      -1.481   1.253   0.310  1.00  0.00     0.120 C 
HETATM    9  C12 UNL     1      -3.001   1.047   0.376  1.00  0.00     0.059 C 
HETATM   10  S1  UNL     1      -0.932   1.851   1.904  1.00  0.00    -0.056 SA
BRANCH   8  11
HETATM   11  O1  UNL     1      -1.309   2.177  -0.729  1.00  0.00    -0.378 OA
ATOM     12  H1  UNL     1      -1.694   3.005  -0.466  1.00  0.00     0.211 HD
ENDBRANCH   8  11
ENDBRANCH   6   8
BRANCH   1  13
HETATM   13  C3  UNL     1       1.292   0.955  -0.990  1.00  0.00     0.005 C 
BRANCH  13  14
HETATM   14  C2  UNL     1       2.793   0.844  -0.837  1.00  0.00    -0.004 C 
HETATM   15  C1  UNL     1       3.200   1.004   0.626  1.00  0.00     0.005 C 
ENDBRANCH  13  14
ENDBRANCH   1  13
TORSDOF 4
