REMARK  3 active torsions:
REMARK  status: ('A' for Active; 'I' for Inactive)
REMARK    1  A    between atoms: C2_2  and  C3_3 
REMARK    2  A    between atoms: C3_3  and  N1_4 
REMARK       I    between atoms: N1_4  and  C4_6 
REMARK       I    between atoms: C4_6  and  N2_8 
REMARK    3  A    between atoms: C5_10  and  C6_11 
ROOT
HETATM    1  N1  UNL     1      -1.379   0.515  -0.647  1.00  0.00    -0.339 N 
ATOM      2  H1  UNL     1      -1.051   1.385  -0.227  1.00  0.00     0.164 HD
HETATM    3  C4  UNL     1      -0.421  -0.478  -1.011  1.00  0.00     0.320 C 
HETATM    4  O1  UNL     1      -0.804  -1.572  -1.535  1.00  0.00    -0.247 OA
HETATM    5  N2  UNL     1       0.954  -0.306  -0.815  1.00  0.00    -0.322 N 
ATOM      6  H2  UNL     1       1.532  -0.141  -1.639  1.00  0.00     0.169 HD
HETATM    7  C5  UNL     1       1.542  -0.341   0.331  1.00  0.00     0.070 C 
ENDROOT
BRANCH   1   8
HETATM    8  C3  UNL     1      -2.781   0.334  -0.850  1.00  0.00     0.150 C 
BRANCH   8   9
HETATM    9  C2  UNL     1      -3.333  -0.833  -0.129  1.00  0.00    -0.018 C 
HETATM   10  C1  UNL     1      -4.292  -0.652   0.772  1.00  0.00     0.008 C 
ENDBRANCH   8   9
ENDBRANCH   1   8
BRANCH   7  11
HETATM   11  C6  UNL     1       2.982  -0.160   0.524  1.00  0.00     0.024 A 
HETATM   12  C7  UNL     1       3.492   1.267   0.216  1.00  0.00     0.010 A 
HETATM   13  C8  UNL     1       3.902   0.098  -0.600  1.00  0.00     0.010 A 
ENDBRANCH   7  11
TORSDOF 3
