REMARK  6 active torsions:
REMARK  status: ('A' for Active; 'I' for Inactive)
REMARK    1  A    between atoms: C6_6  and  O1_7 
REMARK    2  A    between atoms: C10_15  and  C11_16 
REMARK    3  A    between atoms: C12_18  and  O3_19 
REMARK    4  A    between atoms: C13_21  and  O4_22 
REMARK    5  A    between atoms: C14_24  and  O5_25 
REMARK    6  A    between atoms: C15_27  and  O6_28 
ROOT
HETATM    1  C1  UNL     1      -0.192   2.556   0.550  1.00  0.00     0.017 C 
HETATM    2  C2  UNL     1      -0.611   2.102  -0.818  1.00  0.00     0.034 C 
HETATM    3  C3  UNL     1      -2.073   2.055  -1.033  1.00  0.00    -0.024 C 
HETATM    4  C4  UNL     1      -2.996   1.314  -0.507  1.00  0.00    -0.028 C 
HETATM    5  C5  UNL     1      -2.948   0.238   0.504  1.00  0.00     0.058 C 
HETATM    6  C6  UNL     1      -3.130  -1.128  -0.114  1.00  0.00     0.122 C 
HETATM    7  C7  UNL     1      -2.236  -2.192   0.351  1.00  0.00     0.037 C 
HETATM    8  C8  UNL     1      -0.920  -1.815   0.929  1.00  0.00     0.055 C 
HETATM    9  C9  UNL     1      -0.006  -1.310  -0.112  1.00  0.00    -0.007 C 
HETATM   10  N1  UNL     1       0.251  -2.076  -1.103  1.00  0.00    -0.405 N 
ATOM     11  H11 UNL     1       0.883  -1.727  -1.823  1.00  0.00     0.155 HD
ATOM     12  H12 UNL     1      -0.195  -2.993  -1.119  1.00  0.00     0.155 HD
HETATM   13  C10 UNL     1       0.644   0.028  -0.089  1.00  0.00     0.120 C 
HETATM   14  C15 UNL     1       0.154   0.880  -1.208  1.00  0.00     0.141 C 
ENDROOT
BRANCH  13  15
HETATM   15  C11 UNL     1       2.135  -0.103  -0.061  1.00  0.00     0.104 A 
HETATM   16  O2  UNL     1       2.908   0.479  -0.940  1.00  0.00    -0.286 OA
HETATM   17  C12 UNL     1       4.168   0.214  -0.704  1.00  0.00     0.220 A 
HETATM   18  C13 UNL     1       4.235  -0.590   0.394  1.00  0.00     0.160 A 
HETATM   19  C14 UNL     1       2.914  -0.792   0.805  1.00  0.00     0.135 A 
BRANCH  17  20
HETATM   20  O3  UNL     1       5.276   0.655  -1.423  1.00  0.00    -0.339 OA
ATOM     21  H3  UNL     1       6.190   0.463  -1.252  1.00  0.00     0.220 HD
ENDBRANCH  17  20
BRANCH  18  22
HETATM   22  O4  UNL     1       5.342  -1.133   1.027  1.00  0.00    -0.354 OA
ATOM     23  H4  UNL     1       5.389  -1.694   1.793  1.00  0.00     0.218 HD
ENDBRANCH  18  22
BRANCH  19  24
HETATM   24  O5  UNL     1       2.491  -1.538   1.873  1.00  0.00    -0.356 OA
ATOM     25  H5  UNL     1       3.038  -2.022   2.481  1.00  0.00     0.218 HD
ENDBRANCH  19  24
ENDBRANCH  13  15
BRANCH  14  26
HETATM   26  O6  UNL     1      -0.485   0.150  -2.221  1.00  0.00    -0.394 OA
ATOM     27  H6  UNL     1       0.002  -0.627  -2.469  1.00  0.00     0.210 HD
ENDBRANCH  14  26
BRANCH   6  28
HETATM   28  O1  UNL     1      -4.461  -1.579  -0.048  1.00  0.00    -0.395 OA
ATOM     29  H1  UNL     1      -4.575  -2.438  -0.437  1.00  0.00     0.210 HD
ENDBRANCH   6  28
TORSDOF 6
