REMARK  2 active torsions:
REMARK  status: ('A' for Active; 'I' for Inactive)
REMARK    1  A    between atoms: O1_2  and  C2_3 
REMARK    2  A    between atoms: C6_8  and  O2_9 
ROOT
HETATM    1  C2  UNL     1      -2.056  -0.280  -0.580  1.00  0.00     0.122 A 
HETATM    2  C3  UNL     1      -2.897   0.720  -0.143  1.00  0.00     0.090 A 
HETATM    3  N1  UNL     1      -4.288   0.630  -0.406  1.00  0.00    -0.099 NA
HETATM    4  C4  UNL     1      -2.433   1.813   0.545  1.00  0.00     0.001 A 
HETATM    5  C5  UNL     1      -3.309   2.890   1.020  1.00  0.00     0.053 C 
HETATM    6  C6  UNL     1      -1.055   1.900   0.805  1.00  0.00     0.102 A 
HETATM    7  C7  UNL     1      -0.193   0.900   0.372  1.00  0.00     0.099 A 
HETATM    8  C8  UNL     1      -0.702  -0.177  -0.315  1.00  0.00     0.099 A 
HETATM    9  N2  UNL     1       0.407  -1.017  -0.625  1.00  0.00    -0.336 N 
ATOM     10  H2  UNL     1       0.335  -1.897  -1.135  1.00  0.00     0.168 HD
HETATM   11  C9  UNL     1       1.613  -0.479  -0.139  1.00  0.00     0.138 A 
HETATM   12  C10 UNL     1       2.842  -1.046  -0.245  1.00  0.00     0.112 C 
HETATM   13  N3  UNL     1       4.080  -0.554   0.211  1.00  0.00    -0.332 N 
ATOM     14  H3  UNL     1       4.167   0.347   0.681  1.00  0.00     0.168 HD
HETATM   15  C11 UNL     1       5.214  -1.406  -0.029  1.00  0.00     0.144 C 
HETATM   16  N4  UNL     1       6.304  -1.558   0.623  1.00  0.00    -0.380 N 
ATOM     17  H41 UNL     1       7.108  -2.162   0.453  1.00  0.00     0.158 HD
ATOM     18  H42 UNL     1       6.599  -1.085   1.477  1.00  0.00     0.158 HD
HETATM   19  S1  UNL     1       4.686  -2.254  -1.560  1.00  0.00    -0.035 SA
HETATM   20  C12 UNL     1       2.965  -2.373  -0.889  1.00  0.00     0.102 C 
HETATM   21  N5  UNL     1       2.301  -3.396  -1.000  1.00  0.00    -0.391 N 
ATOM     22  H51 UNL     1       2.386  -4.310  -1.444  1.00  0.00     0.157 HD
ATOM     23  H52 UNL     1       1.353  -3.462  -0.630  1.00  0.00     0.157 HD
HETATM   24  N6  UNL     1       1.241   0.742   0.499  1.00  0.00    -0.331 N 
HETATM   25  C13 UNL     1       2.106   1.675   1.181  1.00  0.00     0.158 C 
ENDROOT
BRANCH   1  26
HETATM   26  O1  UNL     1      -2.550  -1.369  -1.270  1.00  0.00    -0.352 OA
HETATM   27  C1  UNL     1      -2.953  -2.506  -0.496  1.00  0.00     0.210 C 
ENDBRANCH   1  26
BRANCH   6  28
HETATM   28  O2  UNL     1      -0.594   3.002   1.496  1.00  0.00    -0.358 OA
ATOM     29  H2  UNL     1       0.338   3.061   1.672  1.00  0.00     0.217 HD
ENDBRANCH   6  28
TORSDOF 2
