REMARK  12 active torsions:
REMARK  status: ('A' for Active; 'I' for Inactive)
REMARK    1  A    between atoms: C2_2  and  N1_3 
REMARK       I    between atoms: N1_3  and  C3_5 
REMARK    2  A    between atoms: C3_5  and  C4_7 
REMARK    3  A    between atoms: C5_10  and  C6_11 
REMARK    4  A    between atoms: C6_11  and  C7_12 
REMARK    5  A    between atoms: C7_12  and  C8_13 
REMARK    6  A    between atoms: C8_13  and  C9_14 
REMARK    7  A    between atoms: C9_14  and  C10_15 
REMARK    8  A    between atoms: C10_15  and  N3_16 
REMARK    9  A    between atoms: C16_28  and  C17_29 
REMARK       I    between atoms: C17_29  and  N5_31 
REMARK   10  A    between atoms: C21_38  and  C22_39 
REMARK   11  A    between atoms: C22_39  and  C23_40 
REMARK   12  A    between atoms: C27_47  and  C28_48 
ROOT
HETATM    1  C4  UNL     1       1.653  -1.349   0.594  1.00  0.00     0.093 C 
HETATM    2  N2  UNL     1       2.498  -0.245   1.053  1.00  0.00    -0.344 N 
ATOM      3  H2  UNL     1       2.338  -0.093   2.049  1.00  0.00     0.167 HD
HETATM    4  C5  UNL     1       3.429   0.654   0.607  1.00  0.00     0.084 C 
HETATM    5  N4  UNL     1       3.233   1.781  -0.039  1.00  0.00    -0.317 N 
ATOM      6  H4  UNL     1       4.059   2.318  -0.302  1.00  0.00     0.170 HD
HETATM    7  C11 UNL     1       1.969   2.313  -0.401  1.00  0.00     0.223 C 
HETATM    8  O2  UNL     1       1.641   2.379  -1.609  1.00  0.00    -0.273 OA
HETATM    9  C12 UNL     1       1.062   2.784   0.715  1.00  0.00     0.103 C 
HETATM   10  C13 UNL     1      -0.140   3.482   0.191  1.00  0.00     0.009 C 
HETATM   11  C14 UNL     1      -1.211   2.593  -0.373  1.00  0.00     0.003 C 
HETATM   12  C15 UNL     1      -2.195   2.152   0.661  1.00  0.00     0.035 C 
HETATM   13  C16 UNL     1      -3.568   1.891   0.023  1.00  0.00     0.176 C 
HETATM   14  N6  UNL     1      -3.412   1.352  -1.295  1.00  0.00    -0.346 N 
ATOM     15  H6  UNL     1      -3.265   2.030  -2.043  1.00  0.00     0.163 HD
HETATM   16  C20 UNL     1      -3.437  -0.018  -1.687  1.00  0.00     0.241 C 
HETATM   17  O4  UNL     1      -3.814  -0.312  -2.874  1.00  0.00    -0.271 OA
HETATM   18  C21 UNL     1      -3.054  -1.176  -0.833  1.00  0.00     0.177 C 
HETATM   19  N7  UNL     1      -1.713  -1.633  -1.071  1.00  0.00    -0.347 N 
ATOM     20  H7  UNL     1      -1.685  -2.458  -1.670  1.00  0.00     0.163 HD
HETATM   21  C26 UNL     1      -0.463  -1.226  -0.686  1.00  0.00     0.229 C 
HETATM   22  O5  UNL     1       0.315  -0.772  -1.611  1.00  0.00    -0.273 OA
HETATM   23  C27 UNL     1       0.208  -1.206   0.702  1.00  0.00     0.147 C 
ENDROOT
BRANCH   4  24
HETATM   24  C6  UNL     1       4.913   0.429   1.000  1.00  0.00     0.076 C 
BRANCH  24  25
HETATM   25  C7  UNL     1       5.574  -0.220  -0.150  1.00  0.00     0.007 C 
BRANCH  25  26
HETATM   26  C8  UNL     1       5.784   0.634  -1.382  1.00  0.00     0.002 C 
BRANCH  26  27
HETATM   27  C9  UNL     1       6.744   1.739  -0.966  1.00  0.00     0.027 C 
BRANCH  27  28
HETATM   28  C10 UNL     1       7.134   2.675  -2.071  1.00  0.00     0.229 C 
BRANCH  28  29
HETATM   29  N3  UNL     1       6.002   3.378  -2.610  1.00  0.00    -0.079 N 
ATOM     30  H33 UNL     1       5.275   2.730  -2.914  1.00  0.00     0.274 HD
ATOM     31  H32 UNL     1       5.487   3.866  -1.877  1.00  0.00     0.274 HD
ATOM     32  H31 UNL     1       6.267   4.015  -3.362  1.00  0.00     0.274 HD
ENDBRANCH  28  29
ENDBRANCH  27  28
ENDBRANCH  26  27
ENDBRANCH  25  26
ENDBRANCH  24  25
ENDBRANCH   4  24
BRANCH   1  33
HETATM   33  C3  UNL     1       2.398  -2.603   0.772  1.00  0.00     0.265 C 
HETATM   34  N1  UNL     1       2.375  -3.391   1.955  1.00  0.00    -0.356 N 
ATOM     35  H1  UNL     1       1.806  -3.092   2.747  1.00  0.00     0.162 HD
HETATM   36  O1  UNL     1       3.180  -3.075  -0.143  1.00  0.00    -0.266 OA
BRANCH  34  37
HETATM   37  C2  UNL     1       3.150  -4.615   2.052  1.00  0.00     0.118 C 
HETATM   38  C1  UNL     1       3.073  -5.190   3.446  1.00  0.00     0.026 C 
ENDBRANCH  34  37
ENDBRANCH   1  33
BRANCH  23  39
HETATM   39  C28 UNL     1      -0.575  -2.065   1.619  1.00  0.00     0.135 C 
HETATM   40 CL1  UNL     1      -0.614  -3.777   1.317  1.00  0.00    -0.129 Cl
ENDBRANCH  23  39
BRANCH  18  41
HETATM   41  C22 UNL     1      -4.100  -2.216  -0.887  1.00  0.00     0.038 C 
BRANCH  41  42
HETATM   42  C23 UNL     1      -4.524  -2.927  -2.086  1.00  0.00    -0.020 C 
HETATM   43  C24 UNL     1      -5.704  -3.860  -1.613  1.00  0.00     0.009 C 
HETATM   44  C25 UNL     1      -3.527  -3.989  -2.608  1.00  0.00     0.009 C 
ENDBRANCH  41  42
ENDBRANCH  18  41
BRANCH  13  45
HETATM   45  C17 UNL     1      -4.243   3.224  -0.045  1.00  0.00     0.241 C 
HETATM   46  O3  UNL     1      -3.989   4.024  -0.986  1.00  0.00    -0.271 OA
HETATM   47  N5  UNL     1      -5.173   3.646   0.925  1.00  0.00    -0.359 N 
HETATM   48  C18 UNL     1      -5.726   4.984   0.909  1.00  0.00     0.152 C 
HETATM   49  C19 UNL     1      -5.677   2.761   1.989  1.00  0.00     0.152 C 
ENDBRANCH  13  45
TORSDOF 12
