REMARK  7 active torsions:
REMARK  status: ('A' for Active; 'I' for Inactive)
REMARK    1  A    between atoms: C2_2  and  N1_3 
REMARK    2  A    between atoms: C2_2  and  C11_18 
REMARK    3  A    between atoms: N1_3  and  C3_5 
REMARK    4  A    between atoms: C3_5  and  C4_6 
REMARK    5  A    between atoms: C14_21  and  N5_22 
REMARK       I    between atoms: N5_22  and  C15_23 
REMARK    6  A    between atoms: C15_23  and  O2_25 
REMARK    7  A    between atoms: O2_25  and  C16_26 
ROOT
HETATM    1  C1  UNL     1       1.425  -1.950  -0.357  1.00  0.00     0.032 C 
HETATM    2  C2  UNL     1       0.985  -0.538  -0.508  1.00  0.00     0.081 C 
ENDROOT
BRANCH   2   3
HETATM    3  N1  UNL     1       2.192   0.331  -0.352  1.00  0.00    -0.391 N 
ATOM      4  H1  UNL     1       2.535   0.983  -1.058  1.00  0.00     0.159 HD
BRANCH   3   5
HETATM    5  C3  UNL     1       2.789   0.123   0.907  1.00  0.00     0.134 C 
BRANCH   5   6
HETATM    6  C4  UNL     1       4.075   0.908   0.985  1.00  0.00     0.139 A 
HETATM    7  N2  UNL     1       4.336   2.014   1.705  1.00  0.00    -0.283 N 
HETATM    8  N3  UNL     1       5.602   2.343   1.496  1.00  0.00    -0.287 N 
ATOM      9  H2  UNL     1       3.677   2.510   2.305  1.00  0.00     0.188 HD
HETATM   10  C5  UNL     1       6.171   1.490   0.661  1.00  0.00     0.099 A 
ATOM     11  H3  UNL     1       6.072   3.143   1.920  1.00  0.00     0.188 HD
HETATM   12  N4  UNL     1       5.237   0.592   0.317  1.00  0.00    -0.320 N 
HETATM   13  C10 UNL     1       7.597   1.604   0.224  1.00  0.00     0.078 C 
HETATM   14  C6  UNL     1       5.375  -0.555  -0.519  1.00  0.00     0.132 C 
HETATM   15  C7  UNL     1       6.648  -1.357  -0.263  1.00  0.00     0.020 C 
HETATM   16  C8  UNL     1       7.799  -0.566  -0.800  1.00  0.00     0.002 C 
HETATM   17  C9  UNL     1       8.330   0.289   0.304  1.00  0.00     0.007 C 
ENDBRANCH   5   6
ENDBRANCH   3   5
ENDBRANCH   2   3
BRANCH   2  18
HETATM   18  C11 UNL     1      -0.097  -0.091   0.475  1.00  0.00     0.019 C 
HETATM   19  C12 UNL     1      -1.208  -1.120   0.319  1.00  0.00     0.011 C 
HETATM   20  C13 UNL     1      -2.013  -1.021  -0.927  1.00  0.00     0.048 C 
HETATM   21  C14 UNL     1      -2.945   0.205  -0.734  1.00  0.00     0.238 C 
HETATM   22  C20 UNL     1      -2.145   1.254  -0.095  1.00  0.00     0.166 C 
HETATM   23  O3  UNL     1      -2.747   2.213   0.481  1.00  0.00    -0.294 OA
HETATM   24  C21 UNL     1      -0.653   1.225  -0.076  1.00  0.00     0.060 C 
HETATM   25  C22 UNL     1      -0.192   2.373   0.772  1.00  0.00     0.018 C 
BRANCH  21  26
HETATM   26  N5  UNL     1      -4.093  -0.236  -0.075  1.00  0.00    -0.377 NA
HETATM   27  C15 UNL     1      -5.206  -0.665   0.566  1.00  0.00     0.436 C 
HETATM   28  O1  UNL     1      -5.930  -1.117   1.295  1.00  0.00    -0.221 OA
BRANCH  27  29
HETATM   29  O2  UNL     1      -6.267   0.055  -0.499  1.00  0.00    -0.283 OA
BRANCH  29  30
HETATM   30  C16 UNL     1      -7.560  -0.102  -0.097  1.00  0.00     0.062 C 
HETATM   31  C17 UNL     1      -8.109  -1.504  -0.044  1.00  0.00     0.046 C 
HETATM   32  C18 UNL     1      -8.428   0.616  -1.182  1.00  0.00     0.046 C 
HETATM   33  C19 UNL     1      -7.955   0.575   1.205  1.00  0.00     0.046 C 
ENDBRANCH  29  30
ENDBRANCH  27  29
ENDBRANCH  21  26
ENDBRANCH   2  18
TORSDOF 7
