REMARK  7 active torsions:
REMARK  status: ('A' for Active; 'I' for Inactive)
REMARK       I    between atoms: C2_2  and  N1_4 
REMARK    1  A    between atoms: N1_4  and  C3_6 
REMARK    2  A    between atoms: C3_6  and  C4_7 
REMARK    3  A    between atoms: C4_7  and  C5_8 
REMARK    4  A    between atoms: C5_8  and  O3_10 
REMARK    5  A    between atoms: O3_10  and  C6_11 
REMARK    6  A    between atoms: C9_14  and  C10_15 
REMARK    7  A    between atoms: C10_15  and  O4_16 
ROOT
HETATM    1  C6  UNL     1       1.036  -1.324  -0.745  1.00  0.00     0.160 C 
HETATM    2  C7  UNL     1       0.253  -2.616  -0.735  1.00  0.00     0.043 C 
HETATM    3  C8  UNL     1      -0.603  -2.784   0.496  1.00  0.00     0.077 C 
HETATM    4  C9  UNL     1      -2.004  -2.221   0.312  1.00  0.00     0.219 C 
HETATM    5  O5  UNL     1      -2.215  -1.637  -0.876  1.00  0.00    -0.197 OA
HETATM    6  O6  UNL     1      -2.747  -0.497  -0.995  1.00  0.00    -0.218 OA
HETATM    7  C11 UNL     1      -2.454   0.436   0.029  1.00  0.00     0.151 C 
HETATM    8  C12 UNL     1      -3.412   1.555  -0.173  1.00  0.00     0.020 C 
HETATM    9  C13 UNL     1      -2.980   2.763  -0.447  1.00  0.00    -0.084 C 
HETATM   10  C14 UNL     1      -4.036   3.826  -0.634  1.00  0.00     0.043 C 
HETATM   11  C15 UNL     1      -1.577   3.203  -0.589  1.00  0.00     0.034 C 
HETATM   12  C16 UNL     1      -0.771   2.315   0.327  1.00  0.00     0.016 C 
HETATM   13  C17 UNL     1      -1.039   0.858   0.045  1.00  0.00     0.053 C 
HETATM   14  C18 UNL     1      -0.444   0.601  -1.302  1.00  0.00    -0.014 C 
HETATM   15  C19 UNL     1       0.422  -0.307  -1.638  1.00  0.00    -0.058 C 
HETATM   16  C20 UNL     1       0.860  -0.343  -3.094  1.00  0.00     0.046 C 
HETATM   17  C21 UNL     1      -2.883  -0.298   1.289  1.00  0.00     0.096 C 
HETATM   18  C22 UNL     1      -2.651   0.530   2.525  1.00  0.00     0.049 C 
HETATM   19  C23 UNL     1      -4.380  -0.504   1.145  1.00  0.00     0.049 C 
HETATM   20  O7  UNL     1      -2.301  -1.510   1.442  1.00  0.00    -0.337 OA
ENDROOT
BRANCH   1  21
HETATM   21  O3  UNL     1       2.407  -1.488  -0.957  1.00  0.00    -0.311 OA
BRANCH  21  22
HETATM   22  C5  UNL     1       3.420  -1.210  -0.096  1.00  0.00     0.261 C 
HETATM   23  O2  UNL     1       3.113  -0.750   1.029  1.00  0.00    -0.265 OA
BRANCH  22  24
HETATM   24  C4  UNL     1       4.842  -1.433  -0.452  1.00  0.00     0.131 C 
BRANCH  24  25
HETATM   25  C3  UNL     1       5.790  -1.062   0.636  1.00  0.00     0.132 C 
BRANCH  25  26
HETATM   26  N1  UNL     1       5.702   0.330   1.020  1.00  0.00    -0.361 N 
HETATM   27  C2  UNL     1       5.940   1.400   0.154  1.00  0.00     0.213 C 
HETATM   28  C1  UNL     1       5.833   2.821   0.608  1.00  0.00     0.117 C 
HETATM   29  O1  UNL     1       6.255   1.218  -1.049  1.00  0.00    -0.274 OA
ATOM     30  H1  UNL     1       5.450   0.544   1.985  1.00  0.00     0.162 HD
ENDBRANCH  25  26
ENDBRANCH  24  25
ENDBRANCH  22  24
ENDBRANCH  21  22
ENDBRANCH   1  21
BRANCH   4  31
HETATM   31  C10 UNL     1      -2.935  -3.452   0.361  1.00  0.00     0.235 C 
BRANCH  31  32
HETATM   32  O4  UNL     1      -2.595  -4.299  -0.696  1.00  0.00    -0.395 OA
ATOM     33  H4  UNL     1      -3.168  -5.056  -0.666  1.00  0.00     0.209 HD
ENDBRANCH  31  32
ENDBRANCH   4  31
TORSDOF 7
