REMARK  7 active torsions:
REMARK  status: ('A' for Active; 'I' for Inactive)
REMARK    1  A    between atoms: C2_2  and  C3_3 
REMARK    2  A    between atoms: C4_6  and  C5_7 
REMARK    3  A    between atoms: C6_9  and  N1_10 
REMARK    4  A    between atoms: N1_10  and  C8_12 
REMARK    5  A    between atoms: C8_12  and  O1_13 
REMARK    6  A    between atoms: C8_12  and  N2_15 
REMARK    7  A    between atoms: N2_15  and  N3_17 
ROOT
HETATM    1  C3  UNL     1       3.155   0.586  -0.017  1.00  0.00    -0.065 C 
HETATM    2  S1  UNL     1       3.480   1.947   0.234  1.00  0.00    -0.001 SA
HETATM    3  S2  UNL     1       3.892   3.932   0.519  1.00  0.00     0.001 SA
ENDROOT
BRANCH   1   4
HETATM    4  C2  UNL     1       2.847  -0.743  -0.296  1.00  0.00    -0.006 C 
HETATM    5  C1  UNL     1       3.960  -1.750  -0.576  1.00  0.00     0.058 C 
HETATM    6  C4  UNL     1       1.648  -1.225  -0.343  1.00  0.00     0.059 C 
BRANCH   6   7
HETATM    7  C5  UNL     1       0.414  -0.401  -0.097  1.00  0.00     0.133 C 
HETATM    8  F1  UNL     1       0.631   0.880   0.178  1.00  0.00    -0.205 F 
HETATM    9  C6  UNL     1      -0.714  -1.013  -0.178  1.00  0.00     0.136 C 
BRANCH   9  10
HETATM   10  N1  UNL     1      -2.050  -0.740  -0.050  1.00  0.00    -0.324 N 
HETATM   11  C7  UNL     1      -2.984  -1.945  -0.269  1.00  0.00     0.159 C 
BRANCH  10  12
HETATM   12  C8  UNL     1      -2.756   0.407   0.241  1.00  0.00     0.237 C 
BRANCH  12  13
HETATM   13  O1  UNL     1      -4.081   0.242   0.271  1.00  0.00    -0.331 OA
ATOM     14  H1  UNL     1      -4.568   1.033   0.472  1.00  0.00     0.221 HD
ENDBRANCH  12  13
BRANCH  12  15
HETATM   15  N2  UNL     1      -2.390   1.709   0.513  1.00  0.00    -0.272 N 
ATOM     16  H2  UNL     1      -1.408   1.986   0.525  1.00  0.00     0.190 HD
BRANCH  15  17
HETATM   17  N3  UNL     1      -3.441   2.673   0.781  1.00  0.00    -0.342 N 
ATOM     18  H32 UNL     1      -4.418   2.380   0.765  1.00  0.00     0.176 HD
ATOM     19  H31 UNL     1      -3.170   3.636   0.982  1.00  0.00     0.176 HD
ENDBRANCH  15  17
ENDBRANCH  12  15
ENDBRANCH  10  12
ENDBRANCH   9  10
ENDBRANCH   6   7
ENDBRANCH   1   4
TORSDOF 7
