REMARK  3 active torsions:
REMARK  status: ('A' for Active; 'I' for Inactive)
REMARK    1  A    between atoms: N1_7  and  N2_9 
REMARK       I    between atoms: N2_9  and  C7_11 
REMARK    2  A    between atoms: C7_11  and  C8_13 
REMARK    3  A    between atoms: N3_16  and  O2_18 
ROOT
HETATM    1  C1  UNL     1      -2.272   0.666  -1.932  1.00  0.00     0.016 C 
HETATM    2  C2  UNL     1      -1.871   0.518  -0.508  1.00  0.00     0.035 C 
HETATM    3  C3  UNL     1      -2.465  -0.798  -0.015  1.00  0.00     0.011 C 
HETATM    4  C4  UNL     1      -2.008  -1.149   1.371  1.00  0.00     0.007 C 
HETATM    5  C5  UNL     1      -1.181  -0.039   2.001  1.00  0.00     0.061 C 
HETATM    6  C6  UNL     1      -0.014   0.294   1.100  1.00  0.00     0.050 C 
HETATM    7  N1  UNL     1       1.148   0.381   1.558  1.00  0.00    -0.300 N 
ATOM      8  H1  UNL     1       1.222   0.216   2.562  1.00  0.00     0.186 HD
HETATM    9  C9  UNL     1      -0.424   0.508  -0.308  1.00  0.00     0.059 C 
HETATM   10  N3  UNL     1       0.514   0.658  -1.149  1.00  0.00    -0.271 N 
ATOM     11  H3  UNL     1       1.475   0.617  -0.808  1.00  0.00     0.194 HD
ENDROOT
BRANCH   7  12
HETATM   12  N2  UNL     1       2.338   0.661   0.936  1.00  0.00    -0.269 N 
HETATM   13  C7  UNL     1       3.118  -0.389   0.399  1.00  0.00     0.249 C 
HETATM   14  O1  UNL     1       2.708  -1.563   0.498  1.00  0.00    -0.271 OA
ATOM     15  H2  UNL     1       2.660   1.626   0.861  1.00  0.00     0.190 HD
BRANCH  13  16
HETATM   16  C8  UNL     1       4.412  -0.188  -0.284  1.00  0.00     0.219 C 
HETATM   17 CL1  UNL     1       5.724  -0.476   0.888  1.00  0.00    -0.121 Cl
ENDBRANCH  13  16
ENDBRANCH   7  12
BRANCH  10  18
HETATM   18  O2  UNL     1       0.315   0.871  -2.479  1.00  0.00    -0.290 OA
ATOM     19  H2  UNL     1       1.017   0.983  -3.109  1.00  0.00     0.244 HD
ENDBRANCH  10  18
TORSDOF 3
