REMARK  7 active torsions:
REMARK  status: ('A' for Active; 'I' for Inactive)
REMARK    1  A    between atoms: N5_15  and  C6_16 
REMARK    2  A    between atoms: C9_19  and  C10_20 
REMARK    3  A    between atoms: C10_20  and  N7_25 
REMARK    4  A    between atoms: N6_21  and  O1_23 
REMARK    5  A    between atoms: C12_27  and  C13_28 
REMARK    6  A    between atoms: C19_37  and  O5_38 
REMARK    7  A    between atoms: C20_40  and  O6_41 
ROOT
HETATM    1  C6  UNL     1       2.610  -0.851   0.422  1.00  0.00     0.078 A 
HETATM    2  C7  UNL     1       1.898  -1.556   1.361  1.00  0.00     0.034 A 
HETATM    3  C8  UNL     1       0.563  -1.884   1.173  1.00  0.00     0.020 A 
HETATM    4  C9  UNL     1      -0.110  -1.512   0.024  1.00  0.00     0.046 A 
HETATM    5  C19 UNL     1       0.596  -0.795  -0.944  1.00  0.00     0.115 A 
HETATM    6  C20 UNL     1       1.920  -0.478  -0.740  1.00  0.00     0.127 A 
ENDROOT
BRANCH   4   7
HETATM    7  C10 UNL     1      -1.505  -1.899  -0.127  1.00  0.00     0.138 C 
HETATM    8  N6  UNL     1      -1.807  -3.132   0.126  1.00  0.00    -0.252 N 
ATOM      9  H6  UNL     1      -2.786  -3.397   0.019  1.00  0.00     0.196 HD
BRANCH   8  10
HETATM   10  O1  UNL     1      -0.955  -4.100   0.517  1.00  0.00    -0.288 OA
ATOM     11  H1  UNL     1      -1.177  -5.005   0.703  1.00  0.00     0.244 HD
ENDBRANCH   8  10
BRANCH   7  12
HETATM   12  N7  UNL     1      -2.551  -1.040  -0.509  1.00  0.00    -0.330 N 
HETATM   13  C11 UNL     1      -3.330  -1.163  -1.725  1.00  0.00     0.170 C 
HETATM   14  C12 UNL     1      -4.674  -0.611  -1.217  1.00  0.00     0.243 C 
HETATM   15  O4  UNL     1      -4.193   0.529  -0.544  1.00  0.00    -0.343 OA
HETATM   16  C14 UNL     1      -3.099   0.103   0.168  1.00  0.00     0.139 C 
HETATM   17  C15 UNL     1      -2.136   1.210   0.442  1.00  0.00     0.061 C 
HETATM   18  C18 UNL     1      -3.584  -0.236   1.567  1.00  0.00     0.061 C 
HETATM   19  C16 UNL     1      -2.959   2.103   1.381  1.00  0.00     0.005 C 
HETATM   20  C17 UNL     1      -3.855   1.142   2.135  1.00  0.00     0.005 C 
BRANCH  14  21
HETATM   21  C13 UNL     1      -5.551  -0.232  -2.340  1.00  0.00     0.204 C 
HETATM   22  O2  UNL     1      -6.057  -1.139  -3.034  1.00  0.00    -0.646 OA
HETATM   23  O3  UNL     1      -5.804   1.101  -2.615  1.00  0.00    -0.646 OA
ENDBRANCH  14  21
ENDBRANCH   7  12
ENDBRANCH   4   7
BRANCH   5  24
HETATM   24  O5  UNL     1      -0.107  -0.446  -2.069  1.00  0.00    -0.357 OA
ATOM     25  H5  UNL     1       0.373   0.042  -2.728  1.00  0.00     0.217 HD
ENDBRANCH   5  24
BRANCH   6  26
HETATM   26  O6  UNL     1       2.629   0.224  -1.676  1.00  0.00    -0.356 OA
ATOM     27  H6  UNL     1       2.161   0.477  -2.463  1.00  0.00     0.218 HD
ENDBRANCH   6  26
BRANCH   1  28
HETATM   28  N5  UNL     1       3.979  -0.515   0.614  1.00  0.00    -0.289 N 
HETATM   29  C3  UNL     1       4.532   0.720   0.626  1.00  0.00     0.145 A 
HETATM   30  N3  UNL     1       3.995   1.937   0.472  1.00  0.00    -0.336 N 
HETATM   31  C4  UNL     1       5.891   0.640   0.841  1.00  0.00     0.122 A 
HETATM   32  C2  UNL     1       4.750   3.044   0.524  1.00  0.00     0.183 A 
ATOM     33  H3  UNL     1       2.991   2.024   0.312  1.00  0.00     0.168 HD
HETATM   34  N2  UNL     1       6.076   2.988   0.732  1.00  0.00    -0.337 N 
HETATM   35  C1  UNL     1       6.652   1.786   0.891  1.00  0.00     0.131 A 
ATOM     36  H2  UNL     1       6.634   3.841   0.768  1.00  0.00     0.168 HD
HETATM   37  N1  UNL     1       7.920   1.652   1.095  1.00  0.00    -0.383 N 
ATOM     38  H12 UNL     1       8.484   2.501   1.132  1.00  0.00     0.157 HD
ATOM     39  H11 UNL     1       8.358   0.739   1.216  1.00  0.00     0.157 HD
HETATM   40  N4  UNL     1       6.164  -0.678   0.961  1.00  0.00    -0.346 N 
HETATM   41  C5  UNL     1       5.016  -1.364   0.824  1.00  0.00     0.191 A 
ATOM     42  H4  UNL     1       7.085  -1.084   1.127  1.00  0.00     0.167 HD
ENDBRANCH   1  28
TORSDOF 7
