REMARK  5 active torsions:
REMARK  status: ('A' for Active; 'I' for Inactive)
REMARK    1  A    between atoms: N1_1  and  C1_4 
REMARK    2  A    between atoms: C2_7  and  N3_8 
REMARK    3  A    between atoms: C4_10  and  C5_11 
REMARK    4  A    between atoms: C12_28  and  N8_29 
REMARK    5  A    between atoms: C16_41  and  N12_42 
ROOT
HETATM    1  C5  UNL     1      -0.612   0.146  -0.072  1.00  0.00     0.074 A 
HETATM    2  N4  UNL     1      -0.717  -1.205  -0.272  1.00  0.00    -0.339 N 
ATOM      3  H4  UNL     1       0.126  -1.774  -0.352  1.00  0.00     0.167 HD
HETATM    4  C6  UNL     1      -1.909  -1.776  -0.362  1.00  0.00     0.123 A 
HETATM    5  N5  UNL     1      -2.003  -3.125  -0.562  1.00  0.00    -0.318 N 
ATOM      6  H5  UNL     1      -1.148  -3.676  -0.639  1.00  0.00     0.170 HD
HETATM    7  C7  UNL     1      -3.187  -3.743  -0.659  1.00  0.00     0.178 A 
HETATM    8  S1  UNL     1      -3.189  -5.356  -0.897  1.00  0.00    -0.040 SA
HETATM    9  N6  UNL     1      -4.334  -3.047  -0.561  1.00  0.00    -0.319 N 
ATOM     10  H6  UNL     1      -5.227  -3.533  -0.637  1.00  0.00     0.170 HD
HETATM   11  C8  UNL     1      -4.315  -1.691  -0.360  1.00  0.00     0.116 A 
HETATM   12  N7  UNL     1      -5.455  -1.149  -0.285  1.00  0.00    -0.385 N 
ATOM     13  H71 UNL     1      -5.441  -0.140  -0.135  1.00  0.00     0.157 HD
ATOM     14  H72 UNL     1      -6.362  -1.610  -0.358  1.00  0.00     0.157 HD
HETATM   15  C9  UNL     1      -3.104  -1.075  -0.263  1.00  0.00     0.063 A 
HETATM   16  C10 UNL     1      -3.015   0.306  -0.059  1.00  0.00    -0.004 A 
HETATM   17  C11 UNL     1      -4.152   1.049   0.046  1.00  0.00     0.049 A 
HETATM   18  C12 UNL     1      -4.069   2.427   0.251  1.00  0.00     0.103 A 
HETATM   19  C13 UNL     1      -2.832   3.008   0.342  1.00  0.00     0.037 A 
HETATM   20  C14 UNL     1      -1.681   2.271   0.238  1.00  0.00     0.017 A 
HETATM   21  C15 UNL     1      -1.742   0.906   0.036  1.00  0.00     0.004 A 
ENDROOT
BRANCH   1  22
HETATM   22  C4  UNL     1       0.743   0.695   0.015  1.00  0.00     0.095 A 
HETATM   23  C3  UNL     1       1.918  -0.086  -0.095  1.00  0.00     0.170 A 
HETATM   24  N3  UNL     1       2.988   0.708   0.027  1.00  0.00    -0.080 N 
HETATM   25  N10 UNL     1       2.533   1.925   0.205  1.00  0.00    -0.221 N 
HETATM   26  N9  UNL     1       1.224   1.906   0.197  1.00  0.00    -0.282 N 
ATOM     27  H10 UNL     1       3.109   2.757   0.330  1.00  0.00     0.209 HD
ATOM     28  H9  UNL     1       0.643   2.736   0.318  1.00  0.00     0.188 HD
BRANCH  24  29
HETATM   29  C2  UNL     1       4.352   0.281  -0.030  1.00  0.00     0.733 A 
HETATM   30  N2  UNL     1       4.633  -1.021  -0.186  1.00  0.00    -0.020 N 
HETATM   31  C1  UNL     1       5.917  -1.434  -0.241  1.00  0.00     0.705 A 
ATOM     32  H2  UNL     1       3.876  -1.700  -0.263  1.00  0.00     0.203 HD
HETATM   33  N13 UNL     1       6.889  -0.492  -0.134  1.00  0.00    -0.022 N 
HETATM   34  C16 UNL     1       6.588   0.794   0.020  1.00  0.00     0.705 A 
ATOM     35  H13 UNL     1       7.868  -0.776  -0.172  1.00  0.00     0.203 HD
HETATM   36  N11 UNL     1       5.300   1.227   0.077  1.00  0.00    -0.020 N 
ATOM     37  H11 UNL     1       5.067   2.213   0.194  1.00  0.00     0.203 HD
BRANCH  31  38
HETATM   38  N1  UNL     1       6.228  -2.670  -0.389  1.00  0.00    -0.234 N 
ATOM     39  H12 UNL     1       5.498  -3.378  -0.469  1.00  0.00     0.174 HD
ATOM     40  H11 UNL     1       7.198  -2.982  -0.431  1.00  0.00     0.174 HD
ENDBRANCH  31  38
BRANCH  34  41
HETATM   41  N12 UNL     1       7.528   1.659   0.117  1.00  0.00    -0.234 N 
ATOM     42 2H12 UNL     1       7.297   2.645   0.235  1.00  0.00     0.174 HD
ATOM     43 1H12 UNL     1       8.494   1.334   0.074  1.00  0.00     0.174 HD
ENDBRANCH  34  41
ENDBRANCH  24  29
ENDBRANCH   1  22
BRANCH  18  44
HETATM   44  N8  UNL     1      -5.275   3.156   0.353  1.00  0.00    -0.116 N 
HETATM   45  O1  UNL     1      -6.367   2.581   0.263  1.00  0.00    -0.532 OA
HETATM   46  O2  UNL     1      -5.311   4.520   0.555  1.00  0.00    -0.532 OA
ENDBRANCH  18  44
TORSDOF 5
