REMARK  7 active torsions:
REMARK  status: ('A' for Active; 'I' for Inactive)
REMARK    1  A    between atoms: C5_10  and  N3_11 
REMARK    2  A    between atoms: C7_15  and  C8_16 
REMARK    3  A    between atoms: C11_19  and  N4_20 
REMARK       I    between atoms: N4_20  and  C12_22 
REMARK    4  A    between atoms: C12_22  and  O2_24 
REMARK    5  A    between atoms: O2_24  and  N5_25 
REMARK    6  A    between atoms: C15_34  and  N10_35 
REMARK    7  A    between atoms: C18_40  and  O3_41 
ROOT
HETATM    1  C8  UNL     1      -2.460  -0.029  -0.696  1.00  0.00     0.010 A 
HETATM    2  C9  UNL     1      -1.465   0.910  -0.721  1.00  0.00     0.017 A 
HETATM    3  C10 UNL     1      -0.158   0.588  -0.361  1.00  0.00     0.031 A 
HETATM    4  C11 UNL     1       0.156  -0.680   0.028  1.00  0.00     0.045 A 
HETATM    5  C16 UNL     1      -0.871  -1.642   0.053  1.00  0.00    -0.001 A 
HETATM    6  C17 UNL     1      -0.507  -3.003   0.477  1.00  0.00     0.054 C 
HETATM    7  C18 UNL     1      -2.146  -1.326  -0.300  1.00  0.00     0.085 A 
ENDROOT
BRANCH   4   8
HETATM    8  N4  UNL     1       1.444  -1.075   0.401  1.00  0.00    -0.301 N 
HETATM    9  C12 UNL     1       2.608  -0.299   0.456  1.00  0.00     0.388 C 
HETATM   10  O1  UNL     1       2.720   0.909   0.179  1.00  0.00    -0.236 OA
ATOM     11  H4  UNL     1       1.549  -2.054   0.667  1.00  0.00     0.171 HD
BRANCH   9  12
HETATM   12  O2  UNL     1       3.815  -0.916   0.867  1.00  0.00    -0.156 OA
BRANCH  12  13
HETATM   13  N5  UNL     1       4.973  -0.167   0.928  1.00  0.00    -0.009 N 
HETATM   14  C13 UNL     1       5.587   0.215  -0.203  1.00  0.00     0.240 A 
HETATM   15  N6  UNL     1       5.053  -0.145  -1.467  1.00  0.00    -0.060 NA
HETATM   16  N7  UNL     1       6.720   0.947  -0.182  1.00  0.00    -0.302 N 
HETATM   17  C14 UNL     1       7.288   1.329   0.988  1.00  0.00     0.209 A 
ATOM     18  H7  UNL     1       7.157   1.218  -1.063  1.00  0.00     0.171 HD
HETATM   19  N8  UNL     1       8.480   2.099   1.017  1.00  0.00    -0.063 NA
HETATM   20  N9  UNL     1       6.668   0.942   2.115  1.00  0.00    -0.161 N 
HETATM   21  C15 UNL     1       5.521   0.201   2.097  1.00  0.00     0.708 A 
ATOM     22  H9  UNL     1       7.067   1.211   3.014  1.00  0.00     0.187 HD
BRANCH  21  23
HETATM   23  N10 UNL     1       4.946  -0.157   3.185  1.00  0.00    -0.232 N 
ATOM     24 2H10 UNL     1       4.089  -0.710   3.172  1.00  0.00     0.174 HD
ATOM     25 1H10 UNL     1       5.362   0.123   4.073  1.00  0.00     0.174 HD
ENDBRANCH  21  23
ENDBRANCH  12  13
ENDBRANCH   9  12
ENDBRANCH   4   8
BRANCH   7  26
HETATM   26  O3  UNL     1      -3.171  -2.226  -0.290  1.00  0.00    -0.359 OA
ATOM     27  H3  UNL     1      -2.957  -3.111  -0.020  1.00  0.00     0.217 HD
ENDBRANCH   7  26
BRANCH   1  28
HETATM   28  C7  UNL     1      -3.852   0.322  -1.113  1.00  0.00     0.006 A 
HETATM   29  C2  UNL     1      -4.140   0.172  -2.454  1.00  0.00    -0.007 A 
HETATM   30  C1  UNL     1      -3.278  -0.292  -3.580  1.00  0.00     0.057 C 
HETATM   31  S1  UNL     1      -5.758   0.647  -2.563  1.00  0.00    -0.075 SA
HETATM   32  C3  UNL     1      -6.049   1.029  -0.913  1.00  0.00     0.090 A 
HETATM   33  N1  UNL     1      -7.155   1.486  -0.249  1.00  0.00    -0.346 N 
HETATM   34  C6  UNL     1      -4.846   0.767  -0.322  1.00  0.00     0.053 A 
HETATM   35  C4  UNL     1      -7.098   1.704   1.072  1.00  0.00     0.182 A 
ATOM     36  H1  UNL     1      -8.021   1.660  -0.759  1.00  0.00     0.167 HD
HETATM   37  N2  UNL     1      -5.953   1.460   1.667  1.00  0.00    -0.338 N 
HETATM   38  C5  UNL     1      -4.806   1.004   1.073  1.00  0.00     0.113 A 
ATOM     39  H2  UNL     1      -5.914   1.627   2.673  1.00  0.00     0.168 HD
BRANCH  38  40
HETATM   40  N3  UNL     1      -3.833   0.842   1.825  1.00  0.00    -0.385 N 
ATOM     41  H32 UNL     1      -3.804   1.013   2.830  1.00  0.00     0.157 HD
ATOM     42  H31 UNL     1      -2.979   0.502   1.383  1.00  0.00     0.157 HD
ENDBRANCH  38  40
ENDBRANCH   1  28
TORSDOF 7
