REMARK  8 active torsions:
REMARK  status: ('A' for Active; 'I' for Inactive)
REMARK    1  A    between atoms: C6_6  and  N1_7 
REMARK    2  A    between atoms: N1_7  and  C7_9 
REMARK    3  A    between atoms: C7_9  and  N2_11 
REMARK    4  A    between atoms: N2_11  and  C8_13 
REMARK    5  A    between atoms: C8_13  and  O1_14 
REMARK    6  A    between atoms: C10_17  and  N3_18 
REMARK    7  A    between atoms: C11_19  and  O2_20 
REMARK    8  A    between atoms: C16_35  and  N9_36 
ROOT
HETATM    1  C8  UNL     1      -0.471  -1.045  -1.062  1.00  0.00     0.159 C 
HETATM    2  C9  UNL     1      -1.780  -1.434  -1.475  1.00  0.00     0.102 A 
HETATM    3  C10 UNL     1      -2.907  -0.726  -1.369  1.00  0.00     0.150 A 
HETATM    4  N8  UNL     1      -4.115  -1.280  -1.837  1.00  0.00    -0.175 N 
ATOM      5  H8  UNL     1      -4.969  -0.729  -1.749  1.00  0.00     0.186 HD
HETATM    6  C16 UNL     1      -4.192  -2.463  -2.377  1.00  0.00     0.678 A 
HETATM    7  N10 UNL     1      -3.087  -3.210  -2.505  1.00  0.00    -0.178 N 
ATOM      8  H10 UNL     1      -3.136  -4.137  -2.927  1.00  0.00     0.185 HD
HETATM    9  C17 UNL     1      -1.919  -2.724  -2.073  1.00  0.00     0.150 A 
HETATM   10  N11 UNL     1      -0.786  -3.572  -2.241  1.00  0.00    -0.081 NA
ENDROOT
BRANCH   1  11
HETATM   11  N2  UNL     1       0.083   0.072  -0.461  1.00  0.00    -0.313 N 
ATOM     12  H2  UNL     1      -0.565   0.828  -0.238  1.00  0.00     0.170 HD
BRANCH  11  13
HETATM   13  C7  UNL     1       1.443   0.296  -0.116  1.00  0.00     0.178 C 
HETATM   14  S1  UNL     1       1.751   1.775   0.607  1.00  0.00    -0.040 SA
BRANCH  13  15
HETATM   15  N1  UNL     1       2.538  -0.508  -0.336  1.00  0.00    -0.333 N 
ATOM     16  H1  UNL     1       2.368  -1.384  -0.831  1.00  0.00     0.168 HD
BRANCH  15  17
HETATM   17  C6  UNL     1       3.895  -0.247   0.056  1.00  0.00     0.034 A 
HETATM   18  C5  UNL     1       4.916  -0.619  -0.792  1.00  0.00     0.029 A 
HETATM   19  C4  UNL     1       6.256  -0.448  -0.500  1.00  0.00     0.003 A 
HETATM   20  C3  UNL     1       6.575   0.124   0.701  1.00  0.00     0.007 A 
HETATM   21  C2  UNL     1       5.600   0.510   1.577  1.00  0.00    -0.060 A 
HETATM   22  C1  UNL     1       5.983   1.128   2.872  1.00  0.00     0.048 C 
HETATM   23  C18 UNL     1       4.245   0.321   1.248  1.00  0.00     0.036 A 
ENDBRANCH  15  17
ENDBRANCH  13  15
ENDBRANCH  11  13
ENDBRANCH   1  11
BRANCH   1  24
HETATM   24  O1  UNL     1       0.427  -1.968  -1.311  1.00  0.00    -0.345 OA
ATOM     25  H1  UNL     1       0.047  -2.735  -1.723  1.00  0.00     0.219 HD
ENDBRANCH   1  24
BRANCH   3  26
HETATM   26  N3  UNL     1      -3.047   0.565  -0.822  1.00  0.00    -0.244 N 
HETATM   27  C11 UNL     1      -2.994   1.781  -1.442  1.00  0.00     0.231 A 
HETATM   28  N4  UNL     1      -3.271   2.753  -0.551  1.00  0.00    -0.316 N 
HETATM   29  C12 UNL     1      -3.505   2.205   0.644  1.00  0.00     0.122 A 
ATOM     30  H4  UNL     1      -3.298   3.752  -0.757  1.00  0.00     0.169 HD
HETATM   31  C13 UNL     1      -3.827   2.751   1.867  1.00  0.00     0.148 A 
HETATM   32  C15 UNL     1      -3.365   0.832   0.474  1.00  0.00     0.148 A 
HETATM   33  N5  UNL     1      -3.983   4.140   2.098  1.00  0.00    -0.080 NA
HETATM   34  N6  UNL     1      -4.001   1.906   2.894  1.00  0.00    -0.339 N 
HETATM   35  C14 UNL     1      -3.873   0.573   2.766  1.00  0.00     0.183 A 
ATOM     36  H6  UNL     1      -4.240   2.289   3.809  1.00  0.00     0.167 HD
HETATM   37  N7  UNL     1      -3.560   0.078   1.566  1.00  0.00    -0.336 N 
ATOM     38  H7  UNL     1      -3.463  -0.933   1.474  1.00  0.00     0.168 HD
BRANCH  27  39
HETATM   39  O2  UNL     1      -2.703   1.987  -2.774  1.00  0.00    -0.332 OA
ATOM     40  H2  UNL     1      -2.666   2.833  -3.205  1.00  0.00     0.221 HD
ENDBRANCH  27  39
ENDBRANCH   3  26
BRANCH   6  41
HETATM   41  N9  UNL     1      -5.302  -2.938  -2.792  1.00  0.00    -0.234 N 
ATOM     42  H92 UNL     1      -6.143  -2.369  -2.695  1.00  0.00     0.174 HD
ATOM     43  H91 UNL     1      -5.362  -3.864  -3.215  1.00  0.00     0.174 HD
ENDBRANCH   6  41
TORSDOF 8
