REMARK  6 active torsions:
REMARK  status: ('A' for Active; 'I' for Inactive)
REMARK    1  A    between atoms: C2_2  and  C3_3 
REMARK    2  A    between atoms: C2_2  and  N2_8 
REMARK    3  A    between atoms: C3_3  and  C4_4 
REMARK    4  A    between atoms: C4_4  and  N1_5 
REMARK       I    between atoms: C7_10  and  N3_11 
REMARK       I    between atoms: C7_10  and  N6_18 
REMARK    5  A    between atoms: N4_13  and  C8_15 
REMARK    6  A    between atoms: N6_18  and  C9_20 
ROOT
HETATM    1  N2  UNL     1       1.063   0.440  -0.931  1.00  0.00    -0.221 N 
ATOM      2  H2  UNL     1       1.197  -0.571  -0.922  1.00  0.00     0.178 HD
HETATM    3  C7  UNL     1      -0.129   0.899  -0.959  1.00  0.00     0.689 C 
HETATM    4  N3  UNL     1      -0.339   2.293  -0.972  1.00  0.00    -0.131 N 
ATOM      5  H3  UNL     1       0.466   2.908  -0.853  1.00  0.00     0.205 HD
HETATM    6  N4  UNL     1      -1.488   2.820  -1.126  1.00  0.00    -0.264 N 
ATOM      7  H4  UNL     1      -2.296   2.209  -1.246  1.00  0.00     0.189 HD
HETATM    8  N6  UNL     1      -1.224   0.021  -0.982  1.00  0.00    -0.221 N 
ATOM      9  H6  UNL     1      -1.823   0.034  -1.808  1.00  0.00     0.178 HD
ENDROOT
BRANCH   1  10
HETATM   10  C2  UNL     1       2.225   1.291  -0.911  1.00  0.00     0.097 C 
HETATM   11  C1  UNL     1       2.237   2.082  -2.207  1.00  0.00     0.032 C 
BRANCH  10  12
HETATM   12  C3  UNL     1       3.449   0.393  -0.835  1.00  0.00     0.055 C 
BRANCH  12  13
HETATM   13  C4  UNL     1       3.507  -0.416   0.422  1.00  0.00     0.273 C 
BRANCH  13  14
HETATM   14  N1  UNL     1       2.414  -1.308   0.631  1.00  0.00     0.080 N 
HETATM   15  C5  UNL     1       2.344  -2.422  -0.274  1.00  0.00     0.309 C 
HETATM   16  C6  UNL     1       2.220  -1.674   2.005  1.00  0.00     0.309 C 
ENDBRANCH  13  14
ENDBRANCH  12  13
ENDBRANCH  10  12
ENDBRANCH   1  10
BRANCH   8  17
HETATM   17  C9  UNL     1      -1.564  -0.898   0.077  1.00  0.00     0.099 C 
HETATM   18  C10 UNL     1      -2.804  -1.668  -0.331  1.00  0.00     0.026 C 
HETATM   19  C11 UNL     1      -3.066  -2.686   0.741  1.00  0.00     0.002 C 
HETATM   20  C12 UNL     1      -3.445  -1.979   2.012  1.00  0.00     0.000 C 
HETATM   21  C13 UNL     1      -2.469  -0.917   2.422  1.00  0.00     0.002 C 
HETATM   22  C14 UNL     1      -1.915  -0.110   1.307  1.00  0.00     0.026 C 
ENDBRANCH   8  17
BRANCH   6  23
HETATM   23  C8  UNL     1      -1.687   4.215  -1.137  1.00  0.00     0.200 C 
HETATM   24  N5  UNL     1      -1.539   4.960  -2.357  1.00  0.00    -0.068 NA
HETATM   25  S1  UNL     1      -2.087   4.962   0.256  1.00  0.00    -0.043 SA
ENDBRANCH   6  23
TORSDOF 6
