REMARK  7 active torsions:
REMARK  status: ('A' for Active; 'I' for Inactive)
REMARK    1  A    between atoms: C2_2  and  N1_3 
REMARK    2  A    between atoms: N1_3  and  C3_4 
REMARK    3  A    between atoms: N1_3  and  C5_6 
REMARK    4  A    between atoms: C5_6  and  O1_7 
REMARK    5  A    between atoms: C5_6  and  C6_9 
REMARK    6  A    between atoms: C6_9  and  N2_10 
REMARK       I    between atoms: N2_10  and  C7_12 
REMARK       I    between atoms: C7_12  and  N3_14 
REMARK    7  A    between atoms: N3_14  and  C8_16 
ROOT
HETATM    1  C6  UNL     1      -1.308   0.453  -0.846  1.00  0.00     0.099 C 
HETATM    2  C14 UNL     1      -1.624   1.492   0.184  1.00  0.00     0.040 C 
HETATM    3  C15 UNL     1      -2.505   2.619  -0.294  1.00  0.00     0.003 C 
HETATM    4  C16 UNL     1      -2.121   3.203  -1.607  1.00  0.00     0.000 C 
HETATM    5  C17 UNL     1      -1.394   2.266  -2.510  1.00  0.00     0.003 C 
HETATM    6  C18 UNL     1      -1.822   0.836  -2.220  1.00  0.00     0.040 C 
ENDROOT
BRANCH   1   7
HETATM    7  C5  UNL     1      -1.616  -0.931  -0.446  1.00  0.00     0.142 C 
BRANCH   7   8
HETATM    8  N1  UNL     1      -2.780  -1.560  -0.059  1.00  0.00    -0.364 N 
BRANCH   8   9
HETATM    9  C2  UNL     1      -4.090  -1.003   0.028  1.00  0.00     0.120 C 
HETATM   10  C1  UNL     1      -4.929  -1.203  -1.234  1.00  0.00     0.026 C 
ENDBRANCH   8   9
BRANCH   8  11
HETATM   11  C3  UNL     1      -2.718  -3.004   0.327  1.00  0.00     0.120 C 
HETATM   12  C4  UNL     1      -2.935  -3.904  -0.836  1.00  0.00     0.026 C 
ENDBRANCH   8  11
ENDBRANCH   7   8
BRANCH   7  13
HETATM   13  O1  UNL     1      -0.574  -1.751  -0.451  1.00  0.00    -0.348 OA
ATOM     14  H1  UNL     1       0.228  -1.318  -0.718  1.00  0.00     0.219 HD
ENDBRANCH   7  13
ENDBRANCH   1   7
BRANCH   1  15
HETATM   15  N2  UNL     1       0.177   0.523  -0.991  1.00  0.00    -0.326 N 
HETATM   16  C7  UNL     1       1.054   0.335   0.097  1.00  0.00     0.317 C 
HETATM   17  O2  UNL     1       0.607   0.109   1.231  1.00  0.00    -0.247 OA
HETATM   18  N3  UNL     1       2.454   0.394  -0.056  1.00  0.00    -0.339 N 
ATOM     19  H3  UNL     1       2.816   0.579  -0.991  1.00  0.00     0.164 HD
ATOM     20  H2  UNL     1       0.572   0.714  -1.912  1.00  0.00     0.165 HD
BRANCH  18  21
HETATM   21  C8  UNL     1       3.405   0.216   0.993  1.00  0.00     0.086 C 
HETATM   22  C9  UNL     1       4.295   1.419   1.207  1.00  0.00     0.025 C 
HETATM   23  C10 UNL     1       4.895   1.259   2.594  1.00  0.00     0.002 C 
HETATM   24  C11 UNL     1       5.812   0.044   2.519  1.00  0.00     0.000 C 
HETATM   25  C12 UNL     1       5.045  -1.192   2.106  1.00  0.00     0.002 C 
HETATM   26  C13 UNL     1       4.322  -0.974   0.784  1.00  0.00     0.025 C 
ENDBRANCH  18  21
ENDBRANCH   1  15
TORSDOF 7
