REMARK  6 active torsions:
REMARK  status: ('A' for Active; 'I' for Inactive)
REMARK    1  A    between atoms: C2_2  and  C3_3 
REMARK    2  A    between atoms: N1_9  and  C9_10 
REMARK    3  A    between atoms: C9_10  and  C10_12 
REMARK    4  A    between atoms: C10_12  and  N2_13 
REMARK    5  A    between atoms: C10_12  and  C17_21 
REMARK    6  A    between atoms: N2_13  and  C11_15 
ROOT
HETATM    1  C10 UNL     1       0.738  -0.284   0.351  1.00  0.00     0.229 C 
ENDROOT
BRANCH   1   2
HETATM    2  C9  UNL     1      -0.584  -0.674  -0.201  1.00  0.00     0.107 C 
HETATM    3  S1  UNL     1      -0.508  -1.871  -1.387  1.00  0.00    -0.063 SA
BRANCH   2   4
HETATM    4  N1  UNL     1      -1.852  -0.184   0.050  1.00  0.00    -0.368 N 
HETATM    5  C3  UNL     1      -2.975  -0.833  -0.657  1.00  0.00     0.084 C 
HETATM    6  C4  UNL     1      -3.835   0.214  -1.174  1.00  0.00     0.025 C 
HETATM    7  C5  UNL     1      -4.466   1.490  -1.272  1.00  0.00     0.002 C 
HETATM    8  C6  UNL     1      -3.759   2.439  -0.247  1.00  0.00     0.002 C 
HETATM    9  C7  UNL     1      -3.242   1.739   0.957  1.00  0.00     0.020 C 
HETATM   10  C8  UNL     1      -1.989   0.941   0.938  1.00  0.00     0.124 C 
BRANCH   5  11
HETATM   11  C2  UNL     1      -3.664  -1.767   0.344  1.00  0.00     0.021 C 
HETATM   12  C1  UNL     1      -2.840  -2.847   0.912  1.00  0.00     0.007 C 
ENDBRANCH   5  11
ENDBRANCH   2   4
ENDBRANCH   1   2
BRANCH   1  13
HETATM   13  N2  UNL     1       1.714  -1.256  -0.155  1.00  0.00    -0.400 N 
ATOM     14  H2  UNL     1       1.492  -2.248  -0.241  1.00  0.00     0.154 HD
BRANCH  13  15
HETATM   15  C11 UNL     1       2.976  -0.742  -0.516  1.00  0.00     0.077 C 
HETATM   16  C12 UNL     1       3.021   0.237  -1.648  1.00  0.00     0.024 C 
HETATM   17  C13 UNL     1       4.472   0.281  -2.137  1.00  0.00     0.002 C 
HETATM   18  C14 UNL     1       5.447   0.579  -1.043  1.00  0.00     0.000 C 
HETATM   19  C15 UNL     1       5.236  -0.206   0.217  1.00  0.00     0.002 C 
HETATM   20  C16 UNL     1       3.761  -0.124   0.636  1.00  0.00     0.024 C 
ENDBRANCH  13  15
ENDBRANCH   1  13
BRANCH   1  21
HETATM   21  C17 UNL     1       0.862  -0.374   1.818  1.00  0.00     0.260 C 
HETATM   22  N3  UNL     1       0.928   0.759   2.706  1.00  0.00    -0.060 NA
HETATM   23  O1  UNL     1       0.925  -1.521   2.343  1.00  0.00    -0.274 OA
ENDBRANCH   1  21
TORSDOF 6
