REMARK  13 active torsions:
REMARK  status: ('A' for Active; 'I' for Inactive)
REMARK    1  A    between atoms: C5_7  and  N2_8 
REMARK    2  A    between atoms: C6_13  and  N4_14 
REMARK    3  A    between atoms: C8_22  and  S1_23 
REMARK    4  A    between atoms: S1_23  and  C9_24 
REMARK    5  A    between atoms: C9_24  and  C10_25 
REMARK       I    between atoms: C10_25  and  N7_27 
REMARK    6  A    between atoms: N7_27  and  C11_29 
REMARK    7  A    between atoms: C11_29  and  C12_30 
REMARK    8  A    between atoms: C11_29  and  C14_39 
REMARK    9  A    between atoms: C12_30  and  O2_31 
REMARK   10  A    between atoms: O2_31  and  C13_32 
REMARK   11  A    between atoms: C13_32  and  N8_33 
REMARK   12  A    between atoms: C13_32  and  O3_37 
REMARK       I    between atoms: C14_39  and  N9_41 
REMARK       I    between atoms: N9_41  and  C15_43 
REMARK   13  A    between atoms: C15_43  and  C16_45 
ROOT
HETATM    1  C1  UNL     1       1.452  -2.600   0.676  1.00  0.00     0.104 C 
HETATM    2  C2  UNL     1       2.387  -1.913   0.253  1.00  0.00    -0.128 C 
HETATM    3  C3  UNL     1       3.487  -1.147  -0.220  1.00  0.00     0.108 A 
HETATM    4  N1  UNL     1       4.710  -1.244   0.435  1.00  0.00    -0.342 N 
ATOM      5  H1  UNL     1       4.828  -1.820   1.269  1.00  0.00     0.167 HD
HETATM    6  C4  UNL     1       5.743  -0.529  -0.096  1.00  0.00     0.123 A 
HETATM    7  C5  UNL     1       6.975  -0.622   0.564  1.00  0.00     0.145 A 
HETATM    8  N3  UNL     1       7.989   0.084   0.041  1.00  0.00    -0.175 N 
ATOM      9  H3  UNL     1       8.901   0.044   0.497  1.00  0.00     0.186 HD
HETATM   10  C6  UNL     1       7.851   0.838  -1.055  1.00  0.00     0.679 A 
HETATM   11  N5  UNL     1       6.679   0.921  -1.684  1.00  0.00    -0.174 N 
ATOM     12  H5  UNL     1       6.578   1.494  -2.522  1.00  0.00     0.186 HD
HETATM   13  C7  UNL     1       5.621   0.227  -1.188  1.00  0.00     0.152 A 
HETATM   14  N6  UNL     1       4.419   0.344  -1.875  1.00  0.00    -0.332 N 
ATOM     15  H6  UNL     1       4.317   0.916  -2.714  1.00  0.00     0.168 HD
HETATM   16  C8  UNL     1       3.368  -0.380  -1.328  1.00  0.00     0.106 A 
ENDROOT
BRANCH  16  17
HETATM   17  S1  UNL     1       1.744  -0.193  -2.120  1.00  0.00    -0.100 SA
BRANCH  17  18
HETATM   18  C9  UNL     1       0.970   1.262  -1.428  1.00  0.00     0.183 C 
BRANCH  18  19
HETATM   19  C10 UNL     1       0.516   1.097   0.030  1.00  0.00     0.228 C 
HETATM   20  O1  UNL     1       1.204   1.323   0.927  1.00  0.00    -0.273 OA
HETATM   21  N7  UNL     1      -0.861   0.642   0.074  1.00  0.00    -0.345 N 
ATOM     22  H7  UNL     1      -1.256   0.485  -0.853  1.00  0.00     0.163 HD
BRANCH  21  23
HETATM   23  C11 UNL     1      -1.770   0.370   1.105  1.00  0.00     0.201 C 
BRANCH  23  24
HETATM   24  C12 UNL     1      -2.279  -0.936   1.441  1.00  0.00     0.207 C 
BRANCH  24  25
HETATM   25  O2  UNL     1      -3.038  -0.811   2.697  1.00  0.00    -0.337 OA
BRANCH  25  26
HETATM   26  C13 UNL     1      -2.639  -0.721   3.891  1.00  0.00     0.464 C 
BRANCH  26  27
HETATM   27  N8  UNL     1      -3.226  -0.563   5.157  1.00  0.00    -0.029 N 
ATOM     28  H83 UNL     1      -3.791   0.278   5.042  1.00  0.00     0.280 HD
ATOM     29  H82 UNL     1      -3.891  -1.335   5.197  1.00  0.00     0.280 HD
ATOM     30  H81 UNL     1      -2.904  -0.490   6.122  1.00  0.00     0.280 HD
ENDBRANCH  26  27
BRANCH  26  31
HETATM   31  O3  UNL     1      -1.271  -0.817   4.085  1.00  0.00    -0.350 OA
ATOM     32  H3  UNL     1      -0.971  -0.749   4.984  1.00  0.00     0.214 HD
ENDBRANCH  26  31
ENDBRANCH  25  26
ENDBRANCH  24  25
ENDBRANCH  23  24
BRANCH  23  33
HETATM   33  C14 UNL     1      -3.031   1.218   0.584  1.00  0.00     0.249 C 
HETATM   34  O4  UNL     1      -3.080   2.378   0.906  1.00  0.00    -0.271 OA
HETATM   35  N9  UNL     1      -3.906   0.485  -0.232  1.00  0.00    -0.295 N 
HETATM   36  C15 UNL     1      -4.992   1.066  -0.941  1.00  0.00     0.227 C 
ATOM     37  H9  UNL     1      -3.754  -0.520  -0.321  1.00  0.00     0.171 HD
HETATM   38  O5  UNL     1      -5.381   2.218  -0.703  1.00  0.00    -0.273 OA
BRANCH  36  39
HETATM   39  C16 UNL     1      -5.676   0.279  -2.020  1.00  0.00     0.070 C 
HETATM   40  C17 UNL     1      -5.882  -1.155  -1.731  1.00  0.00     0.019 C 
HETATM   41  C18 UNL     1      -7.007   0.949  -2.306  1.00  0.00     0.019 C 
ENDBRANCH  36  39
ENDBRANCH  23  33
ENDBRANCH  21  23
ENDBRANCH  18  19
ENDBRANCH  17  18
ENDBRANCH  16  17
BRANCH   7  42
HETATM   42  N2  UNL     1       7.097  -1.406   1.611  1.00  0.00    -0.383 N 
ATOM     43  H22 UNL     1       6.326  -1.943   2.009  1.00  0.00     0.157 HD
ATOM     44  H21 UNL     1       7.994  -1.474   2.092  1.00  0.00     0.157 HD
ENDBRANCH   7  42
BRANCH  10  45
HETATM   45  N4  UNL     1       8.925   1.487  -1.493  1.00  0.00    -0.234 N 
ATOM     46  H42 UNL     1       9.822   1.423  -1.012  1.00  0.00     0.174 HD
ATOM     47  H41 UNL     1       8.820   2.062  -2.329  1.00  0.00     0.174 HD
ENDBRANCH  10  45
TORSDOF 13
