REMARK  12 active torsions:
REMARK  status: ('A' for Active; 'I' for Inactive)
REMARK    1  A    between atoms: N1_1  and  C1_5 
REMARK    2  A    between atoms: C1_5  and  C2_6 
REMARK    3  A    between atoms: C2_6  and  N2_7 
REMARK    4  A    between atoms: N2_7  and  C3_9 
REMARK    5  A    between atoms: C6_16  and  N5_17 
REMARK    6  A    between atoms: N5_17  and  O1_19 
REMARK    7  A    between atoms: O1_19  and  C7_20 
REMARK    8  A    between atoms: C7_20  and  C8_21 
REMARK    9  A    between atoms: C11_24  and  C12_25 
REMARK   10  A    between atoms: C13_28  and  N7_29 
REMARK   11  A    between atoms: N7_29  and  C14_31 
REMARK   12  A    between atoms: C14_31  and  C15_32 
ROOT
HETATM    1  N5  UNL     1      -1.542  -2.661  -0.204  1.00  0.00    -0.248 N 
ATOM      2  H5  UNL     1      -0.983  -3.155  -0.899  1.00  0.00     0.196 HD
ENDROOT
BRANCH   1   3
HETATM    3  C6  UNL     1      -2.572  -1.999  -0.582  1.00  0.00     0.155 A 
HETATM    4  C5  UNL     1      -3.315  -1.337   0.368  1.00  0.00     0.110 A 
HETATM    5  N4  UNL     1      -3.023  -1.344   1.678  1.00  0.00    -0.347 N 
HETATM    6  C19 UNL     1      -4.434  -0.623  -0.070  1.00  0.00     0.108 A 
HETATM    7  C4  UNL     1      -3.755  -0.695   2.596  1.00  0.00     0.182 A 
ATOM      8  H4  UNL     1      -2.205  -1.868   1.991  1.00  0.00     0.167 HD
HETATM    9  N3  UNL     1      -4.846   0.006   2.197  1.00  0.00    -0.337 N 
HETATM   10  C3  UNL     1      -5.181   0.041   0.880  1.00  0.00     0.131 A 
ATOM     11  H3  UNL     1      -5.413   0.505   2.883  1.00  0.00     0.168 HD
HETATM   12  N13 UNL     1      -4.724  -0.617  -1.375  1.00  0.00    -0.347 N 
HETATM   13  C18 UNL     1      -3.993  -1.268  -2.312  1.00  0.00     0.182 A 
ATOM     14  H13 UNL     1      -5.543  -0.092  -1.683  1.00  0.00     0.167 HD
HETATM   15  N12 UNL     1      -2.909  -1.958  -1.881  1.00  0.00    -0.335 N 
ATOM     16  H12 UNL     1      -2.335  -2.458  -2.560  1.00  0.00     0.168 HD
BRANCH  10  17
HETATM   17  N2  UNL     1      -6.200   0.687   0.456  1.00  0.00    -0.373 N 
ATOM     18  H2  UNL     1      -6.392   0.670  -0.546  1.00  0.00     0.161 HD
BRANCH  17  19
HETATM   19  C2  UNL     1      -7.095   1.437   1.301  1.00  0.00     0.148 C 
BRANCH  19  20
HETATM   20  C1  UNL     1      -6.569   2.842   1.556  1.00  0.00     0.249 C 
BRANCH  20  21
HETATM   21  N1  UNL     1      -6.463   3.465   0.231  1.00  0.00    -0.078 N 
ATOM     22  H13 UNL     1      -5.901   2.930  -0.431  1.00  0.00     0.274 HD
ATOM     23  H12 UNL     1      -7.331   3.442  -0.304  1.00  0.00     0.274 HD
ATOM     24  H11 UNL     1      -6.110   4.407   0.402  1.00  0.00     0.274 HD
ENDBRANCH  20  21
ENDBRANCH  19  20
ENDBRANCH  17  19
ENDBRANCH  10  17
ENDBRANCH   1   3
BRANCH   1  25
HETATM   25  O1  UNL     1      -1.176  -2.718   1.118  1.00  0.00    -0.274 OA
BRANCH  25  26
HETATM   26  C7  UNL     1       0.017  -3.418   1.510  1.00  0.00     0.240 C 
BRANCH  26  27
HETATM   27  C8  UNL     1       1.133  -2.733   0.791  1.00  0.00    -0.030 A 
HETATM   28  C9  UNL     1       1.507  -3.089  -0.488  1.00  0.00     0.010 A 
HETATM   29  C10 UNL     1       2.542  -2.442  -1.138  1.00  0.00     0.018 A 
HETATM   30  C11 UNL     1       3.243  -1.416  -0.543  1.00  0.00     0.034 A 
HETATM   31  C16 UNL     1       2.868  -1.060   0.736  1.00  0.00     0.060 A 
HETATM   32  N11 UNL     1       3.581  -0.007   1.363  1.00  0.00    -0.101 NA
HETATM   33  C17 UNL     1       1.822  -1.709   1.404  1.00  0.00     0.037 A 
BRANCH  30  34
HETATM   34  C12 UNL     1       4.338  -0.724  -1.231  1.00  0.00     0.148 A 
HETATM   35  N6  UNL     1       5.073   0.268  -0.731  1.00  0.00    -0.173 N 
HETATM   36  C13 UNL     1       5.959   0.616  -1.679  1.00  0.00     0.694 A 
ATOM     37  H6  UNL     1       4.981   0.684   0.196  1.00  0.00     0.186 HD
HETATM   38  N9  UNL     1       5.766  -0.164  -2.757  1.00  0.00    -0.131 N 
HETATM   39  N10 UNL     1       4.777  -0.971  -2.465  1.00  0.00    -0.270 N 
ATOM     40  H9  UNL     1       6.289  -0.133  -3.632  1.00  0.00     0.205 HD
ATOM     41  H10 UNL     1       4.399  -1.683  -3.089  1.00  0.00     0.189 HD
BRANCH  36  42
HETATM   42  N7  UNL     1       6.878   1.537  -1.631  1.00  0.00    -0.216 N 
ATOM     43  H7  UNL     1       7.489   1.697  -2.432  1.00  0.00     0.178 HD
BRANCH  42  44
HETATM   44  C14 UNL     1       7.022   2.327  -0.436  1.00  0.00     0.237 C 
BRANCH  44  45
HETATM   45  C15 UNL     1       5.897   3.283  -0.361  1.00  0.00     0.249 C 
HETATM   46  N8  UNL     1       5.753   4.208   0.708  1.00  0.00    -0.061 NA
HETATM   47  O2  UNL     1       5.028   3.300  -1.258  1.00  0.00    -0.275 OA
ENDBRANCH  44  45
ENDBRANCH  42  44
ENDBRANCH  36  42
ENDBRANCH  30  34
ENDBRANCH  26  27
ENDBRANCH  25  26
ENDBRANCH   1  25
TORSDOF 12
