REMARK  8 active torsions:
REMARK  status: ('A' for Active; 'I' for Inactive)
REMARK    1  A    between atoms: N2_7  and  C4_8 
REMARK    2  A    between atoms: C4_8  and  C5_9 
REMARK    3  A    between atoms: C5_9  and  C6_10 
REMARK    4  A    between atoms: C6_10  and  C7_11 
REMARK    5  A    between atoms: C7_11  and  N3_12 
REMARK    6  A    between atoms: C10_15  and  C11_16 
REMARK    7  A    between atoms: C11_16  and  O1_17 
REMARK    8  A    between atoms: N4_19  and  O2_21 
ROOT
HETATM    1  C7  UNL     1       0.805  -0.167  -0.580  1.00  0.00     0.128 C 
ENDROOT
BRANCH   1   2
HETATM    2  C6  UNL     1       0.155   0.438   0.622  1.00  0.00     0.022 C 
BRANCH   2   3
HETATM    3  C5  UNL     1      -1.307   0.711   0.449  1.00  0.00     0.022 C 
BRANCH   3   4
HETATM    4  C4  UNL     1      -2.122  -0.511   0.150  1.00  0.00     0.129 C 
BRANCH   4   5
HETATM    5  N2  UNL     1      -3.507  -0.104   0.008  1.00  0.00    -0.353 N 
HETATM    6  C3  UNL     1      -4.353  -0.069   1.064  1.00  0.00     0.095 A 
HETATM    7  C2  UNL     1      -5.674   0.315   0.950  1.00  0.00     0.065 A 
HETATM    8  C1  UNL     1      -6.167   0.682  -0.282  1.00  0.00     0.100 A 
HETATM    9  N1  UNL     1      -7.415   1.053  -0.435  1.00  0.00    -0.385 N 
HETATM   10  N5  UNL     1      -5.318   0.644  -1.325  1.00  0.00    -0.339 N 
ATOM     11  H12 UNL     1      -8.059   1.082   0.356  1.00  0.00     0.157 HD
ATOM     12  H11 UNL     1      -7.780   1.325  -1.348  1.00  0.00     0.157 HD
HETATM   13  C14 UNL     1      -4.034   0.264  -1.180  1.00  0.00     0.184 A 
ATOM     14  H5  UNL     1      -5.656   0.910  -2.250  1.00  0.00     0.168 HD
ENDBRANCH   4   5
ENDBRANCH   3   4
ENDBRANCH   2   3
ENDBRANCH   1   2
BRANCH   1  15
HETATM   15  N3  UNL     1       2.209  -0.378  -0.277  1.00  0.00    -0.366 N 
HETATM   16  C8  UNL     1       2.641  -1.528   0.265  1.00  0.00     0.091 A 
HETATM   17  C9  UNL     1       3.979  -1.693   0.539  1.00  0.00     0.033 A 
HETATM   18  C10 UNL     1       4.942  -0.711   0.281  1.00  0.00     0.019 A 
HETATM   19  C12 UNL     1       4.474   0.450  -0.270  1.00  0.00     0.033 A 
HETATM   20  C13 UNL     1       3.113   0.577  -0.532  1.00  0.00     0.091 A 
BRANCH  18  21
HETATM   21  C11 UNL     1       6.318  -0.969   0.599  1.00  0.00     0.170 C 
HETATM   22  N4  UNL     1       7.294  -0.214   0.438  1.00  0.00    -0.247 N 
ATOM     23  H4  UNL     1       8.190  -0.600   0.736  1.00  0.00     0.196 HD
BRANCH  21  24
HETATM   24  O1  UNL     1       6.651  -2.236   1.174  1.00  0.00    -0.344 OA
ATOM     25  H1  UNL     1       7.562  -2.407   1.384  1.00  0.00     0.219 HD
ENDBRANCH  21  24
BRANCH  22  26
HETATM   26  O2  UNL     1       7.353   1.011  -0.059  1.00  0.00    -0.288 OA
ATOM     27  H2  UNL     1       8.098   1.587  -0.182  1.00  0.00     0.244 HD
ENDBRANCH  22  26
ENDBRANCH  18  21
ENDBRANCH   1  15
TORSDOF 8
