REMARK  6 active torsions:
REMARK  status: ('A' for Active; 'I' for Inactive)
REMARK    1  A    between atoms: C3_3  and  C4_4 
REMARK    2  A    between atoms: C4_4  and  N1_5 
REMARK       I    between atoms: N1_5  and  C5_7 
REMARK       I    between atoms: C5_7  and  N5_22 
REMARK    3  A    between atoms: N2_8  and  C6_10 
REMARK    4  A    between atoms: C6_10  and  C7_11 
REMARK    5  A    between atoms: C7_11  and  N3_12 
REMARK    6  A    between atoms: N3_12  and  C8_14 
ROOT
HETATM    1  C1  UNL     1       6.398   0.431   2.532  1.00  0.00     0.012 C 
HETATM    2  C2  UNL     1       6.097   1.040   1.544  1.00  0.00    -0.116 C 
HETATM    3  C3  UNL     1       5.756   1.788   0.336  1.00  0.00     0.113 C 
ENDROOT
BRANCH   3   4
HETATM    4  C4  UNL     1       4.288   1.554   0.027  1.00  0.00     0.150 C 
BRANCH   4   5
HETATM    5  N1  UNL     1       4.030   0.143  -0.188  1.00  0.00    -0.225 N 
HETATM    6  C5  UNL     1       2.745  -0.371  -0.505  1.00  0.00     0.681 C 
HETATM    7  N2  UNL     1       1.685   0.265  -0.124  1.00  0.00    -0.221 N 
HETATM    8  N5  UNL     1       2.676  -1.580  -1.240  1.00  0.00    -0.150 N 
ATOM      9  H2  UNL     1       1.782   1.133   0.403  1.00  0.00     0.178 HD
HETATM   10  C15 UNL     1       3.517  -1.781  -2.325  1.00  0.00     0.015 C 
ATOM     11  H5  UNL     1       2.008  -2.303  -0.972  1.00  0.00     0.195 HD
HETATM   12  C16 UNL     1       4.245  -1.938  -3.277  1.00  0.00     0.037 C 
ATOM     13  H1  UNL     1       4.809  -0.511  -0.108  1.00  0.00     0.177 HD
BRANCH   7  14
HETATM   14  C6  UNL     1       0.353  -0.241  -0.437  1.00  0.00     0.182 C 
BRANCH  14  15
HETATM   15  C7  UNL     1      -0.244  -0.966   0.738  1.00  0.00     0.076 C 
BRANCH  15  16
HETATM   16  N3  UNL     1      -1.497  -1.505   0.564  1.00  0.00    -0.394 N 
ATOM     17  H3  UNL     1      -1.537  -2.523   0.511  1.00  0.00     0.159 HD
BRANCH  16  18
HETATM   18  C8  UNL     1      -2.701  -0.855   0.452  1.00  0.00     0.113 C 
HETATM   19  C9  UNL     1      -3.170  -0.033   1.661  1.00  0.00     0.297 C 
HETATM   20  N4  UNL     1      -4.463   0.495   1.279  1.00  0.00     0.090 N 
HETATM   21  C10 UNL     1      -5.173  -0.309   0.311  1.00  0.00     0.273 C 
HETATM   22  C14 UNL     1      -4.205   1.768   0.585  1.00  0.00     0.273 C 
HETATM   23  C11 UNL     1      -4.496  -0.286  -1.070  1.00  0.00     0.037 C 
HETATM   24  C12 UNL     1      -3.012   0.014  -0.734  1.00  0.00     0.013 C 
HETATM   25  C13 UNL     1      -3.085   1.507  -0.374  1.00  0.00     0.037 C 
ENDBRANCH  16  18
ENDBRANCH  15  16
ENDBRANCH  14  15
ENDBRANCH   7  14
ENDBRANCH   4   5
ENDBRANCH   3   4
TORSDOF 6
