REMARK  7 active torsions:
REMARK  status: ('A' for Active; 'I' for Inactive)
REMARK    1  A    between atoms: S1_2  and  C2_3 
REMARK    2  A    between atoms: N2_8  and  C6_9 
REMARK    3  A    between atoms: C6_9  and  C7_10 
REMARK    4  A    between atoms: C7_10  and  C8_11 
REMARK    5  A    between atoms: C9_12  and  C10_13 
REMARK    6  A    between atoms: C10_13  and  N3_14 
REMARK    7  A    between atoms: C12_18  and  N5_19 
ROOT
HETATM    1  C8  UNL     1       1.242  -0.115   0.101  1.00  0.00    -0.027 C 
HETATM    2  C9  UNL     1       1.564  -0.692   1.238  1.00  0.00    -0.009 C 
ENDROOT
BRANCH   2   3
HETATM    3  C10 UNL     1       2.934  -1.148   1.560  1.00  0.00     0.177 C 
BRANCH   3   4
HETATM    4  N3  UNL     1       3.865  -0.894   0.503  1.00  0.00    -0.270 N 
HETATM    5  C11 UNL     1       4.158  -1.724  -0.512  1.00  0.00     0.218 A 
HETATM    6  N4  UNL     1       5.084  -1.129  -1.307  1.00  0.00    -0.185 N 
HETATM    7  C12 UNL     1       5.355   0.070  -0.772  1.00  0.00     0.691 A 
ATOM      8  H4  UNL     1       5.497  -1.521  -2.153  1.00  0.00     0.185 HD
HETATM    9  N6  UNL     1       4.602   0.188   0.326  1.00  0.00    -0.129 N 
ATOM     10  H6  UNL     1       4.597   1.001   0.942  1.00  0.00     0.206 HD
BRANCH   7  11
HETATM   11  N5  UNL     1       6.180   0.944  -1.222  1.00  0.00    -0.233 N 
ATOM     12  H52 UNL     1       6.755   0.854  -2.060  1.00  0.00     0.174 HD
ATOM     13  H51 UNL     1       6.386   1.856  -0.815  1.00  0.00     0.174 HD
ENDBRANCH   7  11
ENDBRANCH   3   4
ENDBRANCH   2   3
BRANCH   1  14
HETATM   14  C7  UNL     1      -0.134   0.322  -0.176  1.00  0.00     0.047 C 
BRANCH  14  15
HETATM   15  C6  UNL     1      -1.070   0.021   0.989  1.00  0.00     0.134 C 
BRANCH  15  16
HETATM   16  N2  UNL     1      -2.422   0.460   0.697  1.00  0.00    -0.336 N 
HETATM   17  C2  UNL     1      -3.414  -0.238   0.119  1.00  0.00     0.088 A 
HETATM   18  C3  UNL     1      -4.516   0.582   0.045  1.00  0.00     0.128 A 
HETATM   19  N1  UNL     1      -4.191   1.764   0.573  1.00  0.00    -0.354 N 
HETATM   20  C4  UNL     1      -5.065   2.926   0.697  1.00  0.00     0.156 C 
HETATM   21  C5  UNL     1      -2.922   1.677   0.964  1.00  0.00     0.185 A 
BRANCH  17  22
HETATM   22  S1  UNL     1      -3.371  -1.906  -0.454  1.00  0.00    -0.115 SA
HETATM   23  C1  UNL     1      -2.873  -1.973  -2.191  1.00  0.00     0.097 C 
ENDBRANCH  17  22
ENDBRANCH  15  16
ENDBRANCH  14  15
ENDBRANCH   1  14
TORSDOF 7
