REMARK  8 active torsions:
REMARK  status: ('A' for Active; 'I' for Inactive)
REMARK    1  A    between atoms: N1_2  and  C2_4 
REMARK    2  A    between atoms: C4_11  and  N4_12 
REMARK    3  A    between atoms: N5_15  and  C5_16 
REMARK    4  A    between atoms: C5_16  and  C6_17 
REMARK    5  A    between atoms: C6_17  and  C7_18 
REMARK    6  A    between atoms: C7_18  and  C8_19 
REMARK    7  A    between atoms: C8_19  and  C9_20 
REMARK    8  A    between atoms: C9_20  and  N6_21 
ROOT
HETATM    1  C2  UNL     1      -3.409   0.014   0.776  1.00  0.00     0.698 A 
HETATM    2  N2  UNL     1      -4.503   0.678   0.394  1.00  0.00    -0.140 N 
ATOM      3  H2  UNL     1      -5.406   0.205   0.378  1.00  0.00     0.189 HD
HETATM    4  C3  UNL     1      -4.415   1.976   0.029  1.00  0.00     0.352 A 
HETATM    5  O1  UNL     1      -5.471   2.590  -0.332  1.00  0.00    -0.246 OA
HETATM    6  N3  UNL     1      -3.226   2.615   0.046  1.00  0.00    -0.140 N 
ATOM      7  H3  UNL     1      -3.162   3.595  -0.230  1.00  0.00     0.189 HD
HETATM    8  C4  UNL     1      -2.126   1.943   0.431  1.00  0.00     0.696 A 
HETATM    9  N5  UNL     1      -2.203   0.652   0.796  1.00  0.00    -0.014 N 
ENDROOT
BRANCH   9  10
HETATM   10  C5  UNL     1      -1.021  -0.058   1.207  1.00  0.00     0.167 C 
BRANCH  10  11
HETATM   11  C6  UNL     1      -0.320  -0.732   0.030  1.00  0.00     0.022 C 
BRANCH  11  12
HETATM   12  C7  UNL     1       0.893  -1.433   0.602  1.00  0.00     0.003 C 
BRANCH  12  13
HETATM   13  C8  UNL     1       1.658  -2.117  -0.472  1.00  0.00     0.020 C 
BRANCH  13  14
HETATM   14  C9  UNL     1       2.244  -1.213  -1.519  1.00  0.00     0.128 C 
BRANCH  14  15
HETATM   15  N6  UNL     1       3.222  -0.288  -1.009  1.00  0.00    -0.366 N 
HETATM   16  C10 UNL     1       4.530  -0.682  -0.957  1.00  0.00     0.090 A 
HETATM   17  C11 UNL     1       5.533   0.114  -0.506  1.00  0.00     0.017 A 
HETATM   18  C12 UNL     1       5.256   1.391  -0.070  1.00  0.00     0.003 A 
HETATM   19  C13 UNL     1       3.949   1.811  -0.112  1.00  0.00     0.017 A 
HETATM   20  C14 UNL     1       2.953   0.947  -0.588  1.00  0.00     0.090 A 
ENDBRANCH  14  15
ENDBRANCH  13  14
ENDBRANCH  12  13
ENDBRANCH  11  12
ENDBRANCH  10  11
ENDBRANCH   9  10
BRANCH   1  21
HETATM   21  N1  UNL     1      -3.409  -1.224   1.138  1.00  0.00    -0.230 N 
HETATM   22  C1  UNL     1      -4.679  -1.943   1.131  1.00  0.00     0.165 C 
ATOM     23  H1  UNL     1      -2.546  -1.687   1.421  1.00  0.00     0.177 HD
ENDBRANCH   1  21
BRANCH   8  24
HETATM   24  N4  UNL     1      -0.989   2.585   0.439  1.00  0.00    -0.234 N 
ATOM     25  H42 UNL     1      -0.931   3.565   0.162  1.00  0.00     0.174 HD
ATOM     26  H41 UNL     1      -0.155   2.075   0.731  1.00  0.00     0.174 HD
ENDBRANCH   8  24
TORSDOF 8
