REMARK  8 active torsions:
REMARK  status: ('A' for Active; 'I' for Inactive)
REMARK    1  A    between atoms: N1_3  and  C4_5 
REMARK    2  A    between atoms: C4_5  and  C5_6 
REMARK    3  A    between atoms: C5_6  and  N2_7 
REMARK    4  A    between atoms: N2_7  and  C6_9 
REMARK    5  A    between atoms: C7_14  and  N5_15 
REMARK    6  A    between atoms: N5_15  and  C8_17 
REMARK    7  A    between atoms: C8_17  and  C9_18 
REMARK    8  A    between atoms: C9_18  and  C10_19 
ROOT
HETATM    1  C1  UNL     1       6.539   1.469  -1.293  1.00  0.00     0.123 C 
HETATM    2  C2  UNL     1       6.160   0.510  -0.636  1.00  0.00    -0.078 C 
HETATM    3  N1  UNL     1       5.747  -0.593   0.116  1.00  0.00    -0.355 N 
HETATM    4  C3  UNL     1       5.832  -1.898  -0.500  1.00  0.00     0.159 C 
ENDROOT
BRANCH   3   5
HETATM    5  C4  UNL     1       5.256  -0.412   1.465  1.00  0.00     0.151 C 
BRANCH   5   6
HETATM    6  C5  UNL     1       3.767  -0.721   1.553  1.00  0.00     0.158 C 
BRANCH   6   7
HETATM    7  N2  UNL     1       3.021   0.137   0.699  1.00  0.00    -0.223 N 
ATOM      8  H2  UNL     1       3.522   0.935   0.309  1.00  0.00     0.177 HD
BRANCH   7   9
HETATM    9  C6  UNL     1       1.789   0.020   0.364  1.00  0.00     0.707 A 
HETATM   10  N3  UNL     1       0.870  -0.908   0.703  1.00  0.00    -0.117 N 
HETATM   11  N4  UNL     1      -0.274  -0.593   0.096  1.00  0.00    -0.117 N 
ATOM     12  H3  UNL     1       1.024  -1.709   1.316  1.00  0.00     0.206 HD
HETATM   13  C7  UNL     1      -0.110   0.526  -0.633  1.00  0.00     0.707 A 
ATOM     14  H4  UNL     1      -1.143  -1.121   0.173  1.00  0.00     0.206 HD
HETATM   15  N6  UNL     1       1.180   0.898  -0.457  1.00  0.00    -0.020 N 
ATOM     16  H6  UNL     1       1.621   1.715  -0.880  1.00  0.00     0.203 HD
BRANCH  13  17
HETATM   17  N5  UNL     1      -0.989   1.156  -1.372  1.00  0.00    -0.224 N 
ATOM     18  H5  UNL     1      -0.704   2.001  -1.867  1.00  0.00     0.177 HD
BRANCH  17  19
HETATM   19  C8  UNL     1      -2.353   0.688  -1.507  1.00  0.00     0.142 C 
BRANCH  19  20
HETATM   20  C9  UNL     1      -3.090   1.106  -0.255  1.00  0.00     0.058 C 
BRANCH  20  21
HETATM   21  C10 UNL     1      -4.498   0.710  -0.226  1.00  0.00    -0.057 A 
HETATM   22  C11 UNL     1      -5.483   1.553  -0.726  1.00  0.00     0.007 A 
HETATM   23  C12 UNL     1      -6.821   1.205  -0.717  1.00  0.00     0.001 A 
HETATM   24  C13 UNL     1      -7.228  -0.016  -0.200  1.00  0.00     0.000 A 
HETATM   25  C14 UNL     1      -6.237  -0.841   0.292  1.00  0.00     0.001 A 
HETATM   26  C15 UNL     1      -4.920  -0.514   0.290  1.00  0.00     0.007 A 
ENDBRANCH  20  21
ENDBRANCH  19  20
ENDBRANCH  17  19
ENDBRANCH  13  17
ENDBRANCH   7   9
ENDBRANCH   6   7
ENDBRANCH   5   6
ENDBRANCH   3   5
TORSDOF 8
