REMARK  13 active torsions:
REMARK  status: ('A' for Active; 'I' for Inactive)
REMARK    1  A    between atoms: C7_21  and  C8_22 
REMARK       I    between atoms: C8_22  and  N6_24 
REMARK    2  A    between atoms: N6_24  and  C9_26 
REMARK    3  A    between atoms: C9_26  and  C10_27 
REMARK    4  A    between atoms: C10_27  and  N7_28 
REMARK    5  A    between atoms: C11_30  and  C12_31 
REMARK    6  A    between atoms: C11_30  and  C14_40 
REMARK    7  A    between atoms: C12_31  and  C13_33 
REMARK    8  A    between atoms: C13_33  and  N8_34 
REMARK    9  A    between atoms: C13_33  and  O6_38 
REMARK   10  A    between atoms: C14_40  and  O7_41 
REMARK   11  A    between atoms: C14_40  and  C15_43 
REMARK   12  A    between atoms: C15_43  and  C16_45 
REMARK   13  A    between atoms: C16_45  and  O9_46 
ROOT
HETATM    1  C8  UNL     1       1.800  -0.813   0.121  1.00  0.00     0.253 C 
HETATM    2  O4  UNL     1       1.646  -1.723  -0.768  1.00  0.00    -0.268 OA
HETATM    3  N6  UNL     1       0.936  -0.837   1.256  1.00  0.00    -0.355 N 
ATOM      4  H6  UNL     1       1.046  -0.109   1.962  1.00  0.00     0.162 HD
ENDROOT
BRANCH   1   5
HETATM    5  C7  UNL     1       2.840   0.148  -0.112  1.00  0.00     0.069 A 
HETATM    6  C6  UNL     1       4.115  -0.034   0.434  1.00  0.00     0.093 A 
HETATM    7  C3  UNL     1       5.135   0.902   0.253  1.00  0.00     0.128 A 
HETATM    8  C5  UNL     1       4.404  -1.148   1.157  1.00  0.00     0.264 A 
HETATM    9  N3  UNL     1       4.875   2.001  -0.466  1.00  0.00    -0.319 N 
HETATM   10  N4  UNL     1       6.361   0.712   0.776  1.00  0.00    -0.293 N 
HETATM   11  C2  UNL     1       3.669   2.226  -1.015  1.00  0.00     0.187 A 
ATOM     12  H3  UNL     1       5.616   2.689  -0.601  1.00  0.00     0.169 HD
HETATM   13  O1  UNL     1       3.226   3.224  -1.742  1.00  0.00    -0.217 OA
HETATM   14  C17 UNL     1       2.626   1.295  -0.844  1.00  0.00     0.079 A 
HETATM   15  N2  UNL     1       1.999   3.024  -2.056  1.00  0.00    -0.242 N 
HETATM   16  C1  UNL     1       1.570   1.825  -1.518  1.00  0.00     0.135 A 
ATOM     17  H2  UNL     1       1.426   3.654  -2.618  1.00  0.00     0.196 HD
HETATM   18  N1  UNL     1       0.409   1.348  -1.659  1.00  0.00    -0.383 N 
ATOM     19  H12 UNL     1      -0.383   1.745  -2.164  1.00  0.00     0.157 HD
ATOM     20  H11 UNL     1       0.092   0.463  -1.262  1.00  0.00     0.157 HD
HETATM   21  C4  UNL     1       6.634  -0.394   1.491  1.00  0.00     0.328 A 
ATOM     22  H4  UNL     1       7.088   1.412   0.629  1.00  0.00     0.172 HD
HETATM   23  O2  UNL     1       7.789  -0.565   1.980  1.00  0.00    -0.247 OA
HETATM   24  N5  UNL     1       5.663  -1.300   1.670  1.00  0.00    -0.275 N 
ATOM     25  H5  UNL     1       5.872  -2.139   2.212  1.00  0.00     0.173 HD
HETATM   26  O3  UNL     1       3.547  -2.050   1.370  1.00  0.00    -0.267 OA
ENDBRANCH   1   5
BRANCH   3  27
HETATM   27  C9  UNL     1      -0.066  -1.817   1.455  1.00  0.00     0.142 C 
BRANCH  27  28
HETATM   28  C10 UNL     1      -1.190  -1.888   0.482  1.00  0.00     0.139 C 
BRANCH  28  29
HETATM   29  N7  UNL     1      -2.001  -0.711   0.477  1.00  0.00    -0.386 N 
HETATM   30  C11 UNL     1      -3.036  -0.465  -0.230  1.00  0.00     0.092 C 
ATOM     31  H7  UNL     1      -1.717   0.027   1.121  1.00  0.00     0.159 HD
BRANCH  30  32
HETATM   32  C12 UNL     1      -3.576  -1.405  -1.199  1.00  0.00     0.230 C 
HETATM   33  O5  UNL     1      -3.023  -2.545  -1.390  1.00  0.00    -0.286 OA
BRANCH  32  34
HETATM   34  C13 UNL     1      -4.773  -1.154  -2.028  1.00  0.00     0.393 C 
BRANCH  34  35
HETATM   35  N8  UNL     1      -4.396  -0.272  -3.153  1.00  0.00    -0.046 N 
ATOM     36  H83 UNL     1      -3.951   0.591  -2.840  1.00  0.00     0.277 HD
ATOM     37  H82 UNL     1      -3.617  -0.644  -3.696  1.00  0.00     0.277 HD
ATOM     38  H81 UNL     1      -5.222  -0.099  -3.725  1.00  0.00     0.277 HD
ENDBRANCH  34  35
BRANCH  34  39
HETATM   39  O6  UNL     1      -5.189  -2.339  -2.677  1.00  0.00    -0.364 OA
ATOM     40  H6  UNL     1      -5.959  -2.178  -3.210  1.00  0.00     0.212 HD
ENDBRANCH  34  39
ENDBRANCH  32  34
ENDBRANCH  30  32
BRANCH  30  41
HETATM   41  C14 UNL     1      -3.705   0.861   0.005  1.00  0.00     0.243 C 
BRANCH  41  42
HETATM   42  O7  UNL     1      -3.475   1.628  -1.165  1.00  0.00    -0.382 OA
ATOM     43  H7  UNL     1      -3.898   2.466  -1.017  1.00  0.00     0.211 HD
ENDBRANCH  41  42
BRANCH  41  44
HETATM   44  C15 UNL     1      -3.026   1.561   1.132  1.00  0.00     0.184 C 
HETATM   45  O8  UNL     1      -2.304   2.542   0.906  1.00  0.00    -0.292 OA
BRANCH  44  46
HETATM   46  C16 UNL     1      -3.238   1.061   2.508  1.00  0.00     0.245 C 
BRANCH  46  47
HETATM   47  O9  UNL     1      -2.523   1.823   3.447  1.00  0.00    -0.393 OA
ATOM     48  H9  UNL     1      -2.659   1.502   4.331  1.00  0.00     0.209 HD
ENDBRANCH  46  47
ENDBRANCH  44  46
ENDBRANCH  41  44
ENDBRANCH  30  41
ENDBRANCH  28  29
ENDBRANCH  27  28
ENDBRANCH   3  27
TORSDOF 13
