REMARK  12 active torsions:
REMARK  status: ('A' for Active; 'I' for Inactive)
REMARK    1  A    between atoms: O1_2  and  N1_3 
REMARK       I    between atoms: C2_5  and  N3_7 
REMARK    2  A    between atoms: N3_7  and  N4_9 
REMARK    3  A    between atoms: C5_15  and  N6_16 
REMARK    4  A    between atoms: N6_16  and  C6_18 
REMARK    5  A    between atoms: C6_18  and  C7_19 
REMARK    6  A    between atoms: C7_19  and  N7_20 
REMARK       I    between atoms: N7_20  and  C8_22 
REMARK    7  A    between atoms: C8_22  and  C9_24 
REMARK    8  A    between atoms: C9_24  and  O4_25 
REMARK    9  A    between atoms: C9_24  and  C10_27 
REMARK   10  A    between atoms: C10_27  and  N8_28 
REMARK   11  A    between atoms: N11_39  and  C13_40 
REMARK   12  A    between atoms: C13_40  and  C14_41 
ROOT
HETATM    1  N4  UNL     1       3.313   0.165  -0.188  1.00  0.00    -0.163 N 
HETATM    2  C3  UNL     1       1.971   0.308  -0.166  1.00  0.00     0.300 A 
HETATM    3  O2  UNL     1       1.389   1.362   0.173  1.00  0.00    -0.263 OA
HETATM    4  C4  UNL     1       1.216  -0.777  -0.538  1.00  0.00     0.150 A 
HETATM    5  N5  UNL     1      -0.126  -0.693  -0.536  1.00  0.00    -0.184 N 
ATOM      6  H5  UNL     1      -0.570   0.181  -0.254  1.00  0.00     0.184 HD
HETATM    7  C5  UNL     1      -0.901  -1.739  -0.898  1.00  0.00     0.680 A 
HETATM    8  N9  UNL     1      -0.320  -2.892  -1.269  1.00  0.00    -0.175 N 
ATOM      9  H9  UNL     1      -0.907  -3.680  -1.542  1.00  0.00     0.186 HD
HETATM   10  C11 UNL     1       1.039  -3.035  -1.290  1.00  0.00     0.144 A 
HETATM   11  N10 UNL     1       1.531  -4.148  -1.652  1.00  0.00    -0.383 N 
ATOM     12 1H10 UNL     1       2.545  -4.255  -1.668  1.00  0.00     0.157 HD
ATOM     13 2H10 UNL     1       0.941  -4.934  -1.924  1.00  0.00     0.157 HD
HETATM   14  C12 UNL     1       1.828  -1.983  -0.926  1.00  0.00     0.120 A 
HETATM   15  N11 UNL     1       3.180  -2.112  -0.944  1.00  0.00    -0.261 N 
HETATM   16  C15 UNL     1       3.850  -0.978  -0.557  1.00  0.00     0.356 A 
HETATM   17  O7  UNL     1       5.129  -1.041  -0.554  1.00  0.00    -0.244 OA
ENDROOT
BRANCH   7  18
HETATM   18  N6  UNL     1      -2.184  -1.633  -0.887  1.00  0.00    -0.224 N 
ATOM     19  H6  UNL     1      -2.748  -2.437  -1.164  1.00  0.00     0.177 HD
BRANCH  18  20
HETATM   20  C6  UNL     1      -2.855  -0.408  -0.494  1.00  0.00     0.157 C 
BRANCH  20  21
HETATM   21  C7  UNL     1      -4.359  -0.601  -0.457  1.00  0.00     0.143 C 
BRANCH  21  22
HETATM   22  N7  UNL     1      -5.077   0.572  -0.080  1.00  0.00    -0.357 N 
HETATM   23  C8  UNL     1      -4.938   1.253   1.151  1.00  0.00     0.248 C 
HETATM   24  O3  UNL     1      -4.129   0.848   2.046  1.00  0.00    -0.271 OA
ATOM     25  H7  UNL     1      -5.744   0.950  -0.752  1.00  0.00     0.162 HD
BRANCH  23  26
HETATM   26  C9  UNL     1      -5.726   2.467   1.458  1.00  0.00     0.235 C 
BRANCH  26  27
HETATM   27  O4  UNL     1      -5.424   2.962   2.714  1.00  0.00    -0.384 OA
ATOM     28  H4  UNL     1      -5.930   3.742   2.911  1.00  0.00     0.210 HD
ENDBRANCH  26  27
BRANCH  26  29
HETATM   29  C10 UNL     1      -7.215   2.216   1.350  1.00  0.00     0.271 C 
BRANCH  29  30
HETATM   30  N8  UNL     1      -7.916   3.458   1.560  1.00  0.00    -0.076 N 
ATOM     31  H83 UNL     1      -7.660   3.905   2.441  1.00  0.00     0.274 HD
ATOM     32  H82 UNL     1      -7.599   4.194   0.929  1.00  0.00     0.274 HD
ATOM     33  H81 UNL     1      -8.919   3.289   1.487  1.00  0.00     0.274 HD
ENDBRANCH  29  30
ENDBRANCH  26  29
ENDBRANCH  23  26
ENDBRANCH  21  22
ENDBRANCH  20  21
ENDBRANCH  18  20
ENDBRANCH   7  18
BRANCH   1  34
HETATM   34  N3  UNL     1       4.081   1.254   0.186  1.00  0.00    -0.258 N 
HETATM   35  C2  UNL     1       5.483   1.335   0.238  1.00  0.00     0.228 C 
HETATM   36  N1  UNL     1       6.130   1.765  -0.779  1.00  0.00    -0.238 N 
HETATM   37  N2  UNL     1       6.191   0.957   1.399  1.00  0.00    -0.060 NA
ATOM     38  H1  UNL     1       7.147   1.824  -0.725  1.00  0.00     0.197 HD
ATOM     39  H3  UNL     1       3.570   2.095   0.455  1.00  0.00     0.190 HD
BRANCH  36  40
HETATM   40  O1  UNL     1       5.504   2.152  -1.947  1.00  0.00    -0.283 OA
HETATM   41  C1  UNL     1       4.776   3.362  -2.048  1.00  0.00     0.237 C 
ENDBRANCH  36  40
ENDBRANCH   1  34
BRANCH  15  42
HETATM   42  C13 UNL     1       3.885  -3.278  -1.300  1.00  0.00     0.186 C 
BRANCH  42  43
HETATM   43  C14 UNL     1       4.224  -4.210  -0.171  1.00  0.00     0.215 C 
HETATM   44  O5  UNL     1       4.849  -5.242  -0.476  1.00  0.00    -0.643 OA
HETATM   45  O6  UNL     1       3.882  -3.971   1.125  1.00  0.00    -0.643 OA
ENDBRANCH  42  43
ENDBRANCH  15  42
TORSDOF 12
