REMARK  14 active torsions:
REMARK  status: ('A' for Active; 'I' for Inactive)
REMARK    1  A    between atoms: N1_1  and  N2_4 
REMARK    2  A    between atoms: C3_8  and  N3_9 
REMARK       I    between atoms: N3_9  and  C4_11 
REMARK    3  A    between atoms: C4_11  and  C5_13 
REMARK    4  A    between atoms: C5_13  and  N4_14 
REMARK    5  A    between atoms: C5_13  and  C6_18 
REMARK    6  A    between atoms: C6_18  and  C7_19 
REMARK    7  A    between atoms: C7_19  and  N5_20 
REMARK    8  A    between atoms: N5_20  and  C8_22 
REMARK    9  A    between atoms: C10_26  and  O2_27 
REMARK   10  A    between atoms: C11_29  and  O3_30 
REMARK   11  A    between atoms: C12_32  and  O4_33 
REMARK   12  A    between atoms: C12_32  and  C13_35 
REMARK   13  A    between atoms: C14_40  and  S1_41 
REMARK   14  A    between atoms: S1_41  and  N9_42 
ROOT
HETATM    1  C5  UNL     1       0.102  -1.299   1.242  1.00  0.00     0.276 C 
ENDROOT
BRANCH   1   2
HETATM    2  C4  UNL     1       1.345  -0.411   1.149  1.00  0.00     0.254 C 
HETATM    3  N3  UNL     1       2.558  -0.967   0.778  1.00  0.00    -0.311 N 
ATOM      4  H3  UNL     1       2.552  -1.971   0.596  1.00  0.00     0.170 HD
HETATM    5  O1  UNL     1       1.201   0.800   1.417  1.00  0.00    -0.271 OA
BRANCH   3   6
HETATM    6  C3  UNL     1       3.792  -0.323   0.621  1.00  0.00     0.113 A 
HETATM    7  C2  UNL     1       4.037   1.012   0.798  1.00  0.00     0.098 A 
HETATM    8  C1  UNL     1       5.321   1.530   0.607  1.00  0.00     0.125 A 
HETATM    9  N2  UNL     1       5.475   2.791   0.789  1.00  0.00    -0.292 N 
HETATM   10  N10 UNL     1       6.352   0.753   0.246  1.00  0.00    -0.316 N 
ATOM     11  H2  UNL     1       4.650   3.327   1.060  1.00  0.00     0.188 HD
HETATM   12  C14 UNL     1       6.113  -0.552   0.073  1.00  0.00     0.226 A 
ATOM     13  H10 UNL     1       7.285   1.142   0.108  1.00  0.00     0.169 HD
HETATM   14  N8  UNL     1       4.900  -1.060   0.251  1.00  0.00    -0.317 N 
ATOM     15  H8  UNL     1       4.778  -2.062   0.105  1.00  0.00     0.169 HD
BRANCH   9  16
HETATM   16  N1  UNL     1       6.665   3.488   0.649  1.00  0.00    -0.344 N 
ATOM     17  H12 UNL     1       7.479   2.936   0.377  1.00  0.00     0.176 HD
ATOM     18  H11 UNL     1       6.787   4.490   0.794  1.00  0.00     0.176 HD
ENDBRANCH   9  16
BRANCH  12  19
HETATM   19  S1  UNL     1       7.414  -1.661  -0.399  1.00  0.00     0.289 S 
HETATM   20  O6  UNL     1       7.508  -2.672   0.709  1.00  0.00    -0.198 OA
HETATM   21  O7  UNL     1       6.991  -2.284  -1.697  1.00  0.00    -0.198 OA
BRANCH  19  22
HETATM   22  N9  UNL     1       8.876  -0.779  -0.580  1.00  0.00    -0.322 N 
ATOM     23  H92 UNL     1       8.966   0.227  -0.435  1.00  0.00     0.169 HD
ATOM     24  H91 UNL     1       9.624  -1.417  -0.851  1.00  0.00     0.169 HD
ENDBRANCH  19  22
ENDBRANCH  12  19
ENDBRANCH   3   6
ENDBRANCH   1   2
BRANCH   1  25
HETATM   25  N4  UNL     1       0.412  -2.648   0.899  1.00  0.00    -0.066 N 
ATOM     26  H43 UNL     1       0.852  -2.711  -0.019  1.00  0.00     0.275 HD
ATOM     27  H42 UNL     1       1.179  -3.013   1.464  1.00  0.00     0.275 HD
ATOM     28  H41 UNL     1      -0.416  -3.240   0.961  1.00  0.00     0.275 HD
ENDBRANCH   1  25
BRANCH   1  29
HETATM   29  C6  UNL     1      -0.853  -0.727   0.204  1.00  0.00     0.062 C 
BRANCH  29  30
HETATM   30  C7  UNL     1      -2.097  -1.556   0.237  1.00  0.00     0.123 C 
BRANCH  30  31
HETATM   31  N5  UNL     1      -3.040  -1.093  -0.732  1.00  0.00    -0.377 N 
ATOM     32  H5  UNL     1      -3.207  -1.701  -1.534  1.00  0.00     0.160 HD
BRANCH  31  33
HETATM   33  C8  UNL     1      -3.769   0.127  -0.695  1.00  0.00     0.120 C 
HETATM   34  N6  UNL     1      -3.194   1.220  -0.537  1.00  0.00    -0.374 N 
HETATM   35  C9  UNL     1      -3.848   2.476  -0.488  1.00  0.00     0.155 C 
ATOM     36  H6  UNL     1      -2.179   1.211  -0.436  1.00  0.00     0.160 HD
HETATM   37  C10 UNL     1      -5.300   2.390  -0.077  1.00  0.00     0.168 C 
HETATM   38  C11 UNL     1      -6.014   1.249  -0.740  1.00  0.00     0.199 C 
HETATM   39  C12 UNL     1      -5.238  -0.004  -0.865  1.00  0.00     0.222 C 
BRANCH  37  40
HETATM   40  O2  UNL     1      -5.395   2.353   1.311  1.00  0.00    -0.391 OA
ATOM     41  H2  UNL     1      -6.308   2.299   1.569  1.00  0.00     0.210 HD
ENDBRANCH  37  40
BRANCH  38  42
HETATM   42  O3  UNL     1      -6.466   1.686  -2.006  1.00  0.00    -0.389 OA
ATOM     43  H3  UNL     1      -6.918   0.964  -2.426  1.00  0.00     0.210 HD
ENDBRANCH  38  42
BRANCH  39  44
HETATM   44  O4  UNL     1      -5.399  -0.496  -2.184  1.00  0.00    -0.371 OA
ATOM     45  H4  UNL     1      -6.339  -0.580  -2.293  1.00  0.00     0.211 HD
ENDBRANCH  39  44
BRANCH  39  46
HETATM   46  C13 UNL     1      -5.688  -1.068   0.064  1.00  0.00     0.276 C 
HETATM   47  N7  UNL     1      -6.157  -2.304  -0.445  1.00  0.00    -0.059 NA
HETATM   48  O5  UNL     1      -5.673  -0.923   1.318  1.00  0.00    -0.273 OA
ENDBRANCH  39  46
ENDBRANCH  31  33
ENDBRANCH  30  31
ENDBRANCH  29  30
ENDBRANCH   1  29
TORSDOF 14
