REMARK  16 active torsions:
REMARK  status: ('A' for Active; 'I' for Inactive)
REMARK    1  A    between atoms: C2_2  and  C3_3 
REMARK    2  A    between atoms: C4_5  and  O1_6 
REMARK    3  A    between atoms: C5_8  and  O2_9 
REMARK    4  A    between atoms: C5_8  and  C6_11 
REMARK    5  A    between atoms: C8_15  and  C9_16 
REMARK    6  A    between atoms: C9_16  and  O5_18 
REMARK    7  A    between atoms: O5_18  and  C10_19 
REMARK    8  A    between atoms: C10_19  and  C11_20 
REMARK    9  A    between atoms: C11_20  and  O6_21 
REMARK   10  A    between atoms: O6_21  and  C12_22 
REMARK   11  A    between atoms: C12_22  and  C13_24 
REMARK   12  A    between atoms: C13_24  and  N2_25 
REMARK   13  A    between atoms: C13_24  and  C14_29 
REMARK   14  A    between atoms: C14_29  and  C15_30 
REMARK   15  A    between atoms: C16_33  and  N3_34 
REMARK   16  A    between atoms: C17_41  and  O10_42 
ROOT
HETATM    1  C1  UNL     1      -4.875  -0.317  -1.517  1.00  0.00     0.024 C 
HETATM    2  C2  UNL     1      -3.978  -0.909  -0.419  1.00  0.00     0.054 C 
HETATM    3  C4  UNL     1      -4.235  -0.132   0.821  1.00  0.00     0.175 C 
HETATM    4  C5  UNL     1      -3.550   1.214   0.726  1.00  0.00     0.164 C 
HETATM    5  C7  UNL     1      -2.084   0.958   0.648  1.00  0.00     0.079 C 
HETATM    6  C8  UNL     1      -1.621  -0.005  -0.362  1.00  0.00     0.163 C 
HETATM    7  C16 UNL     1      -1.679   0.526  -1.801  1.00  0.00     0.407 C 
HETATM    8  N4  UNL     1      -2.420  -0.613  -2.239  1.00  0.00    -0.011 N 
ATOM      9  H41 UNL     1      -2.023  -1.257  -2.923  1.00  0.00     0.283 HD
ATOM     10  H42 UNL     1      -3.239  -0.499  -2.837  1.00  0.00     0.283 HD
HETATM   11  C17 UNL     1      -2.572  -1.015  -0.846  1.00  0.00     0.258 C 
ENDROOT
BRANCH   6  12
HETATM   12  C9  UNL     1      -0.236  -0.446  -0.081  1.00  0.00     0.276 C 
HETATM   13  O4  UNL     1       0.097  -1.632   0.132  1.00  0.00    -0.264 OA
BRANCH  12  14
HETATM   14  O5  UNL     1       0.757   0.515  -0.052  1.00  0.00    -0.319 OA
BRANCH  14  15
HETATM   15  C10 UNL     1       2.117   0.133   0.217  1.00  0.00     0.205 C 
BRANCH  15  16
HETATM   16  C11 UNL     1       3.006   1.348   0.196  1.00  0.00     0.205 C 
BRANCH  16  17
HETATM   17  O6  UNL     1       4.349   1.099   0.447  1.00  0.00    -0.318 OA
BRANCH  17  18
HETATM   18  C12 UNL     1       5.195   0.294  -0.297  1.00  0.00     0.290 C 
HETATM   19  O7  UNL     1       4.724  -0.282  -1.310  1.00  0.00    -0.263 OA
BRANCH  18  20
HETATM   20  C13 UNL     1       6.621   0.131   0.116  1.00  0.00     0.292 C 
BRANCH  20  21
HETATM   21  N2  UNL     1       7.286  -0.745  -0.809  1.00  0.00    -0.065 N 
ATOM     22  H23 UNL     1       6.807  -1.640  -0.906  1.00  0.00     0.275 HD
ATOM     23  H22 UNL     1       7.197  -0.428  -1.774  1.00  0.00     0.275 HD
ATOM     24  H21 UNL     1       8.260  -0.856  -0.527  1.00  0.00     0.275 HD
ENDBRANCH  20  21
BRANCH  20  25
HETATM   25  C14 UNL     1       6.692  -0.518   1.494  1.00  0.00     0.156 C 
BRANCH  25  26
HETATM   26  C15 UNL     1       8.114  -0.669   1.884  1.00  0.00     0.175 C 
HETATM   27  O8  UNL     1       8.388  -1.184   2.983  1.00  0.00    -0.648 OA
HETATM   28  O9  UNL     1       9.120  -0.245   1.037  1.00  0.00    -0.648 OA
ENDBRANCH  25  26
ENDBRANCH  20  25
ENDBRANCH  18  20
ENDBRANCH  17  18
ENDBRANCH  16  17
ENDBRANCH  15  16
ENDBRANCH  14  15
ENDBRANCH  12  14
ENDBRANCH   6  12
BRANCH   7  29
HETATM   29  N3  UNL     1      -0.396   0.592  -2.468  1.00  0.00    -0.049 N 
ATOM     30  H33 UNL     1       0.265   1.138  -1.914  1.00  0.00     0.276 HD
ATOM     31  H32 UNL     1       0.064  -0.318  -2.443  1.00  0.00     0.276 HD
ATOM     32  H31 UNL     1      -0.435   0.945  -3.424  1.00  0.00     0.276 HD
ENDBRANCH   7  29
BRANCH  11  33
HETATM   33  O10 UNL     1      -2.022  -2.313  -0.718  1.00  0.00    -0.363 OA
ATOM     34  H10 UNL     1      -1.115  -2.381  -0.993  1.00  0.00     0.212 HD
ENDBRANCH  11  33
BRANCH   4  35
HETATM   35  O2  UNL     1      -4.036   1.975  -0.323  1.00  0.00    -0.378 OA
ATOM     36  H2  UNL     1      -3.606   2.820  -0.383  1.00  0.00     0.211 HD
ENDBRANCH   4  35
BRANCH   4  37
HETATM   37  C6  UNL     1      -3.815   1.939   1.995  1.00  0.00     0.268 C 
HETATM   38  N1  UNL     1      -4.464   3.185   1.994  1.00  0.00    -0.059 NA
HETATM   39  O3  UNL     1      -3.463   1.449   3.116  1.00  0.00    -0.273 OA
ENDBRANCH   4  37
BRANCH   2  40
HETATM   40  C3  UNL     1      -4.543  -2.319  -0.187  1.00  0.00     0.103 C 
HETATM   41  S1  UNL     1      -4.445  -3.254  -1.717  1.00  0.00    -0.097 SA
ENDBRANCH   2  40
BRANCH   3  42
HETATM   42  O1  UNL     1      -3.697  -0.810   1.909  1.00  0.00    -0.391 OA
ATOM     43  H1  UNL     1      -3.861  -0.313   2.702  1.00  0.00     0.210 HD
ENDBRANCH   3  42
TORSDOF 16
