REMARK  7 active torsions:
REMARK  status: ('A' for Active; 'I' for Inactive)
REMARK    1  A    between atoms: C2_2  and  C3_3 
REMARK    2  A    between atoms: C8_10  and  O3_11 
REMARK    3  A    between atoms: C9_13  and  O4_14 
REMARK    4  A    between atoms: O4_14  and  C10_15 
REMARK    5  A    between atoms: C21_27  and  O6_28 
REMARK    6  A    between atoms: C22_30  and  O7_32 
REMARK    7  A    between atoms: O7_32  and  C24_33 
ROOT
HETATM    1  C3  UNL     1      -1.158  -0.763   0.486  1.00  0.00     0.089 C 
HETATM    2  O1  UNL     1      -0.352  -1.561  -0.143  1.00  0.00    -0.362 OA
HETATM    3  C4  UNL     1       0.921  -1.945  -0.085  1.00  0.00     0.084 C 
HETATM    4  C5  UNL     1       1.224  -2.512  -1.491  1.00  0.00     0.048 C 
HETATM    5  C6  UNL     1       1.160  -3.155   0.833  1.00  0.00     0.048 C 
HETATM    6  C7  UNL     1       1.738  -0.814   0.177  1.00  0.00     0.196 C 
HETATM    7  O2  UNL     1       1.232  -0.432   1.475  1.00  0.00    -0.339 OA
HETATM    8  C8  UNL     1       1.354   0.894   1.414  1.00  0.00     0.219 C 
HETATM    9  C9  UNL     1       0.204   1.435   0.658  1.00  0.00     0.204 C 
HETATM   10  C12 UNL     1      -1.043   0.703   0.526  1.00  0.00     0.060 C 
HETATM   11  C13 UNL     1      -1.817   1.465  -0.546  1.00  0.00     0.015 C 
HETATM   12  C14 UNL     1      -3.293   1.206  -0.500  1.00  0.00    -0.013 C 
HETATM   13  C15 UNL     1      -3.939   1.932  -1.633  1.00  0.00     0.010 C 
HETATM   14  C16 UNL     1      -3.527  -0.226  -0.404  1.00  0.00     0.000 C 
HETATM   15  C17 UNL     1      -3.790  -0.795  -1.814  1.00  0.00    -0.013 C 
HETATM   16  C18 UNL     1      -4.763  -1.955  -1.798  1.00  0.00     0.010 C 
HETATM   17  C19 UNL     1      -2.342  -1.298  -1.753  1.00  0.00     0.013 C 
HETATM   18  C20 UNL     1      -2.462  -1.163  -0.274  1.00  0.00     0.030 C 
HETATM   19  C21 UNL     1       2.738   1.035   0.821  1.00  0.00     0.220 C 
HETATM   20  C22 UNL     1       3.082  -0.468   0.495  1.00  0.00     0.127 C 
HETATM   21  C23 UNL     1       3.540  -0.977   1.887  1.00  0.00     0.052 C 
ENDROOT
BRANCH  20  22
HETATM   22  O7  UNL     1       4.133  -0.397  -0.354  1.00  0.00    -0.305 OA
BRANCH  22  23
HETATM   23  C24 UNL     1       4.859  -1.234  -1.089  1.00  0.00     0.255 C 
HETATM   24  C25 UNL     1       5.986  -0.836  -1.994  1.00  0.00     0.126 C 
HETATM   25  O8  UNL     1       4.614  -2.449  -1.048  1.00  0.00    -0.266 OA
ENDBRANCH  22  23
ENDBRANCH  20  22
BRANCH  19  26
HETATM   26  O6  UNL     1       3.671   1.546   1.673  1.00  0.00    -0.387 OA
ATOM     27  H6  UNL     1       4.540   1.635   1.300  1.00  0.00     0.210 HD
ENDBRANCH  19  26
BRANCH   8  28
HETATM   28  O3  UNL     1       1.469   1.396   2.715  1.00  0.00    -0.361 OA
ATOM     29  H3  UNL     1       1.556   2.341   2.672  1.00  0.00     0.213 HD
ENDBRANCH   8  28
BRANCH   9  30
HETATM   30  O4  UNL     1      -0.056   2.752   1.155  1.00  0.00    -0.310 OA
BRANCH  30  31
HETATM   31  C10 UNL     1       0.219   3.936   0.581  1.00  0.00     0.255 C 
HETATM   32  C11 UNL     1      -0.108   5.231   1.208  1.00  0.00     0.126 C 
HETATM   33  O5  UNL     1       0.769   3.894  -0.517  1.00  0.00    -0.266 OA
ENDBRANCH  30  31
ENDBRANCH   9  30
BRANCH   1  34
HETATM   34  C2  UNL     1      -1.535  -1.312   1.841  1.00  0.00     0.001 C 
HETATM   35  C1  UNL     1      -2.497  -0.848   2.597  1.00  0.00     0.010 C 
ENDBRANCH   1  34
TORSDOF 7
