REMARK  6 active torsions:
REMARK  status: ('A' for Active; 'I' for Inactive)
REMARK    1  A    between atoms: C2_2  and  C3_3 
REMARK    2  A    between atoms: C3_3  and  C4_4 
REMARK    3  A    between atoms: C16_19  and  C17_20 
REMARK    4  A    between atoms: N1_21  and  N2_23 
REMARK       I    between atoms: N2_23  and  C18_25 
REMARK    5  A    between atoms: C18_25  and  C19_27 
REMARK       I    between atoms: C19_27  and  N3_29 
REMARK       I    between atoms: N3_29  and  C20_31 
REMARK    6  A    between atoms: C20_31  and  O7_33 
ROOT
HETATM    1  C4  UNL     1      -2.194  -0.386   0.593  1.00  0.00     0.009 C 
HETATM    2  C5  UNL     1      -2.473   1.000   0.252  1.00  0.00     0.007 C 
HETATM    3  C6  UNL     1      -1.569   2.055   0.822  1.00  0.00     0.009 C 
HETATM    4  C7  UNL     1      -0.873   2.731  -0.340  1.00  0.00     0.039 C 
HETATM    5  C8  UNL     1      -1.608   2.328  -1.574  1.00  0.00     0.072 C 
HETATM    6  C9  UNL     1      -2.021   3.470  -2.481  1.00  0.00     0.047 C 
HETATM    7  O1  UNL     1      -1.043   1.257  -2.263  1.00  0.00    -0.349 OA
HETATM    8  C10 UNL     1      -2.246   0.634  -2.256  1.00  0.00     0.275 C 
HETATM    9  O2  UNL     1      -2.385  -0.667  -1.980  1.00  0.00    -0.330 OA
HETATM   10  C11 UNL     1      -1.306  -1.352  -1.486  1.00  0.00     0.277 C 
HETATM   11  O3  UNL     1      -1.657  -2.699  -1.754  1.00  0.00    -0.355 OA
HETATM   12  C12 UNL     1      -0.612  -3.562  -1.598  1.00  0.00     0.120 C 
HETATM   13  C13 UNL     1       0.401  -3.526  -2.713  1.00  0.00     0.039 C 
HETATM   14  C14 UNL     1      -0.031  -3.343  -0.243  1.00  0.00     0.033 C 
HETATM   15  C15 UNL     1      -1.001  -2.509   0.615  1.00  0.00     0.023 C 
HETATM   16  C16 UNL     1      -1.036  -1.100  -0.020  1.00  0.00     0.047 C 
HETATM   17  C22 UNL     1      -2.726   1.440  -1.134  1.00  0.00     0.041 C 
HETATM   18  C23 UNL     1      -4.125   2.008  -1.432  1.00  0.00     0.024 C 
ENDROOT
BRANCH  16  19
HETATM   19  C17 UNL     1       0.281  -0.557   0.286  1.00  0.00     0.095 C 
HETATM   20  N1  UNL     1       0.915  -0.772   1.384  1.00  0.00    -0.312 N 
ATOM     21  H1  UNL     1       0.456  -1.363   2.078  1.00  0.00     0.185 HD
BRANCH  20  22
HETATM   22  N2  UNL     1       2.154  -0.277   1.705  1.00  0.00    -0.262 N 
HETATM   23  C18 UNL     1       3.236  -0.327   0.814  1.00  0.00     0.328 C 
HETATM   24  O4  UNL     1       3.076  -0.848  -0.341  1.00  0.00    -0.261 OA
ATOM     25  H2  UNL     1       2.293   0.142   2.624  1.00  0.00     0.190 HD
BRANCH  23  26
HETATM   26  C19 UNL     1       4.553   0.193   1.142  1.00  0.00     0.319 C 
HETATM   27  O5  UNL     1       4.713   0.705   2.275  1.00  0.00    -0.262 OA
HETATM   28  N3  UNL     1       5.630   0.130   0.225  1.00  0.00    -0.265 N 
HETATM   29  C20 UNL     1       6.908   0.636   0.546  1.00  0.00     0.367 C 
ATOM     30  H3  UNL     1       5.478  -0.292  -0.691  1.00  0.00     0.174 HD
HETATM   31  O6  UNL     1       7.086   1.151   1.671  1.00  0.00    -0.238 OA
BRANCH  29  32
HETATM   32  O7  UNL     1       7.966   0.582  -0.336  1.00  0.00    -0.309 OA
HETATM   33  C21 UNL     1       9.254   1.081  -0.039  1.00  0.00     0.215 C 
ENDBRANCH  29  32
ENDBRANCH  23  26
ENDBRANCH  20  22
ENDBRANCH  16  19
BRANCH   1  34
HETATM   34  C3  UNL     1      -2.243  -0.526   2.091  1.00  0.00     0.006 C 
BRANCH  34  35
HETATM   35  C2  UNL     1      -3.542  -0.182   2.743  1.00  0.00    -0.004 C 
HETATM   36  C1  UNL     1      -3.461  -0.408   4.255  1.00  0.00     0.005 C 
ENDBRANCH  34  35
ENDBRANCH   1  34
TORSDOF 6
