REMARK  9 active torsions:
REMARK  status: ('A' for Active; 'I' for Inactive)
REMARK    1  A    between atoms: C2_2  and  N1_3 
REMARK       I    between atoms: N1_3  and  C3_5 
REMARK    2  A    between atoms: C3_5  and  O2_7 
REMARK    3  A    between atoms: O2_7  and  C4_8 
REMARK    4  A    between atoms: C5_9  and  C7_11 
REMARK    5  A    between atoms: C7_11  and  O3_12 
REMARK    6  A    between atoms: C14_21  and  O5_22 
REMARK    7  A    between atoms: O5_22  and  C15_23 
REMARK    8  A    between atoms: C21_30  and  O7_31 
REMARK    9  A    between atoms: O7_31  and  C22_32 
ROOT
HETATM    1  C4  UNL     1       0.830   0.777   0.632  1.00  0.00     0.184 C 
HETATM    2  C5  UNL     1       1.583   2.089   0.504  1.00  0.00     0.106 C 
HETATM    3  C6  UNL     1       3.006   1.862   0.037  1.00  0.00     0.051 C 
HETATM    4  O4  UNL     1       0.935   2.866  -0.414  1.00  0.00    -0.369 OA
HETATM    5  C8  UNL     1       0.165   2.056  -1.211  1.00  0.00     0.137 C 
HETATM    6  C9  UNL     1       0.859   1.405  -2.353  1.00  0.00     0.034 C 
HETATM    7  C10 UNL     1       0.507  -0.084  -2.316  1.00  0.00     0.016 C 
HETATM    8  C11 UNL     1      -0.564  -0.153  -1.274  1.00  0.00     0.007 C 
HETATM    9  C12 UNL     1      -1.957   0.223  -1.816  1.00  0.00     0.010 C 
HETATM   10  C13 UNL     1      -2.685   0.858  -0.655  1.00  0.00     0.040 C 
HETATM   11  C14 UNL     1      -1.608   1.347   0.321  1.00  0.00     0.146 C 
HETATM   12  C17 UNL     1      -0.307   0.925  -0.284  1.00  0.00     0.053 C 
HETATM   13  C18 UNL     1      -2.231  -1.259  -1.925  1.00  0.00    -0.015 C 
HETATM   14  C19 UNL     1      -3.608  -1.639  -1.440  1.00  0.00     0.018 C 
HETATM   15  C20 UNL     1      -1.937  -1.903  -3.239  1.00  0.00     0.018 C 
HETATM   16  C21 UNL     1      -1.133  -1.444  -0.883  1.00  0.00     0.150 C 
ENDROOT
BRANCH   1  17
HETATM   17  O2  UNL     1       1.684  -0.299   0.244  1.00  0.00    -0.294 OA
BRANCH  17  18
HETATM   18  C3  UNL     1       2.152  -1.264   1.118  1.00  0.00     0.361 C 
HETATM   19  N1  UNL     1       3.001  -2.326   0.711  1.00  0.00    -0.337 N 
ATOM     20  H1  UNL     1       3.278  -2.380  -0.269  1.00  0.00     0.164 HD
HETATM   21  O1  UNL     1       1.800  -1.179   2.322  1.00  0.00    -0.239 OA
BRANCH  19  22
HETATM   22  C2  UNL     1       3.490  -3.333   1.622  1.00  0.00     0.120 C 
HETATM   23  C1  UNL     1       4.365  -4.329   0.915  1.00  0.00     0.026 C 
ENDBRANCH  19  22
ENDBRANCH  17  18
ENDBRANCH   1  17
BRANCH   2  24
HETATM   24  C7  UNL     1       1.706   2.804   1.856  1.00  0.00     0.204 C 
BRANCH  24  25
HETATM   25  O3  UNL     1       2.418   3.984   1.660  1.00  0.00    -0.398 OA
ATOM     26  H3  UNL     1       2.494   4.427   2.497  1.00  0.00     0.209 HD
ENDBRANCH  24  25
ENDBRANCH   2  24
BRANCH  11  27
HETATM   27  O5  UNL     1      -1.716   2.779   0.257  1.00  0.00    -0.315 OA
BRANCH  27  28
HETATM   28  C15 UNL     1      -2.082   3.550   1.348  1.00  0.00     0.255 C 
HETATM   29  C16 UNL     1      -2.202   5.020   1.315  1.00  0.00     0.126 C 
HETATM   30  O6  UNL     1      -2.321   2.908   2.425  1.00  0.00    -0.266 OA
ENDBRANCH  27  28
ENDBRANCH  11  27
BRANCH  16  31
HETATM   31  O7  UNL     1      -1.643  -1.615   0.421  1.00  0.00    -0.315 OA
BRANCH  31  32
HETATM   32  C22 UNL     1      -1.371  -2.792   1.095  1.00  0.00     0.255 C 
HETATM   33  C23 UNL     1      -1.880  -3.031   2.472  1.00  0.00     0.126 C 
HETATM   34  O8  UNL     1      -0.683  -3.706   0.570  1.00  0.00    -0.266 OA
ENDBRANCH  31  32
ENDBRANCH  16  31
TORSDOF 9
