REMARK  8 active torsions:
REMARK  status: ('A' for Active; 'I' for Inactive)
REMARK    1  A    between atoms: C2_2  and  C3_3 
REMARK    2  A    between atoms: C3_3  and  C5_5 
REMARK    3  A    between atoms: C5_5  and  O1_6 
REMARK    4  A    between atoms: C6_8  and  O2_9 
REMARK    5  A    between atoms: O2_9  and  C7_10 
REMARK    6  A    between atoms: C12_18  and  O6_19 
REMARK    7  A    between atoms: C18_26  and  O7_27 
REMARK    8  A    between atoms: O7_27  and  C19_28 
ROOT
HETATM    1  C5  UNL     1       1.519  -0.439   0.533  1.00  0.00     0.127 C 
HETATM    2  C6  UNL     1       0.318  -1.190   0.857  1.00  0.00     0.209 C 
HETATM    3  C8  UNL     1      -1.066  -0.658   0.448  1.00  0.00     0.110 C 
HETATM    4  O5  UNL     1      -1.799  -0.871   1.658  1.00  0.00    -0.376 OA
HETATM    5  C9  UNL     1      -2.216   0.238   2.218  1.00  0.00     0.170 C 
HETATM    6  C10 UNL     1      -2.285   1.263   1.180  1.00  0.00     0.045 C 
HETATM    7  C11 UNL     1      -1.210   0.794   0.166  1.00  0.00     0.057 C 
HETATM    8  C12 UNL     1      -1.924   1.134  -1.126  1.00  0.00     0.133 C 
HETATM    9  C13 UNL     1      -2.960   0.095  -1.570  1.00  0.00     0.033 C 
HETATM   10  C14 UNL     1      -2.226  -1.151  -1.777  1.00  0.00     0.014 C 
HETATM   11  C15 UNL     1      -1.782  -1.637  -0.427  1.00  0.00    -0.013 C 
HETATM   12  C16 UNL     1      -1.021  -2.906  -0.781  1.00  0.00     0.018 C 
HETATM   13  C17 UNL     1      -3.057  -2.223   0.205  1.00  0.00     0.018 C 
HETATM   14  C18 UNL     1       0.034   1.620   0.229  1.00  0.00     0.120 C 
HETATM   15  C21 UNL     1      -0.159   2.751   1.319  1.00  0.00     0.045 C 
HETATM   16  C22 UNL     1       1.247   3.227   1.590  1.00  0.00     0.038 C 
HETATM   17  C23 UNL     1       1.949   1.862   1.643  1.00  0.00     0.164 A 
HETATM   18  O9  UNL     1       1.055   0.991   2.425  1.00  0.00    -0.362 OA
HETATM   19  C24 UNL     1       1.217   0.979   0.934  1.00  0.00     0.153 A 
ENDROOT
BRANCH   1  20
HETATM   20  C3  UNL     1       2.383  -0.686  -0.615  1.00  0.00     0.021 C 
HETATM   21  C4  UNL     1       1.834  -0.419  -1.990  1.00  0.00     0.013 C 
BRANCH  20  22
HETATM   22  C2  UNL     1       2.991  -2.065  -0.758  1.00  0.00     0.003 C 
HETATM   23  C1  UNL     1       3.666  -2.646   0.418  1.00  0.00     0.005 C 
ENDBRANCH  20  22
ENDBRANCH   1  20
BRANCH   1  24
HETATM   24  O1  UNL     1       2.489  -0.743   1.584  1.00  0.00    -0.383 OA
ATOM     25  H1  UNL     1       1.926  -0.582   2.332  1.00  0.00     0.210 HD
ENDBRANCH   1  24
BRANCH   2  26
HETATM   26  O2  UNL     1       0.301  -1.257   2.311  1.00  0.00    -0.284 OA
BRANCH  26  27
HETATM   27  C7  UNL     1       0.404  -2.359   3.070  1.00  0.00     0.333 C 
HETATM   28  O3  UNL     1       0.525  -3.461   2.536  1.00  0.00    -0.624 OA
HETATM   29  O4  UNL     1       0.376  -2.271   4.477  1.00  0.00    -0.624 OA
ENDBRANCH  26  27
ENDBRANCH   2  26
BRANCH  14  30
HETATM   30  O7  UNL     1       0.577   2.208  -0.849  1.00  0.00    -0.306 OA
BRANCH  30  31
HETATM   31  C19 UNL     1       0.471   3.155  -1.748  1.00  0.00     0.255 C 
HETATM   32  C20 UNL     1       1.436   3.384  -2.883  1.00  0.00     0.126 C 
HETATM   33  O8  UNL     1      -0.473   3.928  -1.689  1.00  0.00    -0.266 OA
ENDBRANCH  30  31
ENDBRANCH  14  30
BRANCH   8  34
HETATM   34  O6  UNL     1      -2.859   2.198  -0.911  1.00  0.00    -0.395 OA
ATOM     35  H6  UNL     1      -3.307   2.411  -1.721  1.00  0.00     0.210 HD
ENDBRANCH   8  34
TORSDOF 8
