REMARK  4 active torsions:
REMARK  status: ('A' for Active; 'I' for Inactive)
REMARK    1  A    between atoms: C2_2  and  N1_4 
REMARK    2  A    between atoms: N1_4  and  N2_6 
REMARK       I    between atoms: N2_6  and  C3_8 
REMARK    3  A    between atoms: C3_8  and  C4_10 
REMARK    4  A    between atoms: C5_11  and  C6_12 
ROOT
HETATM    1  C6  UNL     1       0.819  -0.369   0.049  1.00  0.00     0.080 C 
HETATM    2  C7  UNL     1       0.619  -1.700  -0.594  1.00  0.00     0.025 C 
HETATM    3  C8  UNL     1      -0.771  -2.162  -0.793  1.00  0.00    -0.042 C 
HETATM    4  C9  UNL     1      -1.158  -3.124   0.321  1.00  0.00     0.015 C 
HETATM    5  C10 UNL     1      -0.782  -3.043  -2.059  1.00  0.00     0.015 C 
HETATM    6  C11 UNL     1      -1.770  -1.084  -1.037  1.00  0.00     0.012 C 
HETATM    7  C12 UNL     1      -1.305  -0.360  -2.313  1.00  0.00     0.010 C 
HETATM    8  C13 UNL     1      -1.507   1.103  -2.101  1.00  0.00     0.039 C 
HETATM    9  C14 UNL     1      -2.486   1.103  -0.917  1.00  0.00     0.075 C 
HETATM   10  C15 UNL     1      -3.780   0.598  -1.492  1.00  0.00     0.047 C 
HETATM   11  O2  UNL     1      -2.504   2.326  -0.351  1.00  0.00    -0.348 OA
HETATM   12  C16 UNL     1      -3.430   2.602   0.593  1.00  0.00     0.284 C 
HETATM   13  O3  UNL     1      -4.663   1.945   0.561  1.00  0.00    -0.288 OA
HETATM   14  C17 UNL     1      -4.672   1.940   1.938  1.00  0.00     0.270 C 
HETATM   15  O4  UNL     1      -5.553   1.821   2.806  1.00  0.00    -0.265 OA
HETATM   16  C18 UNL     1      -3.209   2.136   1.953  1.00  0.00     0.141 C 
HETATM   17  C19 UNL     1      -2.491   0.888   2.204  1.00  0.00     0.021 C 
HETATM   18  C20 UNL     1      -2.554  -0.183   1.182  1.00  0.00     0.022 C 
HETATM   19  C21 UNL     1      -1.783   0.038  -0.061  1.00  0.00     0.056 C 
HETATM   20  C22 UNL     1      -0.408   0.473   0.166  1.00  0.00     0.146 C 
HETATM   21  O5  UNL     1      -0.204   1.635   0.485  1.00  0.00    -0.296 OA
ENDROOT
BRANCH   1  22
HETATM   22  C5  UNL     1       1.357  -0.502   1.410  1.00  0.00    -0.009 C 
HETATM   23  C4  UNL     1       2.526  -0.146   1.843  1.00  0.00     0.072 C 
BRANCH  23  24
HETATM   24  C3  UNL     1       3.624   0.463   1.162  1.00  0.00     0.259 C 
HETATM   25  N2  UNL     1       4.818   0.754   1.908  1.00  0.00    -0.266 N 
ATOM     26  H2  UNL     1       4.863   0.525   2.901  1.00  0.00     0.190 HD
HETATM   27  O1  UNL     1       3.622   0.763  -0.040  1.00  0.00    -0.267 OA
BRANCH  25  28
HETATM   28  N1  UNL     1       5.911   1.344   1.287  1.00  0.00    -0.292 N 
ATOM     29  H1  UNL     1       6.074   2.343   1.412  1.00  0.00     0.187 HD
BRANCH  28  30
HETATM   30  C2  UNL     1       6.820   0.583   0.472  1.00  0.00     0.088 C 
HETATM   31  C1  UNL     1       7.986   1.168  -0.202  1.00  0.00     0.083 C 
HETATM   32  S1  UNL     1       6.539  -1.006   0.291  1.00  0.00    -0.064 SA
ENDBRANCH  28  30
ENDBRANCH  25  28
ENDBRANCH  23  24
ENDBRANCH   1  22
TORSDOF 4
