REMARK  6 active torsions:
REMARK  status: ('A' for Active; 'I' for Inactive)
REMARK    1  A    between atoms: C4_4  and  O1_5 
REMARK    2  A    between atoms: O1_5  and  C5_6 
REMARK    3  A    between atoms: C8_10  and  O3_12 
REMARK    4  A    between atoms: C11_15  and  C12_16 
REMARK    5  A    between atoms: C12_16  and  C13_17 
REMARK    6  A    between atoms: C17_24  and  O6_25 
ROOT
HETATM    1  C1  UNL     1       4.136  -1.979  -1.464  1.00  0.00     0.036 C 
HETATM    2  C2  UNL     1       3.528  -0.708  -1.063  1.00  0.00    -0.025 C 
HETATM    3  C3  UNL     1       2.454  -0.535  -0.306  1.00  0.00    -0.046 C 
HETATM    4  C4  UNL     1       2.116   0.935  -0.094  1.00  0.00     0.164 C 
HETATM    5  C7  UNL     1       0.870   1.402  -0.735  1.00  0.00     0.075 C 
HETATM    6  C8  UNL     1      -0.339   1.555   0.132  1.00  0.00     0.063 C 
HETATM    7  C9  UNL     1       0.025   2.365   1.350  1.00  0.00     0.046 C 
HETATM    8  C10 UNL     1      -1.041   0.314   0.593  1.00  0.00     0.059 C 
HETATM    9  C11 UNL     1      -2.206  -0.071  -0.332  1.00  0.00     0.134 C 
HETATM   10  O4  UNL     1      -2.053  -1.389  -0.668  1.00  0.00    -0.340 OA
HETATM   11  C16 UNL     1      -1.099  -2.019   0.045  1.00  0.00     0.232 C 
HETATM   12 BR1  UNL     1      -1.677  -2.759   1.729  1.00  0.00    -0.021 Br
HETATM   13  O5  UNL     1      -0.259  -2.898  -0.555  1.00  0.00    -0.314 OA
HETATM   14  C17 UNL     1       1.051  -2.600  -0.802  1.00  0.00     0.269 C 
HETATM   15  C18 UNL     1       1.870  -1.837   0.156  1.00  0.00     0.073 C 
HETATM   16  C19 UNL     1       0.826  -1.330   1.199  1.00  0.00     0.025 C 
HETATM   17  C20 UNL     1      -0.169  -0.811   0.284  1.00  0.00     0.071 C 
ENDROOT
BRANCH   4  18
HETATM   18  O1  UNL     1       3.229   1.677  -0.485  1.00  0.00    -0.312 OA
BRANCH  18  19
HETATM   19  C5  UNL     1       4.049   2.395   0.340  1.00  0.00     0.255 C 
HETATM   20  C6  UNL     1       5.195   3.130  -0.246  1.00  0.00     0.126 C 
HETATM   21  O2  UNL     1       3.823   2.418   1.553  1.00  0.00    -0.266 OA
ENDBRANCH  18  19
ENDBRANCH   4  18
BRANCH   6  22
HETATM   22  O3  UNL     1      -1.261   2.313  -0.592  1.00  0.00    -0.390 OA
ATOM     23  H3  UNL     1      -2.029   2.410  -0.041  1.00  0.00     0.210 HD
ENDBRANCH   6  22
BRANCH  14  24
HETATM   24  O6  UNL     1       1.155  -2.245  -2.145  1.00  0.00    -0.370 OA
ATOM     25  H6  UNL     1       2.066  -2.038  -2.317  1.00  0.00     0.212 HD
ENDBRANCH  14  24
BRANCH   9  26
HETATM   26  C12 UNL     1      -3.472   0.234   0.397  1.00  0.00     0.036 C 
BRANCH  26  27
HETATM   27  C13 UNL     1      -4.711  -0.090  -0.403  1.00  0.00    -0.020 C 
HETATM   28  C14 UNL     1      -5.963   0.254   0.416  1.00  0.00     0.009 C 
HETATM   29  C15 UNL     1      -4.797  -1.572  -0.691  1.00  0.00     0.009 C 
ENDBRANCH  26  27
ENDBRANCH   9  26
TORSDOF 6
