REMARK  5 active torsions:
REMARK  status: ('A' for Active; 'I' for Inactive)
REMARK    1  A    between atoms: C2_2  and  N1_4 
REMARK    2  A    between atoms: N1_4  and  C4_6 
REMARK    3  A    between atoms: C5_9  and  N3_10 
REMARK    4  A    between atoms: N5_16  and  C7_17 
REMARK    5  A    between atoms: C7_17  and  C8_18 
ROOT
HETATM    1  C4  UNL     1       1.333   0.334   0.783  1.00  0.00     0.696 A 
HETATM    2  N2  UNL     1       2.003   1.347   1.393  1.00  0.00    -0.022 N 
ATOM      3  H2  UNL     1       2.768   1.807   0.899  1.00  0.00     0.203 HD
HETATM    4  C5  UNL     1       1.684   1.754   2.622  1.00  0.00     0.691 A 
HETATM    5  N4  UNL     1       0.669   1.120   3.240  1.00  0.00    -0.187 N 
ATOM      6  H4  UNL     1       0.404   1.410   4.181  1.00  0.00     0.185 HD
HETATM    7  C6  UNL     1      -0.005   0.115   2.651  1.00  0.00     0.218 A 
HETATM    8  N5  UNL     1       0.321  -0.294   1.405  1.00  0.00    -0.176 N 
ENDROOT
BRANCH   8   9
HETATM    9  C7  UNL     1      -0.414  -1.348   0.804  1.00  0.00     0.181 C 
BRANCH   9  10
HETATM   10  C8  UNL     1      -1.645  -0.978   0.061  1.00  0.00     0.204 C 
HETATM   11  C9  UNL     1      -1.492  -0.055  -1.090  1.00  0.00     0.035 C 
HETATM   12  C10 UNL     1      -2.885   0.103  -1.721  1.00  0.00     0.004 C 
HETATM   13  C11 UNL     1      -3.876  -0.876  -1.148  1.00  0.00     0.027 C 
HETATM   14  C12 UNL     1      -3.970  -0.817   0.343  1.00  0.00     0.233 C 
HETATM   15  N6  UNL     1      -2.698  -0.515   0.969  1.00  0.00    -0.069 N 
ATOM     16  H62 UNL     1      -2.614  -0.903   1.909  1.00  0.00     0.277 HD
ATOM     17  H61 UNL     1      -2.602   0.468   1.223  1.00  0.00     0.277 HD
ENDBRANCH   9  10
ENDBRANCH   8   9
BRANCH   1  18
HETATM   18  N1  UNL     1       1.726   0.007  -0.402  1.00  0.00    -0.221 N 
ATOM     19  H1  UNL     1       1.225  -0.753  -0.861  1.00  0.00     0.178 HD
BRANCH  18  20
HETATM   20  C2  UNL     1       2.797   0.610  -1.131  1.00  0.00     0.091 C 
HETATM   21  C1  UNL     1       2.680   0.109  -2.574  1.00  0.00     0.032 C 
HETATM   22  C3  UNL     1       4.169   0.189  -0.654  1.00  0.00     0.032 C 
ENDBRANCH  18  20
ENDBRANCH   1  18
BRANCH   4  23
HETATM   23  N3  UNL     1       2.332   2.721   3.188  1.00  0.00    -0.234 N 
ATOM     24  H32 UNL     1       3.101   3.201   2.720  1.00  0.00     0.174 HD
ATOM     25  H31 UNL     1       2.088   3.032   4.128  1.00  0.00     0.174 HD
ENDBRANCH   4  23
TORSDOF 5
