REMARK  5 active torsions:
REMARK  status: ('A' for Active; 'I' for Inactive)
REMARK    1  A    between atoms: N1_1  and  C1_4 
REMARK    2  A    between atoms: C3_8  and  O1_9 
REMARK    3  A    between atoms: N3_11  and  C4_12 
REMARK    4  A    between atoms: C4_12  and  C5_13 
REMARK    5  A    between atoms: C5_13  and  N4_14 
ROOT
HETATM    1  C1  UNL     1       4.205  -0.701   0.440  1.00  0.00     0.680 A 
HETATM    2  N2  UNL     1       5.385  -0.052   0.466  1.00  0.00    -0.198 N 
ATOM      3  H2  UNL     1       6.219  -0.331   0.983  1.00  0.00     0.183 HD
HETATM    4  C2  UNL     1       5.255   1.040  -0.324  1.00  0.00     0.162 A 
HETATM    5  C3  UNL     1       3.992   1.047  -0.826  1.00  0.00     0.174 A 
HETATM    6  N3  UNL     1       3.353  -0.036  -0.345  1.00  0.00    -0.156 N 
ENDROOT
BRANCH   6   7
HETATM    7  C4  UNL     1       1.959  -0.403  -0.637  1.00  0.00     0.195 C 
BRANCH   7   8
HETATM    8  C5  UNL     1       1.094   0.251   0.376  1.00  0.00     0.089 C 
BRANCH   8   9
HETATM    9  N4  UNL     1      -0.298   0.056   0.280  1.00  0.00    -0.351 N 
HETATM   10  C6  UNL     1      -0.990   0.779   1.266  1.00  0.00     0.068 C 
HETATM   11  C7  UNL     1      -2.215   0.172   1.858  1.00  0.00     0.045 C 
HETATM   12  C8  UNL     1      -3.456   0.833   1.261  1.00  0.00     0.007 C 
HETATM   13  C9  UNL     1      -4.322  -0.272   0.695  1.00  0.00     0.027 C 
HETATM   14  C10 UNL     1      -4.083  -0.383  -0.805  1.00  0.00     0.168 C 
HETATM   15  O2  UNL     1      -2.839   0.138  -1.065  1.00  0.00    -0.386 OA
HETATM   16  C11 UNL     1      -1.884  -0.760  -1.420  1.00  0.00     0.212 C 
HETATM   17  C12 UNL     1      -0.842  -1.035  -0.368  1.00  0.00     0.094 C 
ENDBRANCH   8   9
ENDBRANCH   7   8
ENDBRANCH   6   7
BRANCH   1  18
HETATM   18  N1  UNL     1       3.969  -1.781   1.079  1.00  0.00    -0.234 N 
ATOM     19  H12 UNL     1       4.620  -2.289   1.678  1.00  0.00     0.174 HD
ATOM     20  H11 UNL     1       3.075  -2.272   1.059  1.00  0.00     0.174 HD
ENDBRANCH   1  18
BRANCH   5  21
HETATM   21  O1  UNL     1       3.487   2.009  -1.677  1.00  0.00    -0.345 OA
ATOM     22  H1  UNL     1       2.604   2.014  -2.028  1.00  0.00     0.219 HD
ENDBRANCH   5  21
TORSDOF 5
