REMARK  9 active torsions:
REMARK  status: ('A' for Active; 'I' for Inactive)
REMARK    1  A    between atoms: N1_1  and  C1_5 
REMARK    2  A    between atoms: C2_8  and  N3_9 
REMARK    3  A    between atoms: N3_9  and  C3_11 
REMARK    4  A    between atoms: C3_11  and  C4_12 
REMARK    5  A    between atoms: C4_12  and  C5_13 
REMARK    6  A    between atoms: C5_13  and  C6_14 
REMARK    7  A    between atoms: C6_14  and  C7_15 
REMARK    8  A    between atoms: C7_15  and  C8_16 
REMARK    9  A    between atoms: C14_22  and  N4_23 
ROOT
HETATM    1  C1  UNL     1      -5.049   0.519   0.983  1.00  0.00     0.487 C 
HETATM    2  N2  UNL     1      -3.835   1.278   1.176  1.00  0.00    -0.327 N 
ATOM      3  H2  UNL     1      -3.543   1.678   2.068  1.00  0.00     0.164 HD
HETATM    4  C2  UNL     1      -3.176   1.384   0.090  1.00  0.00     0.135 C 
HETATM    5  C14 UNL     1      -3.940   0.668  -0.958  1.00  0.00     0.451 C 
HETATM    6  N5  UNL     1      -5.289   0.558  -0.454  1.00  0.00     0.007 N 
ATOM      7  H51 UNL     1      -5.935   1.281  -0.771  1.00  0.00     0.284 HD
ATOM      8  H52 UNL     1      -5.834  -0.219  -0.828  1.00  0.00     0.284 HD
ENDROOT
BRANCH   4   9
HETATM    9  N3  UNL     1      -1.930   2.070  -0.080  1.00  0.00    -0.377 N 
ATOM     10  H3  UNL     1      -1.872   3.069   0.119  1.00  0.00     0.160 HD
BRANCH   9  11
HETATM   11  C3  UNL     1      -0.760   1.365  -0.528  1.00  0.00     0.121 C 
BRANCH  11  12
HETATM   12  C4  UNL     1      -0.298   0.387   0.553  1.00  0.00     0.020 C 
BRANCH  12  13
HETATM   13  C5  UNL     1       0.935  -0.308  -0.004  1.00  0.00     0.002 C 
BRANCH  13  14
HETATM   14  C6  UNL     1       1.501  -1.302   0.951  1.00  0.00     0.005 C 
BRANCH  14  15
HETATM   15  C7  UNL     1       2.699  -1.993   0.398  1.00  0.00     0.038 C 
BRANCH  15  16
HETATM   16  C8  UNL     1       3.772  -1.048   0.084  1.00  0.00    -0.058 A 
HETATM   17  C9  UNL     1       4.682  -0.701   1.054  1.00  0.00     0.007 A 
HETATM   18  C10 UNL     1       5.685   0.173   0.740  1.00  0.00     0.001 A 
HETATM   19  C11 UNL     1       5.786   0.696  -0.511  1.00  0.00     0.000 A 
HETATM   20  C12 UNL     1       4.873   0.352  -1.495  1.00  0.00     0.001 A 
HETATM   21  C13 UNL     1       3.866  -0.524  -1.183  1.00  0.00     0.007 A 
ENDBRANCH  15  16
ENDBRANCH  14  15
ENDBRANCH  13  14
ENDBRANCH  12  13
ENDBRANCH  11  12
ENDBRANCH   9  11
ENDBRANCH   4   9
BRANCH   5  22
HETATM   22  N4  UNL     1      -3.370  -0.637  -1.241  1.00  0.00    -0.043 N 
ATOM     23  H43 UNL     1      -2.382  -0.567  -1.484  1.00  0.00     0.277 HD
ATOM     24  H42 UNL     1      -3.286  -1.198  -0.393  1.00  0.00     0.277 HD
ATOM     25  H41 UNL     1      -3.896  -1.130  -1.963  1.00  0.00     0.277 HD
ENDBRANCH   5  22
BRANCH   1  26
HETATM   26  N1  UNL     1      -4.948  -0.812   1.502  1.00  0.00    -0.033 N 
ATOM     27  H13 UNL     1      -4.143  -1.300   1.109  1.00  0.00     0.278 HD
ATOM     28  H12 UNL     1      -4.671  -0.804   2.484  1.00  0.00     0.278 HD
ATOM     29  H11 UNL     1      -5.805  -1.348   1.366  1.00  0.00     0.278 HD
ENDBRANCH   1  26
TORSDOF 9
