REMARK  7 active torsions:
REMARK  status: ('A' for Active; 'I' for Inactive)
REMARK    1  A    between atoms: N1_1  and  C1_4 
REMARK    2  A    between atoms: N3_8  and  C3_9 
REMARK    3  A    between atoms: C3_9  and  C4_10 
REMARK    4  A    between atoms: C4_10  and  S1_11 
REMARK    5  A    between atoms: S1_11  and  C5_12 
REMARK    6  A    between atoms: C5_12  and  C6_13 
REMARK    7  A    between atoms: C6_13  and  C7_14 
ROOT
HETATM    1  S1  UNL     1       0.391   2.585  -0.134  1.00  0.00    -0.167 SA
ENDROOT
BRANCH   1   2
HETATM    2  C4  UNL     1       1.839   1.588   0.211  1.00  0.00     0.095 C 
BRANCH   2   3
HETATM    3  C3  UNL     1       2.330   0.824  -1.002  1.00  0.00     0.160 C 
BRANCH   3   4
HETATM    4  N3  UNL     1       3.507   0.079  -0.524  1.00  0.00    -0.272 N 
HETATM    5  C2  UNL     1       4.785   0.551  -0.549  1.00  0.00     0.218 A 
HETATM    6  N2  UNL     1       5.595  -0.396  -0.033  1.00  0.00    -0.185 N 
HETATM    7  C1  UNL     1       4.836  -1.447   0.312  1.00  0.00     0.691 A 
ATOM      8  H2  UNL     1       6.607  -0.325   0.076  1.00  0.00     0.185 HD
HETATM    9  N6  UNL     1       3.570  -1.118  -0.004  1.00  0.00    -0.129 N 
ATOM     10  H6  UNL     1       2.764  -1.725   0.143  1.00  0.00     0.206 HD
BRANCH   7  11
HETATM   11  N1  UNL     1       5.181  -2.571   0.840  1.00  0.00    -0.233 N 
ATOM     12  H12 UNL     1       6.141  -2.820   1.080  1.00  0.00     0.174 HD
ATOM     13  H11 UNL     1       4.604  -3.370   1.102  1.00  0.00     0.174 HD
ENDBRANCH   7  11
ENDBRANCH   3   4
ENDBRANCH   2   3
ENDBRANCH   1   2
BRANCH   1  14
HETATM   14  C5  UNL     1      -1.029   1.549  -0.531  1.00  0.00     0.078 C 
BRANCH  14  15
HETATM   15  C6  UNL     1      -1.391   0.755   0.718  1.00  0.00     0.052 C 
BRANCH  15  16
HETATM   16  C7  UNL     1      -2.568  -0.100   0.391  1.00  0.00    -0.014 A 
HETATM   17  C8  UNL     1      -2.400  -1.437   0.156  1.00  0.00     0.012 A 
HETATM   18  C9  UNL     1      -3.532  -2.185  -0.149  1.00  0.00     0.018 A 
HETATM   19  C10 UNL     1      -4.790  -1.634  -0.220  1.00  0.00     0.089 A 
HETATM   20  N4  UNL     1      -4.904  -0.307   0.021  1.00  0.00    -0.352 N 
HETATM   21  C11 UNL     1      -3.830   0.453   0.320  1.00  0.00     0.104 A 
ATOM     22  H4  UNL     1      -5.825   0.129  -0.025  1.00  0.00     0.166 HD
HETATM   23  N5  UNL     1      -3.975   1.727   0.549  1.00  0.00    -0.385 N 
ATOM     24  H52 UNL     1      -3.163   2.302   0.775  1.00  0.00     0.157 HD
ATOM     25  H51 UNL     1      -4.908   2.136   0.497  1.00  0.00     0.157 HD
ENDBRANCH  15  16
ENDBRANCH  14  15
ENDBRANCH   1  14
TORSDOF 7
