REMARK  7 active torsions:
REMARK  status: ('A' for Active; 'I' for Inactive)
REMARK    1  A    between atoms: N1_1  and  C1_4 
REMARK    2  A    between atoms: C4_11  and  C5_12 
REMARK    3  A    between atoms: C5_12  and  C6_13 
REMARK    4  A    between atoms: C6_13  and  S1_14 
REMARK    5  A    between atoms: S1_14  and  C7_15 
REMARK    6  A    between atoms: C7_15  and  C8_16 
REMARK    7  A    between atoms: C8_16  and  C9_17 
ROOT
HETATM    1  C6  UNL     1       1.152  -1.386   1.297  1.00  0.00     0.078 C 
ENDROOT
BRANCH   1   2
HETATM    2  C5  UNL     1       2.348  -1.662   0.497  1.00  0.00     0.054 C 
BRANCH   2   3
HETATM    3  C4  UNL     1       3.356  -0.627   0.322  1.00  0.00     0.002 A 
HETATM    4  C1  UNL     1       3.264   0.325  -0.656  1.00  0.00     0.107 A 
HETATM    5  N2  UNL     1       4.247   1.284  -0.712  1.00  0.00    -0.339 N 
HETATM    6  C2  UNL     1       5.278   1.340   0.124  1.00  0.00     0.181 A 
ATOM      7  H2  UNL     1       4.181   1.996  -1.440  1.00  0.00     0.168 HD
HETATM    8  N3  UNL     1       5.338   0.382   1.078  1.00  0.00    -0.361 N 
HETATM    9  C3  UNL     1       4.442  -0.569   1.203  1.00  0.00     0.099 A 
ATOM     10  H3  UNL     1       6.119   0.400   1.733  1.00  0.00     0.166 HD
BRANCH   4  11
HETATM   11  N1  UNL     1       2.346   0.380  -1.555  1.00  0.00    -0.385 N 
ATOM     12  H12 UNL     1       2.277   1.090  -2.284  1.00  0.00     0.157 HD
ATOM     13  H11 UNL     1       1.616  -0.332  -1.513  1.00  0.00     0.157 HD
ENDBRANCH   4  11
ENDBRANCH   2   3
ENDBRANCH   1   2
BRANCH   1  14
HETATM   14  S1  UNL     1       0.044  -0.168   0.635  1.00  0.00    -0.169 SA
BRANCH  14  15
HETATM   15  C7  UNL     1      -0.933  -0.826  -0.773  1.00  0.00     0.076 C 
BRANCH  15  16
HETATM   16  C8  UNL     1      -1.878   0.272  -1.279  1.00  0.00     0.045 C 
BRANCH  16  17
HETATM   17  C9  UNL     1      -2.769   0.628  -0.096  1.00  0.00     0.214 C 
HETATM   18  C10 UNL     1      -3.753   1.704  -0.451  1.00  0.00     0.267 C 
HETATM   19  N4  UNL     1      -5.030   0.998  -0.421  1.00  0.00    -0.049 N 
HETATM   20  C11 UNL     1      -4.803   0.056   0.668  1.00  0.00     0.463 C 
ATOM     21  H42 UNL     1      -5.855   1.589  -0.324  1.00  0.00     0.279 HD
ATOM     22  H41 UNL     1      -5.322   0.583  -1.306  1.00  0.00     0.279 HD
HETATM   23  N5  UNL     1      -3.546  -0.565   0.238  1.00  0.00    -0.045 N 
ATOM     24  H52 UNL     1      -3.626  -1.263  -0.501  1.00  0.00     0.279 HD
ATOM     25  H51 UNL     1      -3.114  -1.202   0.907  1.00  0.00     0.279 HD
ENDBRANCH  16  17
ENDBRANCH  15  16
ENDBRANCH  14  15
ENDBRANCH   1  14
TORSDOF 7
