REMARK  8 active torsions:
REMARK  status: ('A' for Active; 'I' for Inactive)
REMARK    1  A    between atoms: N1_1  and  C1_4 
REMARK    2  A    between atoms: C3_8  and  C4_9 
REMARK    3  A    between atoms: C7_14  and  C8_15 
REMARK    4  A    between atoms: C8_15  and  C9_16 
REMARK    5  A    between atoms: C9_16  and  N4_17 
REMARK    6  A    between atoms: N4_17  and  C10_19 
REMARK    7  A    between atoms: C10_19  and  C11_20 
REMARK    8  A    between atoms: C11_20  and  O1_21 
ROOT
HETATM    1  C4  UNL     1      -1.795   0.936   0.375  1.00  0.00    -0.020 A 
HETATM    2  C5  UNL     1      -1.540   2.239   0.741  1.00  0.00     0.029 A 
HETATM    3  C6  UNL     1      -0.256   2.535   1.148  1.00  0.00     0.089 A 
HETATM    4  N3  UNL     1       0.711   1.601   1.188  1.00  0.00    -0.369 N 
ATOM      5  H3  UNL     1       1.642   1.879   1.497  1.00  0.00     0.165 HD
HETATM    6  C7  UNL     1       0.508   0.312   0.839  1.00  0.00     0.011 A 
HETATM    7  C12 UNL     1      -0.781  -0.003   0.427  1.00  0.00     0.037 A 
ENDROOT
BRANCH   1   8
HETATM    8  C3  UNL     1      -3.146   0.603  -0.056  1.00  0.00     0.006 A 
HETATM    9  C2  UNL     1      -4.219   1.293   0.501  1.00  0.00     0.119 A 
HETATM   10  N2  UNL     1      -5.466   1.019   0.140  1.00  0.00    -0.201 N 
HETATM   11  C1  UNL     1      -5.733   0.074  -0.768  1.00  0.00     0.675 A 
ATOM     12  H2  UNL     1      -6.235   1.539   0.563  1.00  0.00     0.183 HD
HETATM   13  N5  UNL     1      -4.721  -0.611  -1.325  1.00  0.00    -0.201 N 
HETATM   14  C13 UNL     1      -3.446  -0.356  -0.979  1.00  0.00     0.119 A 
ATOM     15  H5  UNL     1      -4.921  -1.332  -2.018  1.00  0.00     0.183 HD
BRANCH  11  16
HETATM   16  N1  UNL     1      -6.954  -0.166  -1.097  1.00  0.00    -0.234 N 
ATOM     17  H12 UNL     1      -7.723   0.354  -0.674  1.00  0.00     0.174 HD
ATOM     18  H11 UNL     1      -7.158  -0.887  -1.789  1.00  0.00     0.174 HD
ENDBRANCH  11  16
ENDBRANCH   1   8
BRANCH   6  19
HETATM   19  C8  UNL     1       1.580  -0.710   0.900  1.00  0.00     0.076 C 
BRANCH  19  20
HETATM   20  C9  UNL     1       2.326  -0.746  -0.418  1.00  0.00     0.124 C 
BRANCH  20  21
HETATM   21  N4  UNL     1       3.375  -1.721  -0.427  1.00  0.00    -0.400 N 
ATOM     22  H4  UNL     1       3.316  -2.553  -1.014  1.00  0.00     0.158 HD
BRANCH  21  23
HETATM   23  C10 UNL     1       4.490  -1.492   0.401  1.00  0.00     0.081 C 
BRANCH  23  24
HETATM   24  C11 UNL     1       5.402  -0.374   0.056  1.00  0.00     0.208 C 
BRANCH  24  25
HETATM   25  O1  UNL     1       5.997  -0.478  -1.191  1.00  0.00    -0.396 OA
ATOM     26  H1  UNL     1       6.581   0.238  -1.412  1.00  0.00     0.209 HD
ENDBRANCH  24  25
ENDBRANCH  23  24
ENDBRANCH  21  23
ENDBRANCH  20  21
ENDBRANCH  19  20
ENDBRANCH   6  19
TORSDOF 8
