REMARK  3 active torsions:
REMARK  status: ('A' for Active; 'I' for Inactive)
REMARK    1  A    between atoms: C2_2  and  C3_3 
REMARK    2  A    between atoms: C10_11  and  C11_12 
REMARK    3  A    between atoms: C11_12  and  N1_13 
ROOT
HETATM    1  C1  UNL     1       1.204   0.727   1.465  1.00  0.00     0.018 C 
HETATM    2  C2  UNL     1       0.454   0.757   0.172  1.00  0.00    -0.009 C 
HETATM    3  C4  UNL     1      -1.010   1.095   0.441  1.00  0.00    -0.004 C 
HETATM    4  C5  UNL     1      -1.795   1.033  -0.847  1.00  0.00     0.006 C 
HETATM    5  C6  UNL     1      -1.919  -0.431  -1.247  1.00  0.00     0.005 C 
HETATM    6  C7  UNL     1      -0.833  -1.221  -0.554  1.00  0.00    -0.008 C 
HETATM    7  C8  UNL     1      -1.213  -1.335   0.897  1.00  0.00     0.005 C 
HETATM    8  C9  UNL     1      -1.630   0.050   1.372  1.00  0.00     0.006 C 
HETATM    9  C10 UNL     1       0.499  -0.484  -0.627  1.00  0.00     0.026 C 
ENDROOT
BRANCH   9  10
HETATM   10  C11 UNL     1       1.559  -1.465  -0.260  1.00  0.00     0.235 C 
BRANCH  10  11
HETATM   11  N1  UNL     1       2.904  -0.932  -0.380  1.00  0.00    -0.079 N 
ATOM     12  H13 UNL     1       3.064  -0.560  -1.316  1.00  0.00     0.274 HD
ATOM     13  H12 UNL     1       3.003  -0.073   0.162  1.00  0.00     0.274 HD
ATOM     14  H11 UNL     1       3.630  -1.603  -0.129  1.00  0.00     0.274 HD
ENDBRANCH  10  11
ENDBRANCH   9  10
BRANCH   2  15
HETATM   15  C3  UNL     1       1.010   1.928  -0.626  1.00  0.00     0.232 C 
HETATM   16  F1  UNL     1       0.815   3.091   0.086  1.00  0.00    -0.255 F 
ENDBRANCH   2  15
TORSDOF 3
