REMARK  3 active torsions:
REMARK  status: ('A' for Active; 'I' for Inactive)
REMARK    1  A    between atoms: C2_2  and  C3_3 
REMARK    2  A    between atoms: C3_3  and  N1_4 
REMARK    3  A    between atoms: N1_4  and  C4_6 
ROOT
HETATM    1  C4  UNL     1      -0.427   0.087   0.244  1.00  0.00     0.032 C 
HETATM    2  C5  UNL     1      -0.798   1.032  -0.569  1.00  0.00     0.040 C 
HETATM    3  C6  UNL     1      -2.286   1.051  -0.752  1.00  0.00     0.199 C 
HETATM    4  F1  UNL     1      -2.563   1.160  -2.118  1.00  0.00    -0.245 F 
HETATM    5  C7  UNL     1      -2.767  -0.277  -0.205  1.00  0.00     0.081 C 
HETATM    6  C8  UNL     1      -1.648  -0.623   0.721  1.00  0.00    -0.038 C 
HETATM    7  C9  UNL     1      -1.699  -1.402   1.781  1.00  0.00     0.021 C 
ENDROOT
BRANCH   1   8
HETATM    8  N1  UNL     1       0.838  -0.312   0.708  1.00  0.00    -0.386 N 
ATOM      9  H1  UNL     1       0.972  -0.329   1.719  1.00  0.00     0.160 HD
BRANCH   8  10
HETATM   10  C3  UNL     1       1.947  -0.693  -0.089  1.00  0.00     0.146 C 
BRANCH  10  11
HETATM   11  C2  UNL     1       2.546   0.471  -0.773  1.00  0.00    -0.018 C 
HETATM   12  C1  UNL     1       3.831   0.745  -0.492  1.00  0.00     0.008 C 
ENDBRANCH  10  11
ENDBRANCH   8  10
ENDBRANCH   1   8
TORSDOF 3
