REMARK  3 active torsions:
REMARK  status: ('A' for Active; 'I' for Inactive)
REMARK    1  A    between atoms: C1_2  and  C2_3 
REMARK    2  A    between atoms: C2_3  and  C3_4 
REMARK    3  A    between atoms: C3_4  and  C4_5 
ROOT
HETATM    1  C4  UNL     1      -0.668  -0.234  -0.409  1.00  0.00     0.002 A 
HETATM    2  C5  UNL     1      -1.737  -1.144  -0.345  1.00  0.00     0.014 A 
HETATM    3  C6  UNL     1      -2.909  -0.826   0.264  1.00  0.00     0.001 A 
HETATM    4  C7  UNL     1      -3.116   0.403   0.853  1.00  0.00     0.003 A 
HETATM    5  C8  UNL     1      -2.075   1.279   0.783  1.00  0.00     0.043 A 
HETATM    6  C9  UNL     1      -0.857   0.982   0.161  1.00  0.00     0.126 A 
HETATM    7  F1  UNL     1       0.048   2.028   0.078  1.00  0.00    -0.205 F 
ENDROOT
BRANCH   1   8
HETATM    8  C3  UNL     1       0.491  -0.625  -1.163  1.00  0.00     0.015 C 
BRANCH   8   9
HETATM    9  C2  UNL     1       1.753  -0.529  -1.069  1.00  0.00     0.015 C 
BRANCH   9  10
HETATM   10  C1  UNL     1       2.810  -0.029  -0.224  1.00  0.00     0.100 C 
HETATM   11  N1  UNL     1       2.568   0.521   1.046  1.00  0.00    -0.115 NA
ENDBRANCH   9  10
ENDBRANCH   8   9
ENDBRANCH   1   8
TORSDOF 3
