REMARK  4 active torsions:
REMARK  status: ('A' for Active; 'I' for Inactive)
REMARK    1  A    between atoms: N1_1  and  C1_5 
REMARK    2  A    between atoms: C1_5  and  C2_6 
REMARK    3  A    between atoms: C2_6  and  N2_7 
REMARK    4  A    between atoms: N2_7  and  C3_9 
ROOT
HETATM    1  C3  UNL     1       2.896  -0.111   0.534  1.00  0.00     0.077 C 
HETATM    2  C4  UNL     1       1.938   1.031   0.208  1.00  0.00     0.030 C 
HETATM    3  C5  UNL     1       0.985   0.653  -0.870  1.00  0.00     0.073 C 
HETATM    4  C6  UNL     1       0.314  -0.669  -0.656  1.00  0.00     0.201 C 
HETATM    5  C7  UNL     1       1.325  -1.736  -0.393  1.00  0.00     0.073 C 
HETATM    6  C8  UNL     1       2.758  -1.222  -0.486  1.00  0.00     0.030 C 
HETATM    7  O1  UNL     1      -0.450  -0.914  -1.815  1.00  0.00    -0.197 OA
HETATM    8  O2  UNL     1      -1.343   0.069  -1.696  1.00  0.00    -0.197 OA
HETATM    9  C9  UNL     1      -1.816  -0.187  -0.397  1.00  0.00     0.208 C 
HETATM   10  O3  UNL     1      -0.701  -0.618   0.304  1.00  0.00    -0.313 OA
HETATM   11  C10 UNL     1      -2.409   1.039   0.242  1.00  0.00     0.052 C 
HETATM   12  C11 UNL     1      -3.518   1.610  -0.589  1.00  0.00     0.014 C 
HETATM   13  C12 UNL     1      -4.615   0.574  -0.804  1.00  0.00    -0.013 C 
HETATM   14  C13 UNL     1      -5.193   0.273   0.558  1.00  0.00     0.009 C 
HETATM   15  C14 UNL     1      -4.116  -0.332   1.412  1.00  0.00    -0.013 C 
HETATM   16  C15 UNL     1      -2.963   0.629   1.585  1.00  0.00     0.014 C 
HETATM   17  C16 UNL     1      -3.556  -1.582   0.768  1.00  0.00     0.014 C 
HETATM   18  C17 UNL     1      -2.888  -1.228  -0.527  1.00  0.00     0.052 C 
HETATM   19  C18 UNL     1      -3.966  -0.643  -1.436  1.00  0.00     0.014 C 
ENDROOT
BRANCH   1  20
HETATM   20  N2  UNL     1       4.208   0.464   0.547  1.00  0.00    -0.415 N 
ATOM     21  H2  UNL     1       4.425   1.309   1.076  1.00  0.00     0.153 HD
BRANCH  20  22
HETATM   22  C2  UNL     1       5.202  -0.226  -0.234  1.00  0.00     0.141 C 
BRANCH  22  23
HETATM   23  C1  UNL     1       6.402   0.727  -0.258  1.00  0.00     0.248 C 
BRANCH  23  24
HETATM   24  N1  UNL     1       6.868   1.037   1.084  1.00  0.00    -0.078 N 
ATOM     25  H13 UNL     1       6.114   1.403   1.665  1.00  0.00     0.274 HD
ATOM     26  H12 UNL     1       7.077   0.189   1.611  1.00  0.00     0.274 HD
ATOM     27  H11 UNL     1       7.667   1.671   1.068  1.00  0.00     0.274 HD
ENDBRANCH  23  24
ENDBRANCH  22  23
ENDBRANCH  20  22
ENDBRANCH   1  20
TORSDOF 4
