REMARK  6 active torsions:
REMARK  status: ('A' for Active; 'I' for Inactive)
REMARK    1  A    between atoms: C5_5  and  C6_6 
REMARK    2  A    between atoms: C6_6  and  O1_7 
REMARK    3  A    between atoms: C6_6  and  N1_9 
REMARK    4  A    between atoms: C9_12  and  N2_13 
REMARK       I    between atoms: N2_13  and  C10_15 
REMARK    5  A    between atoms: C10_15  and  O3_17 
REMARK    6  A    between atoms: O3_17  and  C11_18 
ROOT
HETATM    1  N1  UNL     1       0.931  -0.627  -0.578  1.00  0.00    -0.383 N 
HETATM    2  C7  UNL     1       0.950   0.785  -0.598  1.00  0.00     0.121 C 
HETATM    3  C8  UNL     1      -0.436   1.400  -0.496  1.00  0.00     0.045 C 
HETATM    4  C9  UNL     1      -1.172   0.739   0.614  1.00  0.00     0.089 C 
HETATM    5  C15 UNL     1      -0.376  -0.218   1.443  1.00  0.00     0.045 C 
HETATM    6  C16 UNL     1       0.410  -1.213   0.613  1.00  0.00     0.121 C 
ENDROOT
BRANCH   1   7
HETATM    7  C6  UNL     1       2.006  -1.317  -1.167  1.00  0.00     0.262 C 
BRANCH   7   8
HETATM    8  C5  UNL     1       3.308  -1.081  -0.501  1.00  0.00     0.030 C 
HETATM    9  C4  UNL     1       4.570  -1.736  -1.027  1.00  0.00     0.057 C 
HETATM   10  C3  UNL     1       5.669  -0.734  -1.237  1.00  0.00     0.011 C 
HETATM   11  C2  UNL     1       5.662   0.286  -0.149  1.00  0.00    -0.001 C 
HETATM   12  C1  UNL     1       7.042   0.716   0.280  1.00  0.00     0.011 C 
HETATM   13  C17 UNL     1       4.858  -0.252   1.034  1.00  0.00     0.123 C 
HETATM   14  N3  UNL     1       3.494  -0.347   0.530  1.00  0.00    -0.393 N 
ATOM     15  H3  UNL     1       2.724   0.149   0.978  1.00  0.00     0.159 HD
ENDBRANCH   7   8
BRANCH   7  16
HETATM   16  O1  UNL     1       2.175  -0.903  -2.518  1.00  0.00    -0.372 OA
ATOM     17  H1  UNL     1       1.340  -1.054  -2.945  1.00  0.00     0.212 HD
ENDBRANCH   7  16
ENDBRANCH   1   7
BRANCH   4  18
HETATM   18  N2  UNL     1      -2.383   0.142   0.086  1.00  0.00    -0.332 N 
HETATM   19  C10 UNL     1      -3.679   0.548   0.461  1.00  0.00     0.361 C 
HETATM   20  O2  UNL     1      -3.884   1.468   1.292  1.00  0.00    -0.238 OA
ATOM     21  H2  UNL     1      -2.292  -0.613  -0.594  1.00  0.00     0.165 HD
BRANCH  19  22
HETATM   22  O3  UNL     1      -4.798  -0.064  -0.083  1.00  0.00    -0.294 OA
BRANCH  22  23
HETATM   23  C11 UNL     1      -6.084   0.344   0.291  1.00  0.00     0.061 C 
HETATM   24  C12 UNL     1      -6.339   0.179   1.774  1.00  0.00     0.046 C 
HETATM   25  C13 UNL     1      -6.185   1.831  -0.065  1.00  0.00     0.046 C 
HETATM   26  C14 UNL     1      -7.091  -0.457  -0.500  1.00  0.00     0.046 C 
ENDBRANCH  22  23
ENDBRANCH  19  22
ENDBRANCH   4  18
TORSDOF 6
