REMARK  8 active torsions:
REMARK  status: ('A' for Active; 'I' for Inactive)
REMARK    1  A    between atoms: C4_4  and  C5_5 
REMARK    2  A    between atoms: C5_5  and  N1_6 
REMARK    3  A    between atoms: C8_9  and  N2_10 
REMARK    4  A    between atoms: N2_10  and  C9_12 
REMARK    5  A    between atoms: C9_12  and  C10_13 
REMARK    6  A    between atoms: C9_12  and  C17_23 
REMARK       I    between atoms: C10_13  and  N3_15 
REMARK    7  A    between atoms: N3_15  and  C11_17 
REMARK    8  A    between atoms: C23_29  and  C24_30 
ROOT
HETATM    1  N1  UNL     1       2.508   0.401   0.290  1.00  0.00     0.092 N 
HETATM    2  C6  UNL     1       1.491   0.320   1.313  1.00  0.00     0.275 C 
HETATM    3  C7  UNL     1       0.401  -0.686   0.928  1.00  0.00     0.055 C 
HETATM    4  C8  UNL     1      -0.275  -0.214  -0.316  1.00  0.00     0.080 C 
HETATM    5  C20 UNL     1       0.421   0.999  -0.894  1.00  0.00     0.055 C 
HETATM    6  C21 UNL     1       1.895   0.632  -1.006  1.00  0.00     0.275 C 
ENDROOT
BRANCH   4   7
HETATM    7  N2  UNL     1      -1.673  -0.139  -0.314  1.00  0.00    -0.405 N 
ATOM      8  H2  UNL     1      -2.157   0.709  -0.019  1.00  0.00     0.154 HD
BRANCH   7   9
HETATM    9  C9  UNL     1      -2.389  -1.281  -0.736  1.00  0.00     0.173 C 
BRANCH   9  10
HETATM   10  C10 UNL     1      -3.539  -0.533  -1.489  1.00  0.00     0.240 C 
HETATM   11  O1  UNL     1      -3.724  -0.663  -2.654  1.00  0.00    -0.271 OA
HETATM   12  N3  UNL     1      -4.317   0.348  -0.632  1.00  0.00    -0.355 N 
ATOM     13  H3  UNL     1      -4.144   0.372   0.373  1.00  0.00     0.162 HD
BRANCH  12  14
HETATM   14  C11 UNL     1      -5.314   1.170  -1.203  1.00  0.00     0.084 C 
HETATM   15  C12 UNL     1      -6.717   0.613  -0.979  1.00  0.00     0.025 C 
HETATM   16  C13 UNL     1      -6.868   0.221   0.480  1.00  0.00     0.002 C 
HETATM   17  C14 UNL     1      -6.380   1.320   1.363  1.00  0.00     0.000 C 
HETATM   18  C15 UNL     1      -6.176   2.619   0.651  1.00  0.00     0.002 C 
HETATM   19  C16 UNL     1      -5.340   2.566  -0.578  1.00  0.00     0.025 C 
ENDBRANCH  12  14
ENDBRANCH   9  10
BRANCH   9  20
HETATM   20  C17 UNL     1      -2.976  -2.336   0.025  1.00  0.00     0.009 C 
HETATM   21  C18 UNL     1      -3.538  -3.402  -0.949  1.00  0.00     0.012 C 
HETATM   22  C19 UNL     1      -2.115  -3.064   1.018  1.00  0.00     0.012 C 
ENDBRANCH   9  20
ENDBRANCH   7   9
ENDBRANCH   4   7
BRANCH   1  23
HETATM   23  C5  UNL     1       3.142  -0.939   0.306  1.00  0.00     0.311 C 
BRANCH  23  24
HETATM   24  C4  UNL     1       4.594  -0.626   0.057  1.00  0.00    -0.029 A 
HETATM   25  C3  UNL     1       5.435  -1.346  -0.706  1.00  0.00     0.015 A 
HETATM   26  C2  UNL     1       6.776  -0.973  -0.825  1.00  0.00    -0.061 A 
HETATM   27  C1  UNL     1       7.692  -1.771  -1.669  1.00  0.00     0.048 C 
HETATM   28  C26 UNL     1       7.234   0.137  -0.159  1.00  0.00     0.020 A 
HETATM   29  C23 UNL     1       6.406   0.915   0.644  1.00  0.00     0.013 A 
HETATM   30  C22 UNL     1       5.082   0.492   0.720  1.00  0.00     0.022 A 
BRANCH  29  31
HETATM   31  C24 UNL     1       6.838   2.104   1.386  1.00  0.00     0.267 C 
HETATM   32  C25 UNL     1       7.508   3.123   0.522  1.00  0.00     0.096 C 
HETATM   33  F1  UNL     1       5.703   2.730   1.913  1.00  0.00    -0.201 F 
HETATM   34  F2  UNL     1       7.582   1.698   2.460  1.00  0.00    -0.201 F 
ENDBRANCH  29  31
ENDBRANCH  23  24
ENDBRANCH   1  23
TORSDOF 8
