REMARK  8 active torsions:
REMARK  status: ('A' for Active; 'I' for Inactive)
REMARK    1  A    between atoms: C2_2  and  C4_4 
REMARK    2  A    between atoms: C5_7  and  C6_8 
REMARK    3  A    between atoms: C6_8  and  C7_9 
REMARK    4  A    between atoms: C11_13  and  N2_14 
REMARK    5  A    between atoms: N3_17  and  C12_18 
REMARK    6  A    between atoms: C12_18  and  C13_19 
REMARK    7  A    between atoms: C13_19  and  C14_20 
REMARK    8  A    between atoms: C14_20  and  C15_21 
ROOT
HETATM    1  C4  UNL     1      -0.844  -0.414   0.297  1.00  0.00     0.088 A 
HETATM    2  N1  UNL     1      -2.060   0.136   0.038  1.00  0.00    -0.349 N 
ATOM      3  H1  UNL     1      -2.731  -0.394  -0.518  1.00  0.00     0.167 HD
HETATM    4  C5  UNL     1      -2.408   1.346   0.485  1.00  0.00     0.014 A 
HETATM    5  C10 UNL     1      -1.494   2.045   1.232  1.00  0.00     0.073 A 
HETATM    6  C11 UNL     1      -0.260   1.495   1.498  1.00  0.00     0.104 A 
HETATM    7  N3  UNL     1       0.030   0.290   1.028  1.00  0.00    -0.323 N 
ENDROOT
BRANCH   7   8
HETATM    8  C12 UNL     1       1.307  -0.282   1.308  1.00  0.00     0.132 C 
BRANCH   8   9
HETATM    9  C13 UNL     1       2.360   0.042   0.261  1.00  0.00     0.026 C 
BRANCH   9  10
HETATM   10  C14 UNL     1       3.643  -0.653   0.738  1.00  0.00     0.058 C 
BRANCH  10  11
HETATM   11  C15 UNL     1       4.763  -0.419  -0.200  1.00  0.00     0.011 A 
HETATM   12  C16 UNL     1       5.666   0.633  -0.141  1.00  0.00     0.047 A 
HETATM   13  C17 UNL     1       6.560   0.502  -1.189  1.00  0.00     0.046 A 
HETATM   14 BR1  UNL     1       8.010   1.663  -1.593  1.00  0.00    -0.048 Br
HETATM   15  C18 UNL     1       6.196  -0.621  -1.872  1.00  0.00     0.097 A 
HETATM   16 BR2  UNL     1       7.070  -1.310  -3.424  1.00  0.00    -0.030 Br
HETATM   17  N4  UNL     1       5.111  -1.163  -1.261  1.00  0.00    -0.353 N 
ATOM     18  H4  UNL     1       4.631  -2.011  -1.564  1.00  0.00     0.166 HD
ENDBRANCH  10  11
ENDBRANCH   9  10
ENDBRANCH   8   9
ENDBRANCH   7   8
BRANCH   1  19
HETATM   19  C2  UNL     1      -0.616  -1.750  -0.269  1.00  0.00     0.045 C 
HETATM   20  C1  UNL     1      -1.681  -2.750   0.199  1.00  0.00     0.017 C 
HETATM   21  C3  UNL     1      -0.815  -1.635  -1.782  1.00  0.00     0.017 C 
ENDBRANCH   1  19
BRANCH   6  22
HETATM   22  N2  UNL     1       0.596   2.190   2.218  1.00  0.00    -0.385 N 
ATOM     23  H22 UNL     1       0.373   3.117   2.580  1.00  0.00     0.157 HD
ATOM     24  H21 UNL     1       1.510   1.783   2.415  1.00  0.00     0.157 HD
ENDBRANCH   6  22
BRANCH   4  25
HETATM   25  C6  UNL     1      -3.745   1.893   0.172  1.00  0.00     0.061 C 
BRANCH  25  26
HETATM   26  C7  UNL     1      -4.582   0.973  -0.650  1.00  0.00    -0.009 A 
HETATM   27  C8  UNL     1      -5.957   1.472  -1.003  1.00  0.00     0.005 A 
HETATM   28  C9  UNL     1      -5.769   0.382   0.030  1.00  0.00     0.005 A 
ENDBRANCH  25  26
ENDBRANCH   4  25
TORSDOF 8
