REMARK  12 active torsions:
REMARK  status: ('A' for Active; 'I' for Inactive)
REMARK    1  A    between atoms: O1_2  and  C2_3 
REMARK    2  A    between atoms: C2_3  and  C3_4 
REMARK    3  A    between atoms: C3_4  and  O2_5 
REMARK    4  A    between atoms: O2_5  and  C4_6 
REMARK    5  A    between atoms: C7_11  and  C8_12 
REMARK    6  A    between atoms: C16_22  and  C17_23 
REMARK       I    between atoms: C17_23  and  N3_25 
REMARK    7  A    between atoms: N3_25  and  C18_27 
REMARK    8  A    between atoms: C18_27  and  C19_28 
REMARK    9  A    between atoms: C19_28  and  C20_29 
REMARK   10  A    between atoms: C20_29  and  C21_30 
REMARK   11  A    between atoms: C21_30  and  N4_31 
REMARK   12  A    between atoms: C24_34  and  N5_35 
ROOT
HETATM    1  C4  UNL     1      -6.608   2.847  -0.634  1.00  0.00     0.187 A 
HETATM    2  N1  UNL     1      -6.540   1.543  -0.737  1.00  0.00    -0.330 N 
ATOM      3  H1  UNL     1      -7.339   1.013  -1.086  1.00  0.00     0.168 HD
HETATM    4  C5  UNL     1      -5.437   0.923  -0.388  1.00  0.00     0.052 A 
HETATM    5  C6  UNL     1      -5.231  -0.466  -0.454  1.00  0.00     0.044 A 
HETATM    6  C7  UNL     1      -4.013  -1.004  -0.059  1.00  0.00    -0.012 A 
HETATM    7  C16 UNL     1      -2.975  -0.272   0.399  1.00  0.00     0.044 A 
HETATM    8  C31 UNL     1      -3.200   1.135   0.460  1.00  0.00     0.039 A 
HETATM    9  C32 UNL     1      -4.401   1.686   0.073  1.00  0.00     0.036 A 
HETATM   10  S1  UNL     1      -5.072   3.261  -0.020  1.00  0.00    -0.044 SA
ENDROOT
BRANCH   7  11
HETATM   11  C17 UNL     1      -1.648  -0.658   0.821  1.00  0.00     0.252 C 
HETATM   12  O4  UNL     1      -1.542  -0.821   2.094  1.00  0.00    -0.268 OA
HETATM   13  N3  UNL     1      -0.515  -0.845  -0.003  1.00  0.00    -0.357 N 
ATOM     14  H3  UNL     1      -0.611  -0.723  -1.011  1.00  0.00     0.162 HD
BRANCH  13  15
HETATM   15  C18 UNL     1       0.761  -1.200   0.532  1.00  0.00     0.123 C 
BRANCH  15  16
HETATM   16  C19 UNL     1       1.352  -0.171   1.479  1.00  0.00     0.025 C 
BRANCH  16  17
HETATM   17  C20 UNL     1       1.560   1.131   0.802  1.00  0.00     0.046 C 
BRANCH  17  18
HETATM   18  C21 UNL     1       2.555   1.090  -0.295  1.00  0.00     0.058 C 
BRANCH  18  19
HETATM   19  N4  UNL     1       3.894   0.837   0.005  1.00  0.00    -0.393 N 
HETATM   20  C22 UNL     1       4.614   1.826   0.729  1.00  0.00     0.124 C 
HETATM   21  C23 UNL     1       6.030   1.901   0.185  1.00  0.00     0.055 C 
HETATM   22  C24 UNL     1       6.687   0.542   0.167  1.00  0.00     0.226 C 
HETATM   23  C29 UNL     1       5.786  -0.498  -0.472  1.00  0.00     0.055 C 
HETATM   24  C30 UNL     1       4.407  -0.453   0.232  1.00  0.00     0.124 C 
BRANCH  22  25
HETATM   25  N5  UNL     1       7.909   0.651  -0.621  1.00  0.00     0.096 N 
HETATM   26  C25 UNL     1       8.759   1.584   0.053  1.00  0.00     0.300 C 
HETATM   27  C26 UNL     1      10.183   1.568  -0.427  1.00  0.00     0.262 C 
HETATM   28  N6  UNL     1      10.679   0.212  -0.137  1.00  0.00    -0.072 N 
HETATM   29  C27 UNL     1       9.946  -0.651  -1.044  1.00  0.00     0.262 C 
ATOM     30  H62 UNL     1      11.693   0.118  -0.203  1.00  0.00     0.277 HD
ATOM     31  H61 UNL     1      10.602  -0.057   0.844  1.00  0.00     0.277 HD
HETATM   32  C28 UNL     1       8.479  -0.661  -0.816  1.00  0.00     0.300 C 
ENDBRANCH  22  25
ENDBRANCH  18  19
ENDBRANCH  17  18
ENDBRANCH  16  17
ENDBRANCH  15  16
ENDBRANCH  13  15
ENDBRANCH   7  11
BRANCH   6  33
HETATM   33  C8  UNL     1      -3.931  -2.501   0.002  1.00  0.00    -0.040 C 
HETATM   34  C9  UNL     1      -5.064  -3.181   0.161  1.00  0.00     0.007 C 
HETATM   35  C10 UNL     1      -5.260  -4.620   0.249  1.00  0.00     0.110 C 
HETATM   36  C11 UNL     1      -5.535  -5.142   1.645  1.00  0.00     0.031 C 
HETATM   37  N2  UNL     1      -4.069  -5.376  -0.079  1.00  0.00    -0.344 N 
HETATM   38  C12 UNL     1      -5.292  -6.646   1.438  1.00  0.00     0.022 C 
HETATM   39  C13 UNL     1      -4.416  -6.751   0.192  1.00  0.00     0.127 C 
HETATM   40  C14 UNL     1      -2.944  -4.692  -0.535  1.00  0.00     0.224 C 
HETATM   41  O3  UNL     1      -2.102  -5.272  -1.253  1.00  0.00    -0.273 OA
HETATM   42  C15 UNL     1      -2.687  -3.248  -0.197  1.00  0.00     0.142 C 
ENDBRANCH   6  33
BRANCH   1  43
HETATM   43  O2  UNL     1      -7.701   3.674  -0.961  1.00  0.00    -0.328 OA
BRANCH  43  44
HETATM   44  C3  UNL     1      -7.629   5.061  -0.785  1.00  0.00     0.204 C 
BRANCH  44  45
HETATM   45  C2  UNL     1      -7.431   5.517   0.630  1.00  0.00     0.193 C 
BRANCH  45  46
HETATM   46  O1  UNL     1      -7.360   6.889   0.728  1.00  0.00    -0.394 OA
HETATM   47  C1  UNL     1      -8.468   7.577   0.296  1.00  0.00     0.201 C 
ENDBRANCH  45  46
ENDBRANCH  44  45
ENDBRANCH  43  44
ENDBRANCH   1  43
TORSDOF 12
