REMARK  13 active torsions:
REMARK  status: ('A' for Active; 'I' for Inactive)
REMARK    1  A    between atoms: C11_20  and  N6_21 
REMARK    2  A    between atoms: N6_21  and  C12_22 
REMARK    3  A    between atoms: C12_22  and  C13_23 
REMARK    4  A    between atoms: C13_23  and  C14_24 
REMARK    5  A    between atoms: C14_24  and  C15_25 
REMARK    6  A    between atoms: C15_25  and  N7_26 
REMARK    7  A    between atoms: N7_26  and  C16_27 
REMARK       I    between atoms: N7_26  and  C21_33 
REMARK    8  A    between atoms: C16_27  and  C17_28 
REMARK    9  A    between atoms: C17_28  and  C18_29 
REMARK   10  A    between atoms: C18_29  and  N8_30 
REMARK       I    between atoms: C21_33  and  N9_35 
REMARK   11  A    between atoms: N9_35  and  C22_37 
REMARK   12  A    between atoms: C22_37  and  C23_38 
REMARK   13  A    between atoms: C23_38  and  N10_39 
ROOT
HETATM    1  C13 UNL     1       1.863  -0.715  -0.528  1.00  0.00     0.061 C 
ENDROOT
BRANCH   1   2
HETATM    2  C12 UNL     1       2.994   0.133   0.022  1.00  0.00     0.157 C 
BRANCH   2   3
HETATM    3  N6  UNL     1       4.209  -0.335   0.239  1.00  0.00    -0.402 NA
BRANCH   3   4
HETATM    4  C11 UNL     1       5.300  -0.759   0.436  1.00  0.00     0.214 A 
HETATM    5  N5  UNL     1       5.567  -1.964   1.058  1.00  0.00    -0.100 N 
HETATM    6  C6  UNL     1       6.843  -2.346   1.213  1.00  0.00     0.694 A 
HETATM    7  C10 UNL     1       4.781  -2.910   1.590  1.00  0.00     0.173 A 
HETATM    8  N1  UNL     1       7.876  -1.598   0.787  1.00  0.00    -0.190 N 
HETATM    9  N2  UNL     1       6.830  -3.555   1.853  1.00  0.00    -0.187 N 
HETATM   10  C5  UNL     1       7.664  -0.415   0.176  1.00  0.00     0.064 A 
ATOM     11  H1  UNL     1       8.830  -1.929   0.928  1.00  0.00     0.184 HD
HETATM   12  C4  UNL     1       8.745   0.347  -0.256  1.00  0.00     0.031 A 
HETATM   13  C31 UNL     1       6.402   0.030  -0.013  1.00  0.00     0.051 A 
HETATM   14  C3  UNL     1       8.513   1.555  -0.878  1.00  0.00     0.009 A 
HETATM   15  C2  UNL     1       7.236   2.031  -1.084  1.00  0.00    -0.061 A 
HETATM   16  C1  UNL     1       7.050   3.340  -1.770  1.00  0.00     0.048 C 
HETATM   17  C32 UNL     1       6.182   1.248  -0.641  1.00  0.00     0.025 A 
HETATM   18  C7  UNL     1       5.567  -3.923   2.096  1.00  0.00     0.097 A 
ATOM     19  H2  UNL     1       7.658  -4.094   2.107  1.00  0.00     0.184 HD
HETATM   20  C8  UNL     1       4.998  -5.035   2.716  1.00  0.00     0.052 A 
HETATM   21  C9  UNL     1       3.635  -5.111   2.819  1.00  0.00     0.109 A 
HETATM   22  N3  UNL     1       2.902  -4.090   2.306  1.00  0.00    -0.310 N 
HETATM   23  N4  UNL     1       3.473  -3.054   1.726  1.00  0.00    -0.283 N 
ATOM     24  H3  UNL     1       1.885  -4.126   2.371  1.00  0.00     0.186 HD
ATOM     25  H4  UNL     1       2.870  -2.318   1.359  1.00  0.00     0.188 HD
ENDBRANCH   3   4
ENDBRANCH   2   3
ENDBRANCH   1   2
BRANCH   1  26
HETATM   26  C14 UNL     1       0.632   0.111  -0.736  1.00  0.00     0.026 C 
BRANCH  26  27
HETATM   27  C15 UNL     1       0.139   0.829   0.475  1.00  0.00     0.128 C 
BRANCH  27  28
HETATM   28  N7  UNL     1      -1.090   1.535   0.259  1.00  0.00    -0.334 N 
HETATM   29  C21 UNL     1      -2.347   0.876   0.546  1.00  0.00     0.322 C 
HETATM   30  O1  UNL     1      -3.350   1.596   0.334  1.00  0.00    -0.247 OA
HETATM   31  N9  UNL     1      -2.420  -0.430   1.013  1.00  0.00    -0.320 N 
ATOM     32  H9  UNL     1      -1.500  -0.853   1.133  1.00  0.00     0.169 HD
BRANCH  28  33
HETATM   33  C16 UNL     1      -1.098   2.902  -0.263  1.00  0.00     0.129 C 
BRANCH  33  34
HETATM   34  C17 UNL     1      -1.059   3.840   0.886  1.00  0.00     0.050 C 
BRANCH  34  35
HETATM   35  C18 UNL     1      -1.045   5.292   0.616  1.00  0.00     0.273 C 
BRANCH  35  36
HETATM   36  N8  UNL     1      -2.134   5.867  -0.092  1.00  0.00     0.080 N 
HETATM   37  C19 UNL     1      -1.905   7.338  -0.037  1.00  0.00     0.309 C 
HETATM   38  C20 UNL     1      -2.052   5.556  -1.501  1.00  0.00     0.309 C 
ENDBRANCH  35  36
ENDBRANCH  34  35
ENDBRANCH  33  34
ENDBRANCH  28  33
BRANCH  31  39
HETATM   39  C22 UNL     1      -3.456  -1.299   1.357  1.00  0.00     0.096 C 
BRANCH  39  40
HETATM   40  C23 UNL     1      -4.445  -1.802   0.352  1.00  0.00     0.062 C 
HETATM   41  C26 UNL     1      -5.394  -0.727  -0.048  1.00  0.00     0.066 C 
HETATM   42  C27 UNL     1      -6.752  -1.317  -0.414  1.00  0.00     0.274 C 
HETATM   43  N11 UNL     1      -6.591  -2.676  -0.913  1.00  0.00     0.084 N 
HETATM   44  C28 UNL     1      -7.859  -3.130  -1.403  1.00  0.00     0.309 C 
HETATM   45  C29 UNL     1      -6.178  -3.541   0.182  1.00  0.00     0.274 C 
HETATM   46  C30 UNL     1      -5.294  -2.820   1.150  1.00  0.00     0.066 C 
BRANCH  40  47
HETATM   47  N10 UNL     1      -3.856  -2.503  -0.723  1.00  0.00    -0.408 N 
HETATM   48  C24 UNL     1      -3.088  -3.634  -0.418  1.00  0.00     0.143 C 
HETATM   49  C25 UNL     1      -3.382  -1.793  -1.844  1.00  0.00     0.143 C 
ENDBRANCH  40  47
ENDBRANCH  39  40
ENDBRANCH  31  39
ENDBRANCH  27  28
ENDBRANCH  26  27
ENDBRANCH   1  26
TORSDOF 13
