REMARK  13 active torsions:
REMARK  status: ('A' for Active; 'I' for Inactive)
REMARK    1  A    between atoms: C4_4  and  C5_5 
REMARK    2  A    between atoms: C5_5  and  C6_7 
REMARK       I    between atoms: C6_7  and  N1_9 
REMARK    3  A    between atoms: C16_19  and  C17_20 
REMARK    4  A    between atoms: C17_20  and  N2_21 
REMARK    5  A    between atoms: N3_24  and  C20_25 
REMARK    6  A    between atoms: C20_25  and  C22_27 
REMARK    7  A    between atoms: C24_30  and  N4_31 
REMARK    8  A    between atoms: N4_31  and  C25_33 
REMARK    9  A    between atoms: C28_40  and  N7_41 
REMARK   10  A    between atoms: N7_41  and  C29_43 
REMARK   11  A    between atoms: C29_43  and  C30_44 
REMARK   12  A    between atoms: C30_44  and  C31_45 
REMARK   13  A    between atoms: C31_45  and  N8_46 
ROOT
HETATM    1  C1  UNL     1      -1.694  -2.588  -1.775  1.00  0.00     0.050 C 
HETATM    2  C2  UNL     1      -0.853  -1.372  -1.546  1.00  0.00    -0.034 A 
HETATM    3  C3  UNL     1       0.462  -1.467  -1.158  1.00  0.00     0.024 A 
HETATM    4  C4  UNL     1       1.297  -0.418  -0.921  1.00  0.00     0.021 A 
HETATM    5  C15 UNL     1       0.700   0.851  -1.106  1.00  0.00     0.027 A 
HETATM    6  C16 UNL     1      -0.594   1.032  -1.487  1.00  0.00    -0.002 A 
HETATM    7  C24 UNL     1      -1.393  -0.096  -1.714  1.00  0.00     0.048 A 
ENDROOT
BRANCH   7   8
HETATM    8  N4  UNL     1      -2.650   0.073  -2.116  1.00  0.00    -0.338 N 
ATOM      9  H4  UNL     1      -2.526   0.261  -3.111  1.00  0.00     0.167 HD
BRANCH   8  10
HETATM   10  C25 UNL     1      -3.855   0.136  -2.001  1.00  0.00     0.150 A 
HETATM   11  N5  UNL     1      -4.600   0.410  -3.130  1.00  0.00    -0.348 N 
HETATM   12  C26 UNL     1      -5.915   0.475  -3.093  1.00  0.00     0.107 A 
ATOM     13  H5  UNL     1      -4.120   0.566  -4.016  1.00  0.00     0.167 HD
HETATM   14  C27 UNL     1      -6.592   0.264  -1.890  1.00  0.00     0.107 A 
HETATM   15  N6  UNL     1      -5.874   0.001  -0.801  1.00  0.00    -0.348 N 
HETATM   16  C28 UNL     1      -4.535  -0.068  -0.824  1.00  0.00     0.146 A 
ATOM     17  H6  UNL     1      -6.359  -0.154   0.083  1.00  0.00     0.167 HD
BRANCH  16  18
HETATM   18  N7  UNL     1      -3.833  -0.313   0.426  1.00  0.00    -0.373 N 
ATOM     19  H7  UNL     1      -2.813  -0.295   0.444  1.00  0.00     0.161 HD
BRANCH  18  20
HETATM   20  C29 UNL     1      -4.566  -0.583   1.647  1.00  0.00     0.123 C 
BRANCH  20  21
HETATM   21  C30 UNL     1      -5.210  -1.923   1.546  1.00  0.00     0.050 C 
BRANCH  21  22
HETATM   22  C31 UNL     1      -6.004  -2.262   2.815  1.00  0.00     0.273 C 
BRANCH  22  23
HETATM   23  N8  UNL     1      -6.578  -3.557   2.626  1.00  0.00     0.080 N 
HETATM   24  C32 UNL     1      -7.360  -4.013   3.739  1.00  0.00     0.309 C 
HETATM   25  C33 UNL     1      -7.187  -3.750   1.348  1.00  0.00     0.309 C 
ENDBRANCH  22  23
ENDBRANCH  21  22
ENDBRANCH  20  21
ENDBRANCH  18  20
ENDBRANCH  16  18
ENDBRANCH   8  10
ENDBRANCH   7   8
BRANCH   6  26
HETATM   26  C17 UNL     1      -1.169   2.388  -1.705  1.00  0.00     0.315 C 
BRANCH  26  27
HETATM   27  N2  UNL     1      -0.186   3.391  -1.355  1.00  0.00     0.122 N 
HETATM   28  C18 UNL     1      -0.707   4.705  -1.783  1.00  0.00     0.305 C 
HETATM   29  C19 UNL     1      -1.736   4.989  -0.733  1.00  0.00     0.306 C 
HETATM   30  N3  UNL     1      -1.167   4.457   0.491  1.00  0.00     0.129 N 
HETATM   31  C23 UNL     1      -0.137   3.545   0.119  1.00  0.00     0.544 C 
BRANCH  30  32
HETATM   32  C20 UNL     1      -0.734   5.566   1.293  1.00  0.00     0.282 C 
HETATM   33  C21 UNL     1       0.351   6.402   0.664  1.00  0.00     0.050 C 
BRANCH  32  34
HETATM   34  C22 UNL     1      -0.432   5.222   2.693  1.00  0.00     0.266 C 
HETATM   35  O3  UNL     1      -0.563   4.095   3.120  1.00  0.00    -0.305 OA
ENDBRANCH  32  34
ENDBRANCH  30  32
ENDBRANCH  26  27
ENDBRANCH   6  26
BRANCH   4  36
HETATM   36  C5  UNL     1       2.678  -0.471  -0.519  1.00  0.00     0.249 C 
HETATM   37  O1  UNL     1       3.296   0.641  -0.417  1.00  0.00    -0.281 OA
BRANCH  36  38
HETATM   38  C6  UNL     1       3.412  -1.652  -0.230  1.00  0.00     0.294 C 
HETATM   39  O2  UNL     1       2.830  -2.773  -0.168  1.00  0.00    -0.264 OA
HETATM   40  N1  UNL     1       4.842  -1.704   0.012  1.00  0.00    -0.345 N 
HETATM   41  C7  UNL     1       5.418  -3.000   0.361  1.00  0.00     0.127 C 
HETATM   42  C14 UNL     1       5.680  -0.569  -0.105  1.00  0.00     0.131 C 
HETATM   43  C8  UNL     1       6.649  -3.201  -0.462  1.00  0.00     0.029 C 
HETATM   44  C9  UNL     1       7.657  -2.157  -0.010  1.00  0.00    -0.041 C 
HETATM   45  C10 UNL     1       8.060  -2.493   1.417  1.00  0.00     0.015 C 
HETATM   46  C11 UNL     1       8.903  -2.334  -0.850  1.00  0.00     0.015 C 
HETATM   47  C12 UNL     1       7.147  -0.773  -0.183  1.00  0.00     0.007 C 
HETATM   48  C13 UNL     1       7.806   0.106   0.895  1.00  0.00     0.012 C 
ENDBRANCH  36  38
ENDBRANCH   4  36
TORSDOF 13
