REMARK  13 active torsions:
REMARK  status: ('A' for Active; 'I' for Inactive)
REMARK    1  A    between atoms: C2_2  and  C3_3 
REMARK    2  A    between atoms: C3_3  and  C4_4 
REMARK    3  A    between atoms: C4_4  and  C5_5 
REMARK    4  A    between atoms: C5_5  and  N1_6 
REMARK    5  A    between atoms: C5_5  and  C19_29 
REMARK       I    between atoms: N1_6  and  C6_8 
REMARK    6  A    between atoms: C6_8  and  C7_10 
REMARK    7  A    between atoms: C9_12  and  C10_13 
REMARK    8  A    between atoms: C12_15  and  O2_16 
REMARK    9  A    between atoms: C14_18  and  O3_19 
REMARK   10  A    between atoms: C16_21  and  O4_22 
REMARK       I    between atoms: C19_29  and  N4_31 
REMARK   11  A    between atoms: C22_34  and  C23_35 
REMARK   12  A    between atoms: C22_34  and  C25_39 
REMARK   13  A    between atoms: C23_35  and  O7_37 
REMARK       I    between atoms: C25_39  and  N5_41 
ROOT
HETATM    1  C5  UNL     1      -0.261  -1.670   0.590  1.00  0.00     0.177 C 
ENDROOT
BRANCH   1   2
HETATM    2  C4  UNL     1       0.007  -3.089   0.175  1.00  0.00     0.035 C 
BRANCH   2   3
HETATM    3  C3  UNL     1      -1.106  -4.007  -0.023  1.00  0.00     0.002 C 
BRANCH   3   4
HETATM    4  C2  UNL     1      -1.960  -4.391   1.123  1.00  0.00    -0.004 C 
HETATM    5  C1  UNL     1      -1.232  -5.088   2.240  1.00  0.00     0.005 C 
ENDBRANCH   3   4
ENDBRANCH   2   3
ENDBRANCH   1   2
BRANCH   1   6
HETATM    6  N1  UNL     1       1.120  -1.121   0.740  1.00  0.00    -0.342 N 
HETATM    7  C6  UNL     1       1.613  -0.557   1.908  1.00  0.00     0.270 C 
HETATM    8  O1  UNL     1       0.921  -0.464   2.940  1.00  0.00    -0.266 OA
ATOM      9  H1  UNL     1       1.741  -1.163  -0.068  1.00  0.00     0.163 HD
BRANCH   7  10
HETATM   10  C7  UNL     1       2.994  -0.057   1.919  1.00  0.00     0.118 A 
HETATM   11  C8  UNL     1       3.861  -0.063   0.854  1.00  0.00     0.068 A 
HETATM   12  C9  UNL     1       5.031   0.478   1.287  1.00  0.00     0.060 A 
HETATM   13  N2  UNL     1       4.844   0.790   2.576  1.00  0.00    -0.299 N 
HETATM   14  N3  UNL     1       3.636   0.476   2.961  1.00  0.00    -0.295 N 
ATOM     15  H2  UNL     1       5.550   1.216   3.176  1.00  0.00     0.187 HD
ATOM     16  H3  UNL     1       3.250   0.614   3.895  1.00  0.00     0.187 HD
BRANCH  12  17
HETATM   17  C10 UNL     1       6.271   0.691   0.525  1.00  0.00    -0.003 A 
HETATM   18  C11 UNL     1       7.409   1.233   1.079  1.00  0.00     0.053 A 
HETATM   19  C12 UNL     1       8.567   1.434   0.341  1.00  0.00     0.105 A 
HETATM   20  C14 UNL     1       8.612   1.083  -1.015  1.00  0.00     0.135 A 
HETATM   21  C16 UNL     1       7.472   0.544  -1.554  1.00  0.00     0.105 A 
HETATM   22  C18 UNL     1       6.325   0.349  -0.810  1.00  0.00     0.053 A 
BRANCH  19  23
HETATM   23  O2  UNL     1       9.718   1.972   0.868  1.00  0.00    -0.353 OA
HETATM   24  C13 UNL     1       9.913   2.385   2.175  1.00  0.00     0.210 C 
ENDBRANCH  19  23
BRANCH  20  25
HETATM   25  O3  UNL     1       9.775   1.288  -1.746  1.00  0.00    -0.351 OA
HETATM   26  C15 UNL     1       9.987   2.511  -2.424  1.00  0.00     0.210 C 
ENDBRANCH  20  25
BRANCH  21  27
HETATM   27  O4  UNL     1       7.512   0.194  -2.902  1.00  0.00    -0.353 OA
HETATM   28  C17 UNL     1       6.352  -0.365  -3.493  1.00  0.00     0.210 C 
ENDBRANCH  21  27
ENDBRANCH  12  17
ENDBRANCH   7  10
ENDBRANCH   1   6
BRANCH   1  29
HETATM   29  C19 UNL     1      -0.889  -0.899  -0.540  1.00  0.00     0.242 C 
HETATM   30  O5  UNL     1      -0.093  -0.474  -1.467  1.00  0.00    -0.271 OA
HETATM   31  N4  UNL     1      -2.242  -0.583  -0.708  1.00  0.00    -0.350 N 
HETATM   32  C20 UNL     1      -3.301  -0.905   0.201  1.00  0.00     0.127 C 
HETATM   33  C31 UNL     1      -2.664   0.132  -1.926  1.00  0.00     0.127 C 
HETATM   34  C21 UNL     1      -4.226   0.256   0.466  1.00  0.00     0.050 C 
HETATM   35  C22 UNL     1      -4.677   0.993  -0.746  1.00  0.00     0.131 C 
HETATM   36  C30 UNL     1      -3.463   1.336  -1.616  1.00  0.00     0.050 C 
BRANCH  35  37
HETATM   37  C23 UNL     1      -5.608   0.246  -1.614  1.00  0.00     0.276 C 
HETATM   38  O6  UNL     1      -6.568   0.881  -2.177  1.00  0.00    -0.264 OA
BRANCH  37  39
HETATM   39  O7  UNL     1      -5.484  -1.118  -1.847  1.00  0.00    -0.325 OA
HETATM   40  C24 UNL     1      -6.432  -1.727  -2.700  1.00  0.00     0.213 C 
ENDBRANCH  37  39
ENDBRANCH  35  37
BRANCH  35  41
HETATM   41  C25 UNL     1      -5.370   2.271  -0.387  1.00  0.00     0.238 C 
HETATM   42  O8  UNL     1      -4.852   3.357  -0.834  1.00  0.00    -0.272 OA
HETATM   43  N5  UNL     1      -6.529   2.336   0.395  1.00  0.00    -0.351 N 
HETATM   44  C26 UNL     1      -7.288   1.287   1.010  1.00  0.00     0.126 C 
HETATM   45  C29 UNL     1      -7.255   3.562   0.778  1.00  0.00     0.126 C 
HETATM   46  C27 UNL     1      -8.733   1.771   1.081  1.00  0.00     0.021 C 
HETATM   47  C28 UNL     1      -8.717   3.182   0.564  1.00  0.00     0.021 C 
ENDBRANCH  35  41
ENDBRANCH   1  29
TORSDOF 13
