REMARK  13 active torsions:
REMARK  status: ('A' for Active; 'I' for Inactive)
REMARK    1  A    between atoms: C2_2  and  C3_3 
REMARK    2  A    between atoms: C3_3  and  C4_4 
REMARK    3  A    between atoms: C4_4  and  N1_5 
REMARK    4  A    between atoms: C4_4  and  C22_33 
REMARK       I    between atoms: N1_5  and  C5_7 
REMARK    5  A    between atoms: C5_7  and  C6_9 
REMARK    6  A    between atoms: C6_9  and  C7_10 
REMARK    7  A    between atoms: C6_9  and  N2_17 
REMARK    8  A    between atoms: C7_10  and  C8_11 
REMARK    9  A    between atoms: C15_19  and  C16_20 
REMARK   10  A    between atoms: C16_20  and  C17_21 
REMARK   11  A    between atoms: C22_33  and  C23_35 
REMARK       I    between atoms: C23_35  and  N6_37 
REMARK       I    between atoms: N7_40  and  C26_41 
REMARK   12  A    between atoms: C26_41  and  O6_43 
REMARK   13  A    between atoms: O6_43  and  C27_44 
ROOT
HETATM    1  C6  UNL     1      -2.302  -1.321   0.621  1.00  0.00     0.201 C 
ENDROOT
BRANCH   1   2
HETATM    2  C5  UNL     1      -1.269  -0.891  -0.325  1.00  0.00     0.243 C 
HETATM    3  N1  UNL     1       0.078  -1.258  -0.172  1.00  0.00    -0.347 N 
ATOM      4  H1  UNL     1       0.314  -1.841   0.631  1.00  0.00     0.163 HD
HETATM    5  O1  UNL     1      -1.698  -0.173  -1.272  1.00  0.00    -0.271 OA
BRANCH   3   6
HETATM    6  C4  UNL     1       1.166  -0.878  -1.060  1.00  0.00     0.164 C 
BRANCH   6   7
HETATM    7  C3  UNL     1       1.937  -2.089  -1.510  1.00  0.00     0.033 C 
BRANCH   7   8
HETATM    8  C2  UNL     1       3.059  -1.876  -2.446  1.00  0.00    -0.002 C 
HETATM    9  C1  UNL     1       2.694  -1.300  -3.795  1.00  0.00     0.005 C 
ENDBRANCH   7   8
ENDBRANCH   6   7
BRANCH   6  10
HETATM   10  C22 UNL     1       2.123  -0.118  -0.150  1.00  0.00     0.239 C 
HETATM   11  O3  UNL     1       2.237  -0.701   0.978  1.00  0.00    -0.285 OA
BRANCH  10  12
HETATM   12  C23 UNL     1       2.783   1.081  -0.542  1.00  0.00     0.291 C 
HETATM   13  O4  UNL     1       2.472   1.527  -1.713  1.00  0.00    -0.264 OA
HETATM   14  N6  UNL     1       3.716   1.847   0.144  1.00  0.00    -0.342 N 
HETATM   15  C24 UNL     1       4.276   3.046  -0.527  1.00  0.00     0.146 C 
HETATM   16  C30 UNL     1       4.183   1.545   1.472  1.00  0.00     0.146 C 
HETATM   17  C25 UNL     1       5.705   3.191  -0.064  1.00  0.00     0.148 C 
HETATM   18  N7  UNL     1       6.291   1.988   0.435  1.00  0.00    -0.325 N 
HETATM   19  C26 UNL     1       7.639   1.672   0.092  1.00  0.00     0.362 C 
HETATM   20  C29 UNL     1       5.607   1.028   1.292  1.00  0.00     0.148 C 
HETATM   21  O5  UNL     1       8.278   2.447  -0.639  1.00  0.00    -0.238 OA
BRANCH  19  22
HETATM   22  O6  UNL     1       8.266   0.520   0.550  1.00  0.00    -0.304 OA
BRANCH  22  23
HETATM   23  C27 UNL     1       9.579   0.165   0.248  1.00  0.00     0.176 C 
HETATM   24  C28 UNL     1      10.602   1.177   0.701  1.00  0.00     0.034 C 
ENDBRANCH  22  23
ENDBRANCH  19  22
ENDBRANCH  10  12
ENDBRANCH   6  10
ENDBRANCH   3   6
ENDBRANCH   1   2
BRANCH   1  25
HETATM   25  C7  UNL     1      -3.164  -2.452   0.272  1.00  0.00     0.041 C 
BRANCH  25  26
HETATM   26  C8  UNL     1      -2.565  -3.791   0.011  1.00  0.00    -0.012 C 
HETATM   27  C9  UNL     1      -3.703  -4.810  -0.262  1.00  0.00     0.005 C 
HETATM   28  C10 UNL     1      -3.069  -6.174  -0.146  1.00  0.00     0.000 C 
HETATM   29  C11 UNL     1      -2.111  -6.350  -1.298  1.00  0.00     0.000 C 
HETATM   30  C12 UNL     1      -1.934  -5.080  -2.050  1.00  0.00     0.000 C 
HETATM   31  C13 UNL     1      -1.618  -3.874  -1.166  1.00  0.00     0.005 C 
ENDBRANCH  25  26
ENDBRANCH   1  25
BRANCH   1  32
HETATM   32  N2  UNL     1      -3.101  -0.117   0.941  1.00  0.00    -0.273 N 
HETATM   33  C14 UNL     1      -4.430   0.040   0.867  1.00  0.00     0.139 A 
HETATM   34  C15 UNL     1      -4.730   1.339   1.262  1.00  0.00     0.044 A 
HETATM   35  N4  UNL     1      -3.553   1.887   1.552  1.00  0.00    -0.289 N 
HETATM   36  N5  UNL     1      -2.568   0.999   1.356  1.00  0.00    -0.240 N 
ATOM     37  H4  UNL     1      -3.419   2.845   1.877  1.00  0.00     0.188 HD
ATOM     38  H5  UNL     1      -1.573   1.167   1.506  1.00  0.00     0.208 HD
BRANCH  34  39
HETATM   39  C16 UNL     1      -6.108   1.865   1.307  1.00  0.00     0.065 C 
BRANCH  39  40
HETATM   40  C17 UNL     1      -6.194   3.293   1.753  1.00  0.00    -0.004 C 
HETATM   41  C18 UNL     1      -5.416   4.166   0.798  1.00  0.00     0.010 C 
HETATM   42  C19 UNL     1      -6.136   5.499   0.751  1.00  0.00     0.066 C 
HETATM   43  C20 UNL     1      -7.386   5.313   1.551  1.00  0.00     0.179 A 
HETATM   44  C21 UNL     1      -7.611   3.835   1.544  1.00  0.00     0.070 C 
HETATM   45  N3  UNL     1      -8.305   6.288   1.657  1.00  0.00    -0.262 N 
HETATM   46  O2  UNL     1      -7.482   5.918   2.798  1.00  0.00    -0.247 OA
ATOM     47  H3  UNL     1      -9.039   6.863   1.243  1.00  0.00     0.191 HD
ENDBRANCH  39  40
ENDBRANCH  34  39
ENDBRANCH   1  32
TORSDOF 13
