REMARK  16 active torsions:
REMARK  status: ('A' for Active; 'I' for Inactive)
REMARK    1  A    between atoms: C2_2  and  C3_3 
REMARK    2  A    between atoms: C3_3  and  N1_4 
REMARK    3  A    between atoms: C3_3  and  C19_29 
REMARK       I    between atoms: N1_4  and  C4_6 
REMARK    4  A    between atoms: C4_6  and  C5_8 
REMARK    5  A    between atoms: N2_9  and  C6_10 
REMARK    6  A    between atoms: C6_10  and  C7_11 
REMARK    7  A    between atoms: C6_10  and  C11_15 
REMARK    8  A    between atoms: C7_11  and  C9_13 
REMARK    9  A    between atoms: C11_15  and  N3_16 
REMARK   10  A    between atoms: C11_15  and  C12_20 
REMARK   11  A    between atoms: C12_20  and  C13_21 
REMARK   12  A    between atoms: C19_29  and  C20_31 
REMARK       I    between atoms: C20_31  and  N4_33 
REMARK   13  A    between atoms: N5_36  and  C23_37 
REMARK   14  A    between atoms: C23_37  and  O5_39 
REMARK   15  A    between atoms: O5_39  and  C24_40 
REMARK   16  A    between atoms: C24_40  and  C25_41 
ROOT
HETATM    1  N1  UNL     1      -1.320  -0.194  -1.876  1.00  0.00    -0.347 N 
ATOM      2  H1  UNL     1      -1.810   0.688  -1.723  1.00  0.00     0.163 HD
HETATM    3  C4  UNL     1      -1.858  -1.364  -1.305  1.00  0.00     0.242 C 
HETATM    4  O1  UNL     1      -1.318  -2.487  -1.420  1.00  0.00    -0.271 OA
ENDROOT
BRANCH   3   5
HETATM    5  C5  UNL     1      -3.144  -1.325  -0.508  1.00  0.00     0.191 C 
HETATM    6  N2  UNL     1      -3.847  -0.203  -0.947  1.00  0.00    -0.384 N 
HETATM    7  C15 UNL     1      -4.320  -0.340  -2.275  1.00  0.00     0.193 C 
HETATM    8  S1  UNL     1      -3.843  -2.087  -2.747  1.00  0.00    -0.138 SA
HETATM    9  C16 UNL     1      -3.891  -2.579  -0.967  1.00  0.00     0.031 C 
HETATM   10  C17 UNL     1      -3.251  -3.860  -0.679  1.00  0.00     0.029 C 
HETATM   11  C18 UNL     1      -5.317  -2.579  -0.530  1.00  0.00     0.029 C 
BRANCH   6  12
HETATM   12  C6  UNL     1      -4.551   0.649  -0.034  1.00  0.00     0.115 C 
BRANCH  12  13
HETATM   13  C7  UNL     1      -5.806   1.241  -0.610  1.00  0.00     0.006 C 
HETATM   14  C8  UNL     1      -5.556   2.143  -1.807  1.00  0.00     0.012 C 
BRANCH  13  15
HETATM   15  C9  UNL     1      -6.833   1.781   0.315  1.00  0.00     0.002 C 
HETATM   16  C10 UNL     1      -7.306   0.676   1.261  1.00  0.00     0.005 C 
ENDBRANCH  13  15
ENDBRANCH  12  13
BRANCH  12  17
HETATM   17  C11 UNL     1      -3.657   1.721   0.558  1.00  0.00     0.213 C 
BRANCH  17  18
HETATM   18  N3  UNL     1      -4.438   2.616   1.437  1.00  0.00    -0.073 N 
ATOM     19  H33 UNL     1      -5.242   3.016   0.953  1.00  0.00     0.274 HD
ATOM     20  H32 UNL     1      -4.938   2.097   2.159  1.00  0.00     0.274 HD
ATOM     21  H31 UNL     1      -3.837   3.337   1.835  1.00  0.00     0.274 HD
ENDBRANCH  17  18
BRANCH  17  22
HETATM   22  C12 UNL     1      -2.547   1.278   1.451  1.00  0.00     0.112 C 
BRANCH  22  23
HETATM   23  C13 UNL     1      -2.907   0.583   2.684  1.00  0.00     0.125 C 
HETATM   24  C14 UNL     1      -1.795   0.185   3.625  1.00  0.00     0.091 C 
HETATM   25  O2  UNL     1      -4.016   0.283   3.050  1.00  0.00    -0.298 OA
ENDBRANCH  22  23
ENDBRANCH  17  22
ENDBRANCH  12  17
ENDBRANCH   6  12
ENDBRANCH   3   5
BRANCH   1  26
HETATM   26  C3  UNL     1      -0.103  -0.177  -2.672  1.00  0.00     0.164 C 
BRANCH  26  27
HETATM   27  C2  UNL     1      -0.063   0.930  -3.648  1.00  0.00     0.029 C 
HETATM   28  C1  UNL     1      -1.247   0.781  -4.595  1.00  0.00     0.007 C 
ENDBRANCH  26  27
BRANCH  26  29
HETATM   29  C19 UNL     1       1.085  -0.127  -1.756  1.00  0.00     0.239 C 
HETATM   30  O3  UNL     1       0.905  -0.002  -0.495  1.00  0.00    -0.285 OA
BRANCH  29  31
HETATM   31  C20 UNL     1       2.459  -0.217  -2.195  1.00  0.00     0.291 C 
HETATM   32  O4  UNL     1       2.612  -0.343  -3.468  1.00  0.00    -0.264 OA
HETATM   33  N4  UNL     1       3.605  -0.182  -1.394  1.00  0.00    -0.342 N 
HETATM   34  C21 UNL     1       4.914  -0.267  -2.059  1.00  0.00     0.146 C 
HETATM   35  C29 UNL     1       3.522  -0.085   0.036  1.00  0.00     0.146 C 
HETATM   36  C22 UNL     1       5.677  -1.360  -1.329  1.00  0.00     0.145 C 
HETATM   37  N5  UNL     1       5.862  -0.880   0.034  1.00  0.00    -0.349 N 
HETATM   38  C28 UNL     1       4.891  -0.047   0.695  1.00  0.00     0.145 C 
BRANCH  37  39
HETATM   39  C23 UNL     1       7.032  -1.258   0.732  1.00  0.00     0.212 C 
HETATM   40  S2  UNL     1       8.115  -2.228  -0.012  1.00  0.00    -0.033 SA
BRANCH  39  41
HETATM   41  O5  UNL     1       7.303  -0.831   2.046  1.00  0.00    -0.327 OA
BRANCH  41  42
HETATM   42  C24 UNL     1       8.626  -0.380   2.351  1.00  0.00     0.182 C 
BRANCH  42  43
HETATM   43  C25 UNL     1       8.718   0.027   3.786  1.00  0.00     0.002 C 
HETATM   44  C26 UNL     1       7.786   1.137   4.176  1.00  0.00     0.011 C 
HETATM   45  C27 UNL     1      10.158   0.492   4.081  1.00  0.00     0.011 C 
ENDBRANCH  42  43
ENDBRANCH  41  42
ENDBRANCH  39  41
ENDBRANCH  37  39
ENDBRANCH  29  31
ENDBRANCH  26  29
ENDBRANCH   1  26
TORSDOF 16
