REMARK  15 active torsions:
REMARK  status: ('A' for Active; 'I' for Inactive)
REMARK    1  A    between atoms: C2_2  and  C3_3 
REMARK    2  A    between atoms: C3_3  and  C4_4 
REMARK    3  A    between atoms: C4_4  and  C5_5 
REMARK    4  A    between atoms: C5_5  and  O1_6 
REMARK    5  A    between atoms: O1_6  and  C6_7 
REMARK       I    between atoms: C6_7  and  N1_9 
REMARK    6  A    between atoms: N2_12  and  C9_13 
REMARK    7  A    between atoms: C9_13  and  O3_14 
REMARK    8  A    between atoms: C9_13  and  C10_16 
REMARK    9  A    between atoms: C10_16  and  C11_17 
REMARK   10  A    between atoms: C10_16  and  N3_22 
REMARK   11  A    between atoms: C11_17  and  C12_18 
REMARK   12  A    between atoms: C12_18  and  C13_19 
REMARK       I    between atoms: N3_22  and  C14_24 
REMARK   13  A    between atoms: C14_24  and  C15_26 
REMARK   14  A    between atoms: C16_29  and  N5_30 
REMARK   15  A    between atoms: C22_36  and  N6_37 
ROOT
HETATM    1  N3  UNL     1      -1.000   0.974  -0.551  1.00  0.00    -0.342 N 
ATOM      2  H3  UNL     1      -1.076   0.400  -1.391  1.00  0.00     0.163 HD
HETATM    3  C14 UNL     1      -2.074   0.902   0.345  1.00  0.00     0.286 C 
HETATM    4  O6  UNL     1      -2.108   1.531   1.398  1.00  0.00    -0.264 OA
ENDROOT
BRANCH   1   5
HETATM    5  C10 UNL     1       0.200   1.763  -0.427  1.00  0.00     0.160 C 
BRANCH   5   6
HETATM    6  C9  UNL     1       1.151   1.235   0.557  1.00  0.00     0.137 C 
BRANCH   6   7
HETATM    7  N2  UNL     1       2.533   1.187   0.373  1.00  0.00    -0.361 N 
HETATM    8  C8  UNL     1       3.366   0.672   1.471  1.00  0.00     0.144 C 
HETATM    9  C7  UNL     1       4.019  -0.572   0.960  1.00  0.00     0.148 C 
HETATM   10  N1  UNL     1       4.747  -0.285  -0.244  1.00  0.00    -0.325 N 
HETATM   11  C6  UNL     1       6.099  -0.741  -0.387  1.00  0.00     0.362 C 
HETATM   12  C30 UNL     1       4.139   0.452  -1.310  1.00  0.00     0.148 C 
HETATM   13  O2  UNL     1       6.688  -0.489  -1.450  1.00  0.00    -0.238 OA
HETATM   14  C29 UNL     1       3.208   1.568  -0.818  1.00  0.00     0.144 C 
BRANCH  11  15
HETATM   15  O1  UNL     1       6.682  -1.422   0.623  1.00  0.00    -0.304 OA
BRANCH  15  16
HETATM   16  C5  UNL     1       7.932  -1.929   0.736  1.00  0.00     0.180 C 
BRANCH  16  17
HETATM   17  C4  UNL     1       9.124  -1.063   0.898  1.00  0.00     0.027 C 
BRANCH  17  18
HETATM   18  C3  UNL     1       9.456  -0.073  -0.138  1.00  0.00     0.002 C 
BRANCH  18  19
HETATM   19  C2  UNL     1      10.786   0.652   0.219  1.00  0.00    -0.004 C 
HETATM   20  C1  UNL     1      11.070   1.634  -0.885  1.00  0.00     0.005 C 
ENDBRANCH  18  19
ENDBRANCH  17  18
ENDBRANCH  16  17
ENDBRANCH  15  16
ENDBRANCH  11  15
ENDBRANCH   6   7
BRANCH   6  21
HETATM   21  O3  UNL     1       0.632   0.787   1.665  1.00  0.00    -0.348 OA
ATOM     22  H3  UNL     1      -0.309   0.820   1.790  1.00  0.00     0.219 HD
ENDBRANCH   6  21
ENDBRANCH   5   6
BRANCH   5  23
HETATM   23  C11 UNL     1      -0.207   3.205  -0.159  1.00  0.00     0.044 C 
BRANCH  23  24
HETATM   24  C12 UNL     1       0.983   4.140  -0.195  1.00  0.00     0.116 C 
BRANCH  24  25
HETATM   25  C13 UNL     1       0.500   5.547   0.054  1.00  0.00     0.172 C 
HETATM   26  O4  UNL     1      -0.722   5.716   0.235  1.00  0.00    -0.648 OA
HETATM   27  O5  UNL     1       1.401   6.586   0.076  1.00  0.00    -0.648 OA
ENDBRANCH  24  25
ENDBRANCH  23  24
ENDBRANCH   5  23
ENDBRANCH   1   5
BRANCH   3  28
HETATM   28  C15 UNL     1      -3.230   0.034   0.030  1.00  0.00     0.177 A 
HETATM   29  N4  UNL     1      -3.280  -0.585  -1.141  1.00  0.00    -0.324 N 
HETATM   30  C16 UNL     1      -4.314  -1.395  -1.474  1.00  0.00     0.108 A 
ATOM     31  H4  UNL     1      -2.521  -0.448  -1.808  1.00  0.00     0.169 HD
HETATM   32  C21 UNL     1      -5.331  -1.571  -0.562  1.00  0.00     0.096 A 
HETATM   33  C22 UNL     1      -5.286  -0.926   0.671  1.00  0.00     0.108 A 
HETATM   34  N7  UNL     1      -4.217  -0.147   0.898  1.00  0.00    -0.324 N 
ATOM     35  H7  UNL     1      -4.160   0.336   1.794  1.00  0.00     0.169 HD
BRANCH  30  36
HETATM   36  N5  UNL     1      -4.360  -2.044  -2.730  1.00  0.00    -0.367 N 
HETATM   37  C17 UNL     1      -5.389  -2.923  -3.191  1.00  0.00     0.124 C 
HETATM   38  C18 UNL     1      -5.308  -2.931  -4.706  1.00  0.00     0.021 C 
HETATM   39  C19 UNL     1      -4.252  -1.899  -5.017  1.00  0.00     0.021 C 
HETATM   40  C20 UNL     1      -3.384  -1.937  -3.771  1.00  0.00     0.124 C 
ENDBRANCH  30  36
BRANCH  33  41
HETATM   41  N6  UNL     1      -6.333  -1.097   1.645  1.00  0.00    -0.363 N 
HETATM   42  C23 UNL     1      -7.549  -1.768   1.344  1.00  0.00     0.125 C 
HETATM   43  C24 UNL     1      -8.696  -1.559   2.252  1.00  0.00     0.020 C 
HETATM   44  C25 UNL     1      -8.369  -0.929   3.570  1.00  0.00     0.004 C 
HETATM   45  C26 UNL     1      -7.307   0.143   3.442  1.00  0.00     0.025 C 
HETATM   46  C27 UNL     1      -6.065  -0.560   2.961  1.00  0.00     0.081 C 
HETATM   47  C28 UNL     1      -5.752  -1.742   3.854  1.00  0.00     0.032 C 
ENDBRANCH  33  41
ENDBRANCH   3  28
TORSDOF 15
