REMARK  16 active torsions:
REMARK  status: ('A' for Active; 'I' for Inactive)
REMARK    1  A    between atoms: C2_2  and  O1_3 
REMARK    2  A    between atoms: O1_3  and  C3_4 
REMARK    3  A    between atoms: C3_4  and  C4_6 
REMARK    4  A    between atoms: C4_6  and  O3_7 
REMARK    5  A    between atoms: C4_6  and  C5_9 
REMARK    6  A    between atoms: C5_9  and  C6_10 
REMARK       I    between atoms: C6_10  and  N1_12 
REMARK    7  A    between atoms: C7_14  and  C8_15 
REMARK    8  A    between atoms: C7_14  and  C12_23 
REMARK    9  A    between atoms: C8_15  and  C9_16 
REMARK   10  A    between atoms: C9_16  and  C10_17 
REMARK   11  A    between atoms: C10_17  and  C11_18 
REMARK   12  A    between atoms: C11_18  and  N2_19 
REMARK   13  A    between atoms: C12_23  and  N3_24 
REMARK   14  A    between atoms: C12_23  and  C25_42 
REMARK   15  A    between atoms: N4_33  and  S2_34 
REMARK   16  A    between atoms: S2_34  and  C20_37 
ROOT
HETATM    1  C12 UNL     1      -0.886  -1.966   1.519  1.00  0.00     0.144 C 
ENDROOT
BRANCH   1   2
HETATM    2  C7  UNL     1      -1.763  -1.906   0.326  1.00  0.00     0.013 C 
HETATM    3  N1  UNL     1      -2.578  -0.985   0.047  1.00  0.00    -0.332 N 
HETATM    4  C6  UNL     1      -2.988   0.193   0.589  1.00  0.00     0.224 C 
ATOM      5  H1  UNL     1      -3.065  -1.177  -0.828  1.00  0.00     0.168 HD
HETATM    6  O4  UNL     1      -3.033   0.413   1.818  1.00  0.00    -0.273 OA
BRANCH   4   7
HETATM    7  C5  UNL     1      -3.416   1.303  -0.316  1.00  0.00     0.145 C 
BRANCH   7   8
HETATM    8  C4  UNL     1      -3.809   2.486   0.504  1.00  0.00     0.226 C 
BRANCH   8   9
HETATM    9  C3  UNL     1      -4.252   3.635  -0.300  1.00  0.00     0.288 C 
HETATM   10  O2  UNL     1      -3.551   4.149  -1.216  1.00  0.00    -0.262 OA
BRANCH   9  11
HETATM   11  O1  UNL     1      -5.496   4.189  -0.051  1.00  0.00    -0.320 OA
BRANCH  11  12
HETATM   12  C2  UNL     1      -6.044   5.282  -0.740  1.00  0.00     0.174 C 
HETATM   13  C1  UNL     1      -5.175   6.497  -0.599  1.00  0.00     0.034 C 
ENDBRANCH  11  12
ENDBRANCH   9  11
ENDBRANCH   8   9
BRANCH   8  14
HETATM   14  O3  UNL     1      -4.790   2.139   1.414  1.00  0.00    -0.385 OA
ATOM     15  H3  UNL     1      -4.504   1.397   1.933  1.00  0.00     0.210 HD
ENDBRANCH   8  14
ENDBRANCH   7   8
ENDBRANCH   4   7
BRANCH   2  16
HETATM   16  C8  UNL     1      -1.755  -3.004  -0.713  1.00  0.00     0.055 C 
BRANCH  16  17
HETATM   17  C9  UNL     1      -2.680  -2.705  -1.863  1.00  0.00     0.007 C 
BRANCH  17  18
HETATM   18  C10 UNL     1      -2.691  -3.771  -2.904  1.00  0.00     0.027 C 
BRANCH  18  19
HETATM   19  C11 UNL     1      -3.128  -5.116  -2.390  1.00  0.00     0.229 C 
BRANCH  19  20
HETATM   20  N2  UNL     1      -3.107  -6.080  -3.472  1.00  0.00    -0.079 N 
ATOM     21  H23 UNL     1      -3.663  -5.774  -4.271  1.00  0.00     0.274 HD
ATOM     22  H22 UNL     1      -2.198  -6.121  -3.933  1.00  0.00     0.274 HD
ATOM     23  H21 UNL     1      -3.403  -6.992  -3.124  1.00  0.00     0.274 HD
ENDBRANCH  19  20
ENDBRANCH  18  19
ENDBRANCH  17  18
ENDBRANCH  16  17
ENDBRANCH   2  16
ENDBRANCH   1   2
BRANCH   1  24
HETATM   24  N3  UNL     1       0.444  -1.642   1.126  1.00  0.00    -0.344 N 
HETATM   25  C13 UNL     1       0.562  -0.311   0.612  1.00  0.00     0.142 C 
HETATM   26  C14 UNL     1       2.032   0.110   0.471  1.00  0.00    -0.010 C 
HETATM   27  C15 UNL     1       2.745  -0.313   1.686  1.00  0.00     0.013 C 
HETATM   28  C18 UNL     1       2.586  -0.327  -0.837  1.00  0.00     0.028 C 
HETATM   29  C24 UNL     1       2.013   1.622   0.380  1.00  0.00     0.118 C 
HETATM   30  C16 UNL     1       3.766  -1.389   1.521  1.00  0.00     0.013 C 
HETATM   31  C17 UNL     1       3.198  -2.756   1.289  1.00  0.00     0.097 C 
HETATM   32  S1  UNL     1       1.540  -2.789   0.644  1.00  0.00    -0.057 SA
HETATM   33  C19 UNL     1       3.197   0.890  -1.496  1.00  0.00     0.108 C 
HETATM   34  N4  UNL     1       2.834   2.024  -0.713  1.00  0.00    -0.206 NA
BRANCH  34  35
HETATM   35  S2  UNL     1       4.191   2.967  -0.225  1.00  0.00     0.233 S 
HETATM   36  O5  UNL     1       3.729   4.120   0.627  1.00  0.00    -0.207 OA
HETATM   37  O6  UNL     1       5.157   2.075   0.533  1.00  0.00    -0.207 OA
BRANCH  35  38
HETATM   38  C20 UNL     1       5.061   3.617  -1.581  1.00  0.00     0.128 C 
HETATM   39  C21 UNL     1       6.260   4.124  -1.398  1.00  0.00    -0.076 C 
HETATM   40  C22 UNL     1       7.026   4.688  -2.546  1.00  0.00     0.043 C 
HETATM   41  C23 UNL     1       6.912   4.167  -0.061  1.00  0.00     0.043 C 
ENDBRANCH  35  38
ENDBRANCH  34  35
ENDBRANCH   1  24
BRANCH   1  42
HETATM   42  C25 UNL     1      -1.070  -3.101   2.434  1.00  0.00    -0.025 C 
HETATM   43  C26 UNL     1      -0.893  -4.482   2.012  1.00  0.00     0.017 C 
HETATM   44  C27 UNL     1      -0.159  -2.874   3.656  1.00  0.00     0.017 C 
HETATM   45  C28 UNL     1      -2.491  -2.974   3.022  1.00  0.00     0.017 C 
ENDBRANCH   1  42
TORSDOF 16
