REMARK  14 active torsions:
REMARK  status: ('A' for Active; 'I' for Inactive)
REMARK    1  A    between atoms: C2_2  and  C3_3 
REMARK    2  A    between atoms: C3_3  and  C4_4 
REMARK    3  A    between atoms: N1_7  and  C7_8 
REMARK    4  A    between atoms: C7_8  and  C8_9 
REMARK    5  A    between atoms: C8_9  and  C9_10 
REMARK    6  A    between atoms: C9_10  and  C10_11 
REMARK    7  A    between atoms: C10_11  and  C11_12 
REMARK    8  A    between atoms: N2_15  and  C14_16 
REMARK    9  A    between atoms: C15_19  and  N4_20 
REMARK   10  A    between atoms: N4_20  and  C16_22 
REMARK   11  A    between atoms: C16_22  and  C18_24 
REMARK   12  A    between atoms: C18_24  and  O1_25 
REMARK   13  A    between atoms: N8_37  and  C23_38 
REMARK   14  A    between atoms: C23_38  and  C24_39 
ROOT
HETATM    1  C14 UNL     1       6.377  -0.320   1.229  1.00  0.00     0.703 A 
HETATM    2  N3  UNL     1       7.625  -0.514   0.798  1.00  0.00    -0.022 N 
ATOM      3  H3  UNL     1       7.767  -0.886  -0.141  1.00  0.00     0.203 HD
HETATM    4  C15 UNL     1       8.700  -0.239   1.552  1.00  0.00     0.695 A 
HETATM    5  N5  UNL     1       8.512   0.249   2.784  1.00  0.00    -0.166 N 
ATOM      6  H5  UNL     1       9.321   0.462   3.367  1.00  0.00     0.186 HD
HETATM    7  C19 UNL     1       7.275   0.463   3.267  1.00  0.00     0.217 A 
HETATM    8  C20 UNL     1       7.135   0.984   4.583  1.00  0.00     0.138 C 
HETATM    9  N6  UNL     1       7.026   1.416   5.629  1.00  0.00    -0.188 NA
HETATM   10  N7  UNL     1       6.215   0.175   2.480  1.00  0.00    -0.165 N 
ATOM     11  H7  UNL     1       5.272   0.334   2.835  1.00  0.00     0.186 HD
ENDROOT
BRANCH   4  12
HETATM   12  N4  UNL     1       9.888  -0.427   1.130  1.00  0.00    -0.219 N 
ATOM     13  H4  UNL     1      10.640  -0.188   1.777  1.00  0.00     0.178 HD
BRANCH  12  14
HETATM   14  C16 UNL     1      10.288  -0.934  -0.144  1.00  0.00     0.118 C 
HETATM   15  C17 UNL     1      10.156  -2.439  -0.169  1.00  0.00     0.035 C 
BRANCH  14  16
HETATM   16  C18 UNL     1      11.744  -0.542  -0.358  1.00  0.00     0.189 C 
BRANCH  16  17
HETATM   17  O1  UNL     1      12.244  -0.979  -1.562  1.00  0.00    -0.399 OA
ATOM     18  H1  UNL     1      13.152  -0.734  -1.695  1.00  0.00     0.209 HD
ENDBRANCH  16  17
ENDBRANCH  14  16
ENDBRANCH  12  14
ENDBRANCH   4  12
BRANCH   1  19
HETATM   19  N2  UNL     1       5.273  -0.631   0.405  1.00  0.00    -0.149 N 
HETATM   20  C13 UNL     1       4.283  -1.532   0.964  1.00  0.00     0.153 C 
HETATM   21  C12 UNL     1       2.905  -0.897   0.925  1.00  0.00     0.056 C 
HETATM   22  C11 UNL     1       2.377  -0.760  -0.463  1.00  0.00     0.225 C 
HETATM   23  N8  UNL     1       2.855   0.338  -1.224  1.00  0.00     0.102 N 
HETATM   24  C22 UNL     1       4.145   0.081  -1.826  1.00  0.00     0.376 C 
HETATM   25  C21 UNL     1       5.250  -0.033  -0.861  1.00  0.00     0.266 C 
HETATM   26  O2  UNL     1       6.345   0.477  -1.208  1.00  0.00    -0.271 OA
BRANCH  22  27
HETATM   27  C10 UNL     1       0.856  -0.829  -0.407  1.00  0.00     0.036 C 
BRANCH  27  28
HETATM   28  C9  UNL     1       0.236  -0.700  -1.751  1.00  0.00     0.004 C 
BRANCH  28  29
HETATM   29  C8  UNL     1      -1.281  -0.784  -1.702  1.00  0.00     0.030 C 
BRANCH  29  30
HETATM   30  C7  UNL     1      -1.877   0.304  -0.851  1.00  0.00     0.272 C 
BRANCH  30  31
HETATM   31  N1  UNL     1      -3.312   0.308  -0.822  1.00  0.00     0.088 N 
HETATM   32  C6  UNL     1      -3.853   1.332   0.019  1.00  0.00     0.272 C 
HETATM   33  C5  UNL     1      -5.049   0.862   0.818  1.00  0.00     0.036 C 
HETATM   34  C4  UNL     1      -6.016   0.138  -0.105  1.00  0.00    -0.003 C 
HETATM   35  C28 UNL     1      -5.375  -0.917  -0.919  1.00  0.00     0.036 C 
HETATM   36  C27 UNL     1      -3.859  -0.981  -0.704  1.00  0.00     0.272 C 
BRANCH  34  37
HETATM   37  C3  UNL     1      -7.295  -0.186   0.575  1.00  0.00    -0.034 C 
HETATM   38  C29 UNL     1      -8.275  -0.759  -0.460  1.00  0.00     0.040 C 
HETATM   39  C30 UNL     1      -8.955   0.349  -1.234  1.00  0.00     0.272 C 
HETATM   40  N9  UNL     1      -9.948   0.942  -0.360  1.00  0.00     0.084 N 
HETATM   41  C31 UNL     1     -11.100   0.071  -0.271  1.00  0.00     0.309 C 
HETATM   42  C32 UNL     1      -9.420   1.082   1.002  1.00  0.00     0.272 C 
HETATM   43  C33 UNL     1      -7.919   1.173   0.947  1.00  0.00     0.040 C 
BRANCH  37  44
HETATM   44  C2  UNL     1      -7.236  -1.019   1.797  1.00  0.00     0.005 C 
HETATM   45  C1  UNL     1      -6.664  -2.386   1.667  1.00  0.00     0.006 C 
ENDBRANCH  37  44
ENDBRANCH  34  37
ENDBRANCH  30  31
ENDBRANCH  29  30
ENDBRANCH  28  29
ENDBRANCH  27  28
ENDBRANCH  22  27
BRANCH  23  46
HETATM   46  C23 UNL     1       2.779   1.613  -0.571  1.00  0.00     0.278 C 
BRANCH  46  47
HETATM   47  C24 UNL     1       3.237   2.755  -1.428  1.00  0.00     0.014 A 
HETATM   48  C25 UNL     1       3.143   4.099  -0.681  1.00  0.00     0.007 A 
HETATM   49  C26 UNL     1       4.422   3.569  -1.169  1.00  0.00     0.007 A 
ENDBRANCH  46  47
ENDBRANCH  23  46
ENDBRANCH   1  19
TORSDOF 14
