REMARK  15 active torsions:
REMARK  status: ('A' for Active; 'I' for Inactive)
REMARK    1  A    between atoms: O1_2  and  C2_3 
REMARK    2  A    between atoms: C2_3  and  C3_4 
REMARK    3  A    between atoms: C3_4  and  C4_5 
REMARK    4  A    between atoms: N1_8  and  C7_9 
REMARK    5  A    between atoms: C7_9  and  C8_10 
REMARK    6  A    between atoms: C10_13  and  C11_14 
REMARK    7  A    between atoms: C11_14  and  N2_15 
REMARK    8  A    between atoms: N2_15  and  C12_17 
REMARK    9  A    between atoms: C13_20  and  N4_21 
REMARK   10  A    between atoms: C19_30  and  N7_31 
REMARK   11  A    between atoms: N7_31  and  C20_33 
REMARK   12  A    between atoms: C20_33  and  C21_34 
REMARK   13  A    between atoms: C21_34  and  C22_35 
REMARK   14  A    between atoms: C22_35  and  N8_36 
REMARK       I    between atoms: N8_36  and  C24_38 
REMARK   15  A    between atoms: C24_38  and  C25_40 
ROOT
HETATM    1  C12 UNL     1      -0.988   0.741  -0.089  1.00  0.00     0.707 A 
HETATM    2  N3  UNL     1      -0.954   2.072   0.028  1.00  0.00    -0.021 N 
ATOM      3  H3  UNL     1      -0.069   2.514   0.276  1.00  0.00     0.203 HD
HETATM    4  C13 UNL     1      -2.027   2.856  -0.165  1.00  0.00     0.709 A 
HETATM    5  N6  UNL     1      -3.180   2.266  -0.490  1.00  0.00    -0.021 N 
ATOM      6  H6  UNL     1      -4.010   2.840  -0.642  1.00  0.00     0.203 HD
HETATM    7  C19 UNL     1      -3.271   0.904  -0.623  1.00  0.00     0.707 A 
HETATM    8  N9  UNL     1      -2.179   0.156  -0.422  1.00  0.00    -0.022 N 
ATOM      9  H9  UNL     1      -2.235  -0.858  -0.518  1.00  0.00     0.203 HD
ENDROOT
BRANCH   1  10
HETATM   10  N2  UNL     1       0.012  -0.042   0.078  1.00  0.00    -0.219 N 
ATOM     11  H2  UNL     1      -0.103  -1.050  -0.030  1.00  0.00     0.178 HD
BRANCH  10  12
HETATM   12  C11 UNL     1       1.290   0.503   0.417  1.00  0.00     0.203 C 
BRANCH  12  13
HETATM   13  C10 UNL     1       2.330  -0.567   0.557  1.00  0.00     0.077 A 
HETATM   14  O2  UNL     1       2.110  -1.840   0.401  1.00  0.00    -0.324 OA
HETATM   15  C9  UNL     1       3.246  -2.515   0.596  1.00  0.00     0.151 A 
HETATM   16  C8  UNL     1       4.270  -1.653   0.896  1.00  0.00     0.001 A 
HETATM   17  C29 UNL     1       3.653  -0.388   0.866  1.00  0.00    -0.021 A 
HETATM   18  C30 UNL     1       4.321   0.893   1.125  1.00  0.00     0.051 C 
BRANCH  16  19
HETATM   19  C7  UNL     1       5.689  -1.834   1.231  1.00  0.00     0.313 C 
BRANCH  19  20
HETATM   20  N1  UNL     1       6.202  -3.162   1.169  1.00  0.00     0.092 N 
HETATM   21  C6  UNL     1       7.531  -3.235   1.779  1.00  0.00     0.273 C 
HETATM   22  C5  UNL     1       8.563  -2.503   0.942  1.00  0.00     0.035 C 
HETATM   23  C4  UNL     1       8.509  -2.927  -0.480  1.00  0.00    -0.009 C 
HETATM   24  C32 UNL     1       7.104  -2.846  -1.042  1.00  0.00     0.035 C 
HETATM   25  C31 UNL     1       6.251  -3.719  -0.172  1.00  0.00     0.273 C 
BRANCH  23  26
HETATM   26  C3  UNL     1       9.555  -2.320  -1.332  1.00  0.00     0.031 C 
BRANCH  26  27
HETATM   27  C2  UNL     1       9.599  -0.843  -1.466  1.00  0.00     0.167 C 
BRANCH  27  28
HETATM   28  O1  UNL     1       9.830  -0.150  -0.293  1.00  0.00    -0.396 OA
HETATM   29  C1  UNL     1       9.856   1.233  -0.505  1.00  0.00     0.201 C 
ENDBRANCH  27  28
ENDBRANCH  26  27
ENDBRANCH  23  26
ENDBRANCH  19  20
ENDBRANCH  16  19
ENDBRANCH  12  13
ENDBRANCH  10  12
ENDBRANCH   1  10
BRANCH   4  30
HETATM   30  N4  UNL     1      -1.922   4.283  -0.023  1.00  0.00    -0.213 N 
HETATM   31  C14 UNL     1      -0.649   4.829   0.330  1.00  0.00     0.171 C 
HETATM   32  C15 UNL     1      -0.723   6.336   0.207  1.00  0.00     0.292 C 
HETATM   33  N5  UNL     1      -1.869   6.761   1.006  1.00  0.00     0.087 N 
HETATM   34  C16 UNL     1      -1.787   8.216   1.116  1.00  0.00     0.310 C 
HETATM   35  C17 UNL     1      -3.066   6.438   0.284  1.00  0.00     0.292 C 
HETATM   36  C18 UNL     1      -3.114   5.050  -0.248  1.00  0.00     0.171 C 
ENDBRANCH   4  30
BRANCH   7  37
HETATM   37  N7  UNL     1      -4.394   0.374  -0.941  1.00  0.00    -0.225 N 
ATOM     38  H7  UNL     1      -5.200   0.982  -1.089  1.00  0.00     0.177 HD
BRANCH  37  39
HETATM   39  C20 UNL     1      -4.558  -1.037  -1.096  1.00  0.00     0.139 C 
BRANCH  39  40
HETATM   40  C21 UNL     1      -4.834  -1.664   0.236  1.00  0.00     0.040 C 
BRANCH  40  41
HETATM   41  C22 UNL     1      -6.073  -1.200   0.925  1.00  0.00     0.127 C 
BRANCH  41  42
HETATM   42  N8  UNL     1      -7.304  -1.457   0.200  1.00  0.00    -0.356 N 
HETATM   43  C23 UNL     1      -7.855  -0.491  -0.686  1.00  0.00     0.152 C 
HETATM   44  C24 UNL     1      -7.927  -2.711   0.436  1.00  0.00     0.227 C 
HETATM   45  O3  UNL     1      -7.388  -3.546   1.255  1.00  0.00    -0.273 OA
BRANCH  44  46
HETATM   46  C25 UNL     1      -9.185  -3.175  -0.190  1.00  0.00     0.030 C 
HETATM   47  C26 UNL     1     -10.391  -2.364   0.180  1.00  0.00     0.025 C 
HETATM   48  C27 UNL     1      -9.465  -4.625   0.248  1.00  0.00     0.025 C 
HETATM   49  C28 UNL     1      -8.975  -3.192  -1.697  1.00  0.00     0.025 C 
ENDBRANCH  44  46
ENDBRANCH  41  42
ENDBRANCH  40  41
ENDBRANCH  39  40
ENDBRANCH  37  39
ENDBRANCH   7  37
TORSDOF 15
