REMARK  8 active torsions:
REMARK  status: ('A' for Active; 'I' for Inactive)
REMARK    1  A    between atoms: O1_2  and  C2_3 
REMARK    2  A    between atoms: C4_5  and  C5_6 
REMARK    3  A    between atoms: N1_7  and  C6_9 
REMARK    4  A    between atoms: C9_12  and  O2_13 
REMARK    5  A    between atoms: C11_17  and  O4_18 
REMARK    6  A    between atoms: C19_27  and  O5_28 
REMARK    7  A    between atoms: C21_30  and  O6_31 
REMARK    8  A    between atoms: C23_33  and  O7_34 
ROOT
HETATM    1  C6  UNL     1      -1.846   0.832   0.147  1.00  0.00     0.052 A 
HETATM    2  C7  UNL     1      -2.789  -0.170   0.073  1.00  0.00    -0.017 A 
HETATM    3  C8  UNL     1      -4.084   0.101  -0.312  1.00  0.00    -0.009 A 
HETATM    4  C9  UNL     1      -4.391   1.428  -0.621  1.00  0.00     0.107 A 
HETATM    5  C10 UNL     1      -3.451   2.435  -0.549  1.00  0.00     0.124 A 
HETATM    6  O3  UNL     1      -3.557   3.732  -0.799  1.00  0.00    -0.284 OA
HETATM    7  C11 UNL     1      -2.409   4.329  -0.602  1.00  0.00     0.184 A 
HETATM    8  C12 UNL     1      -1.492   3.353  -0.194  1.00  0.00     0.080 A 
HETATM    9  C13 UNL     1      -2.167   2.148  -0.163  1.00  0.00     0.033 A 
HETATM   10  C14 UNL     1      -4.827  -1.156  -0.291  1.00  0.00     0.019 C 
HETATM   11  C15 UNL     1      -6.233  -1.073   0.234  1.00  0.00     0.015 C 
HETATM   12  C16 UNL     1      -4.049  -2.026   0.667  1.00  0.00     0.018 C 
HETATM   13  C17 UNL     1      -2.625  -1.631   0.366  1.00  0.00     0.018 C 
HETATM   14  C18 UNL     1      -2.146  -2.402  -0.821  1.00  0.00     0.015 C 
ENDROOT
BRANCH   1  15
HETATM   15  N1  UNL     1      -0.528   0.558   0.539  1.00  0.00    -0.364 N 
HETATM   16  C5  UNL     1       0.475   0.766  -0.236  1.00  0.00     0.102 C 
ATOM     17  H1  UNL     1      -0.360   0.181   1.472  1.00  0.00     0.165 HD
BRANCH  16  18
HETATM   18  C4  UNL     1       1.821   0.461   0.228  1.00  0.00     0.018 A 
HETATM   19  C3  UNL     1       2.038  -0.054   1.501  1.00  0.00     0.055 A 
HETATM   20  C2  UNL     1       3.352  -0.329   1.894  1.00  0.00     0.105 A 
HETATM   21  C23 UNL     1       4.389  -0.084   1.017  1.00  0.00     0.138 A 
HETATM   22  C21 UNL     1       4.176   0.434  -0.263  1.00  0.00     0.138 A 
HETATM   23  C19 UNL     1       2.874   0.698  -0.633  1.00  0.00     0.116 A 
BRANCH  20  24
HETATM   24  O1  UNL     1       3.608  -0.838   3.142  1.00  0.00    -0.353 OA
HETATM   25  C1  UNL     1       2.539  -1.086   4.033  1.00  0.00     0.210 C 
ENDBRANCH  20  24
BRANCH  21  26
HETATM   26  O7  UNL     1       5.678  -0.377   1.463  1.00  0.00    -0.351 OA
HETATM   27  C24 UNL     1       6.185  -1.671   1.227  1.00  0.00     0.210 C 
ENDBRANCH  21  26
BRANCH  22  28
HETATM   28  O6  UNL     1       5.227   0.667  -1.115  1.00  0.00    -0.351 OA
HETATM   29  C22 UNL     1       5.731  -0.284  -2.027  1.00  0.00     0.210 C 
ENDBRANCH  22  28
BRANCH  23  30
HETATM   30  O5  UNL     1       2.624   1.207  -1.882  1.00  0.00    -0.352 OA
HETATM   31  C20 UNL     1       2.376   0.470  -3.040  1.00  0.00     0.210 C 
ENDBRANCH  23  30
ENDBRANCH  16  18
ENDBRANCH   1  15
BRANCH   4  32
HETATM   32  O2  UNL     1      -5.658   1.762  -1.012  1.00  0.00    -0.357 OA
ATOM     33  H2  UNL     1      -5.867   2.665  -1.222  1.00  0.00     0.217 HD
ENDBRANCH   4  32
BRANCH   7  34
HETATM   34  O4  UNL     1      -2.166   5.687  -0.772  1.00  0.00    -0.341 OA
ATOM     35  H4  UNL     1      -1.333   6.120  -0.629  1.00  0.00     0.220 HD
ENDBRANCH   7  34
TORSDOF 8
