REMARK  11 active torsions:
REMARK  status: ('A' for Active; 'I' for Inactive)
REMARK    1  A    between atoms: C2_2  and  O1_3 
REMARK    2  A    between atoms: O1_3  and  C3_4 
REMARK    3  A    between atoms: C3_4  and  C4_6 
REMARK    4  A    between atoms: C5_8  and  C6_9 
REMARK    5  A    between atoms: C10_13  and  O3_14 
REMARK    6  A    between atoms: C11_16  and  C12_17 
REMARK    7  A    between atoms: C12_17  and  C13_19 
REMARK    8  A    between atoms: C16_23  and  C17_24 
REMARK    9  A    between atoms: C17_24  and  C18_26 
REMARK   10  A    between atoms: C18_26  and  C19_27 
REMARK   11  A    between atoms: C22_30  and  O6_31 
ROOT
HETATM    1  C4  UNL     1      -2.503   0.432   0.179  1.00  0.00     0.097 A 
HETATM    2  S1  UNL     1      -4.177   0.298  -0.269  1.00  0.00    -0.084 SA
HETATM    3  C5  UNL     1      -4.246  -1.374  -0.571  1.00  0.00     0.025 A 
HETATM    4  C10 UNL     1      -2.976  -1.783  -0.323  1.00  0.00     0.095 A 
HETATM    5  C11 UNL     1      -2.065  -0.845   0.064  1.00  0.00     0.073 A 
ENDROOT
BRANCH   5   6
HETATM    6  C12 UNL     1      -0.684  -1.239   0.414  1.00  0.00     0.206 C 
HETATM    7  O4  UNL     1      -0.546  -2.212   1.187  1.00  0.00    -0.286 OA
BRANCH   6   8
HETATM    8  C13 UNL     1       0.488  -0.538  -0.130  1.00  0.00     0.090 A 
HETATM    9  S2  UNL     1       0.594   0.372  -1.560  1.00  0.00    -0.087 SA
HETATM   10  C14 UNL     1       2.274   0.696  -1.557  1.00  0.00    -0.004 A 
HETATM   11  C15 UNL     1       3.025   1.494  -2.601  1.00  0.00     0.057 C 
HETATM   12  C16 UNL     1       2.705   0.071  -0.419  1.00  0.00     0.057 A 
HETATM   13  C22 UNL     1       1.782  -0.576   0.333  1.00  0.00     0.101 A 
BRANCH  12  14
HETATM   14  C17 UNL     1       4.131   0.104  -0.011  1.00  0.00     0.163 C 
HETATM   15  O5  UNL     1       4.534  -0.457   1.033  1.00  0.00    -0.292 OA
BRANCH  14  16
HETATM   16  C18 UNL     1       5.182   0.791  -0.791  1.00  0.00     0.088 C 
BRANCH  16  17
HETATM   17  C19 UNL     1       6.528   0.670  -0.056  1.00  0.00    -0.015 C 
HETATM   18  C20 UNL     1       6.476   1.283   1.305  1.00  0.00     0.010 C 
HETATM   19  C21 UNL     1       6.944  -0.775   0.081  1.00  0.00     0.010 C 
ENDBRANCH  16  17
ENDBRANCH  14  16
ENDBRANCH  12  14
BRANCH  13  20
HETATM   20  O6  UNL     1       1.985  -1.288   1.541  1.00  0.00    -0.358 OA
ATOM     21  H6  UNL     1       2.879  -1.314   1.861  1.00  0.00     0.217 HD
ENDBRANCH  13  20
ENDBRANCH   6   8
ENDBRANCH   5   6
BRANCH   1  22
HETATM   22  C3  UNL     1      -1.990   1.705   0.610  1.00  0.00     0.301 C 
HETATM   23  O2  UNL     1      -0.845   1.858   1.055  1.00  0.00    -0.259 OA
BRANCH  22  24
HETATM   24  O1  UNL     1      -2.747   2.883   0.563  1.00  0.00    -0.317 OA
BRANCH  24  25
HETATM   25  C2  UNL     1      -2.232   4.126   0.990  1.00  0.00     0.174 C 
HETATM   26  C1  UNL     1      -1.834   4.065   2.446  1.00  0.00     0.034 C 
ENDBRANCH  24  25
ENDBRANCH  22  24
ENDBRANCH   1  22
BRANCH   4  27
HETATM   27  O3  UNL     1      -2.667  -3.157  -0.481  1.00  0.00    -0.359 OA
ATOM     28  H3  UNL     1      -1.778  -3.443  -0.307  1.00  0.00     0.217 HD
ENDBRANCH   4  27
BRANCH   3  29
HETATM   29  C6  UNL     1      -5.432  -2.215  -1.012  1.00  0.00    -0.015 C 
HETATM   30  C7  UNL     1      -6.594  -1.269  -1.142  1.00  0.00     0.020 C 
HETATM   31  C8  UNL     1      -5.119  -2.952  -2.271  1.00  0.00     0.020 C 
HETATM   32  C9  UNL     1      -5.762  -3.171   0.124  1.00  0.00     0.020 C 
ENDBRANCH   3  29
TORSDOF 11
