REMARK  9 active torsions:
REMARK  status: ('A' for Active; 'I' for Inactive)
REMARK    1  A    between atoms: C2_2  and  O1_3 
REMARK    2  A    between atoms: O1_3  and  C3_4 
REMARK    3  A    between atoms: C3_4  and  C4_6 
REMARK    4  A    between atoms: C5_7  and  O3_8 
REMARK    5  A    between atoms: C11_15  and  O4_16 
REMARK    6  A    between atoms: C12_18  and  N1_19 
REMARK    7  A    between atoms: N1_19  and  C13_21 
REMARK    8  A    between atoms: C18_26  and  O5_27 
REMARK    9  A    between atoms: O5_27  and  C19_28 
ROOT
HETATM    1  C4  UNL     1      -3.369   0.589   0.532  1.00  0.00     0.148 A 
HETATM    2  C5  UNL     1      -3.315  -0.416  -0.390  1.00  0.00     0.101 A 
HETATM    3  C6  UNL     1      -2.137  -1.131  -0.605  1.00  0.00     0.041 A 
HETATM    4  C7  UNL     1      -2.105  -2.148  -1.547  1.00  0.00    -0.037 A 
HETATM    5  C8  UNL     1      -3.264  -2.532  -2.359  1.00  0.00     0.050 C 
HETATM    6  C9  UNL     1      -0.855  -2.789  -1.664  1.00  0.00    -0.019 A 
HETATM    7  C10 UNL     1      -0.834  -3.886  -2.683  1.00  0.00     0.052 C 
HETATM    8  C11 UNL     1       0.241  -2.465  -0.935  1.00  0.00     0.101 A 
HETATM    9  C12 UNL     1       0.150  -1.444  -0.012  1.00  0.00     0.102 A 
HETATM   10  C22 UNL     1      -1.041  -0.785   0.144  1.00  0.00     0.122 A 
HETATM   11  O6  UNL     1      -1.106   0.202   1.046  1.00  0.00    -0.271 OA
HETATM   12  C23 UNL     1      -2.197   0.869   1.248  1.00  0.00     0.307 A 
HETATM   13  O7  UNL     1      -2.213   1.792   2.109  1.00  0.00    -0.259 OA
ENDROOT
BRANCH   9  14
HETATM   14  N1  UNL     1       1.308  -1.116   0.744  1.00  0.00    -0.350 N 
ATOM     15  H1  UNL     1       1.472  -1.587   1.634  1.00  0.00     0.166 HD
BRANCH  14  16
HETATM   16  C13 UNL     1       2.241  -0.149   0.290  1.00  0.00     0.057 A 
HETATM   17  C14 UNL     1       2.058   0.503  -0.894  1.00  0.00     0.032 A 
HETATM   18  C15 UNL     1       2.982   1.446  -1.321  1.00  0.00     0.012 A 
HETATM   19  C16 UNL     1       4.099   1.751  -0.575  1.00  0.00    -0.027 A 
HETATM   20  C17 UNL     1       5.037   2.763  -1.090  1.00  0.00     0.051 C 
HETATM   21  C18 UNL     1       4.288   1.087   0.634  1.00  0.00     0.098 A 
HETATM   22  C21 UNL     1       3.347   0.142   1.046  1.00  0.00     0.094 A 
HETATM   23 CL1  UNL     1       3.637  -0.657   2.567  1.00  0.00    -0.079 Cl
BRANCH  21  24
HETATM   24  O5  UNL     1       5.405   1.408   1.357  1.00  0.00    -0.349 OA
BRANCH  24  25
HETATM   25  C19 UNL     1       6.636   0.697   1.161  1.00  0.00     0.171 C 
HETATM   26  C20 UNL     1       7.706   1.240   2.074  1.00  0.00     0.034 C 
ENDBRANCH  24  25
ENDBRANCH  21  24
ENDBRANCH  14  16
ENDBRANCH   9  14
BRANCH   8  27
HETATM   27  O4  UNL     1       1.471  -3.134  -1.087  1.00  0.00    -0.358 OA
ATOM     28  H4  UNL     1       2.239  -2.907  -0.576  1.00  0.00     0.217 HD
ENDBRANCH   8  27
BRANCH   2  29
HETATM   29  O3  UNL     1      -4.380  -0.764  -1.129  1.00  0.00    -0.358 OA
ATOM     30  H3  UNL     1      -4.342  -1.463  -1.771  1.00  0.00     0.217 HD
ENDBRANCH   2  29
BRANCH   1  31
HETATM   31  C3  UNL     1      -4.536   1.381   0.822  1.00  0.00     0.302 C 
HETATM   32  O2  UNL     1      -4.475   2.312   1.720  1.00  0.00    -0.259 OA
BRANCH  31  33
HETATM   33  O1  UNL     1      -5.782   1.281   0.246  1.00  0.00    -0.318 OA
BRANCH  33  34
HETATM   34  C2  UNL     1      -6.884   2.081   0.570  1.00  0.00     0.174 C 
HETATM   35  C1  UNL     1      -7.287   1.962   2.025  1.00  0.00     0.034 C 
ENDBRANCH  33  34
ENDBRANCH  31  33
ENDBRANCH   1  31
TORSDOF 9
