REMARK  10 active torsions:
REMARK  status: ('A' for Active; 'I' for Inactive)
REMARK    1  A    between atoms: C2_2  and  C3_3 
REMARK    2  A    between atoms: C3_3  and  C4_4 
REMARK    3  A    between atoms: C11_13  and  O3_14 
REMARK    4  A    between atoms: C13_17  and  C14_18 
REMARK    5  A    between atoms: C14_18  and  C15_19 
REMARK    6  A    between atoms: C15_19  and  C16_20 
REMARK    7  A    between atoms: C16_20  and  O4_21 
REMARK    8  A    between atoms: O4_21  and  C17_22 
REMARK    9  A    between atoms: C17_22  and  O6_24 
REMARK   10  A    between atoms: C22_30  and  O8_31 
ROOT
HETATM    1  C3  UNL     1      -3.675   0.897  -0.159  1.00  0.00     0.077 C 
HETATM    2  C6  UNL     1      -3.455  -0.114  -1.193  1.00  0.00     0.273 C 
HETATM    3  O1  UNL     1      -3.942   0.191  -2.348  1.00  0.00    -0.264 OA
HETATM    4  O2  UNL     1      -2.833  -1.333  -1.202  1.00  0.00    -0.305 OA
HETATM    5  C7  UNL     1      -1.693  -2.059  -0.900  1.00  0.00     0.094 C 
HETATM    6  C8  UNL     1      -2.139  -3.307  -0.129  1.00  0.00     0.052 C 
HETATM    7  C9  UNL     1      -1.116  -2.580  -2.232  1.00  0.00     0.052 C 
HETATM    8  C10 UNL     1      -0.613  -1.323  -0.229  1.00  0.00     0.022 A 
HETATM    9  C11 UNL     1       0.408  -2.227  -0.044  1.00  0.00     0.076 A 
HETATM   10  C12 UNL     1       1.616  -1.890   0.564  1.00  0.00     0.044 A 
HETATM   11  C13 UNL     1       1.841  -0.615   1.012  1.00  0.00    -0.054 A 
HETATM   12  C19 UNL     1       0.830   0.296   0.832  1.00  0.00     0.022 A 
HETATM   13  C20 UNL     1      -0.370  -0.026   0.232  1.00  0.00     0.011 A 
HETATM   14  C21 UNL     1      -1.114   1.200   0.264  1.00  0.00     0.097 A 
HETATM   15  O7  UNL     1      -0.380   2.287   0.501  1.00  0.00    -0.287 OA
HETATM   16  C22 UNL     1      -1.088   3.362   0.522  1.00  0.00     0.184 A 
HETATM   17  C23 UNL     1      -2.406   2.999   0.283  1.00  0.00     0.075 A 
HETATM   18  C24 UNL     1      -2.402   1.631   0.123  1.00  0.00    -0.000 A 
ENDROOT
BRANCH  11  19
HETATM   19  C14 UNL     1       3.091  -0.163   1.669  1.00  0.00     0.041 C 
BRANCH  19  20
HETATM   20  C15 UNL     1       4.091   0.352   0.654  1.00  0.00     0.031 C 
BRANCH  20  21
HETATM   21  C16 UNL     1       5.311   0.779   1.429  1.00  0.00     0.181 C 
BRANCH  21  22
HETATM   22  O4  UNL     1       6.347   1.289   0.664  1.00  0.00    -0.298 OA
BRANCH  22  23
HETATM   23  C17 UNL     1       7.001   0.567  -0.299  1.00  0.00     0.406 C 
HETATM   24  O5  UNL     1       6.685  -0.620  -0.538  1.00  0.00    -0.230 OA
BRANCH  23  25
HETATM   25  O6  UNL     1       8.044   1.147  -1.042  1.00  0.00    -0.303 OA
HETATM   26  C18 UNL     1       8.677   0.350  -2.020  1.00  0.00     0.215 C 
ENDBRANCH  23  25
ENDBRANCH  22  23
ENDBRANCH  21  22
ENDBRANCH  20  21
ENDBRANCH  19  20
ENDBRANCH  11  19
BRANCH   9  27
HETATM   27  O3  UNL     1       0.300  -3.540  -0.452  1.00  0.00    -0.360 OA
ATOM     28  H3  UNL     1       1.005  -4.164  -0.324  1.00  0.00     0.217 HD
ENDBRANCH   9  27
BRANCH  16  29
HETATM   29  O8  UNL     1      -0.595   4.644   0.746  1.00  0.00    -0.341 OA
ATOM     30  H8  UNL     1      -1.117   5.437   0.761  1.00  0.00     0.220 HD
ENDBRANCH  16  29
BRANCH   1  31
HETATM   31  C2  UNL     1      -4.423   0.483   1.052  1.00  0.00     0.020 C 
HETATM   32  C1  UNL     1      -3.807  -0.521   1.951  1.00  0.00     0.006 C 
ENDBRANCH   1  31
BRANCH   1  33
HETATM   33  C4  UNL     1      -4.596   1.943  -0.847  1.00  0.00     0.020 C 
HETATM   34  C5  UNL     1      -5.918   1.331  -1.223  1.00  0.00     0.006 C 
ENDBRANCH   1  33
TORSDOF 10
