REMARK  8 active torsions:
REMARK  status: ('A' for Active; 'I' for Inactive)
REMARK    1  A    between atoms: O1_2  and  C2_3 
REMARK    2  A    between atoms: C5_6  and  O2_7 
REMARK    3  A    between atoms: O2_7  and  C6_8 
REMARK    4  A    between atoms: C7_9  and  O3_10 
REMARK    5  A    between atoms: C8_12  and  C9_13 
REMARK    6  A    between atoms: C9_13  and  C10_14 
REMARK    7  A    between atoms: C14_18  and  O4_19 
REMARK    8  A    between atoms: C24_33  and  O7_34 
ROOT
HETATM    1  C6  UNL     1       0.801   0.708  -0.079  1.00  0.00     0.131 A 
HETATM    2  C7  UNL     1       1.693  -0.386   0.025  1.00  0.00     0.110 A 
HETATM    3  C8  UNL     1       2.824  -0.278   0.786  1.00  0.00     0.015 A 
HETATM    4  C14 UNL     1       3.133   0.894   1.473  1.00  0.00     0.082 A 
HETATM    5  C15 UNL     1       2.254   1.951   1.361  1.00  0.00    -0.005 A 
HETATM    6  C16 UNL     1       2.511   3.251   2.067  1.00  0.00     0.053 C 
HETATM    7  C17 UNL     1       1.107   1.852   0.595  1.00  0.00     0.089 A 
HETATM    8  C18 UNL     1       0.190   2.966   0.524  1.00  0.00     0.103 C 
HETATM    9  N1  UNL     1      -0.515   3.853   0.465  1.00  0.00    -0.191 NA
ENDROOT
BRANCH   1  10
HETATM   10  O2  UNL     1      -0.284   0.475  -0.855  1.00  0.00    -0.305 OA
BRANCH  10  11
HETATM   11  C5  UNL     1      -1.610   0.471  -0.653  1.00  0.00     0.102 A 
HETATM   12  C3  UNL     1      -2.232  -0.248   0.341  1.00  0.00     0.009 A 
HETATM   13  C2  UNL     1      -3.592  -0.191   0.465  1.00  0.00     0.113 A 
HETATM   14  C4  UNL     1      -1.489  -1.085   1.315  1.00  0.00     0.054 C 
HETATM   15  C24 UNL     1      -4.376   0.561  -0.370  1.00  0.00     0.137 A 
HETATM   16  C23 UNL     1      -3.769   1.293  -1.381  1.00  0.00     0.128 A 
HETATM   17  C19 UNL     1      -2.400   1.239  -1.510  1.00  0.00     0.085 A 
HETATM   18  O6  UNL     1      -4.534   2.021  -2.198  1.00  0.00    -0.319 OA
HETATM   19  C20 UNL     1      -1.872   1.990  -2.555  1.00  0.00     0.189 A 
HETATM   20  O5  UNL     1      -0.638   1.994  -2.754  1.00  0.00    -0.287 OA
HETATM   21  C21 UNL     1      -2.651   2.741  -3.401  1.00  0.00     0.080 A 
HETATM   22  C22 UNL     1      -4.006   2.722  -3.172  1.00  0.00     0.146 A 
BRANCH  13  23
HETATM   23  O1  UNL     1      -4.275  -0.910   1.469  1.00  0.00    -0.352 OA
HETATM   24  C1  UNL     1      -4.700  -2.222   1.148  1.00  0.00     0.210 C 
ENDBRANCH  13  23
BRANCH  15  25
HETATM   25  O7  UNL     1      -5.758   0.639  -0.267  1.00  0.00    -0.351 OA
HETATM   26  C25 UNL     1      -6.435   1.600   0.517  1.00  0.00     0.210 C 
ENDBRANCH  15  25
ENDBRANCH  10  11
ENDBRANCH   1  10
BRANCH   2  27
HETATM   27  O3  UNL     1       1.436  -1.581  -0.645  1.00  0.00    -0.357 OA
ATOM     28  H3  UNL     1       2.035  -2.315  -0.575  1.00  0.00     0.217 HD
ENDBRANCH   2  27
BRANCH   4  29
HETATM   29  O4  UNL     1       4.244   1.070   2.246  1.00  0.00    -0.359 OA
ATOM     30  H4  UNL     1       4.455   1.869   2.714  1.00  0.00     0.217 HD
ENDBRANCH   4  29
BRANCH   3  31
HETATM   31  C9  UNL     1       3.807  -1.387   0.937  1.00  0.00     0.072 C 
BRANCH  31  32
HETATM   32  C10 UNL     1       4.696  -1.548  -0.234  1.00  0.00    -0.020 C 
HETATM   33  C11 UNL     1       4.898  -2.652  -0.918  1.00  0.00    -0.091 C 
HETATM   34  C12 UNL     1       5.818  -2.662  -2.073  1.00  0.00     0.042 C 
HETATM   35  C13 UNL     1       4.224  -3.905  -0.522  1.00  0.00     0.042 C 
ENDBRANCH  31  32
ENDBRANCH   3  31
TORSDOF 8
