REMARK  10 active torsions:
REMARK  status: ('A' for Active; 'I' for Inactive)
REMARK    1  A    between atoms: C5_5  and  C6_6 
REMARK    2  A    between atoms: C6_6  and  C7_7 
REMARK       I    between atoms: C7_7  and  N1_9 
REMARK    3  A    between atoms: N1_9  and  C8_11 
REMARK    4  A    between atoms: C8_11  and  C9_12 
REMARK       I    between atoms: C9_12  and  N2_14 
REMARK    5  A    between atoms: N2_14  and  C10_15 
REMARK    6  A    between atoms: C10_15  and  C11_16 
REMARK    7  A    between atoms: C14_19  and  C15_20 
REMARK    8  A    between atoms: C15_20  and  N3_21 
REMARK    9  A    between atoms: N3_21  and  C16_23 
REMARK   10  A    between atoms: C16_23  and  C21_35 
ROOT
HETATM    1  C11 UNL     1      -0.120  -1.649   0.442  1.00  0.00    -0.007 A 
HETATM    2  C12 UNL     1      -1.267  -2.251   0.954  1.00  0.00     0.014 A 
HETATM    3  C13 UNL     1      -2.396  -2.390   0.191  1.00  0.00     0.010 A 
HETATM    4  C14 UNL     1      -2.420  -1.929  -1.115  1.00  0.00    -0.041 A 
HETATM    5  C27 UNL     1      -1.309  -1.337  -1.627  1.00  0.00     0.010 A 
HETATM    6  C28 UNL     1      -0.153  -1.196  -0.842  1.00  0.00     0.014 A 
ENDROOT
BRANCH   4   7
HETATM    7  C15 UNL     1      -3.653  -2.168  -1.892  1.00  0.00     0.158 C 
BRANCH   7   8
HETATM    8  N3  UNL     1      -4.565  -1.091  -1.944  1.00  0.00    -0.384 N 
ATOM      9  H3  UNL     1      -4.788  -0.713  -2.865  1.00  0.00     0.160 HD
BRANCH   8  10
HETATM   10  C16 UNL     1      -5.194  -0.493  -0.830  1.00  0.00     0.060 C 
HETATM   11  C17 UNL     1      -6.232  -0.992  -0.162  1.00  0.00     0.127 A 
HETATM   12  C18 UNL     1      -6.789  -0.301   0.999  1.00  0.00     0.267 A 
HETATM   13  C20 UNL     1      -6.980  -2.166  -0.617  1.00  0.00     0.267 A 
HETATM   14  O3  UNL     1      -6.270   0.726   1.528  1.00  0.00    -0.267 OA
HETATM   15  N4  UNL     1      -7.992  -0.741   1.660  1.00  0.00    -0.275 N 
HETATM   16  C19 UNL     1      -8.683  -1.874   1.197  1.00  0.00     0.329 A 
ATOM     17  H4  UNL     1      -8.344  -0.227   2.468  1.00  0.00     0.173 HD
HETATM   18  O4  UNL     1      -9.742  -2.266   1.777  1.00  0.00    -0.246 OA
HETATM   19  N5  UNL     1      -8.183  -2.567   0.083  1.00  0.00    -0.275 N 
ATOM     20  H5  UNL     1      -8.689  -3.389  -0.248  1.00  0.00     0.173 HD
HETATM   21  O5  UNL     1      -6.623  -2.843  -1.597  1.00  0.00    -0.267 OA
BRANCH  10  22
HETATM   22  C21 UNL     1      -4.808   0.914  -0.605  1.00  0.00    -0.009 A 
HETATM   23  C22 UNL     1      -5.681   1.912  -1.029  1.00  0.00     0.014 A 
HETATM   24  C23 UNL     1      -5.378   3.219  -0.857  1.00  0.00     0.001 A 
HETATM   25  C24 UNL     1      -4.196   3.618  -0.258  1.00  0.00     0.000 A 
HETATM   26  C25 UNL     1      -3.352   2.635   0.154  1.00  0.00     0.001 A 
HETATM   27  C26 UNL     1      -3.663   1.289  -0.021  1.00  0.00     0.014 A 
ENDBRANCH  10  22
ENDBRANCH   8  10
ENDBRANCH   7   8
ENDBRANCH   4   7
BRANCH   1  28
HETATM   28  C10 UNL     1       1.115  -1.587   1.277  1.00  0.00     0.197 C 
BRANCH  28  29
HETATM   29  N2  UNL     1       2.141  -0.838   0.856  1.00  0.00    -0.381 NA
HETATM   30  C9  UNL     1       3.215  -0.057   0.415  1.00  0.00     0.308 C 
HETATM   31  O2  UNL     1       3.869  -0.227  -0.627  1.00  0.00    -0.255 OA
BRANCH  30  32
HETATM   32  C8  UNL     1       3.616   1.107   1.313  1.00  0.00     0.242 C 
BRANCH  32  33
HETATM   33  N1  UNL     1       4.766   1.812   0.836  1.00  0.00    -0.348 N 
HETATM   34  C7  UNL     1       5.996   1.096   0.674  1.00  0.00     0.243 C 
HETATM   35  O1  UNL     1       6.099  -0.111   0.919  1.00  0.00    -0.269 OA
ATOM     36  H1  UNL     1       4.711   2.806   0.615  1.00  0.00     0.163 HD
BRANCH  34  37
HETATM   37  C6  UNL     1       7.137   1.849   0.201  1.00  0.00     0.103 C 
BRANCH  37  38
HETATM   38  C5  UNL     1       8.333   1.330  -0.067  1.00  0.00     0.037 A 
HETATM   39  C4  UNL     1       8.762   0.034   0.033  1.00  0.00     0.032 A 
HETATM   40  C3  UNL     1      10.091   0.018  -0.378  1.00  0.00     0.031 A 
HETATM   41  C2  UNL     1      10.471   1.287  -0.725  1.00  0.00     0.023 A 
HETATM   42  C1  UNL     1      11.678   1.636  -1.166  1.00  0.00     0.043 C 
HETATM   43  N6  UNL     1       9.397   2.051  -0.528  1.00  0.00    -0.357 N 
ATOM     44  H6  UNL     1       9.373   3.056  -0.701  1.00  0.00     0.166 HD
ENDBRANCH  37  38
ENDBRANCH  34  37
ENDBRANCH  32  33
ENDBRANCH  30  32
ENDBRANCH  28  29
ENDBRANCH   1  28
TORSDOF 10
