REMARK  14 active torsions:
REMARK  status: ('A' for Active; 'I' for Inactive)
REMARK    1  A    between atoms: C3_3  and  N1_4 
REMARK    2  A    between atoms: C6_7  and  C7_8 
REMARK       I    between atoms: C7_8  and  N2_10 
REMARK    3  A    between atoms: N2_10  and  C8_12 
REMARK    4  A    between atoms: C8_12  and  C9_13 
REMARK    5  A    between atoms: C9_13  and  C10_14 
REMARK    6  A    between atoms: C13_21  and  N5_22 
REMARK    7  A    between atoms: N5_22  and  C14_24 
REMARK    8  A    between atoms: C14_24  and  C15_25 
REMARK    9  A    between atoms: C15_25  and  N6_26 
REMARK   10  A    between atoms: C18_35  and  C19_36 
REMARK   11  A    between atoms: C20_37  and  C21_38 
REMARK   12  A    between atoms: N8_42  and  C25_43 
REMARK   13  A    between atoms: C25_43  and  C26_44 
REMARK   14  A    between atoms: C26_44  and  O3_45 
ROOT
HETATM    1  C1  UNL     1      -5.255  -7.441   0.202  1.00  0.00     0.014 C 
HETATM    2  C2  UNL     1      -5.060  -6.663   1.102  1.00  0.00    -0.097 C 
HETATM    3  C3  UNL     1      -4.819  -5.726   2.225  1.00  0.00     0.220 C 
ENDROOT
BRANCH   3   4
HETATM    4  N1  UNL     1      -3.806  -4.773   1.821  1.00  0.00    -0.354 N 
HETATM    5  C4  UNL     1      -2.495  -4.983   2.020  1.00  0.00     0.092 A 
HETATM    6  C5  UNL     1      -1.556  -4.058   1.624  1.00  0.00     0.036 A 
HETATM    7  C6  UNL     1      -1.996  -2.898   1.013  1.00  0.00     0.053 A 
HETATM    8  C18 UNL     1      -3.332  -2.662   0.799  1.00  0.00     0.049 A 
HETATM    9  C28 UNL     1      -4.211  -3.640   1.225  1.00  0.00     0.113 A 
BRANCH   7  10
HETATM   10  C7  UNL     1      -1.044  -1.869   0.564  1.00  0.00     0.253 C 
HETATM   11  O1  UNL     1      -1.199  -1.242  -0.512  1.00  0.00    -0.268 OA
HETATM   12  N2  UNL     1       0.084  -1.576   1.368  1.00  0.00    -0.357 N 
ATOM     13  H2  UNL     1       0.184  -2.100   2.237  1.00  0.00     0.162 HD
BRANCH  12  14
HETATM   14  C8  UNL     1       1.095  -0.610   1.068  1.00  0.00     0.127 C 
BRANCH  14  15
HETATM   15  C9  UNL     1       1.837  -0.892  -0.225  1.00  0.00     0.061 C 
BRANCH  15  16
HETATM   16  C10 UNL     1       2.885   0.099  -0.523  1.00  0.00    -0.022 A 
HETATM   17  C11 UNL     1       2.741   1.175  -1.409  1.00  0.00     0.098 A 
HETATM   18  N3  UNL     1       3.878   1.884  -1.419  1.00  0.00    -0.350 N 
HETATM   19  C12 UNL     1       4.767   1.337  -0.588  1.00  0.00     0.137 A 
ATOM     20  H3  UNL     1       4.040   2.720  -1.980  1.00  0.00     0.166 HD
HETATM   21  N4  UNL     1       6.022   1.710  -0.294  1.00  0.00    -0.176 N 
HETATM   22  C17 UNL     1       4.165   0.229  -0.025  1.00  0.00     0.085 A 
HETATM   23  C13 UNL     1       6.717   0.969   0.587  1.00  0.00     0.682 A 
ATOM     24  H4  UNL     1       6.438   2.534  -0.728  1.00  0.00     0.186 HD
HETATM   25  N7  UNL     1       6.142  -0.130   1.154  1.00  0.00    -0.155 N 
HETATM   26  C16 UNL     1       4.883  -0.521   0.871  1.00  0.00     0.274 A 
ATOM     27  H7  UNL     1       6.687  -0.679   1.819  1.00  0.00     0.187 HD
HETATM   28  O2  UNL     1       4.370  -1.546   1.408  1.00  0.00    -0.267 OA
BRANCH  23  29
HETATM   29  N5  UNL     1       7.914   1.262   0.916  1.00  0.00    -0.224 N 
ATOM     30  H5  UNL     1       8.370   0.648   1.591  1.00  0.00     0.177 HD
BRANCH  29  31
HETATM   31  C14 UNL     1       8.677   2.367   0.431  1.00  0.00     0.165 C 
BRANCH  31  32
HETATM   32  C15 UNL     1       9.311   2.000  -0.910  1.00  0.00     0.249 C 
BRANCH  32  33
HETATM   33  N6  UNL     1      10.085   3.125  -1.399  1.00  0.00    -0.078 N 
ATOM     34  H63 UNL     1       9.531   3.980  -1.454  1.00  0.00     0.274 HD
ATOM     35  H62 UNL     1      10.776   3.443  -0.719  1.00  0.00     0.274 HD
ATOM     36  H61 UNL     1      10.508   2.880  -2.294  1.00  0.00     0.274 HD
ENDBRANCH  32  33
ENDBRANCH  31  32
ENDBRANCH  29  31
ENDBRANCH  23  29
ENDBRANCH  15  16
ENDBRANCH  14  15
ENDBRANCH  12  14
ENDBRANCH   7  10
BRANCH   8  37
HETATM   37  C19 UNL     1      -3.777  -1.455   0.164  1.00  0.00    -0.059 C 
HETATM   38  C20 UNL     1      -4.179  -0.434  -0.377  1.00  0.00    -0.060 C 
BRANCH  38  39
HETATM   39  C21 UNL     1      -4.670   0.751  -1.024  1.00  0.00     0.033 A 
HETATM   40  C22 UNL     1      -4.319   1.083  -2.324  1.00  0.00     0.023 A 
HETATM   41  C23 UNL     1      -4.791   2.216  -2.945  1.00  0.00     0.019 A 
HETATM   42  C24 UNL     1      -5.640   3.061  -2.269  1.00  0.00     0.090 A 
HETATM   43  N8  UNL     1      -5.985   2.748  -1.012  1.00  0.00    -0.363 N 
HETATM   44  C27 UNL     1      -5.524   1.643  -0.409  1.00  0.00     0.111 A 
BRANCH  43  45
HETATM   45  C25 UNL     1      -6.879   3.606  -0.261  1.00  0.00     0.153 C 
BRANCH  45  46
HETATM   46  C26 UNL     1      -6.137   4.671   0.516  1.00  0.00     0.184 C 
BRANCH  46  47
HETATM   47  O3  UNL     1      -5.266   4.061   1.413  1.00  0.00    -0.399 OA
ATOM     48  H3  UNL     1      -4.800   4.730   1.901  1.00  0.00     0.209 HD
ENDBRANCH  46  47
ENDBRANCH  45  46
ENDBRANCH  43  45
ENDBRANCH  38  39
ENDBRANCH   8  37
ENDBRANCH   3   4
TORSDOF 14
