REMARK  11 active torsions:
REMARK  status: ('A' for Active; 'I' for Inactive)
REMARK    1  A    between atoms: N1_4  and  C3_5 
REMARK    2  A    between atoms: C3_5  and  C4_6 
REMARK    3  A    between atoms: C9_13  and  C10_14 
REMARK    4  A    between atoms: C10_14  and  C11_15 
REMARK    5  A    between atoms: C11_15  and  C12_16 
REMARK    6  A    between atoms: C12_16  and  N3_17 
REMARK    7  A    between atoms: N3_17  and  C13_19 
REMARK    8  A    between atoms: C14_22  and  N5_23 
REMARK    9  A    between atoms: N5_23  and  C15_25 
REMARK   10  A    between atoms: C15_25  and  C16_26 
REMARK   11  A    between atoms: C16_26  and  C17_27 
ROOT
HETATM    1  C13 UNL     1       1.318   0.501  -0.757  1.00  0.00     0.681 A 
HETATM    2  N4  UNL     1       2.580   0.138  -0.493  1.00  0.00    -0.176 N 
ATOM      3  H4  UNL     1       3.211   0.828  -0.086  1.00  0.00     0.186 HD
HETATM    4  C14 UNL     1       3.047  -1.086  -0.739  1.00  0.00     0.136 A 
HETATM    5  C23 UNL     1       2.189  -2.032  -1.296  1.00  0.00     0.123 A 
HETATM    6  C24 UNL     1       2.360  -3.358  -1.667  1.00  0.00     0.277 A 
HETATM    7  O2  UNL     1       3.417  -3.989  -1.549  1.00  0.00    -0.266 OA
HETATM    8  N6  UNL     1       1.158  -3.754  -2.154  1.00  0.00    -0.264 N 
ATOM      9  H6  UNL     1       0.952  -4.686  -2.513  1.00  0.00     0.190 HD
HETATM   10  N7  UNL     1       0.293  -2.759  -2.097  1.00  0.00    -0.281 N 
ATOM     11  H7  UNL     1      -0.679  -2.806  -2.404  1.00  0.00     0.188 HD
HETATM   12  C25 UNL     1       0.897  -1.660  -1.566  1.00  0.00     0.155 A 
HETATM   13  N8  UNL     1       0.487  -0.401  -1.291  1.00  0.00    -0.174 N 
ATOM     14  H8  UNL     1      -0.476  -0.134  -1.495  1.00  0.00     0.186 HD
ENDROOT
BRANCH   1  15
HETATM   15  N3  UNL     1       0.887   1.687  -0.515  1.00  0.00    -0.226 N 
ATOM     16  H3  UNL     1       1.569   2.329  -0.111  1.00  0.00     0.177 HD
BRANCH  15  17
HETATM   17  C12 UNL     1      -0.403   2.225  -0.732  1.00  0.00     0.138 C 
BRANCH  17  18
HETATM   18  C11 UNL     1      -1.209   2.132   0.542  1.00  0.00     0.026 C 
BRANCH  18  19
HETATM   19  C10 UNL     1      -2.610   2.666   0.406  1.00  0.00     0.061 C 
BRANCH  19  20
HETATM   20  C9  UNL     1      -3.402   1.943  -0.595  1.00  0.00     0.033 A 
HETATM   21  C8  UNL     1      -3.520   2.212  -1.929  1.00  0.00     0.115 A 
HETATM   22  N2  UNL     1      -4.337   1.296  -2.458  1.00  0.00    -0.350 N 
HETATM   23  C7  UNL     1      -4.721   0.470  -1.464  1.00  0.00     0.111 A 
ATOM     24  H2  UNL     1      -4.619   1.233  -3.436  1.00  0.00     0.166 HD
HETATM   25  C6  UNL     1      -5.549  -0.647  -1.413  1.00  0.00     0.050 A 
HETATM   26  N9  UNL     1      -4.155   0.857  -0.315  1.00  0.00    -0.310 N 
HETATM   27  C5  UNL     1      -5.790  -1.339  -0.248  1.00  0.00     0.013 A 
HETATM   28  C4  UNL     1      -5.198  -0.924   0.921  1.00  0.00    -0.027 A 
HETATM   29  C26 UNL     1      -4.380   0.185   0.851  1.00  0.00     0.107 A 
BRANCH  28  30
HETATM   30  C3  UNL     1      -5.434  -1.648   2.196  1.00  0.00     0.154 C 
BRANCH  30  31
HETATM   31  N1  UNL     1      -6.763  -1.528   2.702  1.00  0.00    -0.216 NA
HETATM   32  C2  UNL     1      -7.290  -0.228   2.952  1.00  0.00     0.218 C 
HETATM   33  C1  UNL     1      -8.210  -0.497   1.843  1.00  0.00     0.246 C 
HETATM   34  O1  UNL     1      -9.027   0.103   1.086  1.00  0.00    -0.271 OA
HETATM   35  N10 UNL     1      -7.826  -1.858   1.909  1.00  0.00    -0.287 N 
ATOM     36  H10 UNL     1      -8.192  -2.728   1.523  1.00  0.00     0.184 HD
ENDBRANCH  30  31
ENDBRANCH  28  30
ENDBRANCH  19  20
ENDBRANCH  18  19
ENDBRANCH  17  18
ENDBRANCH  15  17
ENDBRANCH   1  15
BRANCH   4  37
HETATM   37  N5  UNL     1       4.229  -1.486  -0.496  1.00  0.00    -0.375 N 
ATOM     38  H5  UNL     1       4.422  -2.455  -0.749  1.00  0.00     0.161 HD
BRANCH  37  39
HETATM   39  C15 UNL     1       5.318  -0.781   0.075  1.00  0.00     0.126 C 
BRANCH  39  40
HETATM   40  C16 UNL     1       6.356  -0.283  -0.882  1.00  0.00     0.058 C 
BRANCH  40  41
HETATM   41  C17 UNL     1       7.392   0.407  -0.042  1.00  0.00    -0.057 A 
HETATM   42  C18 UNL     1       8.469  -0.327   0.462  1.00  0.00     0.007 A 
HETATM   43  C19 UNL     1       9.458   0.220   1.236  1.00  0.00     0.001 A 
HETATM   44  C20 UNL     1       9.399   1.557   1.540  1.00  0.00     0.000 A 
HETATM   45  C21 UNL     1       8.337   2.296   1.048  1.00  0.00     0.001 A 
HETATM   46  C22 UNL     1       7.343   1.744   0.269  1.00  0.00     0.007 A 
ENDBRANCH  40  41
ENDBRANCH  39  40
ENDBRANCH  37  39
ENDBRANCH   4  37
TORSDOF 11
