REMARK  12 active torsions:
REMARK  status: ('A' for Active; 'I' for Inactive)
REMARK    1  A    between atoms: C14_17  and  C15_18 
REMARK    2  A    between atoms: C15_18  and  C16_19 
REMARK    3  A    between atoms: C15_18  and  N5_26 
REMARK    4  A    between atoms: C16_19  and  N2_20 
REMARK    5  A    between atoms: N2_20  and  N3_22 
REMARK    6  A    between atoms: N3_22  and  N4_23 
REMARK    7  A    between atoms: N5_26  and  C17_28 
REMARK    8  A    between atoms: C17_28  and  C18_29 
REMARK    9  A    between atoms: C17_28  and  C25_36 
REMARK   10  A    between atoms: C18_29  and  C19_30 
REMARK   11  A    between atoms: C25_36  and  O2_37 
REMARK   12  A    between atoms: C25_36  and  C26_39 
REMARK       I    between atoms: C26_39  and  N6_41 
ROOT
HETATM    1  C15 UNL     1       0.681  -1.923  -0.246  1.00  0.00     0.064 C 
ENDROOT
BRANCH   1   2
HETATM    2  C14 UNL     1       1.715  -1.492  -0.901  1.00  0.00     0.057 A 
HETATM    3  C13 UNL     1       2.449  -0.391  -0.537  1.00  0.00     0.011 A 
HETATM    4  C3  UNL     1       3.374   0.258  -1.311  1.00  0.00     0.095 A 
HETATM    5  C12 UNL     1       2.313  -0.145   0.841  1.00  0.00     0.016 C 
HETATM    6  N1  UNL     1       3.614  -0.202  -2.536  1.00  0.00    -0.350 N 
HETATM    7  C4  UNL     1       4.147   1.394  -1.038  1.00  0.00     0.210 C 
HETATM    8  C2  UNL     1       2.950  -1.264  -2.949  1.00  0.00     0.074 A 
ATOM      9  H1  UNL     1       4.295   0.256  -3.141  1.00  0.00     0.166 HD
HETATM   10  C1  UNL     1       3.236  -1.690  -4.194  1.00  0.00     0.047 C 
HETATM   11  C28 UNL     1       1.996  -1.940  -2.171  1.00  0.00     0.211 A 
HETATM   12  O4  UNL     1       1.500  -2.912  -2.765  1.00  0.00    -0.285 OA
HETATM   13  O1  UNL     1       5.109   1.630  -1.776  1.00  0.00    -0.285 OA
HETATM   14  C5  UNL     1       3.930   2.285  -0.007  1.00  0.00     0.027 A 
HETATM   15  C6  UNL     1       4.611   3.478  -0.245  1.00  0.00     0.016 A 
HETATM   16  C10 UNL     1       3.187   2.158   1.135  1.00  0.00    -0.022 A 
HETATM   17  C7  UNL     1       4.552   4.535   0.645  1.00  0.00     0.001 A 
HETATM   18  C8  UNL     1       3.793   4.373   1.786  1.00  0.00     0.001 A 
HETATM   19  C9  UNL     1       3.104   3.189   2.045  1.00  0.00     0.012 A 
HETATM   20  C11 UNL     1       2.446   1.026   1.520  1.00  0.00     0.013 C 
ENDBRANCH   1   2
BRANCH   1  21
HETATM   21  C16 UNL     1      -0.009  -3.172  -0.739  1.00  0.00     0.135 C 
BRANCH  21  22
HETATM   22  N2  UNL     1      -1.077  -2.979  -1.609  1.00  0.00    -0.294 N 
ATOM     23  H2  UNL     1      -1.390  -2.071  -1.953  1.00  0.00     0.183 HD
BRANCH  22  24
HETATM   24  N3  UNL     1      -1.649  -4.179  -1.938  1.00  0.00    -0.030 NA
BRANCH  24  25
HETATM   25  N4  UNL     1      -1.640  -4.439  -3.313  1.00  0.00    -0.329 N 
ATOM     26  H42 UNL     1      -1.243  -3.788  -3.991  1.00  0.00     0.174 HD
ATOM     27  H41 UNL     1      -2.066  -5.333  -3.558  1.00  0.00     0.174 HD
ENDBRANCH  24  25
ENDBRANCH  22  24
ENDBRANCH  21  22
ENDBRANCH   1  21
BRANCH   1  28
HETATM   28  N5  UNL     1      -0.045  -1.296   0.819  1.00  0.00    -0.358 N 
ATOM     29  H5  UNL     1       0.251  -1.575   1.754  1.00  0.00     0.165 HD
BRANCH  28  30
HETATM   30  C17 UNL     1      -1.111  -0.348   0.794  1.00  0.00     0.029 C 
BRANCH  30  31
HETATM   31  C18 UNL     1      -1.113   0.633  -0.302  1.00  0.00     0.094 C 
BRANCH  31  32
HETATM   32  C19 UNL     1      -2.206   1.599  -0.373  1.00  0.00    -0.053 A 
HETATM   33  C20 UNL     1      -2.202   2.726   0.422  1.00  0.00     0.007 A 
HETATM   34  C21 UNL     1      -3.156   3.714   0.362  1.00  0.00     0.001 A 
HETATM   35  C22 UNL     1      -4.192   3.600  -0.537  1.00  0.00     0.000 A 
HETATM   36  C23 UNL     1      -4.232   2.489  -1.350  1.00  0.00     0.001 A 
HETATM   37  C24 UNL     1      -3.276   1.511  -1.281  1.00  0.00     0.007 A 
ENDBRANCH  31  32
ENDBRANCH  30  31
BRANCH  30  38
HETATM   38  C25 UNL     1      -2.428  -0.936   1.112  1.00  0.00     0.255 C 
BRANCH  38  39
HETATM   39  O2  UNL     1      -3.466   0.015   1.169  1.00  0.00    -0.380 OA
ATOM     40  H2  UNL     1      -4.313  -0.363   1.374  1.00  0.00     0.211 HD
ENDBRANCH  38  39
BRANCH  38  41
HETATM   41  C26 UNL     1      -2.500  -1.659   2.416  1.00  0.00     0.251 C 
HETATM   42  O3  UNL     1      -1.756  -2.636   2.655  1.00  0.00    -0.270 OA
HETATM   43  N6  UNL     1      -3.410  -1.270   3.436  1.00  0.00    -0.363 N 
HETATM   44  C27 UNL     1      -3.490  -1.961   4.705  1.00  0.00     0.149 C 
ATOM     45  H6  UNL     1      -4.028  -0.476   3.268  1.00  0.00     0.162 HD
ENDBRANCH  38  41
ENDBRANCH  30  38
ENDBRANCH  28  30
ENDBRANCH   1  28
TORSDOF 12
