REMARK  4 active torsions:
REMARK  status: ('A' for Active; 'I' for Inactive)
REMARK    1  A    between atoms: N2_11  and  O2_13 
REMARK    2  A    between atoms: O2_13  and  C7_14 
REMARK    3  A    between atoms: C7_14  and  C8_15 
REMARK    4  A    between atoms: C8_15  and  O3_18 
ROOT
HETATM    1  C1  UNL     1       5.054  -2.036  -1.755  1.00  0.00     0.080 C 
HETATM    2  C2  UNL     1       4.737  -0.865  -0.882  1.00  0.00     0.091 A 
HETATM    3  O1  UNL     1       5.619  -0.070  -0.335  1.00  0.00    -0.241 OA
HETATM    4  N1  UNL     1       5.040   0.858   0.370  1.00  0.00    -0.263 N 
ATOM      5  H1  UNL     1       5.528   1.591   0.886  1.00  0.00     0.194 HD
HETATM    6  C3  UNL     1       3.692   0.708   0.318  1.00  0.00     0.066 A 
HETATM    7  C4  UNL     1       3.497  -0.399  -0.487  1.00  0.00     0.058 A 
HETATM    8  S1  UNL     1       1.970  -1.162  -0.983  1.00  0.00    -0.120 SA
HETATM    9  C5  UNL     1       0.593  -0.011  -0.616  1.00  0.00     0.134 C 
HETATM   10  C6  UNL     1       0.594   0.301   0.825  1.00  0.00     0.021 C 
HETATM   11  N2  UNL     1      -0.536   0.140   1.409  1.00  0.00    -0.274 N 
ATOM     12  H2  UNL     1      -0.581   0.345   2.407  1.00  0.00     0.193 HD
HETATM   13  C11 UNL     1       1.672   0.764   1.696  1.00  0.00     0.077 C 
HETATM   14  C12 UNL     1       2.711   1.596   1.011  1.00  0.00     0.116 C 
HETATM   15 BR1  UNL     1       3.704   2.515   2.422  1.00  0.00    -0.084 Br
ENDROOT
BRANCH  11  16
HETATM   16  O2  UNL     1      -1.673  -0.279   0.809  1.00  0.00    -0.278 OA
BRANCH  16  17
HETATM   17  C7  UNL     1      -2.688   0.640   0.495  1.00  0.00     0.238 C 
BRANCH  17  18
HETATM   18  C8  UNL     1      -3.873  -0.026  -0.168  1.00  0.00     0.074 C 
HETATM   19  C9  UNL     1      -4.903   1.042  -0.452  1.00  0.00     0.047 C 
HETATM   20  C10 UNL     1      -4.526  -1.033   0.761  1.00  0.00     0.047 C 
BRANCH  18  21
HETATM   21  O3  UNL     1      -3.546  -0.654  -1.348  1.00  0.00    -0.388 OA
ATOM     22  H3  UNL     1      -4.290  -1.072  -1.764  1.00  0.00     0.210 HD
ENDBRANCH  18  21
ENDBRANCH  17  18
ENDBRANCH  16  17
ENDBRANCH  11  16
TORSDOF 4
