REMARK  5 active torsions:
REMARK  status: ('A' for Active; 'I' for Inactive)
REMARK    1  A    between atoms: C2_2  and  O1_3 
REMARK    2  A    between atoms: O1_3  and  C3_4 
REMARK    3  A    between atoms: C3_4  and  C4_6 
REMARK    4  A    between atoms: C5_7  and  C6_8 
REMARK    5  A    between atoms: C6_8  and  S1_10 
ROOT
HETATM    1  C4  UNL     1       0.722   0.487  -0.005  1.00  0.00     0.107 C 
HETATM    2  C5  UNL     1       0.029   1.659   0.622  1.00  0.00     0.118 C 
HETATM    3  C7  UNL     1      -1.416   1.455   0.834  1.00  0.00    -0.004 A 
HETATM    4  C8  UNL     1      -2.306   2.257   1.546  1.00  0.00     0.117 A 
HETATM    5  N1  UNL     1      -3.501   1.662   1.434  1.00  0.00    -0.309 N 
ATOM      6  H1  UNL     1      -4.363   2.012   1.852  1.00  0.00     0.186 HD
HETATM    7  N2  UNL     1      -3.414   0.564   0.712  1.00  0.00    -0.300 N 
HETATM    8  C9  UNL     1      -4.523  -0.290   0.410  1.00  0.00     0.177 C 
HETATM    9  C10 UNL     1      -2.161   0.403   0.329  1.00  0.00     0.041 A 
HETATM   10  C11 UNL     1      -1.360  -0.593  -0.475  1.00  0.00     0.043 C 
HETATM   11  C12 UNL     1      -2.107  -1.818  -0.827  1.00  0.00     0.011 C 
HETATM   12  C13 UNL     1      -1.136  -2.932  -1.215  1.00  0.00     0.001 C 
HETATM   13  C14 UNL     1      -0.300  -3.194   0.000  1.00  0.00     0.000 C 
HETATM   14  C15 UNL     1       0.640  -2.032   0.186  1.00  0.00     0.006 C 
HETATM   15  C16 UNL     1      -0.085  -0.762   0.302  1.00  0.00     0.010 C 
ENDROOT
BRANCH   1  16
HETATM   16  C3  UNL     1       2.139   0.418   0.307  1.00  0.00     0.264 C 
HETATM   17  O2  UNL     1       2.622  -0.510   0.969  1.00  0.00    -0.265 OA
BRANCH  16  18
HETATM   18  O1  UNL     1       3.040   1.400  -0.122  1.00  0.00    -0.322 OA
BRANCH  18  19
HETATM   19  C2  UNL     1       4.424   1.302   0.203  1.00  0.00     0.174 C 
HETATM   20  C1  UNL     1       5.054   0.052  -0.336  1.00  0.00     0.034 C 
ENDBRANCH  18  19
ENDBRANCH  16  18
ENDBRANCH   1  16
BRANCH   2  21
HETATM   21  C6  UNL     1       0.296   2.909  -0.144  1.00  0.00     0.210 C 
HETATM   22  O3  UNL     1       0.835   2.839  -1.218  1.00  0.00    -0.283 OA
BRANCH  21  23
HETATM   23  S1  UNL     1      -0.202   4.457   0.579  1.00  0.00     0.019 SA
HETATM   24 CL1  UNL     1       0.323   6.000  -0.757  1.00  0.00    -0.036 Cl
ENDBRANCH  21  23
ENDBRANCH   2  21
TORSDOF 5
