REMARK  3 active torsions:
REMARK  status: ('A' for Active; 'I' for Inactive)
REMARK    1  A    between atoms: C3_7  and  S1_8 
REMARK    2  A    between atoms: S1_8  and  C4_9 
REMARK    3  A    between atoms: C4_9  and  C5_10 
ROOT
HETATM    1  C5  UNL     1       0.265  -1.222  -1.408  1.00  0.00     0.093 A 
HETATM    2  N3  UNL     1      -0.923  -1.727  -0.956  1.00  0.00    -0.342 N 
ATOM      3  H3  UNL     1      -1.206  -2.704  -1.034  1.00  0.00     0.167 HD
HETATM    4  C6  UNL     1      -1.665  -0.760  -0.396  1.00  0.00     0.085 A 
HETATM    5  C7  UNL     1      -2.922  -0.746   0.203  1.00  0.00    -0.012 A 
HETATM    6  C8  UNL     1      -3.712  -1.998   0.302  1.00  0.00     0.052 C 
HETATM    7  C9  UNL     1      -3.369   0.466   0.680  1.00  0.00     0.041 A 
HETATM    8 BR1  UNL     1      -5.096   0.562   1.519  1.00  0.00    -0.048 Br
HETATM    9  C10 UNL     1      -2.623   1.620   0.577  1.00  0.00     0.025 A 
HETATM   10  C11 UNL     1      -3.092   2.934   1.089  1.00  0.00     0.069 C 
HETATM   11  N4  UNL     1      -1.409   1.547  -0.015  1.00  0.00    -0.343 N 
ATOM     12  H4  UNL     1      -0.848   2.395  -0.097  1.00  0.00     0.167 HD
HETATM   13  C12 UNL     1      -0.917   0.395  -0.499  1.00  0.00     0.134 A 
HETATM   14  N5  UNL     1       0.243   0.086  -1.115  1.00  0.00    -0.330 N 
ATOM     15  H5  UNL     1       0.990   0.748  -1.326  1.00  0.00     0.168 HD
ENDROOT
BRANCH   1  16
HETATM   16  C4  UNL     1       1.323  -2.037  -2.089  1.00  0.00     0.159 C 
BRANCH  16  17
HETATM   17  S1  UNL     1       2.460  -2.747  -0.907  1.00  0.00    -0.077 SA
BRANCH  17  18
HETATM   18  C3  UNL     1       3.479  -1.531  -0.084  1.00  0.00     0.203 A 
HETATM   19  N2  UNL     1       4.414  -1.781   0.863  1.00  0.00    -0.272 N 
HETATM   20  N1  UNL     1       4.955  -0.633   1.228  1.00  0.00    -0.281 N 
ATOM     21  H2  UNL     1       4.659  -2.700   1.232  1.00  0.00     0.189 HD
HETATM   22  C2  UNL     1       4.365   0.316   0.521  1.00  0.00     0.137 A 
ATOM     23  H1  UNL     1       5.689  -0.503   1.924  1.00  0.00     0.189 HD
HETATM   24  C1  UNL     1       4.572   1.803   0.512  1.00  0.00     0.099 C 
HETATM   25  O1  UNL     1       3.472  -0.236  -0.273  1.00  0.00    -0.273 OA
ENDBRANCH  17  18
ENDBRANCH  16  17
ENDBRANCH   1  16
TORSDOF 3
