REMARK  13 active torsions:
REMARK  status: ('A' for Active; 'I' for Inactive)
REMARK    1  A    between atoms: C2_9  and  N5_10 
REMARK    2  A    between atoms: N5_10  and  C3_12 
REMARK    3  A    between atoms: C3_12  and  O1_13 
REMARK    4  A    between atoms: C3_12  and  C4_15 
REMARK    5  A    between atoms: C4_15  and  C5_16 
REMARK    6  A    between atoms: C4_15  and  N7_20 
REMARK    7  A    between atoms: C5_16  and  C6_17 
REMARK       I    between atoms: N7_20  and  C7_22 
REMARK    8  A    between atoms: C7_22  and  C8_24 
REMARK    9  A    between atoms: C8_24  and  C9_25 
REMARK   10  A    between atoms: C9_25  and  C10_26 
REMARK   11  A    between atoms: C10_26  and  N8_27 
REMARK   12  A    between atoms: C10_26  and  C16_43 
REMARK   13  A    between atoms: N8_27  and  C11_29 
ROOT
HETATM    1  N7  UNL     1       2.356  -1.137   1.362  1.00  0.00    -0.352 N 
ATOM      2  H7  UNL     1       2.549  -0.692   2.260  1.00  0.00     0.163 HD
HETATM    3  C7  UNL     1       1.045  -1.074   0.884  1.00  0.00     0.218 C 
HETATM    4  O3  UNL     1       0.766  -1.606  -0.208  1.00  0.00    -0.274 OA
ENDROOT
BRANCH   3   5
HETATM    5  C8  UNL     1      -0.001  -0.389   1.658  1.00  0.00     0.105 C 
BRANCH   5   6
HETATM    6  C9  UNL     1      -1.349  -0.316   1.051  1.00  0.00     0.046 C 
BRANCH   6   7
HETATM    7  C10 UNL     1      -1.514   0.366  -0.253  1.00  0.00     0.201 C 
BRANCH   7   8
HETATM    8  N8  UNL     1      -2.855   0.366  -0.708  1.00  0.00    -0.209 N 
ATOM      9  H8  UNL     1      -2.979  -0.228  -1.528  1.00  0.00     0.178 HD
BRANCH   8  10
HETATM   10  C11 UNL     1      -3.929   0.911  -0.358  1.00  0.00     0.719 A 
HETATM   11  N9  UNL     1      -4.063   1.735   0.677  1.00  0.00    -0.138 N 
HETATM   12  C12 UNL     1      -5.292   2.271   0.967  1.00  0.00     0.354 A 
ATOM     13  H9  UNL     1      -3.254   1.968   1.254  1.00  0.00     0.189 HD
HETATM   14  O4  UNL     1      -5.347   3.047   1.967  1.00  0.00    -0.245 OA
HETATM   15  N10 UNL     1      -6.359   1.968   0.211  1.00  0.00    -0.134 N 
HETATM   16  C13 UNL     1      -7.642   2.540   0.530  1.00  0.00     0.180 C 
HETATM   17  C14 UNL     1      -6.206   1.133  -0.832  1.00  0.00     0.725 A 
HETATM   18  N11 UNL     1      -7.102   0.669  -1.739  1.00  0.00    -0.184 N 
HETATM   19  N13 UNL     1      -5.029   0.600  -1.135  1.00  0.00     0.091 N 
HETATM   20  C15 UNL     1      -6.455  -0.154  -2.599  1.00  0.00     0.216 A 
ATOM     21  H11 UNL     1      -8.095   0.901  -1.768  1.00  0.00     0.185 HD
HETATM   22  N12 UNL     1      -5.174  -0.171  -2.192  1.00  0.00    -0.260 N 
ATOM     23  H12 UNL     1      -4.425  -0.703  -2.636  1.00  0.00     0.189 HD
ENDBRANCH   8  10
ENDBRANCH   7   8
BRANCH   7  24
HETATM   24  C16 UNL     1      -0.869   1.692  -0.285  1.00  0.00     0.197 C 
HETATM   25  O5  UNL     1       0.279   1.963   0.126  1.00  0.00    -0.646 OA
HETATM   26  O6  UNL     1      -1.594   2.764  -0.828  1.00  0.00    -0.646 OA
ENDBRANCH   7  24
ENDBRANCH   6   7
ENDBRANCH   5   6
ENDBRANCH   3   5
BRANCH   1  27
HETATM   27  C4  UNL     1       3.462  -1.780   0.690  1.00  0.00     0.141 C 
BRANCH  27  28
HETATM   28  C3  UNL     1       4.568  -0.838   0.334  1.00  0.00     0.258 C 
BRANCH  28  29
HETATM   29  N5  UNL     1       4.125   0.188  -0.579  1.00  0.00    -0.195 N 
ATOM     30  H5  UNL     1       3.973   1.121  -0.196  1.00  0.00     0.180 HD
BRANCH  29  31
HETATM   31  C2  UNL     1       3.904   0.023  -1.843  1.00  0.00     0.713 A 
HETATM   32  N1  UNL     1       3.483   1.044  -2.657  1.00  0.00    -0.111 N 
HETATM   33  C1  UNL     1       3.234   2.426  -2.224  1.00  0.00     0.199 C 
HETATM   34  N2  UNL     1       3.357   0.538  -3.863  1.00  0.00    -0.211 N 
HETATM   35  N3  UNL     1       3.674  -0.741  -3.848  1.00  0.00    -0.213 N 
ATOM     36  H2  UNL     1       3.058   1.058  -4.688  1.00  0.00     0.210 HD
HETATM   37  N4  UNL     1       4.014  -1.073  -2.611  1.00  0.00    -0.115 N 
ATOM     38  H3  UNL     1       3.660  -1.369  -4.652  1.00  0.00     0.210 HD
ATOM     39  H4  UNL     1       4.308  -1.998  -2.297  1.00  0.00     0.207 HD
ENDBRANCH  29  31
ENDBRANCH  28  29
BRANCH  28  40
HETATM   40  O1  UNL     1       5.614  -1.513  -0.301  1.00  0.00    -0.374 OA
ATOM     41  H1  UNL     1       5.906  -2.188   0.300  1.00  0.00     0.212 HD
ENDBRANCH  28  40
ENDBRANCH  27  28
BRANCH  27  42
HETATM   42  C5  UNL     1       3.902  -3.037   1.380  1.00  0.00     0.129 C 
BRANCH  42  43
HETATM   43  C6  UNL     1       4.592  -2.867   2.652  1.00  0.00     0.233 C 
HETATM   44  N6  UNL     1       5.037  -4.032   3.325  1.00  0.00    -0.062 NA
HETATM   45  O2  UNL     1       4.833  -1.774   3.219  1.00  0.00    -0.277 OA
ENDBRANCH  42  43
ENDBRANCH  27  42
ENDBRANCH   1  27
TORSDOF 13
