REMARK  14 active torsions:
REMARK  status: ('A' for Active; 'I' for Inactive)
REMARK    1  A    between atoms: N1_1  and  C1_5 
REMARK    2  A    between atoms: C1_5  and  C2_6 
REMARK    3  A    between atoms: C2_6  and  N2_7 
REMARK       I    between atoms: N2_7  and  C3_9 
REMARK    4  A    between atoms: C3_9  and  C4_11 
REMARK    5  A    between atoms: C4_11  and  N3_12 
REMARK    6  A    between atoms: N6_21  and  C9_22 
REMARK    7  A    between atoms: C9_22  and  C10_23 
REMARK       I    between atoms: C10_23  and  N7_25 
REMARK    8  A    between atoms: N7_25  and  C11_27 
REMARK    9  A    between atoms: C11_27  and  N8_28 
REMARK       I    between atoms: N8_28  and  C12_29 
REMARK   10  A    between atoms: N8_28  and  C14_34 
REMARK   11  A    between atoms: C12_29  and  C13_31 
REMARK   12  A    between atoms: C13_31  and  O4_32 
REMARK   13  A    between atoms: N10_40  and  N11_41 
REMARK   14  A    between atoms: N12_44  and  N13_45 
ROOT
HETATM    1  N3  UNL     1       4.589   1.756   0.914  1.00  0.00    -0.317 N 
HETATM    2  C5  UNL     1       4.478   2.916   0.222  1.00  0.00     0.186 A 
HETATM    3  N4  UNL     1       3.198   3.043  -0.169  1.00  0.00    -0.333 N 
ATOM      4  H4  UNL     1       2.818   3.820  -0.709  1.00  0.00     0.168 HD
HETATM    5  C6  UNL     1       2.504   1.985   0.265  1.00  0.00     0.191 A 
HETATM    6  C7  UNL     1       3.378   1.186   0.941  1.00  0.00     0.158 A 
HETATM    7  N5  UNL     1       2.848  -0.005   1.502  1.00  0.00    -0.334 N 
ATOM      8  H5  UNL     1       3.482  -0.619   2.013  1.00  0.00     0.168 HD
HETATM    9  C8  UNL     1       1.625  -0.352   1.405  1.00  0.00     0.210 A 
HETATM   10  N6  UNL     1       0.623   0.444   0.698  1.00  0.00    -0.235 N 
HETATM   11  N12 UNL     1       1.103   1.608   0.142  1.00  0.00    -0.175 N 
ENDROOT
BRANCH  10  12
HETATM   12  C9  UNL     1      -0.705   0.014   0.710  1.00  0.00     0.193 C 
BRANCH  12  13
HETATM   13  C10 UNL     1      -1.666   0.302  -0.329  1.00  0.00     0.260 C 
HETATM   14  O2  UNL     1      -1.552   0.894  -1.422  1.00  0.00    -0.267 OA
HETATM   15  N7  UNL     1      -3.019  -0.170  -0.084  1.00  0.00    -0.340 N 
ATOM     16  H7  UNL     1      -3.216  -0.662   0.787  1.00  0.00     0.164 HD
BRANCH  15  17
HETATM   17  C11 UNL     1      -4.083   0.028  -1.014  1.00  0.00     0.260 C 
BRANCH  17  18
HETATM   18  N8  UNL     1      -5.332  -0.502  -0.539  1.00  0.00    -0.282 N 
HETATM   19  C12 UNL     1      -5.670  -1.849  -0.830  1.00  0.00     0.250 C 
HETATM   20  O3  UNL     1      -6.771  -2.288  -0.426  1.00  0.00    -0.271 OA
BRANCH  19  21
HETATM   21  C13 UNL     1      -4.774  -2.730  -1.583  1.00  0.00     0.267 C 
BRANCH  21  22
HETATM   22  O4  UNL     1      -5.283  -4.008  -1.748  1.00  0.00    -0.392 OA
ATOM     23  H4  UNL     1      -4.702  -4.579  -2.236  1.00  0.00     0.210 HD
ENDBRANCH  21  22
ENDBRANCH  19  21
BRANCH  18  24
HETATM   24  C14 UNL     1      -6.219   0.334   0.210  1.00  0.00     0.153 A 
HETATM   25  C15 UNL     1      -5.978   0.935   1.437  1.00  0.00     0.143 A 
HETATM   26  N9  UNL     1      -7.069   1.629   1.795  1.00  0.00    -0.314 N 
HETATM   27  C16 UNL     1      -7.996   1.470   0.804  1.00  0.00     0.346 A 
ATOM     28  H9  UNL     1      -7.185   2.174   2.649  1.00  0.00     0.170 HD
HETATM   29  O5  UNL     1      -9.152   1.962   0.762  1.00  0.00    -0.245 OA
HETATM   30  N10 UNL     1      -7.472   0.688  -0.146  1.00  0.00    -0.194 N 
BRANCH  30  31
HETATM   31  N11 UNL     1      -8.082   0.265  -1.353  1.00  0.00    -0.333 N 
ATOM     32 2H11 UNL     1      -7.682  -0.331  -2.078  1.00  0.00     0.177 HD
ATOM     33 1H11 UNL     1      -9.029   0.532  -1.622  1.00  0.00     0.177 HD
ENDBRANCH  30  31
ENDBRANCH  18  24
ENDBRANCH  17  18
ENDBRANCH  15  17
ENDBRANCH  12  13
ENDBRANCH  10  12
BRANCH  11  34
HETATM   34  N13 UNL     1       0.303   2.543  -0.524  1.00  0.00    -0.322 N 
ATOM     35 2H13 UNL     1       0.659   3.406  -0.936  1.00  0.00     0.179 HD
ATOM     36 1H13 UNL     1      -0.678   2.279  -0.610  1.00  0.00     0.179 HD
ENDBRANCH  11  34
BRANCH   1  37
HETATM   37  C4  UNL     1       5.806   1.240   1.491  1.00  0.00     0.234 C 
BRANCH  37  38
HETATM   38  C3  UNL     1       6.481   0.445   0.397  1.00  0.00     0.235 C 
HETATM   39  N2  UNL     1       6.269  -0.926   0.217  1.00  0.00    -0.358 N 
ATOM     40  H2  UNL     1       5.631  -1.409   0.850  1.00  0.00     0.162 HD
HETATM   41  O1  UNL     1       7.262   1.088  -0.363  1.00  0.00    -0.272 OA
BRANCH  39  42
HETATM   42  C2  UNL     1       6.910  -1.679  -0.818  1.00  0.00     0.150 C 
BRANCH  42  43
HETATM   43  C1  UNL     1       8.399  -1.656  -0.653  1.00  0.00     0.249 C 
BRANCH  43  44
HETATM   44  N1  UNL     1       8.738  -2.236   0.650  1.00  0.00    -0.078 N 
ATOM     45  H13 UNL     1       8.253  -1.775   1.420  1.00  0.00     0.274 HD
ATOM     46  H12 UNL     1       8.346  -3.169   0.775  1.00  0.00     0.274 HD
ATOM     47  H11 UNL     1       9.752  -2.220   0.762  1.00  0.00     0.274 HD
ENDBRANCH  43  44
ENDBRANCH  42  43
ENDBRANCH  39  42
ENDBRANCH  37  38
ENDBRANCH   1  37
TORSDOF 14
