REMARK  13 active torsions:
REMARK  status: ('A' for Active; 'I' for Inactive)
REMARK    1  A    between atoms: C2_2  and  N1_3 
REMARK       I    between atoms: N1_3  and  C3_5 
REMARK    2  A    between atoms: C3_5  and  C4_7 
REMARK    3  A    between atoms: C4_7  and  N2_8 
REMARK    4  A    between atoms: N3_11  and  C6_12 
REMARK    5  A    between atoms: C6_12  and  C7_13 
REMARK    6  A    between atoms: N5_18  and  C9_19 
REMARK    7  A    between atoms: C9_19  and  C10_20 
REMARK    8  A    between atoms: C9_19  and  C13_27 
REMARK    9  A    between atoms: C10_20  and  O6_22 
REMARK   10  A    between atoms: O6_22  and  C11_23 
REMARK   11  A    between atoms: C11_23  and  C12_24 
REMARK   12  A    between atoms: C12_24  and  O7_25 
REMARK   13  A    between atoms: C14_30  and  N7_31 
ROOT
HETATM    1  C9  UNL     1      -1.496  -0.765  -0.978  1.00  0.00     0.267 C 
ENDROOT
BRANCH   1   2
HETATM    2  N5  UNL     1      -0.351  -0.019  -0.545  1.00  0.00    -0.229 N 
HETATM    3  C8  UNL     1       0.043   1.143  -1.075  1.00  0.00     0.338 A 
HETATM    4  N3  UNL     1       1.126   1.851  -0.681  1.00  0.00    -0.242 N 
HETATM    5  O4  UNL     1      -0.619   1.640  -2.010  1.00  0.00    -0.246 OA
HETATM    6  C5  UNL     1       1.848   1.335   0.319  1.00  0.00     0.337 A 
HETATM    7  N2  UNL     1       1.520   0.175   0.902  1.00  0.00    -0.242 N 
HETATM    8  O2  UNL     1       2.858   1.995   0.698  1.00  0.00    -0.246 OA
HETATM    9  C16 UNL     1       0.413  -0.488   0.454  1.00  0.00     0.338 A 
HETATM   10  O9  UNL     1       0.160  -1.559   1.030  1.00  0.00    -0.246 OA
BRANCH   4  11
HETATM   11  C6  UNL     1       1.451   3.119  -1.306  1.00  0.00     0.238 C 
BRANCH  11  12
HETATM   12  C7  UNL     1       0.720   4.237  -0.706  1.00  0.00     0.249 C 
HETATM   13  N4  UNL     1       0.046   5.166  -1.561  1.00  0.00    -0.061 NA
HETATM   14  O3  UNL     1       0.662   4.406   0.519  1.00  0.00    -0.275 OA
ENDBRANCH  11  12
ENDBRANCH   4  11
BRANCH   7  15
HETATM   15  C4  UNL     1       2.310  -0.441   1.959  1.00  0.00     0.241 C 
BRANCH  15  16
HETATM   16  C3  UNL     1       3.266  -1.422   1.350  1.00  0.00     0.236 C 
HETATM   17  N1  UNL     1       4.652  -1.176   1.226  1.00  0.00    -0.360 N 
ATOM     18  H1  UNL     1       5.065  -0.307   1.565  1.00  0.00     0.162 HD
HETATM   19  O1  UNL     1       2.833  -2.537   0.913  1.00  0.00    -0.272 OA
BRANCH  17  20
HETATM   20  C2  UNL     1       5.482  -2.217   0.591  1.00  0.00     0.118 C 
HETATM   21  C1  UNL     1       6.898  -1.757   0.600  1.00  0.00     0.026 C 
ENDBRANCH  17  20
ENDBRANCH  15  16
ENDBRANCH   7  15
ENDBRANCH   1   2
BRANCH   1  22
HETATM   22  C10 UNL     1      -1.992  -1.791  -0.023  1.00  0.00     0.290 C 
HETATM   23  O5  UNL     1      -1.830  -3.051  -0.281  1.00  0.00    -0.262 OA
BRANCH  22  24
HETATM   24  O6  UNL     1      -2.643  -1.534   1.168  1.00  0.00    -0.317 OA
BRANCH  24  25
HETATM   25  C11 UNL     1      -3.081  -2.625   1.992  1.00  0.00     0.204 C 
BRANCH  25  26
HETATM   26  C12 UNL     1      -3.744  -2.130   3.235  1.00  0.00     0.191 C 
BRANCH  26  27
HETATM   27  O7  UNL     1      -4.137  -3.245   3.991  1.00  0.00    -0.399 OA
ATOM     28  H7  UNL     1      -4.559  -2.930   4.782  1.00  0.00     0.209 HD
ENDBRANCH  26  27
ENDBRANCH  25  26
ENDBRANCH  24  25
ENDBRANCH  22  24
ENDBRANCH   1  22
BRANCH   1  29
HETATM   29  C13 UNL     1      -2.606   0.035  -1.535  1.00  0.00     0.135 A 
HETATM   30  N6  UNL     1      -2.867   0.094  -2.874  1.00  0.00    -0.178 N 
HETATM   31  C14 UNL     1      -3.866   0.810  -3.402  1.00  0.00     0.681 A 
ATOM     32  H6  UNL     1      -2.268  -0.437  -3.506  1.00  0.00     0.185 HD
HETATM   33  N8  UNL     1      -4.667   1.515  -2.603  1.00  0.00    -0.141 N 
HETATM   34  C15 UNL     1      -4.422   1.467  -1.264  1.00  0.00     0.340 A 
ATOM     35  H8  UNL     1      -5.435   2.070  -2.980  1.00  0.00     0.189 HD
HETATM   36  O8  UNL     1      -5.173   2.126  -0.523  1.00  0.00    -0.246 OA
HETATM   37  N9  UNL     1      -3.420   0.748  -0.744  1.00  0.00    -0.295 N 
ATOM     38  H9  UNL     1      -3.274   0.743   0.266  1.00  0.00     0.172 HD
BRANCH  31  39
HETATM   39  N7  UNL     1      -4.047   0.824  -4.678  1.00  0.00    -0.234 N 
ATOM     40  H72 UNL     1      -3.434   0.285  -5.289  1.00  0.00     0.174 HD
ATOM     41  H71 UNL     1      -4.809   1.370  -5.081  1.00  0.00     0.174 HD
ENDBRANCH  31  39
ENDBRANCH   1  29
TORSDOF 13
