REMARK  14 active torsions:
REMARK  status: ('A' for Active; 'I' for Inactive)
REMARK    1  A    between atoms: C2_2  and  N1_3 
REMARK    2  A    between atoms: C2_2  and  C3_7 
REMARK       I    between atoms: C3_7  and  N2_9 
REMARK    3  A    between atoms: N2_9  and  N3_11 
REMARK       I    between atoms: N3_11  and  C5_13 
REMARK    4  A    between atoms: C5_13  and  C6_15 
REMARK    5  A    between atoms: C6_15  and  O3_16 
REMARK    6  A    between atoms: O3_16  and  C7_17 
REMARK    7  A    between atoms: C7_17  and  C8_19 
REMARK       I    between atoms: N4_21  and  C10_22 
REMARK    8  A    between atoms: C10_22  and  C11_24 
REMARK    9  A    between atoms: C11_24  and  C12_25 
REMARK   10  A    between atoms: C12_25  and  N5_26 
REMARK   11  A    between atoms: C12_25  and  C15_41 
REMARK   12  A    between atoms: N5_26  and  C13_28 
REMARK   13  A    between atoms: C13_28  and  N6_29 
REMARK   14  A    between atoms: C13_28  and  C14_33 
ROOT
HETATM    1  C8  UNL     1       0.331   0.312   2.053  1.00  0.00     0.139 A 
HETATM    2  C9  UNL     1      -0.837   0.172   1.334  1.00  0.00     0.154 A 
HETATM    3  N4  UNL     1      -1.891  -0.048   2.170  1.00  0.00    -0.213 N 
HETATM    4  C10 UNL     1      -3.269  -0.211   1.791  1.00  0.00     0.263 C 
HETATM    5  O5  UNL     1      -4.062  -0.389   2.712  1.00  0.00    -0.267 OA
HETATM    6  N12 UNL     1      -1.350  -0.039   3.375  1.00  0.00    -0.012 NA
HETATM    7  N13 UNL     1      -0.041   0.172   3.324  1.00  0.00    -0.277 N 
ATOM      8  H13 UNL     1       0.582   0.219   4.131  1.00  0.00     0.184 HD
ENDROOT
BRANCH   4   9
HETATM    9  C11 UNL     1      -3.553  -0.143   0.389  1.00  0.00     0.083 C 
BRANCH   9  10
HETATM   10  C12 UNL     1      -4.894   0.045  -0.171  1.00  0.00     0.197 C 
BRANCH  10  11
HETATM   11  N5  UNL     1      -5.865  -0.936   0.173  1.00  0.00    -0.374 N 
ATOM     12  H5  UNL     1      -5.784  -1.892  -0.173  1.00  0.00     0.156 HD
BRANCH  11  13
HETATM   13  C13 UNL     1      -6.948  -0.557   1.008  1.00  0.00     0.349 C 
BRANCH  13  14
HETATM   14  N6  UNL     1      -7.714  -1.795   1.257  1.00  0.00    -0.051 N 
ATOM     15  H63 UNL     1      -8.004  -2.275   0.405  1.00  0.00     0.277 HD
ATOM     16  H62 UNL     1      -7.150  -2.555   1.639  1.00  0.00     0.277 HD
ATOM     17  H61 UNL     1      -8.492  -1.523   1.857  1.00  0.00     0.277 HD
ENDBRANCH  13  14
BRANCH  13  18
HETATM   18  C14 UNL     1      -7.871   0.423   0.384  1.00  0.00     0.160 A 
HETATM   19  N7  UNL     1      -7.627   1.539  -0.313  1.00  0.00    -0.267 N 
HETATM   20  N8  UNL     1      -8.771   2.106  -0.682  1.00  0.00    -0.005 NA
ATOM     21  H7  UNL     1      -6.699   1.902  -0.529  1.00  0.00     0.185 HD
HETATM   22  N9  UNL     1      -9.776   1.361  -0.222  1.00  0.00    -0.225 N 
HETATM   23  N10 UNL     1      -9.226   0.349   0.419  1.00  0.00    -0.272 N 
ATOM     24  H9  UNL     1     -10.773   1.539  -0.342  1.00  0.00     0.205 HD
ATOM     25  H10 UNL     1      -9.751  -0.394   0.881  1.00  0.00     0.189 HD
ENDBRANCH  13  18
ENDBRANCH  11  13
ENDBRANCH  10  11
BRANCH  10  26
HETATM   26  C15 UNL     1      -4.792   0.092  -1.647  1.00  0.00     0.257 C 
HETATM   27  N11 UNL     1      -3.942   1.000  -2.290  1.00  0.00    -0.060 NA
HETATM   28  O6  UNL     1      -5.483  -0.692  -2.332  1.00  0.00    -0.274 OA
ENDBRANCH  10  26
ENDBRANCH   9  10
ENDBRANCH   4   9
BRANCH   1  29
HETATM   29  C7  UNL     1       1.632   0.579   1.445  1.00  0.00     0.312 C 
HETATM   30  O4  UNL     1       2.682   0.735   2.139  1.00  0.00    -0.258 OA
BRANCH  29  31
HETATM   31  O3  UNL     1       1.773   0.677   0.074  1.00  0.00    -0.307 OA
BRANCH  31  32
HETATM   32  C6  UNL     1       2.906   0.942  -0.662  1.00  0.00     0.283 C 
BRANCH  32  33
HETATM   33  C5  UNL     1       4.052   0.045  -0.517  1.00  0.00     0.262 C 
HETATM   34  N3  UNL     1       5.210   0.287  -1.300  1.00  0.00    -0.261 N 
HETATM   35  C4  UNL     1       5.230   1.379  -2.251  1.00  0.00     0.181 C 
HETATM   36  O2  UNL     1       4.074  -0.940   0.271  1.00  0.00    -0.269 OA
BRANCH  34  37
HETATM   37  N2  UNL     1       6.343  -0.508  -1.187  1.00  0.00    -0.264 N 
HETATM   38  C3  UNL     1       7.049  -0.550   0.047  1.00  0.00     0.266 C 
HETATM   39  O1  UNL     1       6.643   0.140   1.036  1.00  0.00    -0.269 OA
ATOM     40  H2  UNL     1       6.666  -1.058  -1.983  1.00  0.00     0.190 HD
BRANCH  38  41
HETATM   41  C2  UNL     1       8.246  -1.386   0.177  1.00  0.00     0.272 C 
HETATM   42  C1  UNL     1       9.437  -0.488   0.452  1.00  0.00     0.050 C 
BRANCH  41  43
HETATM   43  N1  UNL     1       8.493  -2.135  -1.035  1.00  0.00    -0.067 N 
ATOM     44  H13 UNL     1       8.716  -1.531  -1.826  1.00  0.00     0.275 HD
ATOM     45  H12 UNL     1       9.371  -2.653  -1.000  1.00  0.00     0.275 HD
ATOM     46  H11 UNL     1       7.692  -2.739  -1.220  1.00  0.00     0.275 HD
ENDBRANCH  41  43
ENDBRANCH  38  41
ENDBRANCH  34  37
ENDBRANCH  32  33
ENDBRANCH  31  32
ENDBRANCH  29  31
ENDBRANCH   1  29
TORSDOF 14
