REMARK  16 active torsions:
REMARK  status: ('A' for Active; 'I' for Inactive)
REMARK    1  A    between atoms: N1_1  and  N2_4 
REMARK    2  A    between atoms: N2_4  and  S1_6 
REMARK    3  A    between atoms: S1_6  and  O3_9 
REMARK    4  A    between atoms: O3_9  and  C1_10 
REMARK    5  A    between atoms: N3_13  and  C3_14 
REMARK    6  A    between atoms: C3_14  and  C4_15 
REMARK    7  A    between atoms: N4_17  and  C6_18 
REMARK    8  A    between atoms: C6_18  and  C7_19 
REMARK    9  A    between atoms: C7_19  and  N5_20 
REMARK   10  A    between atoms: N5_20  and  C8_22 
REMARK   11  A    between atoms: C11_29  and  N8_30 
REMARK   12  A    between atoms: N8_30  and  C12_32 
REMARK   13  A    between atoms: C12_32  and  C13_33 
REMARK   14  A    between atoms: C13_33  and  O5_34 
REMARK   15  A    between atoms: C14_41  and  C15_42 
REMARK   16  A    between atoms: C15_42  and  O7_43 
ROOT
HETATM    1  C4  UNL     1       0.382   0.752   0.007  1.00  0.00     0.064 A 
HETATM    2  C5  UNL     1      -0.254   1.136   1.191  1.00  0.00     0.140 A 
HETATM    3  N4  UNL     1      -1.240   0.233   1.456  1.00  0.00    -0.286 N 
HETATM    4  N9  UNL     1      -1.195  -0.639   0.483  1.00  0.00    -0.241 N 
ATOM      5  H9  UNL     1      -1.820  -1.441   0.407  1.00  0.00     0.208 HD
HETATM    6  N10 UNL     1      -0.252  -0.360  -0.382  1.00  0.00    -0.287 N 
ATOM      7  H10 UNL     1      -0.036  -0.903  -1.218  1.00  0.00     0.188 HD
ENDROOT
BRANCH   1   8
HETATM    8  C3  UNL     1       1.508   1.442  -0.655  1.00  0.00     0.219 C 
BRANCH   8   9
HETATM    9  N3  UNL     1       2.802   0.960  -0.211  1.00  0.00    -0.217 N 
HETATM   10  C2  UNL     1       3.555  -0.112  -0.784  1.00  0.00     0.277 C 
HETATM   11  C1  UNL     1       4.887  -0.012  -0.064  1.00  0.00     0.271 C 
HETATM   12  O4  UNL     1       3.207  -0.922  -1.654  1.00  0.00    -0.268 OA
HETATM   13  C14 UNL     1       4.328   0.496   1.247  1.00  0.00     0.215 C 
HETATM   14  O6  UNL     1       3.475   1.488   0.838  1.00  0.00    -0.264 OA
BRANCH  11  15
HETATM   15  O3  UNL     1       5.589   0.911  -0.774  1.00  0.00    -0.240 OA
BRANCH  15  16
HETATM   16  S1  UNL     1       7.033   0.454  -1.391  1.00  0.00     0.375 S 
HETATM   17  O1  UNL     1       8.207   1.208  -0.836  1.00  0.00    -0.174 OA
HETATM   18  O2  UNL     1       7.022   0.794  -2.880  1.00  0.00    -0.174 OA
BRANCH  16  19
HETATM   19  N2  UNL     1       7.310  -1.261  -1.320  1.00  0.00    -0.211 N 
ATOM     20  H2  UNL     1       7.045  -1.916  -2.056  1.00  0.00     0.201 HD
BRANCH  19  21
HETATM   21  N1  UNL     1       7.937  -1.628  -0.135  1.00  0.00    -0.334 N 
ATOM     22  H12 UNL     1       8.196  -0.962   0.593  1.00  0.00     0.177 HD
ATOM     23  H11 UNL     1       8.100  -2.634  -0.093  1.00  0.00     0.177 HD
ENDBRANCH  19  21
ENDBRANCH  16  19
ENDBRANCH  15  16
ENDBRANCH  11  15
BRANCH  13  24
HETATM   24  C15 UNL     1       3.473  -0.625   1.845  1.00  0.00     0.201 C 
BRANCH  24  25
HETATM   25  O7  UNL     1       4.314  -1.639   2.265  1.00  0.00    -0.398 OA
ATOM     26  H7  UNL     1       3.784  -2.334   2.636  1.00  0.00     0.209 HD
ENDBRANCH  24  25
ENDBRANCH  13  24
ENDBRANCH   8   9
ENDBRANCH   1   8
BRANCH   3  27
HETATM   27  C6  UNL     1      -2.159   0.221   2.575  1.00  0.00     0.169 C 
BRANCH  27  28
HETATM   28  C7  UNL     1      -3.395   1.009   2.186  1.00  0.00     0.143 C 
BRANCH  28  29
HETATM   29  N5  UNL     1      -4.056   0.465   1.059  1.00  0.00    -0.372 N 
ATOM     30  H5  UNL     1      -4.553  -0.412   1.218  1.00  0.00     0.161 HD
BRANCH  29  31
HETATM   31  C8  UNL     1      -4.112   0.923  -0.120  1.00  0.00     0.145 A 
HETATM   32  N6  UNL     1      -3.513   2.066  -0.497  1.00  0.00    -0.348 N 
HETATM   33  C9  UNL     1      -3.578   2.555  -1.760  1.00  0.00     0.107 A 
ATOM     34  H6  UNL     1      -2.984   2.590   0.200  1.00  0.00     0.167 HD
HETATM   35  C10 UNL     1      -4.282   1.856  -2.687  1.00  0.00     0.107 A 
HETATM   36  N7  UNL     1      -4.895   0.717  -2.365  1.00  0.00    -0.348 N 
HETATM   37  C11 UNL     1      -4.830   0.227  -1.100  1.00  0.00     0.145 A 
ATOM     38  H7  UNL     1      -5.419   0.208  -3.077  1.00  0.00     0.167 HD
BRANCH  37  39
HETATM   39  N8  UNL     1      -5.433  -0.858  -0.864  1.00  0.00    -0.371 N 
ATOM     40  H8  UNL     1      -5.913  -1.251  -1.674  1.00  0.00     0.161 HD
BRANCH  39  41
HETATM   41  C12 UNL     1      -5.566  -1.625   0.309  1.00  0.00     0.147 C 
BRANCH  41  42
HETATM   42  C13 UNL     1      -6.417  -2.853  -0.023  1.00  0.00     0.183 C 
BRANCH  42  43
HETATM   43  O5  UNL     1      -6.579  -3.646   1.104  1.00  0.00    -0.399 OA
ATOM     44  H5  UNL     1      -7.107  -4.408   0.898  1.00  0.00     0.209 HD
ENDBRANCH  42  43
ENDBRANCH  41  42
ENDBRANCH  39  41
ENDBRANCH  37  39
ENDBRANCH  29  31
ENDBRANCH  28  29
ENDBRANCH  27  28
ENDBRANCH   3  27
TORSDOF 16
