REMARK  16 active torsions:
REMARK  status: ('A' for Active; 'I' for Inactive)
REMARK    1  A    between atoms: C2_2  and  C3_3 
REMARK    2  A    between atoms: C4_4  and  C5_5 
REMARK    3  A    between atoms: C5_5  and  C6_6 
REMARK    4  A    between atoms: C6_6  and  C7_7 
REMARK    5  A    between atoms: C7_7  and  O1_8 
REMARK    6  A    between atoms: C7_7  and  N1_10 
REMARK    7  A    between atoms: N1_10  and  C8_12 
REMARK    8  A    between atoms: C9_15  and  N3_16 
REMARK    9  A    between atoms: N3_16  and  C10_17 
REMARK   10  A    between atoms: N3_16  and  C16_24 
REMARK   11  A    between atoms: C10_17  and  C11_18 
REMARK   12  A    between atoms: C11_18  and  N4_19 
REMARK   13  A    between atoms: N4_19  and  C12_20 
REMARK   14  A    between atoms: N4_19  and  C14_22 
REMARK   15  A    between atoms: C21_30  and  N5_31 
REMARK   16  A    between atoms: N5_31  and  C22_33 
ROOT
HETATM    1  C8  UNL     1       1.006   0.538  -0.290  1.00  0.00     0.687 A 
HETATM    2  N2  UNL     1      -0.084  -0.244  -0.027  1.00  0.00    -0.176 N 
ATOM      3  H2  UNL     1      -0.107  -1.194  -0.398  1.00  0.00     0.186 HD
HETATM    4  C9  UNL     1      -1.120   0.189   0.697  1.00  0.00     0.127 A 
HETATM    5  C20 UNL     1      -1.053   1.466   1.176  1.00  0.00     0.098 A 
HETATM    6  C21 UNL     1       0.063   2.277   0.913  1.00  0.00     0.126 A 
HETATM    7  N8  UNL     1       1.075   1.808   0.186  1.00  0.00    -0.176 N 
ATOM      8  H8  UNL     1       1.888   2.392  -0.010  1.00  0.00     0.186 HD
ENDROOT
BRANCH   1   9
HETATM    9  N1  UNL     1       2.002   0.136  -0.980  1.00  0.00    -0.170 N 
ATOM     10  H1  UNL     1       2.752   0.816  -1.105  1.00  0.00     0.186 HD
BRANCH   9  11
HETATM   11  C7  UNL     1       2.207  -1.094  -1.582  1.00  0.00     0.155 C 
BRANCH  11  12
HETATM   12  C6  UNL     1       3.405  -1.834  -1.778  1.00  0.00     0.057 C 
BRANCH  12  13
HETATM   13  C5  UNL     1       4.640  -1.683  -1.523  1.00  0.00     0.019 C 
BRANCH  13  14
HETATM   14  C4  UNL     1       5.505  -0.719  -0.920  1.00  0.00     0.005 A 
HETATM   15  C3  UNL     1       6.887  -0.881  -0.661  1.00  0.00     0.039 A 
HETATM   16  N10 UNL     1       7.384   0.224  -0.125  1.00  0.00    -0.300 N 
HETATM   17  N9  UNL     1       6.420   1.079  -0.025  1.00  0.00    -0.309 N 
HETATM   18  C27 UNL     1       8.754   0.426   0.271  1.00  0.00     0.177 C 
HETATM   19  C26 UNL     1       5.251   0.546  -0.499  1.00  0.00     0.120 A 
ATOM     20  H9  UNL     1       6.517   2.021   0.355  1.00  0.00     0.186 HD
BRANCH  15  21
HETATM   21  C2  UNL     1       7.616  -2.139  -0.962  1.00  0.00     0.055 C 
HETATM   22  C1  UNL     1       7.281  -3.183   0.089  1.00  0.00     0.011 C 
ENDBRANCH  15  21
ENDBRANCH  13  14
ENDBRANCH  12  13
ENDBRANCH  11  12
BRANCH  11  23
HETATM   23  O1  UNL     1       1.122  -1.667  -2.045  1.00  0.00    -0.346 OA
ATOM     24  H1  UNL     1       0.321  -1.173  -1.914  1.00  0.00     0.219 HD
ENDBRANCH  11  23
ENDBRANCH   9  11
ENDBRANCH   1   9
BRANCH   4  25
HETATM   25  N3  UNL     1      -2.252  -0.697   0.910  1.00  0.00    -0.338 N 
BRANCH  25  26
HETATM   26  C10 UNL     1      -2.187  -1.911   0.123  1.00  0.00     0.160 C 
BRANCH  26  27
HETATM   27  C11 UNL     1      -3.124  -2.084  -0.989  1.00  0.00     0.292 C 
BRANCH  27  28
HETATM   28  N4  UNL     1      -4.546  -2.211  -0.618  1.00  0.00     0.089 N 
BRANCH  28  29
HETATM   29  C12 UNL     1      -5.313  -2.032  -1.878  1.00  0.00     0.268 C 
HETATM   30  C13 UNL     1      -6.782  -2.005  -1.692  1.00  0.00     0.037 C 
ENDBRANCH  28  29
BRANCH  28  31
HETATM   31  C14 UNL     1      -4.660  -3.636  -0.253  1.00  0.00     0.268 C 
HETATM   32  C15 UNL     1      -5.984  -4.043   0.276  1.00  0.00     0.037 C 
ENDBRANCH  28  31
ENDBRANCH  27  28
ENDBRANCH  26  27
ENDBRANCH  25  26
BRANCH  25  33
HETATM   33  C16 UNL     1      -3.293  -0.316   1.827  1.00  0.00     0.001 C 
HETATM   34  C17 UNL     1      -3.731  -1.348   2.798  1.00  0.00     0.063 C 
HETATM   35  C18 UNL     1      -5.046  -1.092   3.385  1.00  0.00     0.080 C 
HETATM   36  S1  UNL     1      -5.889  -0.055   2.167  1.00  0.00    -0.163 SA
HETATM   37  C19 UNL     1      -4.372   0.546   1.337  1.00  0.00     0.126 C 
ENDBRANCH  25  33
ENDBRANCH   4  25
BRANCH   6  38
HETATM   38  N5  UNL     1       0.135   3.598   1.416  1.00  0.00    -0.327 N 
ATOM     39  H5  UNL     1       0.016   3.734   2.420  1.00  0.00     0.169 HD
BRANCH  38  40
HETATM   40  C22 UNL     1       0.339   4.630   0.694  1.00  0.00     0.123 A 
HETATM   41  C23 UNL     1       0.412   5.923   1.157  1.00  0.00     0.075 A 
HETATM   42  C24 UNL     1       0.646   6.751   0.078  1.00  0.00     0.025 A 
HETATM   43  C25 UNL     1       0.799   8.236   0.114  1.00  0.00     0.070 C 
HETATM   44  N6  UNL     1       0.713   5.970  -1.004  1.00  0.00    -0.304 N 
HETATM   45  N7  UNL     1       0.530   4.707  -0.633  1.00  0.00    -0.285 N 
ATOM     46  H6  UNL     1       0.878   6.291  -1.958  1.00  0.00     0.186 HD
ATOM     47  H7  UNL     1       0.534   3.908  -1.267  1.00  0.00     0.188 HD
ENDBRANCH  38  40
ENDBRANCH   6  38
TORSDOF 16
