REMARK  16 active torsions:
REMARK  status: ('A' for Active; 'I' for Inactive)
REMARK       I    between atoms: C1_4  and  N3_6 
REMARK    1  A    between atoms: N3_6  and  C2_8 
REMARK    2  A    between atoms: C2_8  and  C10_45 
REMARK    3  A    between atoms: N4_9  and  S1_11 
REMARK    4  A    between atoms: S1_11  and  C3_14 
REMARK    5  A    between atoms: C5_16  and  S2_17 
REMARK    6  A    between atoms: S2_17  and  N5_18 
REMARK    7  A    between atoms: C7_27  and  S3_28 
REMARK    8  A    between atoms: S3_28  and  N7_29 
REMARK    9  A    between atoms: S3_28  and  O6_32 
REMARK   10  A    between atoms: S3_28  and  O7_34 
REMARK   11  A    between atoms: S3_28  and  S4_36 
REMARK   12  A    between atoms: S4_36  and  C8_37 
REMARK   13  A    between atoms: C8_37  and  C9_38 
REMARK       I    between atoms: C9_38  and  N8_40 
REMARK   14  A    between atoms: N8_40  and  N9_42 
REMARK   15  A    between atoms: C10_45  and  N10_46 
REMARK   16  A    between atoms: C10_45  and  C11_50 
ROOT
HETATM    1  C3  UNL     1       0.198  -1.505  -0.334  1.00  0.00     0.119 A 
HETATM    2  C4  UNL     1       0.365  -2.882  -0.355  1.00  0.00     0.059 A 
HETATM    3  C5  UNL     1       1.621  -3.357  -0.115  1.00  0.00     0.148 A 
HETATM    4  C6  UNL     1       2.699  -2.555   0.141  1.00  0.00     0.269 A 
HETATM    5  O5  UNL     1       3.835  -3.051   0.354  1.00  0.00    -0.266 OA
HETATM    6  N6  UNL     1       2.496  -1.244   0.153  1.00  0.00    -0.312 N 
ATOM      7  H6  UNL     1       3.285  -0.625   0.342  1.00  0.00     0.170 HD
HETATM    8  C7  UNL     1       1.281  -0.700  -0.076  1.00  0.00     0.141 A 
ENDROOT
BRANCH   1   9
HETATM    9  S1  UNL     1      -1.348  -0.871  -0.695  1.00  0.00     0.267 S 
HETATM   10  O1  UNL     1      -1.307  -0.288  -2.083  1.00  0.00    -0.200 OA
HETATM   11  O2  UNL     1      -2.305  -2.071  -0.916  1.00  0.00    -0.200 OA
BRANCH   9  12
HETATM   12  N4  UNL     1      -2.083   0.212   0.302  1.00  0.00    -0.267 N 
HETATM   13  C2  UNL     1      -3.202   0.735   0.129  1.00  0.00     0.133 C 
ATOM     14  H4  UNL     1      -1.574   0.482   1.144  1.00  0.00     0.180 HD
BRANCH  13  15
HETATM   15  N3  UNL     1      -3.651   1.668   1.146  1.00  0.00    -0.318 N 
HETATM   16  C1  UNL     1      -4.474   1.234   2.216  1.00  0.00     0.187 C 
HETATM   17  N1  UNL     1      -4.264   0.082   2.755  1.00  0.00    -0.373 N 
HETATM   18  N2  UNL     1      -5.513   2.072   2.678  1.00  0.00    -0.064 NA
ATOM     19  H12 UNL     1      -4.856  -0.230   3.525  1.00  0.00     0.158 HD
ATOM     20  H11 UNL     1      -3.514  -0.523   2.421  1.00  0.00     0.158 HD
ATOM     21  H3  UNL     1      -3.371   2.647   1.090  1.00  0.00     0.169 HD
ENDBRANCH  13  15
BRANCH  13  22
HETATM   22  C10 UNL     1      -4.088   0.486  -1.004  1.00  0.00     0.339 C 
BRANCH  22  23
HETATM   23  N10 UNL     1      -5.340  -0.044  -0.471  1.00  0.00    -0.060 N 
ATOM     24 3H10 UNL     1      -5.206  -0.866   0.118  1.00  0.00     0.275 HD
ATOM     25 2H10 UNL     1      -5.759   0.559   0.237  1.00  0.00     0.275 HD
ATOM     26 1H10 UNL     1      -5.959  -0.218  -1.263  1.00  0.00     0.275 HD
ENDBRANCH  22  23
BRANCH  22  27
HETATM   27  C11 UNL     1      -4.417   1.768  -1.717  1.00  0.00     0.269 C 
HETATM   28  N11 UNL     1      -5.739   2.268  -1.790  1.00  0.00    -0.060 NA
HETATM   29  O9  UNL     1      -3.489   2.401  -2.257  1.00  0.00    -0.274 OA
ENDBRANCH  22  27
ENDBRANCH  13  22
ENDBRANCH   9  12
ENDBRANCH   1   9
BRANCH   8  30
HETATM   30  S3  UNL     1       1.172   1.219   0.028  1.00  0.00     0.058 SA
BRANCH  30  31
HETATM   31  N7  UNL     1       0.853   0.957   1.781  1.00  0.00    -0.349 N 
ATOM     32  H72 UNL     1       0.771   0.159   2.411  1.00  0.00     0.167 HD
ATOM     33  H71 UNL     1       0.795   1.974   1.836  1.00  0.00     0.167 HD
ENDBRANCH  30  31
BRANCH  30  34
HETATM   34  O6  UNL     1       0.873   1.249  -1.535  1.00  0.00    -0.310 OA
ATOM     35  H6  UNL     1       0.819   2.196  -1.484  1.00  0.00     0.230 HD
ENDBRANCH  30  34
BRANCH  30  36
HETATM   36  O7  UNL     1       0.354   2.524   0.111  1.00  0.00    -0.310 OA
ATOM     37  H7  UNL     1       0.300   3.471   0.162  1.00  0.00     0.230 HD
ENDBRANCH  30  36
BRANCH  30  38
HETATM   38  S4  UNL     1       3.063   1.955   0.415  1.00  0.00    -0.045 SA
BRANCH  38  39
HETATM   39  C8  UNL     1       4.296   1.722  -0.622  1.00  0.00     0.194 C 
BRANCH  39  40
HETATM   40  C9  UNL     1       5.571   2.349  -0.103  1.00  0.00     0.245 C 
HETATM   41  O8  UNL     1       5.630   2.957   0.982  1.00  0.00    -0.271 OA
HETATM   42  N8  UNL     1       6.764   2.248  -0.878  1.00  0.00    -0.276 N 
ATOM     43  H8  UNL     1       6.736   1.754  -1.770  1.00  0.00     0.189 HD
BRANCH  42  44
HETATM   44  N9  UNL     1       7.969   2.806  -0.449  1.00  0.00    -0.343 N 
ATOM     45  H92 UNL     1       7.980   3.296   0.445  1.00  0.00     0.176 HD
ATOM     46  H91 UNL     1       8.822   2.734  -1.003  1.00  0.00     0.176 HD
ENDBRANCH  42  44
ENDBRANCH  39  40
ENDBRANCH  38  39
ENDBRANCH  30  38
ENDBRANCH   8  30
BRANCH   3  47
HETATM   47  S2  UNL     1       1.855  -5.084  -0.135  1.00  0.00     0.262 S 
HETATM   48  O3  UNL     1       2.757  -5.507  -1.259  1.00  0.00    -0.201 OA
HETATM   49  O4  UNL     1       0.536  -5.754  -0.367  1.00  0.00    -0.201 OA
BRANCH  47  50
HETATM   50  N5  UNL     1       2.440  -5.660   1.388  1.00  0.00    -0.324 N 
ATOM     51  H52 UNL     1       2.620  -5.053   2.187  1.00  0.00     0.169 HD
ATOM     52  H51 UNL     1       2.577  -6.671   1.376  1.00  0.00     0.169 HD
ENDBRANCH  47  50
ENDBRANCH   3  47
TORSDOF 16
