REMARK  12 active torsions:
REMARK  status: ('A' for Active; 'I' for Inactive)
REMARK    1  A    between atoms: N2_5  and  C3_6 
REMARK    2  A    between atoms: C3_6  and  C4_7 
REMARK       I    between atoms: C4_7  and  N3_9 
REMARK    3  A    between atoms: N3_9  and  N4_11 
REMARK       I    between atoms: N4_11  and  C5_13 
REMARK    4  A    between atoms: C12_32  and  C13_33 
REMARK    5  A    between atoms: C13_33  and  O4_34 
REMARK    6  A    between atoms: C13_33  and  C14_36 
REMARK    7  A    between atoms: C14_36  and  N10_37 
REMARK    8  A    between atoms: N10_37  and  S2_39 
REMARK    9  A    between atoms: S2_39  and  N11_42 
REMARK   10  A    between atoms: C15_44  and  C16_46 
REMARK   11  A    between atoms: C16_46  and  N13_47 
REMARK   12  A    between atoms: C16_46  and  O7_51 
ROOT
HETATM    1  C1  UNL     1       2.419   2.176  -1.781  1.00  0.00     0.161 C 
HETATM    2  N1  UNL     1       2.813   0.844  -1.396  1.00  0.00    -0.300 N 
HETATM    3  C2  UNL     1       4.108   0.442  -1.480  1.00  0.00     0.332 A 
HETATM    4  O1  UNL     1       4.947   1.273  -1.904  1.00  0.00    -0.246 OA
HETATM    5  N2  UNL     1       4.576  -0.765  -1.151  1.00  0.00    -0.256 N 
HETATM    6  C6  UNL     1       3.743  -1.701  -0.690  1.00  0.00     0.267 A 
HETATM    7  O3  UNL     1       4.086  -2.861  -0.354  1.00  0.00    -0.267 OA
HETATM    8  C7  UNL     1       2.420  -1.374  -0.577  1.00  0.00     0.100 A 
HETATM    9  C8  UNL     1       1.485  -2.273  -0.126  1.00  0.00     0.120 A 
HETATM   10  S1  UNL     1       1.983  -3.775   0.301  1.00  0.00    -0.059 SA
HETATM   11  N7  UNL     1       0.181  -1.979  -0.020  1.00  0.00    -0.331 N 
ATOM     12  H7  UNL     1      -0.476  -2.681   0.320  1.00  0.00     0.168 HD
HETATM   13  C9  UNL     1      -0.259  -0.746  -0.366  1.00  0.00     0.135 A 
HETATM   14  C10 UNL     1       0.626   0.212  -0.825  1.00  0.00     0.120 A 
HETATM   15  C11 UNL     1       1.959  -0.095  -0.933  1.00  0.00     0.089 A 
HETATM   16  N8  UNL     1       0.195   1.376  -1.091  1.00  0.00    -0.297 N 
ATOM     17  H8  UNL     1       0.853   2.078  -1.431  1.00  0.00     0.187 HD
HETATM   18  N9  UNL     1      -1.134   1.728  -0.937  1.00  0.00    -0.310 N 
ATOM     19  H9  UNL     1      -1.408   2.704  -1.051  1.00  0.00     0.182 HD
HETATM   20  C12 UNL     1      -2.134   0.751  -0.620  1.00  0.00     0.229 C 
HETATM   21  N14 UNL     1      -1.507  -0.500  -0.286  1.00  0.00    -0.350 N 
ATOM     22  H14 UNL     1      -2.112  -1.253   0.042  1.00  0.00     0.163 HD
ENDROOT
BRANCH  20  23
HETATM   23  C13 UNL     1      -2.969   1.197   0.578  1.00  0.00     0.180 C 
BRANCH  23  24
HETATM   24  O4  UNL     1      -3.602   2.417   0.249  1.00  0.00    -0.390 OA
ATOM     25  H4  UNL     1      -4.122   2.694   0.994  1.00  0.00     0.210 HD
ENDBRANCH  23  24
BRANCH  23  26
HETATM   26  C14 UNL     1      -3.994   0.119   0.835  1.00  0.00     0.169 C 
BRANCH  26  27
HETATM   27  N10 UNL     1      -4.915   0.439   1.876  1.00  0.00    -0.300 N 
ATOM     28  H10 UNL     1      -4.896   1.312   2.403  1.00  0.00     0.173 HD
BRANCH  27  29
HETATM   29  S2  UNL     1      -6.066  -0.821   2.141  1.00  0.00     0.320 S 
HETATM   30  O5  UNL     1      -6.800  -0.590   3.454  1.00  0.00    -0.182 OA
HETATM   31  O6  UNL     1      -5.381  -2.151   2.242  1.00  0.00    -0.182 OA
BRANCH  29  32
HETATM   32  N11 UNL     1      -7.208  -0.811   0.882  1.00  0.00    -0.255 N 
HETATM   33  C15 UNL     1      -8.093   0.061   0.659  1.00  0.00     0.160 C 
HETATM   34  N12 UNL     1      -8.319   1.232   1.427  1.00  0.00    -0.082 NA
ATOM     35  H11 UNL     1      -7.174  -1.598   0.234  1.00  0.00     0.181 HD
BRANCH  33  36
HETATM   36  C16 UNL     1      -8.996  -0.132  -0.526  1.00  0.00     0.382 C 
BRANCH  36  37
HETATM   37  N13 UNL     1      -8.828   0.975  -1.431  1.00  0.00    -0.046 N 
ATOM     38 3H13 UNL     1      -8.974   1.875  -0.974  1.00  0.00     0.277 HD
ATOM     39 2H13 UNL     1      -7.854   1.109  -1.703  1.00  0.00     0.277 HD
ATOM     40 1H13 UNL     1      -9.441   0.844  -2.236  1.00  0.00     0.277 HD
ENDBRANCH  36  37
BRANCH  36  41
HETATM   41  O7  UNL     1     -10.291  -0.269  -0.046  1.00  0.00    -0.365 OA
ATOM     42  H7  UNL     1     -10.862  -0.391  -0.795  1.00  0.00     0.212 HD
ENDBRANCH  36  41
ENDBRANCH  33  36
ENDBRANCH  29  32
ENDBRANCH  27  29
ENDBRANCH  26  27
ENDBRANCH  23  26
ENDBRANCH  20  23
BRANCH   5  43
HETATM   43  C3  UNL     1       5.975  -1.136  -1.288  1.00  0.00     0.241 C 
BRANCH  43  44
HETATM   44  C4  UNL     1       6.787  -0.841  -0.095  1.00  0.00     0.254 C 
HETATM   45  O2  UNL     1       6.274  -0.290   0.893  1.00  0.00    -0.270 OA
HETATM   46  N3  UNL     1       8.157  -1.184  -0.060  1.00  0.00    -0.266 N 
ATOM     47  H3  UNL     1       8.547  -1.636  -0.887  1.00  0.00     0.190 HD
BRANCH  46  48
HETATM   48  N4  UNL     1       9.012  -0.957   1.002  1.00  0.00    -0.271 N 
HETATM   49  C5  UNL     1       9.328   0.359   1.398  1.00  0.00     0.200 C 
HETATM   50  N5  UNL     1       9.331   0.640   2.654  1.00  0.00    -0.372 N 
HETATM   51  N6  UNL     1       9.644   1.394   0.481  1.00  0.00    -0.062 NA
ATOM     52  H52 UNL     1       9.104  -0.104   3.313  1.00  0.00     0.158 HD
ATOM     53  H51 UNL     1       9.560   1.592   2.940  1.00  0.00     0.158 HD
ATOM     54  H4  UNL     1       9.418  -1.747   1.503  1.00  0.00     0.189 HD
ENDBRANCH  46  48
ENDBRANCH  43  44
ENDBRANCH   5  43
TORSDOF 12
