REMARK  12 active torsions:
REMARK  status: ('A' for Active; 'I' for Inactive)
REMARK    1  A    between atoms: C1_2  and  C2_4 
REMARK    2  A    between atoms: C4_6  and  N2_7 
REMARK    3  A    between atoms: C6_12  and  O2_13 
REMARK    4  A    between atoms: C9_20  and  C10_21 
REMARK       I    between atoms: C10_21  and  N5_23 
REMARK    5  A    between atoms: N5_23  and  N6_25 
REMARK    6  A    between atoms: N6_25  and  C11_27 
REMARK    7  A    between atoms: C13_32  and  C14_33 
REMARK    8  A    between atoms: C14_33  and  O6_34 
REMARK    9  A    between atoms: C14_33  and  O7_36 
REMARK   10  A    between atoms: C16_43  and  O9_44 
REMARK   11  A    between atoms: C16_43  and  C17_46 
REMARK   12  A    between atoms: C17_46  and  C18_48 
ROOT
HETATM    1  C2  UNL     1      -2.782   0.668   0.828  1.00  0.00     0.178 C 
HETATM    2  C3  UNL     1      -3.363  -0.439  -0.084  1.00  0.00     0.063 C 
HETATM    3  C4  UNL     1      -2.139  -0.736  -0.954  1.00  0.00     0.134 C 
HETATM    4  C9  UNL     1      -1.210   0.442  -0.782  1.00  0.00     0.204 C 
HETATM    5  N9  UNL     1      -2.053   1.372  -0.062  1.00  0.00    -0.330 N 
HETATM    6  C16 UNL     1      -1.855   2.700  -0.281  1.00  0.00     0.189 C 
ENDROOT
BRANCH   4   7
HETATM    7  C10 UNL     1      -0.018   0.181   0.028  1.00  0.00     0.261 C 
HETATM    8  O4  UNL     1       0.160   0.746   1.165  1.00  0.00    -0.269 OA
HETATM    9  N5  UNL     1       1.002  -0.705  -0.393  1.00  0.00    -0.270 N 
ATOM     10  H5  UNL     1       0.932  -1.188  -1.289  1.00  0.00     0.189 HD
BRANCH   9  11
HETATM   11  N6  UNL     1       2.091  -0.905   0.426  1.00  0.00    -0.301 N 
ATOM     12  H6  UNL     1       2.323  -0.267   1.188  1.00  0.00     0.183 HD
BRANCH  11  13
HETATM   13  C11 UNL     1       2.875  -2.066   0.138  1.00  0.00     0.293 C 
HETATM   14  N7  UNL     1       3.449  -1.948  -1.185  1.00  0.00    -0.329 N 
HETATM   15  C12 UNL     1       4.812  -1.544  -1.329  1.00  0.00     0.247 C 
ATOM     16  H7  UNL     1       2.884  -2.152  -2.010  1.00  0.00     0.165 HD
HETATM   17  O5  UNL     1       5.408  -1.775  -2.389  1.00  0.00    -0.271 OA
HETATM   18  C13 UNL     1       5.472  -0.855  -0.197  1.00  0.00     0.231 C 
HETATM   19  N8  UNL     1       5.150  -1.537   1.021  1.00  0.00    -0.340 N 
HETATM   20  C15 UNL     1       3.946  -2.250   1.161  1.00  0.00     0.262 C 
ATOM     21  H8  UNL     1       5.806  -1.505   1.801  1.00  0.00     0.163 HD
HETATM   22  O8  UNL     1       3.755  -3.022   2.110  1.00  0.00    -0.269 OA
BRANCH  18  23
HETATM   23  C14 UNL     1       6.962  -0.844  -0.472  1.00  0.00     0.285 C 
BRANCH  23  24
HETATM   24  O6  UNL     1       7.145  -0.145  -1.689  1.00  0.00    -0.369 OA
ATOM     25  H6  UNL     1       8.079  -0.138  -1.861  1.00  0.00     0.212 HD
ENDBRANCH  23  24
BRANCH  23  26
HETATM   26  O7  UNL     1       7.397  -2.145  -0.561  1.00  0.00    -0.369 OA
ATOM     27  H7  UNL     1       8.331  -2.138  -0.733  1.00  0.00     0.212 HD
ENDBRANCH  23  26
ENDBRANCH  18  23
ENDBRANCH  11  13
ENDBRANCH   9  11
ENDBRANCH   4   7
BRANCH   3  28
HETATM   28  N2  UNL     1      -1.602  -1.956  -0.734  1.00  0.00    -0.219 N 
HETATM   29  C5  UNL     1      -1.314  -2.913  -0.047  1.00  0.00     0.683 A 
HETATM   30  N3  UNL     1      -0.656  -3.951  -0.648  1.00  0.00    -0.171 N 
HETATM   31  N4  UNL     1      -1.597  -3.000   1.273  1.00  0.00    -0.156 N 
HETATM   32  C6  UNL     1      -0.282  -5.033  -0.006  1.00  0.00     0.160 A 
ATOM     33  H3  UNL     1      -0.446  -3.881  -1.644  1.00  0.00     0.186 HD
HETATM   34  C7  UNL     1      -0.566  -5.128   1.338  1.00  0.00     0.131 A 
HETATM   35  C8  UNL     1      -1.224  -4.103   1.961  1.00  0.00     0.263 A 
HETATM   36  O3  UNL     1      -1.522  -4.113   3.187  1.00  0.00    -0.268 OA
ATOM     37  H4  UNL     1      -2.087  -2.240   1.745  1.00  0.00     0.187 HD
ATOM     38  H2  UNL     1      -1.238  -2.215  -1.651  1.00  0.00     0.178 HD
BRANCH  32  39
HETATM   39  O2  UNL     1       0.391  -6.093  -0.619  1.00  0.00    -0.346 OA
ATOM     40  H2  UNL     1       0.662  -6.876  -0.154  1.00  0.00     0.219 HD
ENDBRANCH  32  39
ENDBRANCH   3  28
BRANCH   1  41
HETATM   41  C1  UNL     1      -3.774   1.164   1.727  1.00  0.00     0.254 C 
HETATM   42  N1  UNL     1      -4.568   0.225   2.456  1.00  0.00    -0.060 NA
HETATM   43  O1  UNL     1      -4.016   2.355   1.939  1.00  0.00    -0.275 OA
ENDBRANCH   1  41
BRANCH   6  44
HETATM   44  O9  UNL     1      -0.964   3.364   0.611  1.00  0.00    -0.343 OA
ATOM     45  H9  UNL     1      -0.826   4.291   0.458  1.00  0.00     0.219 HD
ENDBRANCH   6  44
BRANCH   6  46
HETATM   46  C17 UNL     1      -2.974   3.579  -0.659  1.00  0.00     0.230 C 
HETATM   47  O10 UNL     1      -3.884   3.156  -1.307  1.00  0.00    -0.286 OA
BRANCH  46  48
HETATM   48  C18 UNL     1      -2.967   4.989  -0.235  1.00  0.00     0.265 C 
HETATM   49  C19 UNL     1      -3.011   5.985  -1.398  1.00  0.00     0.069 C 
HETATM   50  C20 UNL     1      -3.679   6.849  -0.311  1.00  0.00     0.235 C 
HETATM   51  N10 UNL     1      -4.230   5.570   0.179  1.00  0.00    -0.064 N 
ATOM     52 2H10 UNL     1      -5.124   5.207  -0.153  1.00  0.00     0.278 HD
ATOM     53 1H10 UNL     1      -4.584   5.466   1.130  1.00  0.00     0.278 HD
ENDBRANCH  46  48
ENDBRANCH   6  46
TORSDOF 12
