REMARK  5 active torsions:
REMARK  status: ('A' for Active; 'I' for Inactive)
REMARK       I    between atoms: C1_2  and  N1_3 
REMARK    1  A    between atoms: C1_2  and  C11_21 
REMARK    2  A    between atoms: N1_3  and  O2_4 
REMARK    3  A    between atoms: N1_3  and  C2_6 
REMARK    4  A    between atoms: C2_6  and  C3_7 
REMARK    5  A    between atoms: N2_10  and  C6_11 
ROOT
HETATM    1  C3  UNL     1      -0.795  -0.044  -0.930  1.00  0.00     0.026 C 
HETATM    2  C4  UNL     1       0.026  -0.883  -1.885  1.00  0.00     0.028 C 
HETATM    3  C5  UNL     1       0.987  -1.569  -0.942  1.00  0.00     0.141 C 
HETATM    4  N2  UNL     1       1.367  -0.472  -0.076  1.00  0.00    -0.217 N 
HETATM    5  C10 UNL     1       0.088   0.104   0.314  1.00  0.00     0.147 C 
ENDROOT
BRANCH   1   6
HETATM    6  C2  UNL     1      -2.059  -0.809  -0.633  1.00  0.00     0.165 C 
BRANCH   6   7
HETATM    7  N1  UNL     1      -2.966  -0.158   0.254  1.00  0.00    -0.225 N 
HETATM    8  C1  UNL     1      -3.972   0.706  -0.234  1.00  0.00     0.297 C 
HETATM    9  O1  UNL     1      -4.067   0.908  -1.490  1.00  0.00    -0.266 OA
BRANCH   8  10
HETATM   10  C11 UNL     1      -4.909   1.372   0.696  1.00  0.00     0.271 C 
HETATM   11 CL2  UNL     1      -5.756   0.136   1.663  1.00  0.00    -0.073 Cl
HETATM   12 CL3  UNL     1      -6.075   2.337  -0.245  1.00  0.00    -0.073 Cl
HETATM   13 CL4  UNL     1      -3.969   2.402   1.795  1.00  0.00    -0.073 Cl
ENDBRANCH   8  10
BRANCH   7  14
HETATM   14  O2  UNL     1      -2.873  -0.366   1.576  1.00  0.00    -0.285 OA
ATOM     15  H2  UNL     1      -2.197  -0.947   1.904  1.00  0.00     0.245 HD
ENDBRANCH   7  14
ENDBRANCH   6   7
ENDBRANCH   1   6
BRANCH   4  16
HETATM   16  C6  UNL     1       2.684  -0.096   0.273  1.00  0.00     0.681 A 
HETATM   17  N3  UNL     1       3.721  -0.780  -0.212  1.00  0.00    -0.202 N 
HETATM   18  C7  UNL     1       5.005  -0.522   0.044  1.00  0.00     0.109 A 
ATOM     19  H3  UNL     1       3.516  -1.565  -0.830  1.00  0.00     0.183 HD
HETATM   20  C8  UNL     1       5.286   0.538   0.877  1.00  0.00     0.060 A 
HETATM   21  C9  UNL     1       4.231   1.262   1.392  1.00  0.00     0.120 A 
HETATM   22 CL1  UNL     1       4.625   2.603   2.449  1.00  0.00    -0.064 Cl
HETATM   23  N4  UNL     1       2.960   0.940   1.087  1.00  0.00    -0.181 N 
ATOM     24  H4  UNL     1       2.195   1.489   1.478  1.00  0.00     0.185 HD
ENDBRANCH   4  16
TORSDOF 5
