REMARK  4 active torsions:
REMARK  status: ('A' for Active; 'I' for Inactive)
REMARK    1  A    between atoms: C4_5  and  N1_6 
REMARK    2  A    between atoms: N2_9  and  C7_10 
REMARK    3  A    between atoms: C7_10  and  N3_11 
REMARK    4  A    between atoms: C8_12  and  C9_13 
ROOT
HETATM    1  N1  UNL     1      -1.100  -0.735   0.281  1.00  0.00     0.099 N 
HETATM    2  C5  UNL     1      -0.249  -0.044   1.185  1.00  0.00     0.317 C 
HETATM    3  C6  UNL     1       1.199   0.082   0.855  1.00  0.00     0.094 C 
HETATM    4  N2  UNL     1       1.556  -0.242  -0.425  1.00  0.00    -0.353 N 
HETATM    5  C11 UNL     1       0.543  -0.315  -1.459  1.00  0.00     0.159 C 
HETATM    6  C12 UNL     1      -0.566  -1.156  -0.961  1.00  0.00     0.293 C 
ENDROOT
BRANCH   4   7
HETATM    7  C7  UNL     1       2.713   0.248  -1.063  1.00  0.00     0.194 C 
BRANCH   7   8
HETATM    8  N3  UNL     1       4.013  -0.169  -0.705  1.00  0.00    -0.264 N 
HETATM    9  C8  UNL     1       5.074   0.508  -0.344  1.00  0.00     0.215 A 
HETATM   10  N4  UNL     1       6.113  -0.355  -0.137  1.00  0.00    -0.279 N 
HETATM   11  N5  UNL     1       5.660  -1.559  -0.376  1.00  0.00    -0.274 N 
ATOM     12  H4  UNL     1       7.060  -0.108   0.149  1.00  0.00     0.188 HD
HETATM   13  C10 UNL     1       4.342  -1.514  -0.735  1.00  0.00     0.199 A 
ATOM     14  H5  UNL     1       6.214  -2.413  -0.304  1.00  0.00     0.189 HD
HETATM   15  S1  UNL     1       3.353  -2.759  -1.015  1.00  0.00    -0.039 SA
BRANCH   9  16
HETATM   16  C9  UNL     1       5.221   1.952  -0.105  1.00  0.00     0.451 C 
HETATM   17  F2  UNL     1       4.600   2.757  -1.011  1.00  0.00    -0.163 F 
HETATM   18  F3  UNL     1       6.580   2.336  -0.158  1.00  0.00    -0.163 F 
HETATM   19  F4  UNL     1       4.816   2.250   1.216  1.00  0.00    -0.163 F 
ENDBRANCH   9  16
ENDBRANCH   7   8
ENDBRANCH   4   7
BRANCH   1  20
HETATM   20  C4  UNL     1      -2.357  -0.020   0.105  1.00  0.00     0.223 C 
HETATM   21  C3  UNL     1      -3.054   0.026   1.470  1.00  0.00     0.038 C 
HETATM   22  C2  UNL     1      -4.110   1.111   1.330  1.00  0.00     0.039 C 
HETATM   23  C1  UNL     1      -5.130   0.625   0.342  1.00  0.00     0.170 C 
HETATM   24  F1  UNL     1      -6.284   0.340   1.083  1.00  0.00    -0.249 F 
HETATM   25  C14 UNL     1      -4.758  -0.611  -0.388  1.00  0.00     0.039 C 
HETATM   26  C13 UNL     1      -3.322  -0.699  -0.824  1.00  0.00     0.038 C 
ENDBRANCH   1  20
TORSDOF 4
