REMARK  5 active torsions:
REMARK  status: ('A' for Active; 'I' for Inactive)
REMARK    1  A    between atoms: C1_2  and  C2_3 
REMARK       I    between atoms: C1_2  and  N2_14 
REMARK    2  A    between atoms: C2_3  and  O2_4 
REMARK    3  A    between atoms: O2_4  and  C3_5 
REMARK    4  A    between atoms: C3_5  and  C4_7 
REMARK       I    between atoms: N2_14  and  C7_16 
REMARK    5  A    between atoms: C7_16  and  C8_18 
ROOT
HETATM    1  C2  UNL     1      -0.603   0.489  -1.110  1.00  0.00     0.281 C 
ENDROOT
BRANCH   1   2
HETATM    2  C1  UNL     1      -2.009   0.191  -0.704  1.00  0.00     0.248 C 
HETATM    3  O1  UNL     1      -2.848   0.207  -1.627  1.00  0.00    -0.271 OA
HETATM    4  N2  UNL     1      -2.390  -0.090   0.610  1.00  0.00    -0.292 N 
HETATM    5  C7  UNL     1      -3.629  -0.385   1.163  1.00  0.00     0.279 C 
ATOM      6  H2  UNL     1      -1.623  -0.076   1.282  1.00  0.00     0.172 HD
HETATM    7  O4  UNL     1      -3.634  -0.594   2.443  1.00  0.00    -0.268 OA
BRANCH   5   8
HETATM    8  C8  UNL     1      -4.942  -0.501   0.532  1.00  0.00     0.269 C 
HETATM    9 CL2  UNL     1      -6.164  -0.859   1.787  1.00  0.00    -0.073 Cl
HETATM   10 CL3  UNL     1      -5.024  -1.712  -0.766  1.00  0.00    -0.073 Cl
HETATM   11 CL4  UNL     1      -5.380   1.079  -0.186  1.00  0.00    -0.073 Cl
ENDBRANCH   5   8
ENDBRANCH   1   2
BRANCH   1  12
HETATM   12  O2  UNL     1       0.280   0.452  -0.014  1.00  0.00    -0.310 OA
BRANCH  12  13
HETATM   13  C3  UNL     1       1.620   0.708  -0.229  1.00  0.00     0.291 C 
HETATM   14  O3  UNL     1       1.988   0.963  -1.400  1.00  0.00    -0.263 OA
BRANCH  13  15
HETATM   15  C4  UNL     1       2.599   0.688   0.853  1.00  0.00     0.304 C 
HETATM   16  N1  UNL     1       3.961   0.971   0.501  1.00  0.00    -0.059 N 
HETATM   17  C5  UNL     1       4.344  -0.422   0.543  1.00  0.00     0.256 C 
ATOM     18  H12 UNL     1       4.146   1.504  -0.349  1.00  0.00     0.278 HD
ATOM     19  H11 UNL     1       4.484   1.640   1.067  1.00  0.00     0.278 HD
HETATM   20  C6  UNL     1       3.031  -0.686   1.290  1.00  0.00     0.148 C 
HETATM   21 CL1  UNL     1       2.186  -2.037   0.548  1.00  0.00    -0.121 Cl
ENDBRANCH  13  15
ENDBRANCH  12  13
ENDBRANCH   1  12
TORSDOF 5
