REMARK  10 active torsions:
REMARK  status: ('A' for Active; 'I' for Inactive)
REMARK    1  A    between atoms: C2_2  and  O1_3 
REMARK    2  A    between atoms: O1_3  and  C3_4 
REMARK    3  A    between atoms: C3_4  and  S1_6 
REMARK    4  A    between atoms: S1_6  and  C4_7 
REMARK    5  A    between atoms: C4_7  and  C5_8 
REMARK    6  A    between atoms: C5_8  and  C6_9 
REMARK       I    between atoms: C6_9  and  N1_11 
REMARK       I    between atoms: N1_11  and  C7_13 
REMARK       I    between atoms: C7_13  and  N3_17 
REMARK    7  A    between atoms: N3_17  and  C8_18 
REMARK    8  A    between atoms: N3_17  and  C15_26 
REMARK    9  A    between atoms: C8_18  and  C9_19 
REMARK   10  A    between atoms: C9_19  and  N4_20 
ROOT
HETATM    1  C6  UNL     1       1.844   0.175  -1.585  1.00  0.00     0.236 C 
HETATM    2  O3  UNL     1       1.800  -0.250  -0.406  1.00  0.00    -0.273 OA
HETATM    3  N1  UNL     1       0.693   0.459  -2.336  1.00  0.00    -0.160 N 
ATOM      4  H1  UNL     1       0.840   0.799  -3.286  1.00  0.00     0.187 HD
HETATM    5  C7  UNL     1      -0.649   0.323  -1.913  1.00  0.00     0.681 C 
HETATM    6  N2  UNL     1      -1.579   0.633  -2.747  1.00  0.00    -0.234 N 
ATOM      7  H21 UNL     1      -2.547   0.535  -2.442  1.00  0.00     0.174 HD
ATOM      8  H22 UNL     1      -1.341   0.964  -3.682  1.00  0.00     0.174 HD
HETATM    9  N3  UNL     1      -0.985  -0.144  -0.596  1.00  0.00    -0.178 N 
ENDROOT
BRANCH   9  10
HETATM   10  C8  UNL     1      -1.232   0.855   0.398  1.00  0.00     0.192 C 
BRANCH  10  11
HETATM   11  C9  UNL     1      -2.411   1.726   0.245  1.00  0.00     0.079 C 
BRANCH  11  12
HETATM   12  N4  UNL     1      -3.689   1.219   0.265  1.00  0.00    -0.392 N 
HETATM   13  C10 UNL     1      -4.714   2.243   0.110  1.00  0.00     0.122 C 
HETATM   14  C11 UNL     1      -5.745   2.001   1.214  1.00  0.00     0.020 C 
HETATM   15  C12 UNL     1      -6.217   0.557   1.127  1.00  0.00     0.003 C 
HETATM   16  C13 UNL     1      -5.631  -0.122  -0.083  1.00  0.00     0.020 C 
HETATM   17  C14 UNL     1      -4.095  -0.062  -0.069  1.00  0.00     0.122 C 
ENDBRANCH  11  12
ENDBRANCH  10  11
ENDBRANCH   9  10
BRANCH   9  18
HETATM   18  C15 UNL     1      -0.981  -1.574  -0.324  1.00  0.00     0.059 A 
HETATM   19  C16 UNL     1      -1.035  -2.104   0.907  1.00  0.00     0.038 A 
HETATM   20  C17 UNL     1      -1.030  -3.466   1.016  1.00  0.00     0.052 A 
HETATM   21  S2  UNL     1      -0.949  -3.980  -0.602  1.00  0.00    -0.111 SA
HETATM   22  C18 UNL     1      -0.924  -2.462  -1.375  1.00  0.00     0.079 A 
ENDBRANCH   9  18
BRANCH   1  23
HETATM   23  C5  UNL     1       3.202   0.365  -2.156  1.00  0.00     0.114 C 
BRANCH  23  24
HETATM   24  C4  UNL     1       4.285   0.033  -1.166  1.00  0.00     0.094 C 
BRANCH  24  25
HETATM   25  S1  UNL     1       4.223  -1.673  -0.591  1.00  0.00    -0.061 SA
BRANCH  25  26
HETATM   26  C3  UNL     1       5.571  -1.887   0.596  1.00  0.00     0.322 C 
HETATM   27  O2  UNL     1       5.772  -3.001   1.153  1.00  0.00    -0.252 OA
BRANCH  26  28
HETATM   28  O1  UNL     1       6.416  -0.845   0.926  1.00  0.00    -0.313 OA
BRANCH  28  29
HETATM   29  C2  UNL     1       7.486  -0.905   1.829  1.00  0.00     0.175 C 
HETATM   30  C1  UNL     1       8.115   0.495   1.857  1.00  0.00     0.034 C 
ENDBRANCH  28  29
ENDBRANCH  26  28
ENDBRANCH  25  26
ENDBRANCH  24  25
ENDBRANCH  23  24
ENDBRANCH   1  23
TORSDOF 10
