REMARK  10 active torsions:
REMARK  status: ('A' for Active; 'I' for Inactive)
REMARK    1  A    between atoms: C2_2  and  O1_3 
REMARK    2  A    between atoms: O1_3  and  C3_4 
REMARK    3  A    between atoms: C3_4  and  C4_6 
REMARK    4  A    between atoms: C8_12  and  S1_13 
REMARK    5  A    between atoms: S1_13  and  C9_14 
REMARK    6  A    between atoms: C9_14  and  C10_15 
REMARK       I    between atoms: C10_15  and  N2_17 
REMARK    7  A    between atoms: N2_17  and  C11_19 
REMARK    8  A    between atoms: C11_19  and  C12_20 
REMARK    9  A    between atoms: C12_20  and  C13_21 
REMARK   10  A    between atoms: C16_28  and  C17_29 
ROOT
HETATM    1  C4  UNL     1      -2.566   0.712  -0.206  1.00  0.00     0.124 A 
HETATM    2  C5  UNL     1      -1.966   1.849   0.483  1.00  0.00     0.013 A 
HETATM    3  C6  UNL     1      -0.813   1.819   1.095  1.00  0.00     0.003 A 
HETATM    4  C7  UNL     1      -0.316   3.076   1.762  1.00  0.00     0.068 C 
HETATM    5  N1  UNL     1      -0.120   0.604   1.118  1.00  0.00    -0.358 N 
ATOM      6  H1  UNL     1       0.784   0.575   1.590  1.00  0.00     0.166 HD
HETATM    7  C8  UNL     1      -0.556  -0.475   0.580  1.00  0.00     0.056 A 
HETATM    8  C16 UNL     1      -1.850  -0.565  -0.088  1.00  0.00     0.082 A 
ENDROOT
BRANCH   7   9
HETATM    9  S1  UNL     1       0.520  -1.928   0.732  1.00  0.00    -0.107 SA
BRANCH   9  10
HETATM   10  C9  UNL     1       2.074  -1.521   1.560  1.00  0.00     0.183 C 
BRANCH  10  11
HETATM   11  C10 UNL     1       2.918  -0.577   0.760  1.00  0.00     0.230 C 
HETATM   12  O3  UNL     1       3.364  -1.053  -0.306  1.00  0.00    -0.272 OA
HETATM   13  N2  UNL     1       3.196   0.729   1.155  1.00  0.00    -0.340 N 
ATOM     14  H2  UNL     1       2.756   0.992   2.037  1.00  0.00     0.167 HD
BRANCH  13  15
HETATM   15  C11 UNL     1       3.962   1.755   0.580  1.00  0.00     0.070 C 
BRANCH  15  16
HETATM   16  C12 UNL     1       5.409   1.725   0.441  1.00  0.00     0.103 C 
BRANCH  16  17
HETATM   17  C13 UNL     1       6.070   0.663  -0.312  1.00  0.00     0.030 A 
HETATM   18  C14 UNL     1       6.668  -0.531   0.120  1.00  0.00     0.114 A 
HETATM   19  N3  UNL     1       7.156  -1.191  -0.940  1.00  0.00    -0.360 N 
HETATM   20  C15 UNL     1       6.899  -0.473  -2.042  1.00  0.00     0.180 A 
ATOM     21  H3  UNL     1       7.641  -2.088  -0.912  1.00  0.00     0.166 HD
HETATM   22  N4  UNL     1       6.248   0.638  -1.669  1.00  0.00    -0.354 N 
ATOM     23  H4  UNL     1       5.929   1.365  -2.309  1.00  0.00     0.166 HD
ENDBRANCH  16  17
ENDBRANCH  15  16
ENDBRANCH  13  15
ENDBRANCH  10  11
ENDBRANCH   9  10
ENDBRANCH   7   9
BRANCH   8  24
HETATM   24  C17 UNL     1      -1.728  -1.278  -1.412  1.00  0.00    -0.012 C 
HETATM   25  C18 UNL     1      -2.362  -2.393  -1.715  1.00  0.00    -0.091 C 
HETATM   26  C19 UNL     1      -3.280  -3.058  -0.737  1.00  0.00     0.042 C 
HETATM   27  C20 UNL     1      -2.208  -3.063  -3.043  1.00  0.00     0.042 C 
ENDBRANCH   8  24
BRANCH   1  28
HETATM   28  C3  UNL     1      -4.018   0.602   0.120  1.00  0.00     0.267 C 
HETATM   29  O2  UNL     1      -4.848   0.651  -0.797  1.00  0.00    -0.264 OA
BRANCH  28  30
HETATM   30  O1  UNL     1      -4.418   0.448   1.421  1.00  0.00    -0.321 OA
BRANCH  30  31
HETATM   31  C2  UNL     1      -5.802   0.345   1.710  1.00  0.00     0.174 C 
HETATM   32  C1  UNL     1      -6.555   1.578   1.254  1.00  0.00     0.034 C 
ENDBRANCH  30  31
ENDBRANCH  28  30
ENDBRANCH   1  28
TORSDOF 10
