REMARK  6 active torsions:
REMARK  status: ('A' for Active; 'I' for Inactive)
REMARK    1  A    between atoms: C2_2  and  N1_4 
REMARK    2  A    between atoms: C2_2  and  C10_13 
REMARK    3  A    between atoms: N1_4  and  C4_7 
REMARK    4  A    between atoms: C4_7  and  C5_8 
REMARK    5  A    between atoms: C5_8  and  C6_9 
REMARK    6  A    between atoms: C11_14  and  C12_15 
ROOT
HETATM    1  C10 UNL     1      -1.024  -1.512  -0.046  1.00  0.00     0.076 A 
HETATM    2  C11 UNL     1      -2.084  -0.644   0.210  1.00  0.00     0.041 A 
HETATM    3  N2  UNL     1      -3.186  -1.260  -0.244  1.00  0.00    -0.343 N 
ATOM      4  H2  UNL     1      -4.129  -0.874  -0.195  1.00  0.00     0.167 HD
HETATM    5  C18 UNL     1      -2.880  -2.441  -0.765  1.00  0.00     0.112 A 
HETATM    6  C19 UNL     1      -3.718  -3.367  -1.343  1.00  0.00     0.051 A 
HETATM    7  C20 UNL     1      -3.212  -4.548  -1.850  1.00  0.00     0.029 A 
HETATM    8  C21 UNL     1      -1.872  -4.725  -1.743  1.00  0.00     0.050 A 
HETATM    9 CL1  UNL     1      -1.187  -6.223  -2.380  1.00  0.00    -0.083 Cl
HETATM   10  C22 UNL     1      -1.070  -3.763  -1.151  1.00  0.00     0.122 A 
HETATM   11  N3  UNL     1      -1.535  -2.595  -0.642  1.00  0.00    -0.306 N 
ENDROOT
BRANCH   1  12
HETATM   12  C2  UNL     1       0.336  -1.247   0.353  1.00  0.00     0.163 C 
HETATM   13  C1  UNL     1       0.270  -1.063   1.912  1.00  0.00     0.053 C 
HETATM   14  C3  UNL     1       1.307  -2.361   0.147  1.00  0.00     0.053 C 
BRANCH  12  15
HETATM   15  N1  UNL     1       0.922  -0.056  -0.199  1.00  0.00    -0.061 N 
ATOM     16  H12 UNL     1       0.869  -0.059  -1.218  1.00  0.00     0.278 HD
ATOM     17  H11 UNL     1       0.343   0.761  -0.007  1.00  0.00     0.278 HD
BRANCH  15  18
HETATM   18  C4  UNL     1       2.260   0.149   0.244  1.00  0.00     0.234 C 
BRANCH  18  19
HETATM   19  C5  UNL     1       2.817   1.487  -0.239  1.00  0.00     0.032 C 
BRANCH  19  20
HETATM   20  C6  UNL     1       4.217   1.724   0.223  1.00  0.00    -0.013 C 
HETATM   21  C7  UNL     1       5.271   0.748  -0.198  1.00  0.00     0.005 C 
HETATM   22  C8  UNL     1       6.191   1.895  -0.623  1.00  0.00     0.001 C 
HETATM   23  C9  UNL     1       4.936   2.767  -0.639  1.00  0.00     0.005 C 
ENDBRANCH  19  20
ENDBRANCH  18  19
ENDBRANCH  15  18
ENDBRANCH  12  15
ENDBRANCH   1  12
BRANCH   2  24
HETATM   24  C12 UNL     1      -2.137   0.736   0.749  1.00  0.00     0.038 C 
HETATM   25  C13 UNL     1      -3.558   0.937   1.287  1.00  0.00     0.011 C 
HETATM   26  C14 UNL     1      -3.857   2.413   1.439  1.00  0.00     0.001 C 
HETATM   27  C15 UNL     1      -4.105   2.868   0.018  1.00  0.00     0.000 C 
HETATM   28  C16 UNL     1      -2.885   2.660  -0.780  1.00  0.00     0.001 C 
HETATM   29  C17 UNL     1      -1.841   1.734  -0.336  1.00  0.00     0.011 C 
ENDBRANCH   2  24
TORSDOF 6
