REMARK  6 active torsions:
REMARK  status: ('A' for Active; 'I' for Inactive)
REMARK    1  A    between atoms: C2_2  and  N1_3 
REMARK    2  A    between atoms: C2_2  and  C19_25 
REMARK    3  A    between atoms: N1_3  and  C3_5 
REMARK    4  A    between atoms: C3_5  and  C4_6 
REMARK    5  A    between atoms: C7_9  and  C8_10 
REMARK    6  A    between atoms: C11_14  and  C12_15 
ROOT
HETATM    1  C12 UNL     1      -1.354  -2.430   0.662  1.00  0.00    -0.009 A 
HETATM    2  C13 UNL     1      -1.863  -3.516   1.267  1.00  0.00     0.015 A 
HETATM    3  C14 UNL     1      -1.012  -4.501   1.805  1.00  0.00     0.023 A 
HETATM    4  C15 UNL     1       0.350  -4.416   1.751  1.00  0.00     0.044 A 
HETATM    5  C16 UNL     1       1.229  -5.432   2.328  1.00  0.00     0.099 C 
HETATM    6  N2  UNL     1       1.907  -6.255   2.771  1.00  0.00    -0.191 NA
HETATM    7  C17 UNL     1       0.877  -3.294   1.128  1.00  0.00     0.023 A 
HETATM    8  C18 UNL     1       0.069  -2.335   0.602  1.00  0.00     0.015 A 
ENDROOT
BRANCH   1   9
HETATM    9  C11 UNL     1      -2.059  -1.298   0.035  1.00  0.00     0.049 A 
HETATM   10  C7  UNL     1      -2.944  -1.446  -1.047  1.00  0.00    -0.024 A 
HETATM   11  C6  UNL     1      -3.402  -0.321  -1.691  1.00  0.00     0.012 A 
HETATM   12  C5  UNL     1      -2.984   0.968  -1.256  1.00  0.00     0.027 A 
HETATM   13  C4  UNL     1      -2.137   1.079  -0.217  1.00  0.00     0.027 A 
HETATM   14  N3  UNL     1      -1.724  -0.063   0.378  1.00  0.00    -0.357 N 
ATOM     15  H3  UNL     1      -1.090   0.037   1.171  1.00  0.00     0.166 HD
BRANCH  10  16
HETATM   16  C8  UNL     1      -3.480  -2.788  -1.363  1.00  0.00     0.057 A 
HETATM   17  C9  UNL     1      -3.460  -3.451  -2.676  1.00  0.00     0.050 A 
HETATM   18  C10 UNL     1      -4.692  -2.700  -2.407  1.00  0.00     0.179 A 
HETATM   19  F1  UNL     1      -5.855  -3.371  -2.066  1.00  0.00    -0.249 F 
ENDBRANCH  10  16
BRANCH  13  20
HETATM   20  C3  UNL     1      -1.528   2.399   0.294  1.00  0.00     0.171 C 
BRANCH  20  21
HETATM   21  N1  UNL     1      -0.187   2.298  -0.112  1.00  0.00    -0.412 N 
ATOM     22  H1  UNL     1       0.106   1.528  -0.713  1.00  0.00     0.153 HD
BRANCH  21  23
HETATM   23  C2  UNL     1       0.789   3.292   0.324  1.00  0.00     0.077 C 
HETATM   24  C1  UNL     1       0.845   3.291   1.822  1.00  0.00     0.032 C 
BRANCH  23  25
HETATM   25  C19 UNL     1       2.095   2.681  -0.297  1.00  0.00     0.007 C 
HETATM   26  C20 UNL     1       2.051   1.222   0.091  1.00  0.00     0.006 C 
HETATM   27  C21 UNL     1       3.332   0.482  -0.130  1.00  0.00     0.000 C 
HETATM   28  C22 UNL     1       4.462   1.242   0.576  1.00  0.00     0.000 C 
HETATM   29  C23 UNL     1       4.535   2.551  -0.187  1.00  0.00     0.000 C 
HETATM   30  C24 UNL     1       3.329   3.364   0.199  1.00  0.00     0.006 C 
ENDBRANCH  23  25
ENDBRANCH  21  23
ENDBRANCH  20  21
ENDBRANCH  13  20
ENDBRANCH   1   9
TORSDOF 6
