REMARK  11 active torsions:
REMARK  status: ('A' for Active; 'I' for Inactive)
REMARK    1  A    between atoms: C2_2  and  C3_3 
REMARK    2  A    between atoms: C6_6  and  O1_7 
REMARK    3  A    between atoms: O1_7  and  C7_8 
REMARK       I    between atoms: C7_8  and  N1_10 
REMARK    4  A    between atoms: N1_10  and  C8_12 
REMARK    5  A    between atoms: C8_12  and  C9_13 
REMARK    6  A    between atoms: C11_17  and  O4_18 
REMARK    7  A    between atoms: C12_20  and  N3_21 
REMARK    8  A    between atoms: N3_21  and  N4_23 
REMARK    9  A    between atoms: N4_23  and  N5_24 
REMARK   10  A    between atoms: C13_27  and  O5_28 
REMARK   11  A    between atoms: C14_30  and  O6_31 
ROOT
HETATM    1  C9  UNL     1      -2.227  -0.810   0.018  1.00  0.00     0.121 C 
HETATM    2  C10 UNL     1      -2.498  -0.587  -1.424  1.00  0.00     0.230 C 
HETATM    3  O3  UNL     1      -1.732  -0.667  -2.440  1.00  0.00    -0.273 OA
HETATM    4  N2  UNL     1      -3.846  -0.286  -1.133  1.00  0.00    -0.315 N 
HETATM    5  C11 UNL     1      -5.114   0.270  -1.524  1.00  0.00     0.251 C 
HETATM    6  C12 UNL     1      -5.497   1.291  -0.462  1.00  0.00     0.194 C 
HETATM    7  C13 UNL     1      -5.653   0.568   0.854  1.00  0.00     0.178 C 
HETATM    8  C14 UNL     1      -4.273   0.042   1.264  1.00  0.00     0.173 C 
HETATM    9  C15 UNL     1      -3.729  -0.861   0.186  1.00  0.00     0.136 C 
ENDROOT
BRANCH   1  10
HETATM   10  C8  UNL     1      -1.641  -2.171   0.338  1.00  0.00     0.141 C 
BRANCH  10  11
HETATM   11  N1  UNL     1      -0.386  -2.411  -0.319  1.00  0.00    -0.336 N 
HETATM   12  C7  UNL     1       0.696  -1.531  -0.042  1.00  0.00     0.360 C 
HETATM   13  O2  UNL     1       0.563  -0.569   0.754  1.00  0.00    -0.239 OA
ATOM     14  H1  UNL     1      -0.274  -3.191  -0.966  1.00  0.00     0.164 HD
BRANCH  12  15
HETATM   15  O1  UNL     1       1.930  -1.704  -0.640  1.00  0.00    -0.299 OA
BRANCH  15  16
HETATM   16  C6  UNL     1       2.966  -0.808  -0.333  1.00  0.00     0.133 C 
HETATM   17  C5  UNL     1       3.347  -0.107  -1.618  1.00  0.00     0.033 C 
HETATM   18  C4  UNL     1       4.783   0.304  -1.530  1.00  0.00     0.007 C 
HETATM   19  C3  UNL     1       5.075   0.794  -0.118  1.00  0.00    -0.015 C 
HETATM   20  C17 UNL     1       5.066  -0.386   0.832  1.00  0.00     0.007 C 
HETATM   21  C16 UNL     1       4.153  -1.495   0.302  1.00  0.00     0.033 C 
BRANCH  19  22
HETATM   22  C2  UNL     1       6.453   1.430  -0.166  1.00  0.00     0.000 C 
HETATM   23  C1  UNL     1       6.896   1.968   1.155  1.00  0.00     0.005 C 
ENDBRANCH  19  22
ENDBRANCH  15  16
ENDBRANCH  12  15
ENDBRANCH  10  11
ENDBRANCH   1  10
BRANCH   8  24
HETATM   24  O6  UNL     1      -4.502  -0.761   2.396  1.00  0.00    -0.391 OA
ATOM     25  H6  UNL     1      -3.647  -1.087   2.650  1.00  0.00     0.210 HD
ENDBRANCH   8  24
BRANCH   5  26
HETATM   26  O4  UNL     1      -5.008   0.933  -2.749  1.00  0.00    -0.374 OA
ATOM     27  H4  UNL     1      -5.845   1.300  -3.007  1.00  0.00     0.212 HD
ENDBRANCH   5  26
BRANCH   7  28
HETATM   28  O5  UNL     1      -6.525  -0.505   0.644  1.00  0.00    -0.391 OA
ATOM     29  H5  UNL     1      -6.623  -0.960   1.472  1.00  0.00     0.210 HD
ENDBRANCH   7  28
BRANCH   6  30
HETATM   30  N3  UNL     1      -6.669   2.032  -0.816  1.00  0.00    -0.241 N 
ATOM     31  H3  UNL     1      -7.375   1.647  -1.443  1.00  0.00     0.197 HD
BRANCH  30  32
HETATM   32  N4  UNL     1      -6.786   3.171  -0.321  1.00  0.00    -0.248 NA
BRANCH  32  33
HETATM   33  N5  UNL     1      -7.296   4.231   0.040  1.00  0.00    -0.261 N 
ATOM     34  H52 UNL     1      -8.239   4.024  -0.289  1.00  0.00     0.193 HD
ATOM     35  H51 UNL     1      -7.392   5.162   0.445  1.00  0.00     0.193 HD
ENDBRANCH  32  33
ENDBRANCH  30  32
ENDBRANCH   6  30
TORSDOF 11
