REMARK  9 active torsions:
REMARK  status: ('A' for Active; 'I' for Inactive)
REMARK    1  A    between atoms: C2_2  and  C3_3 
REMARK    2  A    between atoms: C3_3  and  C4_4 
REMARK    3  A    between atoms: C6_8  and  O2_9 
REMARK    4  A    between atoms: N2_11  and  C7_12 
REMARK    5  A    between atoms: C10_16  and  O4_17 
REMARK    6  A    between atoms: C11_19  and  O5_20 
REMARK    7  A    between atoms: C12_22  and  O6_23 
REMARK    8  A    between atoms: C13_25  and  S1_26 
REMARK    9  A    between atoms: S1_26  and  C14_27 
ROOT
HETATM    1  C4  UNL     1      -0.133   0.537  -0.137  1.00  0.00     0.094 C 
HETATM    2  C5  UNL     1       1.066   0.542   0.778  1.00  0.00     0.231 C 
HETATM    3  O1  UNL     1       1.161   1.415   1.669  1.00  0.00    -0.273 OA
HETATM    4  N1  UNL     1       2.137  -0.414   0.697  1.00  0.00    -0.264 N 
HETATM    5  C6  UNL     1       3.506  -0.016   0.960  1.00  0.00     0.339 C 
HETATM    6  N2  UNL     1       4.299  -1.103   0.444  1.00  0.00    -0.304 N 
HETATM    7  C9  UNL     1       3.461  -2.235   0.392  1.00  0.00     0.282 C 
HETATM    8  O3  UNL     1       3.884  -3.437   0.358  1.00  0.00    -0.268 OA
HETATM    9  C10 UNL     1       2.015  -1.799   0.383  1.00  0.00     0.252 C 
HETATM   10  C11 UNL     1       1.475  -2.135  -0.953  1.00  0.00     0.214 C 
HETATM   11  C12 UNL     1       0.136  -1.687  -1.325  1.00  0.00     0.166 C 
HETATM   12  C13 UNL     1      -0.636  -0.848  -0.340  1.00  0.00     0.092 C 
ENDROOT
BRANCH  12  13
HETATM   13  S1  UNL     1      -2.339  -0.867  -0.896  1.00  0.00    -0.156 SA
BRANCH  13  14
HETATM   14  C14 UNL     1      -3.581  -0.381   0.259  1.00  0.00     0.048 C 
HETATM   15  C15 UNL     1      -3.533   1.079   0.569  1.00  0.00     0.015 C 
HETATM   16  C16 UNL     1      -4.941   1.638   0.771  1.00  0.00     0.001 C 
HETATM   17  C17 UNL     1      -5.762   0.626   1.555  1.00  0.00     0.000 C 
HETATM   18  C18 UNL     1      -6.048  -0.583   0.664  1.00  0.00     0.001 C 
HETATM   19  C19 UNL     1      -4.951  -0.684  -0.376  1.00  0.00     0.015 C 
ENDBRANCH  13  14
ENDBRANCH  12  13
BRANCH   1  20
HETATM   20  C3  UNL     1       0.199   1.311  -1.356  1.00  0.00     0.015 C 
BRANCH  20  21
HETATM   21  C2  UNL     1       0.528   2.741  -1.023  1.00  0.00    -0.004 C 
HETATM   22  C1  UNL     1      -0.603   3.502  -0.398  1.00  0.00     0.005 C 
ENDBRANCH  20  21
ENDBRANCH   1  20
BRANCH  11  23
HETATM   23  O6  UNL     1       0.007  -1.101  -2.582  1.00  0.00    -0.392 OA
ATOM     24  H6  UNL     1      -0.864  -0.810  -2.824  1.00  0.00     0.210 HD
ENDBRANCH  11  23
BRANCH  10  25
HETATM   25  O5  UNL     1       2.397  -1.672  -1.919  1.00  0.00    -0.387 OA
ATOM     26  H5  UNL     1       2.050  -1.888  -2.777  1.00  0.00     0.210 HD
ENDBRANCH  10  25
BRANCH   9  27
HETATM   27  O4  UNL     1       1.432  -2.542   1.418  1.00  0.00    -0.361 OA
ATOM     28  H4  UNL     1       1.351  -3.465   1.209  1.00  0.00     0.213 HD
ENDBRANCH   9  27
BRANCH   5  29
HETATM   29  O2  UNL     1       3.869   1.177   0.387  1.00  0.00    -0.359 OA
ATOM     30  H2  UNL     1       4.766   1.438   0.559  1.00  0.00     0.214 HD
ENDBRANCH   5  29
BRANCH   6  31
HETATM   31  C7  UNL     1       5.709  -1.036   0.050  1.00  0.00     0.126 C 
HETATM   32  C8  UNL     1       6.584  -1.354   1.215  1.00  0.00     0.026 C 
ENDBRANCH   6  31
TORSDOF 9
