REMARK  9 active torsions:
REMARK  status: ('A' for Active; 'I' for Inactive)
REMARK    1  A    between atoms: O1_2  and  C2_3 
REMARK    2  A    between atoms: C2_3  and  C3_4 
REMARK    3  A    between atoms: N1_8  and  N2_9 
REMARK    4  A    between atoms: N2_9  and  C7_11 
REMARK    5  A    between atoms: C8_14  and  N4_15 
REMARK    6  A    between atoms: N4_15  and  C9_17 
REMARK    7  A    between atoms: C14_24  and  N6_25 
REMARK    8  A    between atoms: N6_25  and  C15_27 
REMARK    9  A    between atoms: C20_32  and  O2_34 
ROOT
HETATM    1  C7  UNL     1      -1.869  -0.471   0.614  1.00  0.00     0.725 A 
HETATM    2  N3  UNL     1      -2.062   0.855   0.668  1.00  0.00    -0.020 N 
ATOM      3  H3  UNL     1      -2.995   1.220   0.857  1.00  0.00     0.203 HD
HETATM    4  C8  UNL     1      -1.028   1.721   0.474  1.00  0.00     0.707 A 
HETATM    5  N5  UNL     1       0.184   1.200   0.227  1.00  0.00    -0.021 N 
ATOM      6  H5  UNL     1       0.966   1.838   0.079  1.00  0.00     0.203 HD
HETATM    7  C14 UNL     1       0.420  -0.136   0.164  1.00  0.00     0.707 A 
HETATM    8  N7  UNL     1      -0.637  -0.939   0.363  1.00  0.00    -0.020 N 
ATOM      9  H7  UNL     1      -0.498  -1.949   0.322  1.00  0.00     0.203 HD
ENDROOT
BRANCH   7  10
HETATM   10  N6  UNL     1       1.594  -0.601  -0.077  1.00  0.00    -0.217 N 
ATOM     11  H6  UNL     1       1.703  -1.615  -0.111  1.00  0.00     0.178 HD
BRANCH  10  12
HETATM   12  C15 UNL     1       2.772   0.209  -0.304  1.00  0.00     0.133 C 
HETATM   13  C16 UNL     1       3.298   0.854   0.924  1.00  0.00     0.029 C 
HETATM   14  C17 UNL     1       4.481   0.250   1.558  1.00  0.00     0.002 C 
HETATM   15  C18 UNL     1       5.449  -0.424   0.659  1.00  0.00     0.003 C 
HETATM   16  C19 UNL     1       4.655  -1.439  -0.173  1.00  0.00     0.040 C 
HETATM   17  C20 UNL     1       3.784  -0.602  -1.066  1.00  0.00     0.075 C 
HETATM   18  C21 UNL     1       3.161  -1.469  -2.101  1.00  0.00     0.048 C 
BRANCH  17  19
HETATM   19  O2  UNL     1       4.624   0.312  -1.718  1.00  0.00    -0.388 OA
ATOM     20  H2  UNL     1       5.263  -0.200  -2.199  1.00  0.00     0.210 HD
ENDBRANCH  17  19
ENDBRANCH  10  12
ENDBRANCH   7  10
BRANCH   4  21
HETATM   21  N4  UNL     1      -1.233   2.993   0.527  1.00  0.00    -0.220 N 
ATOM     22  H4  UNL     1      -2.173   3.341   0.715  1.00  0.00     0.178 HD
BRANCH  21  23
HETATM   23  C9  UNL     1      -0.176   3.918   0.329  1.00  0.00     0.099 C 
HETATM   24  C10 UNL     1       0.225   4.124  -1.108  1.00  0.00     0.026 C 
HETATM   25  C11 UNL     1       0.078   5.574  -1.437  1.00  0.00     0.002 C 
HETATM   26  C12 UNL     1       0.153   6.238  -0.057  1.00  0.00     0.002 C 
HETATM   27  C13 UNL     1      -0.701   5.291   0.747  1.00  0.00     0.026 C 
ENDBRANCH  21  23
ENDBRANCH   4  21
BRANCH   1  28
HETATM   28  N2  UNL     1      -2.891  -1.199   0.808  1.00  0.00    -0.133 N 
ATOM     29  H2  UNL     1      -3.762  -0.699   0.986  1.00  0.00     0.205 HD
BRANCH  28  30
HETATM   30  N1  UNL     1      -2.983  -2.580   0.810  1.00  0.00    -0.307 N 
HETATM   31  C3  UNL     1      -3.597  -3.392  -0.220  1.00  0.00     0.126 C 
HETATM   32  C4  UNL     1      -2.993  -4.777  -0.100  1.00  0.00     0.030 C 
HETATM   33  C5  UNL     1      -1.956  -4.638   0.992  1.00  0.00     0.024 C 
HETATM   34  C6  UNL     1      -2.512  -3.507   1.820  1.00  0.00     0.143 C 
BRANCH  31  35
HETATM   35  C2  UNL     1      -5.099  -3.442  -0.076  1.00  0.00     0.193 C 
BRANCH  35  36
HETATM   36  O1  UNL     1      -5.716  -2.212  -0.188  1.00  0.00    -0.394 OA
HETATM   37  C1  UNL     1      -5.565  -1.604  -1.417  1.00  0.00     0.201 C 
ENDBRANCH  35  36
ENDBRANCH  31  35
ENDBRANCH  28  30
ENDBRANCH   1  28
TORSDOF 9
