REMARK  6 active torsions:
REMARK  status: ('A' for Active; 'I' for Inactive)
REMARK       I    between atoms: C1_2  and  N1_3 
REMARK    1  A    between atoms: C1_2  and  C18_29 
REMARK    2  A    between atoms: N1_3  and  C2_5 
REMARK    3  A    between atoms: C2_5  and  C3_6 
REMARK    4  A    between atoms: C2_5  and  C4_9 
REMARK       I    between atoms: C4_9  and  N2_11 
REMARK    5  A    between atoms: C16_23  and  C17_24 
REMARK    6  A    between atoms: C17_24  and  O5_25 
ROOT
HETATM    1  C4  UNL     1       2.686  -0.193  -0.092  1.00  0.00     0.253 C 
HETATM    2  O4  UNL     1       2.951   0.843  -0.803  1.00  0.00    -0.270 OA
HETATM    3  N2  UNL     1       1.391  -0.696  -0.214  1.00  0.00    -0.350 N 
HETATM    4  C5  UNL     1       0.920  -1.821   0.544  1.00  0.00     0.129 C 
HETATM    5  C6  UNL     1      -0.481  -1.544   1.100  1.00  0.00     0.061 C 
HETATM    6  C7  UNL     1      -1.432  -1.201  -0.025  1.00  0.00     0.102 C 
HETATM    7  C8  UNL     1      -0.699  -1.035  -1.332  1.00  0.00     0.061 C 
HETATM    8  C9  UNL     1       0.449  -0.080  -1.122  1.00  0.00     0.129 C 
HETATM    9  C10 UNL     1      -2.214   0.059   0.263  1.00  0.00     0.083 C 
HETATM   10  C11 UNL     1      -3.629  -0.449   0.413  1.00  0.00     0.105 C 
HETATM   11  C12 UNL     1      -4.240   0.151   1.622  1.00  0.00     0.042 C 
HETATM   12  C13 UNL     1      -4.861   1.488   1.479  1.00  0.00     0.003 C 
HETATM   13  C14 UNL     1      -4.632   2.149   0.152  1.00  0.00     0.001 C 
HETATM   14  C15 UNL     1      -4.740   1.246  -1.017  1.00  0.00     0.010 C 
HETATM   15  C16 UNL     1      -4.421  -0.182  -0.806  1.00  0.00     0.047 C 
HETATM   16  O6  UNL     1      -3.417  -1.810   0.637  1.00  0.00    -0.228 OA
HETATM   17  O7  UNL     1      -2.431  -2.167  -0.149  1.00  0.00    -0.229 OA
ENDROOT
BRANCH   1  18
HETATM   18  C2  UNL     1       3.718  -0.758   0.777  1.00  0.00     0.278 C 
BRANCH  18  19
HETATM   19  N1  UNL     1       4.764   0.211   1.119  1.00  0.00    -0.339 N 
HETATM   20  C1  UNL     1       5.697   0.762   0.239  1.00  0.00     0.223 C 
HETATM   21  O1  UNL     1       5.732   0.478  -0.971  1.00  0.00    -0.273 OA
ATOM     22  H1  UNL     1       4.815   0.511   2.093  1.00  0.00     0.163 HD
BRANCH  20  23
HETATM   23  C18 UNL     1       6.719   1.745   0.743  1.00  0.00     0.078 A 
HETATM   24  C19 UNL     1       8.089   1.757   0.078  1.00  0.00     0.015 A 
HETATM   25  C20 UNL     1       7.145   2.852  -0.157  1.00  0.00     0.015 A 
ENDBRANCH  20  23
ENDBRANCH  18  19
BRANCH  18  26
HETATM   26  C3  UNL     1       4.338  -1.945   0.157  1.00  0.00     0.206 C 
HETATM   27  O2  UNL     1       5.583  -2.046   0.107  1.00  0.00    -0.646 OA
HETATM   28  O3  UNL     1       3.597  -2.956  -0.377  1.00  0.00    -0.646 OA
ENDBRANCH  18  26
ENDBRANCH   1  18
BRANCH  15  29
HETATM   29  C17 UNL     1      -5.655  -1.051  -0.919  1.00  0.00     0.172 C 
BRANCH  29  30
HETATM   30  O5  UNL     1      -6.494  -0.834   0.167  1.00  0.00    -0.400 OA
ATOM     31  H5  UNL     1      -7.269  -1.379   0.096  1.00  0.00     0.209 HD
ENDBRANCH  29  30
ENDBRANCH  15  29
TORSDOF 6
