REMARK  8 active torsions:
REMARK  status: ('A' for Active; 'I' for Inactive)
REMARK    1  A    between atoms: N1_2  and  C2_5 
REMARK    2  A    between atoms: C2_5  and  C3_6 
REMARK    3  A    between atoms: C3_6  and  N2_7 
REMARK       I    between atoms: N2_7  and  C4_9 
REMARK    4  A    between atoms: C4_9  and  C5_11 
REMARK    5  A    between atoms: C7_14  and  O3_15 
REMARK    6  A    between atoms: C14_23  and  O4_24 
REMARK    7  A    between atoms: O4_24  and  C15_25 
REMARK    8  A    between atoms: C21_32  and  O6_33 
ROOT
HETATM    1  C5  UNL     1       2.547  -2.182   0.184  1.00  0.00     0.242 C 
HETATM    2  O2  UNL     1       2.145  -0.958   0.705  1.00  0.00    -0.366 OA
HETATM    3  C6  UNL     1       0.940  -0.621   0.168  1.00  0.00     0.156 C 
HETATM    4  C7  UNL     1       0.194   0.454   0.969  1.00  0.00     0.152 C 
HETATM    5  C8  UNL     1      -1.173   0.279   0.426  1.00  0.00     0.026 C 
HETATM    6  C9  UNL     1      -1.388  -1.242   0.424  1.00  0.00    -0.001 C 
HETATM    7  C10 UNL     1      -2.349  -1.518  -0.662  1.00  0.00     0.006 C 
HETATM    8  C11 UNL     1      -3.392  -0.408  -0.674  1.00  0.00     0.012 C 
HETATM    9  C12 UNL     1      -3.583   0.250   0.651  1.00  0.00    -0.013 C 
HETATM   10  C13 UNL     1      -4.349  -0.556   1.647  1.00  0.00     0.018 C 
HETATM   11  C14 UNL     1      -4.136   1.652   0.562  1.00  0.00     0.141 C 
HETATM   12  C17 UNL     1      -2.736   2.186   0.568  1.00  0.00     0.039 C 
HETATM   13  C18 UNL     1      -2.289   0.877   1.184  1.00  0.00     0.005 C 
HETATM   14  C19 UNL     1      -0.045  -1.788   0.349  1.00  0.00     0.024 C 
HETATM   15  C20 UNL     1       0.270  -2.787  -0.693  1.00  0.00     0.042 C 
HETATM   16  C21 UNL     1       1.758  -2.602  -1.031  1.00  0.00     0.157 C 
ENDROOT
BRANCH   1  17
HETATM   17  C4  UNL     1       3.957  -2.025  -0.250  1.00  0.00     0.249 C 
HETATM   18  N2  UNL     1       4.678  -0.821  -0.120  1.00  0.00    -0.357 N 
ATOM     19  H2  UNL     1       4.228  -0.003   0.291  1.00  0.00     0.162 HD
HETATM   20  O1  UNL     1       4.524  -3.022  -0.756  1.00  0.00    -0.271 OA
BRANCH  18  21
HETATM   21  C3  UNL     1       6.045  -0.737  -0.563  1.00  0.00     0.150 C 
BRANCH  21  22
HETATM   22  C2  UNL     1       6.573   0.640  -0.313  1.00  0.00     0.251 C 
BRANCH  22  23
HETATM   23  N1  UNL     1       5.802   1.656  -1.025  1.00  0.00    -0.077 N 
HETATM   24  C1  UNL     1       6.345   2.965  -0.756  1.00  0.00     0.267 C 
ATOM     25  H12 UNL     1       4.807   1.603  -0.808  1.00  0.00     0.276 HD
ATOM     26  H11 UNL     1       5.747   1.463  -2.025  1.00  0.00     0.276 HD
ENDBRANCH  22  23
ENDBRANCH  21  22
ENDBRANCH  18  21
ENDBRANCH   1  17
BRANCH  16  27
HETATM   27  O6  UNL     1       2.271  -3.805  -1.473  1.00  0.00    -0.392 OA
ATOM     28  H6  UNL     1       1.774  -4.070  -2.238  1.00  0.00     0.210 HD
ENDBRANCH  16  27
BRANCH   4  29
HETATM   29  O3  UNL     1       0.299   0.220   2.330  1.00  0.00    -0.393 OA
ATOM     30  H3  UNL     1      -0.163   0.886   2.826  1.00  0.00     0.210 HD
ENDBRANCH   4  29
BRANCH  11  31
HETATM   31  O4  UNL     1      -4.881   1.925  -0.607  1.00  0.00    -0.316 OA
BRANCH  31  32
HETATM   32  C15 UNL     1      -6.134   2.509  -0.471  1.00  0.00     0.255 C 
HETATM   33  C16 UNL     1      -6.956   2.815  -1.687  1.00  0.00     0.126 C 
HETATM   34  O5  UNL     1      -6.560   2.774   0.682  1.00  0.00    -0.266 OA
ENDBRANCH  31  32
ENDBRANCH  11  31
TORSDOF 8
