REMARK  9 active torsions:
REMARK  status: ('A' for Active; 'I' for Inactive)
REMARK    1  A    between atoms: C2_2  and  C3_3 
REMARK    2  A    between atoms: C4_4  and  C5_5 
REMARK    3  A    between atoms: C5_5  and  O1_6 
REMARK    4  A    between atoms: C6_8  and  O2_9 
REMARK    5  A    between atoms: C7_11  and  O3_12 
REMARK    6  A    between atoms: C8_14  and  O4_15 
REMARK    7  A    between atoms: O4_15  and  C9_16 
REMARK    8  A    between atoms: C21_31  and  C22_32 
REMARK    9  A    between atoms: C22_32  and  O7_33 
ROOT
HETATM    1  C9  UNL     1      -0.400  -0.049  -0.717  1.00  0.00     0.140 C 
HETATM    2  C10 UNL     1      -1.356  -1.219  -0.537  1.00  0.00     0.022 C 
HETATM    3  C11 UNL     1      -2.284  -1.392  -1.685  1.00  0.00     0.010 C 
HETATM    4  C12 UNL     1      -3.549  -0.644  -1.652  1.00  0.00     0.034 C 
HETATM    5  C13 UNL     1      -3.464   0.710  -0.987  1.00  0.00     0.102 C 
HETATM    6 CL1  UNL     1      -4.830   1.675  -1.643  1.00  0.00    -0.110 Cl
HETATM    7  C14 UNL     1      -2.222   1.356  -1.486  1.00  0.00     0.160 C 
HETATM    8  O5  UNL     1      -2.226   1.911  -2.575  1.00  0.00    -0.295 OA
HETATM    9  C15 UNL     1      -1.028   1.283  -0.604  1.00  0.00     0.116 C 
HETATM   10  C16 UNL     1      -1.317   1.751   0.782  1.00  0.00     0.141 C 
HETATM   11  O6  UNL     1      -1.505   3.152   0.776  1.00  0.00    -0.384 OA
HETATM   12  C17 UNL     1      -2.908   3.037   0.914  1.00  0.00     0.175 C 
HETATM   13  C18 UNL     1      -2.709   1.600   1.241  1.00  0.00     0.046 C 
HETATM   14  C19 UNL     1      -3.543   0.603   0.492  1.00  0.00     0.025 C 
HETATM   15  C20 UNL     1      -3.282  -0.765   1.040  1.00  0.00     0.014 C 
HETATM   16  C21 UNL     1      -1.934  -1.311   0.818  1.00  0.00     0.016 C 
ENDROOT
BRANCH   1  17
HETATM   17  O4  UNL     1       0.651  -0.171   0.193  1.00  0.00    -0.376 OA
BRANCH  17  18
HETATM   18  C8  UNL     1       1.855  -0.384  -0.479  1.00  0.00     0.161 C 
HETATM   19  C3  UNL     1       2.763   0.799  -0.129  1.00  0.00     0.048 C 
HETATM   20  C4  UNL     1       3.425   0.310   1.120  1.00  0.00     0.051 C 
HETATM   21  C6  UNL     1       3.814  -1.101   0.760  1.00  0.00     0.156 C 
HETATM   22  C7  UNL     1       2.581  -1.593   0.022  1.00  0.00     0.176 C 
BRANCH  19  23
HETATM   23  C2  UNL     1       3.706   0.952  -1.259  1.00  0.00    -0.029 C 
HETATM   24  C1  UNL     1       3.728   2.079  -1.930  1.00  0.00     0.007 C 
ENDBRANCH  19  23
BRANCH  20  25
HETATM   25  C5  UNL     1       4.617   1.153   1.514  1.00  0.00     0.172 C 
BRANCH  25  26
HETATM   26  O1  UNL     1       5.568   1.145   0.519  1.00  0.00    -0.400 OA
ATOM     27  H1  UNL     1       6.317   1.675   0.767  1.00  0.00     0.209 HD
ENDBRANCH  25  26
ENDBRANCH  20  25
BRANCH  21  28
HETATM   28  O2  UNL     1       4.026  -1.889   1.911  1.00  0.00    -0.392 OA
ATOM     29  H2  UNL     1       4.271  -2.778   1.684  1.00  0.00     0.210 HD
ENDBRANCH  21  28
BRANCH  22  30
HETATM   30  O3  UNL     1       2.937  -2.430  -1.033  1.00  0.00    -0.390 OA
ATOM     31  H3  UNL     1       2.166  -2.738  -1.495  1.00  0.00     0.210 HD
ENDBRANCH  22  30
ENDBRANCH  17  18
ENDBRANCH   1  17
BRANCH  16  32
HETATM   32  C22 UNL     1      -1.956  -2.773   1.296  1.00  0.00     0.169 C 
BRANCH  32  33
HETATM   33  O7  UNL     1      -2.736  -3.497   0.397  1.00  0.00    -0.400 OA
ATOM     34  H7  UNL     1      -2.750  -4.400   0.692  1.00  0.00     0.209 HD
ENDBRANCH  32  33
ENDBRANCH  16  32
TORSDOF 9
