REMARK  8 active torsions:
REMARK  status: ('A' for Active; 'I' for Inactive)
REMARK    1  A    between atoms: C2_2  and  N1_3 
REMARK    2  A    between atoms: N1_3  and  C3_5 
REMARK    3  A    between atoms: C6_13  and  N4_14 
REMARK    4  A    between atoms: N5_17  and  C7_18 
REMARK    5  A    between atoms: N6_20  and  C9_21 
REMARK    6  A    between atoms: C14_26  and  C15_27 
REMARK    7  A    between atoms: C15_27  and  N7_28 
REMARK       I    between atoms: N7_28  and  C16_30 
REMARK    8  A    between atoms: C16_30  and  C17_32 
ROOT
HETATM    1  C3  UNL     1       4.353  -1.140  -0.460  1.00  0.00     0.682 A 
HETATM    2  N2  UNL     1       5.030  -2.091   0.214  1.00  0.00    -0.154 N 
ATOM      3  H2  UNL     1       6.011  -2.264  -0.005  1.00  0.00     0.187 HD
HETATM    4  C4  UNL     1       4.421  -2.819   1.179  1.00  0.00     0.290 A 
HETATM    5  O1  UNL     1       5.027  -3.709   1.821  1.00  0.00    -0.265 OA
HETATM    6  C5  UNL     1       3.099  -2.541   1.432  1.00  0.00     0.163 A 
HETATM    7  N3  UNL     1       2.217  -3.062   2.301  1.00  0.00    -0.180 N 
ATOM      8  H3  UNL     1       2.415  -3.811   2.964  1.00  0.00     0.184 HD
HETATM    9  C6  UNL     1       1.048  -2.451   2.162  1.00  0.00     0.712 A 
HETATM   10  N5  UNL     1       1.127  -1.514   1.200  1.00  0.00    -0.134 N 
HETATM   11  C19 UNL     1       2.402  -1.567   0.743  1.00  0.00     0.174 A 
HETATM   12  N8  UNL     1       3.053  -0.887  -0.192  1.00  0.00    -0.173 N 
ATOM     13  H8  UNL     1       2.564  -0.162  -0.717  1.00  0.00     0.186 HD
ENDROOT
BRANCH  10  14
HETATM   14  C7  UNL     1       0.093  -0.616   0.721  1.00  0.00     0.276 C 
HETATM   15  C8  UNL     1       0.306   0.808   1.186  1.00  0.00     0.328 C 
HETATM   16  N6  UNL     1      -0.953   1.515   1.088  1.00  0.00     0.103 N 
HETATM   17  C13 UNL     1      -1.868   0.894   0.161  1.00  0.00     0.307 C 
HETATM   18  C14 UNL     1      -2.202  -0.504   0.599  1.00  0.00     0.170 C 
HETATM   19  O3  UNL     1      -1.111  -1.040   1.282  1.00  0.00    -0.355 OA
BRANCH  16  20
HETATM   20  C9  UNL     1      -0.772   2.919   0.842  1.00  0.00     0.149 C 
HETATM   21  C10 UNL     1      -2.066   3.655   0.731  1.00  0.00     0.048 C 
HETATM   22  C11 UNL     1       0.013   3.502   2.007  1.00  0.00     0.048 C 
HETATM   23  C12 UNL     1       0.033   3.188  -0.414  1.00  0.00     0.048 C 
ENDBRANCH  16  20
BRANCH  18  24
HETATM   24  C15 UNL     1      -2.599  -1.385  -0.563  1.00  0.00     0.156 C 
BRANCH  24  25
HETATM   25  N7  UNL     1      -3.719  -0.836  -1.281  1.00  0.00    -0.359 N 
HETATM   26  C16 UNL     1      -4.985  -0.607  -0.712  1.00  0.00     0.217 C 
HETATM   27  O2  UNL     1      -5.274  -0.865   0.505  1.00  0.00    -0.274 OA
ATOM     28  H7  UNL     1      -3.587  -0.598  -2.264  1.00  0.00     0.162 HD
BRANCH  26  29
HETATM   29  C17 UNL     1      -6.050  -0.024  -1.595  1.00  0.00     0.098 C 
HETATM   30  C18 UNL     1      -7.341   0.169  -0.870  1.00  0.00     0.014 C 
ENDBRANCH  26  29
ENDBRANCH  24  25
ENDBRANCH  18  24
ENDBRANCH  10  14
BRANCH   9  31
HETATM   31  N4  UNL     1      -0.007  -2.722   2.852  1.00  0.00    -0.054 N 
HETATM   32  F1  UNL     1      -0.050  -3.657   3.798  1.00  0.00    -0.086 F 
ATOM     33  H4  UNL     1      -0.856  -2.190   2.662  1.00  0.00     0.218 HD
ENDBRANCH   9  31
BRANCH   1  34
HETATM   34  N1  UNL     1       4.907  -0.444  -1.372  1.00  0.00    -0.226 N 
ATOM     35  H1  UNL     1       4.328   0.256  -1.836  1.00  0.00     0.177 HD
BRANCH  34  36
HETATM   36  C2  UNL     1       6.271  -0.554  -1.807  1.00  0.00     0.133 C 
HETATM   37  C1  UNL     1       6.375  -1.610  -2.872  1.00  0.00     0.027 C 
ENDBRANCH  34  36
ENDBRANCH   1  34
TORSDOF 8
