REMARK  8 active torsions:
REMARK  status: ('A' for Active; 'I' for Inactive)
REMARK    1  A    between atoms: N2_6  and  C4_8 
REMARK    2  A    between atoms: C9_14  and  C10_15 
REMARK    3  A    between atoms: C10_15  and  O1_16 
REMARK    4  A    between atoms: C11_20  and  N5_21 
REMARK    5  A    between atoms: N5_21  and  C12_23 
REMARK    6  A    between atoms: N7_27  and  C14_28 
REMARK    7  A    between atoms: C14_28  and  C15_29 
REMARK    8  A    between atoms: C15_29  and  O2_30 
ROOT
HETATM    1  C4  UNL     1      -2.176  -0.489   0.989  1.00  0.00     0.123 C 
HETATM    2  C5  UNL     1      -2.092  -1.708   1.922  1.00  0.00     0.116 C 
HETATM    3  C6  UNL     1      -3.109  -1.607   2.969  1.00  0.00     0.066 C 
HETATM    4  N3  UNL     1      -3.899  -1.543   3.794  1.00  0.00    -0.197 NA
HETATM    5  C7  UNL     1      -2.451  -2.876   1.026  1.00  0.00     0.022 C 
HETATM    6  C8  UNL     1      -3.575  -2.323   0.221  1.00  0.00     0.010 C 
HETATM    7  C9  UNL     1      -3.241  -0.872   0.001  1.00  0.00     0.034 C 
ENDROOT
BRANCH   1   8
HETATM    8  N2  UNL     1      -0.885  -0.323   0.374  1.00  0.00    -0.220 N 
HETATM    9  C3  UNL     1      -0.506   0.823  -0.068  1.00  0.00     0.680 A 
HETATM   10  N1  UNL     1      -1.214   1.959  -0.023  1.00  0.00    -0.195 N 
HETATM   11  N4  UNL     1       0.733   0.935  -0.646  1.00  0.00    -0.175 N 
HETATM   12  C2  UNL     1      -0.801   3.142  -0.489  1.00  0.00     0.043 A 
ATOM     13  H1  UNL     1      -2.141   1.918   0.400  1.00  0.00     0.184 HD
HETATM   14  C1  UNL     1      -1.644   4.378  -0.407  1.00  0.00     0.070 C 
HETATM   15  C17 UNL     1       0.442   3.230  -1.063  1.00  0.00     0.078 A 
HETATM   16  C11 UNL     1       1.219   2.081  -1.136  1.00  0.00     0.141 A 
HETATM   17 BR1  UNL     1       1.077   4.899  -1.744  1.00  0.00    -0.045 Br
ATOM     18  H4  UNL     1       1.315   0.099  -0.705  1.00  0.00     0.186 HD
ATOM     19  H2  UNL     1      -0.262  -1.126   0.288  1.00  0.00     0.178 HD
BRANCH  16  20
HETATM   20  N5  UNL     1       2.389   2.157  -1.675  1.00  0.00    -0.339 N 
ATOM     21  H5  UNL     1       2.737   3.043  -2.041  1.00  0.00     0.167 HD
BRANCH  20  22
HETATM   22  C12 UNL     1       3.174   0.995  -1.748  1.00  0.00     0.068 A 
HETATM   23  C13 UNL     1       3.074   0.005  -2.696  1.00  0.00     0.138 A 
HETATM   24  N6  UNL     1       3.998  -0.916  -2.406  1.00  0.00    -0.308 N 
HETATM   25  N7  UNL     1       4.665  -0.531  -1.313  1.00  0.00    -0.299 N 
ATOM     26  H6  UNL     1       4.167  -1.773  -2.933  1.00  0.00     0.186 HD
HETATM   27  C16 UNL     1       4.193   0.644  -0.867  1.00  0.00     0.141 A 
BRANCH  25  28
HETATM   28  C14 UNL     1       5.739  -1.300  -0.720  1.00  0.00     0.174 C 
BRANCH  28  29
HETATM   29  C15 UNL     1       5.127  -2.244   0.298  1.00  0.00     0.185 C 
BRANCH  29  30
HETATM   30  O2  UNL     1       4.477  -1.441   1.252  1.00  0.00    -0.399 OA
ATOM     31  H2  UNL     1       4.094  -2.032   1.889  1.00  0.00     0.209 HD
ENDBRANCH  29  30
ENDBRANCH  28  29
ENDBRANCH  25  28
ENDBRANCH  20  22
ENDBRANCH  16  20
ENDBRANCH   1   8
BRANCH   7  32
HETATM   32  C10 UNL     1      -4.534  -0.090   0.176  1.00  0.00     0.170 C 
BRANCH  32  33
HETATM   33  O1  UNL     1      -5.411  -0.556  -0.804  1.00  0.00    -0.400 OA
ATOM     34  H1  UNL     1      -6.218  -0.068  -0.695  1.00  0.00     0.209 HD
ENDBRANCH  32  33
ENDBRANCH   7  32
TORSDOF 8
