REMARK  7 active torsions:
REMARK  status: ('A' for Active; 'I' for Inactive)
REMARK    1  A    between atoms: C3_5  and  N2_6 
REMARK    2  A    between atoms: N2_6  and  C4_8 
REMARK    3  A    between atoms: C7_13  and  N4_14 
REMARK    4  A    between atoms: N4_14  and  C8_16 
REMARK    5  A    between atoms: C11_19  and  C12_20 
REMARK    6  A    between atoms: C12_20  and  N5_21 
REMARK    7  A    between atoms: N5_21  and  N6_22 
ROOT
HETATM    1  C1  UNL     1      -7.165  -2.012   0.904  1.00  0.00     0.182 A 
HETATM    2  N1  UNL     1      -6.809  -0.763   0.563  1.00  0.00    -0.346 N 
ATOM      3  H1  UNL     1      -7.420   0.053   0.599  1.00  0.00     0.167 HD
HETATM    4  C2  UNL     1      -5.529  -0.753   0.169  1.00  0.00     0.123 A 
HETATM    5  C3  UNL     1      -4.684   0.242  -0.274  1.00  0.00     0.148 A 
HETATM    6  N3  UNL     1      -3.410  -0.017  -0.616  1.00  0.00    -0.175 N 
ATOM      7  H3  UNL     1      -2.788   0.721  -0.944  1.00  0.00     0.186 HD
HETATM    8  C7  UNL     1      -2.984  -1.309  -0.506  1.00  0.00     0.681 A 
HETATM    9  N8  UNL     1      -3.804  -2.282  -0.075  1.00  0.00    -0.174 N 
ATOM     10  H8  UNL     1      -3.440  -3.233  -0.011  1.00  0.00     0.186 HD
HETATM   11  C19 UNL     1      -5.092  -2.058   0.278  1.00  0.00     0.152 A 
HETATM   12  N9  UNL     1      -6.100  -2.814   0.726  1.00  0.00    -0.336 N 
ATOM     13  H9  UNL     1      -6.067  -3.818   0.901  1.00  0.00     0.168 HD
ENDROOT
BRANCH   8  14
HETATM   14  N4  UNL     1      -1.793  -1.642  -0.809  1.00  0.00    -0.220 N 
ATOM     15  H4  UNL     1      -1.525  -2.621  -0.709  1.00  0.00     0.178 HD
BRANCH  14  16
HETATM   16  C8  UNL     1      -0.785  -0.692  -1.294  1.00  0.00     0.117 C 
HETATM   17  C9  UNL     1      -0.339   0.094  -0.085  1.00  0.00     0.033 C 
HETATM   18  C10 UNL     1       0.924  -0.552   0.440  1.00  0.00     0.055 C 
HETATM   19  C11 UNL     1       1.933  -0.404  -0.636  1.00  0.00    -0.002 C 
HETATM   20  N7  UNL     1       1.623  -0.887  -1.775  1.00  0.00    -0.393 N 
HETATM   21  C18 UNL     1       0.318  -1.526  -1.895  1.00  0.00     0.145 C 
ATOM     22  H7  UNL     1       2.261  -0.829  -2.569  1.00  0.00     0.159 HD
BRANCH  19  23
HETATM   23  C12 UNL     1       3.243   0.255  -0.458  1.00  0.00     0.180 C 
BRANCH  23  24
HETATM   24  N5  UNL     1       3.983  -0.457   0.563  1.00  0.00    -0.159 NA
BRANCH  24  25
HETATM   25  N6  UNL     1       5.223   0.057   0.824  1.00  0.00    -0.234 NA
HETATM   26  C13 UNL     1       6.250  -0.936   1.045  1.00  0.00     0.109 C 
HETATM   27  C14 UNL     1       7.363  -0.253   1.828  1.00  0.00     0.016 C 
HETATM   28  C15 UNL     1       7.851   0.992   1.149  1.00  0.00     0.002 C 
HETATM   29  C16 UNL     1       6.760   1.865   0.619  1.00  0.00     0.016 C 
HETATM   30  C17 UNL     1       5.713   1.015  -0.109  1.00  0.00     0.109 C 
ENDBRANCH  24  25
ENDBRANCH  23  24
ENDBRANCH  19  23
ENDBRANCH  14  16
ENDBRANCH   8  14
BRANCH   5  31
HETATM   31  N2  UNL     1      -5.121   1.439  -0.362  1.00  0.00    -0.369 N 
ATOM     32  H2  UNL     1      -4.467   2.148  -0.694  1.00  0.00     0.161 HD
BRANCH  31  33
HETATM   33  C4  UNL     1      -6.443   1.876  -0.038  1.00  0.00     0.083 A 
HETATM   34  C5  UNL     1      -7.504   1.990  -1.099  1.00  0.00     0.027 A 
HETATM   35  C6  UNL     1      -6.830   3.218  -0.660  1.00  0.00     0.027 A 
ENDBRANCH  31  33
ENDBRANCH   5  31
TORSDOF 7
