REMARK  10 active torsions:
REMARK  status: ('A' for Active; 'I' for Inactive)
REMARK    1  A    between atoms: C3_3  and  C4_4 
REMARK    2  A    between atoms: C5_5  and  C6_6 
REMARK    3  A    between atoms: C6_6  and  O2_8 
REMARK    4  A    between atoms: O2_8  and  C7_9 
REMARK    5  A    between atoms: C7_9  and  C8_10 
REMARK    6  A    between atoms: C8_10  and  C9_11 
REMARK    7  A    between atoms: C9_11  and  O3_12 
REMARK    8  A    between atoms: C13_17  and  O4_18 
REMARK    9  A    between atoms: C14_20  and  O5_21 
REMARK   10  A    between atoms: C21_29  and  O6_30 
ROOT
HETATM    1  C8  UNL     1       0.028   0.324  -0.529  1.00  0.00     0.022 C 
HETATM    2  C10 UNL     1      -0.891   0.787  -1.625  1.00  0.00    -0.006 C 
HETATM    3  C11 UNL     1      -2.175   1.138  -1.604  1.00  0.00    -0.038 A 
HETATM    4  C12 UNL     1      -3.585   1.516  -1.534  1.00  0.00     0.088 A 
HETATM    5  C13 UNL     1      -4.606   0.556  -0.982  1.00  0.00     0.164 C 
HETATM    6  C14 UNL     1      -4.208  -0.770  -0.535  1.00  0.00     0.085 C 
HETATM    7  C15 UNL     1      -4.354  -1.068   0.958  1.00  0.00     0.041 C 
HETATM    8  C16 UNL     1      -2.927  -1.225   1.524  1.00  0.00     0.013 C 
HETATM    9  C17 UNL     1      -2.176  -0.470   0.390  1.00  0.00    -0.033 C 
HETATM   10  C18 UNL     1      -0.721  -0.563   0.458  1.00  0.00     0.027 C 
HETATM   11  C19 UNL     1      -2.783  -1.217  -0.691  1.00  0.00     0.050 C 
HETATM   12  C20 UNL     1      -2.615   0.915   0.714  1.00  0.00     0.053 C 
HETATM   13  C21 UNL     1      -2.707   1.847  -0.405  1.00  0.00     0.092 A 
ENDROOT
BRANCH   1  14
HETATM   14  C7  UNL     1       0.983  -0.622  -1.216  1.00  0.00     0.194 C 
BRANCH  14  15
HETATM   15  O2  UNL     1       1.998  -1.238  -0.605  1.00  0.00    -0.317 OA
BRANCH  15  16
HETATM   16  C6  UNL     1       3.316  -0.865  -0.378  1.00  0.00     0.282 C 
HETATM   17  O1  UNL     1       3.669   0.238  -0.847  1.00  0.00    -0.260 OA
BRANCH  16  18
HETATM   18  C5  UNL     1       4.218  -1.731   0.371  1.00  0.00     0.082 C 
HETATM   19  C4  UNL     1       5.437  -1.479   0.631  1.00  0.00     0.006 C 
BRANCH  19  20
HETATM   20  C3  UNL     1       6.220  -0.324   0.273  1.00  0.00    -0.004 C 
HETATM   21  C2  UNL     1       7.513  -0.232   0.641  1.00  0.00    -0.031 C 
HETATM   22  C1  UNL     1       8.280   0.950   0.263  1.00  0.00     0.036 C 
ENDBRANCH  19  20
ENDBRANCH  16  18
ENDBRANCH  15  16
ENDBRANCH  14  15
ENDBRANCH   1  14
BRANCH   1  23
HETATM   23  C9  UNL     1       0.690   1.463   0.114  1.00  0.00     0.179 C 
BRANCH  23  24
HETATM   24  O3  UNL     1       1.556   1.101   1.176  1.00  0.00    -0.400 OA
ATOM     25  H3  UNL     1       1.985   1.839   1.593  1.00  0.00     0.209 HD
ENDBRANCH  23  24
ENDBRANCH   1  23
BRANCH  13  26
HETATM   26  O6  UNL     1      -2.381   3.191  -0.195  1.00  0.00    -0.384 OA
ATOM     27  H6  UNL     1      -2.720   3.643   0.569  1.00  0.00     0.211 HD
ENDBRANCH  13  26
BRANCH   5  28
HETATM   28  O4  UNL     1      -5.609   0.438  -1.950  1.00  0.00    -0.392 OA
ATOM     29  H4  UNL     1      -6.253  -0.167  -1.602  1.00  0.00     0.210 HD
ENDBRANCH   5  28
BRANCH   6  30
HETATM   30  O5  UNL     1      -4.971  -1.790  -1.178  1.00  0.00    -0.387 OA
ATOM     31  H5  UNL     1      -4.711  -2.656  -0.886  1.00  0.00     0.210 HD
ENDBRANCH   6  30
TORSDOF 10
