REMARK  9 active torsions:
REMARK  status: ('A' for Active; 'I' for Inactive)
REMARK    1  A    between atoms: C1_2  and  C2_4 
REMARK    2  A    between atoms: C2_4  and  C3_5 
REMARK    3  A    between atoms: C10_12  and  C11_13 
REMARK    4  A    between atoms: C11_13  and  O3_14 
REMARK    5  A    between atoms: C14_18  and  O4_19 
REMARK    6  A    between atoms: O4_19  and  C15_20 
REMARK    7  A    between atoms: C18_24  and  O6_25 
REMARK    8  A    between atoms: C19_27  and  C20_28 
REMARK    9  A    between atoms: C20_28  and  O7_29 
ROOT
HETATM    1  C3  UNL     1       3.128   0.220   0.040  1.00  0.00     0.008 C 
HETATM    2  C4  UNL     1       2.626   1.625  -0.218  1.00  0.00     0.015 C 
HETATM    3  C5  UNL     1       2.063   0.976  -1.471  1.00  0.00     0.020 C 
HETATM    4  C6  UNL     1       0.954   1.565  -2.127  1.00  0.00    -0.025 C 
HETATM    5  C7  UNL     1      -0.312   1.256  -2.194  1.00  0.00    -0.023 C 
HETATM    6  C8  UNL     1      -1.067   0.175  -1.610  1.00  0.00     0.038 C 
HETATM    7  C9  UNL     1      -0.360  -1.023  -1.114  1.00  0.00     0.023 C 
HETATM    8  C10 UNL     1       0.744  -0.719  -0.091  1.00  0.00    -0.008 C 
HETATM    9  C12 UNL     1       0.086   0.020   0.990  1.00  0.00     0.015 C 
HETATM   10  C13 UNL     1      -0.967   1.051   0.661  1.00  0.00     0.034 C 
HETATM   11  C14 UNL     1      -1.895   0.705  -0.448  1.00  0.00     0.132 C 
HETATM   12  C19 UNL     1       1.958  -0.309  -0.740  1.00  0.00     0.002 C 
ENDROOT
BRANCH  11  13
HETATM   13  O4  UNL     1      -2.893  -0.166  -0.072  1.00  0.00    -0.352 OA
BRANCH  13  14
HETATM   14  C15 UNL     1      -4.167   0.360  -0.213  1.00  0.00     0.298 C 
HETATM   15  O5  UNL     1      -4.861  -0.435  -1.169  1.00  0.00    -0.330 OA
HETATM   16  C16 UNL     1      -5.880  -1.135  -0.534  1.00  0.00     0.137 C 
HETATM   17  C17 UNL     1      -6.008  -0.781   0.716  1.00  0.00     0.033 C 
HETATM   18  C18 UNL     1      -4.999   0.264   1.017  1.00  0.00     0.198 C 
BRANCH  18  19
HETATM   19  O6  UNL     1      -4.264  -0.025   2.163  1.00  0.00    -0.387 OA
ATOM     20  H6  UNL     1      -4.795  -0.086   2.948  1.00  0.00     0.210 HD
ENDBRANCH  18  19
ENDBRANCH  13  14
ENDBRANCH  11  13
BRANCH   8  21
HETATM   21  C11 UNL     1       1.004  -2.135   0.492  1.00  0.00     0.174 C 
BRANCH  21  22
HETATM   22  O3  UNL     1      -0.164  -2.634   1.067  1.00  0.00    -0.400 OA
ATOM     23  H3  UNL     1      -0.005  -3.500   1.424  1.00  0.00     0.209 HD
ENDBRANCH  21  22
ENDBRANCH   8  21
BRANCH  12  24
HETATM   24  C20 UNL     1       2.443  -1.385  -1.725  1.00  0.00     0.175 C 
BRANCH  24  25
HETATM   25  O7  UNL     1       3.399  -0.830  -2.605  1.00  0.00    -0.400 OA
ATOM     26  H7  UNL     1       3.699  -1.495  -3.214  1.00  0.00     0.209 HD
ENDBRANCH  24  25
ENDBRANCH  12  24
BRANCH   1  27
HETATM   27  C2  UNL     1       3.531  -0.159   1.364  1.00  0.00     0.118 C 
BRANCH  27  28
HETATM   28  C1  UNL     1       4.671   0.774   1.745  1.00  0.00     0.172 C 
HETATM   29  O1  UNL     1       5.848   0.574   1.356  1.00  0.00    -0.648 OA
HETATM   30  O2  UNL     1       4.442   1.885   2.540  1.00  0.00    -0.648 OA
ENDBRANCH  27  28
ENDBRANCH   1  27
TORSDOF 9
