REMARK  5 active torsions:
REMARK  status: ('A' for Active; 'I' for Inactive)
REMARK       I    between atoms: N1_4  and  C3_5 
REMARK       I    between atoms: C3_5  and  N2_7 
REMARK    1  A    between atoms: N2_7  and  C4_9 
REMARK    2  A    between atoms: C4_9  and  C5_10 
REMARK    3  A    between atoms: C5_10  and  C6_11 
REMARK    4  A    between atoms: C6_11  and  C7_12 
REMARK    5  A    between atoms: C7_12  and  C8_13 
ROOT
HETATM    1  O1  UNL     1      -2.491  -2.436  -1.271  1.00  0.00    -0.263 OA
HETATM    2  C1  UNL     1      -3.314  -1.500  -1.439  1.00  0.00     0.277 C 
HETATM    3  C2  UNL     1      -2.788  -0.134  -1.642  1.00  0.00     0.238 C 
HETATM    4  N1  UNL     1      -2.062   0.381  -0.507  1.00  0.00    -0.325 N 
HETATM    5  C3  UNL     1      -0.716   0.020  -0.336  1.00  0.00     0.318 C 
HETATM    6  O2  UNL     1      -0.153  -0.744  -1.167  1.00  0.00    -0.247 OA
HETATM    7  N2  UNL     1       0.028   0.504   0.763  1.00  0.00    -0.343 N 
ATOM      8  H2  UNL     1      -0.446   1.119   1.424  1.00  0.00     0.164 HD
HETATM    9  C13 UNL     1      -2.703   1.255   0.444  1.00  0.00     0.129 C 
HETATM   10  C14 UNL     1      -3.060   0.587   1.726  1.00  0.00     0.039 C 
HETATM   11  C15 UNL     1      -4.525   0.267   1.857  1.00  0.00     0.115 C 
HETATM   12  N4  UNL     1      -5.415   1.336   1.540  1.00  0.00    -0.420 N 
ATOM     13  H4  UNL     1      -5.408   2.217   2.054  1.00  0.00     0.153 HD
HETATM   14  C16 UNL     1      -6.314   1.097   0.460  1.00  0.00     0.133 C 
HETATM   15  C17 UNL     1      -7.223  -0.062   0.634  1.00  0.00     0.133 C 
HETATM   16  N5  UNL     1      -6.889  -1.230  -0.093  1.00  0.00    -0.418 N 
ATOM     17  H5  UNL     1      -6.613  -2.091   0.379  1.00  0.00     0.153 HD
HETATM   18  C18 UNL     1      -6.956  -1.149  -1.503  1.00  0.00     0.140 C 
HETATM   19  C19 UNL     1      -5.654  -1.253  -2.219  1.00  0.00     0.198 C 
HETATM   20  O3  UNL     1      -4.663  -1.824  -1.420  1.00  0.00    -0.319 OA
ENDROOT
BRANCH   7  21
HETATM   21  C4  UNL     1       1.425   0.185   1.016  1.00  0.00     0.124 C 
BRANCH  21  22
HETATM   22  C5  UNL     1       2.338   0.625  -0.079  1.00  0.00     0.020 C 
BRANCH  22  23
HETATM   23  C6  UNL     1       3.759   0.231   0.327  1.00  0.00     0.004 C 
BRANCH  23  24
HETATM   24  C7  UNL     1       4.741   0.645  -0.736  1.00  0.00     0.033 C 
BRANCH  24  25
HETATM   25  C8  UNL     1       6.140   0.276  -0.364  1.00  0.00     0.185 C 
HETATM   26  C9  UNL     1       6.360  -1.193  -0.161  1.00  0.00     0.033 C 
HETATM   27  C10 UNL     1       7.709  -1.365   0.507  1.00  0.00     0.004 C 
HETATM   28  C11 UNL     1       8.535  -0.112   0.437  1.00  0.00     0.027 C 
HETATM   29  C12 UNL     1       8.432   0.570  -0.905  1.00  0.00     0.232 C 
HETATM   30  N3  UNL     1       7.090   0.731  -1.366  1.00  0.00    -0.071 N 
ATOM     31  H32 UNL     1       6.942   0.269  -2.263  1.00  0.00     0.277 HD
ATOM     32  H31 UNL     1       6.903   1.691  -1.654  1.00  0.00     0.277 HD
ENDBRANCH  24  25
ENDBRANCH  23  24
ENDBRANCH  22  23
ENDBRANCH  21  22
ENDBRANCH   7  21
TORSDOF 5
