REMARK  8 active torsions:
REMARK  status: ('A' for Active; 'I' for Inactive)
REMARK    1  A    between atoms: C3_3  and  C4_4 
REMARK    2  A    between atoms: C5_5  and  C6_6 
REMARK    3  A    between atoms: C6_6  and  C7_7 
REMARK    4  A    between atoms: C8_9  and  N1_10 
REMARK    5  A    between atoms: N1_10  and  C9_12 
REMARK    6  A    between atoms: C12_17  and  C13_18 
REMARK    7  A    between atoms: C16_25  and  O2_26 
REMARK    8  A    between atoms: C17_28  and  C18_29 
ROOT
HETATM    1  C7  UNL     1      -1.315  -1.737   0.216  1.00  0.00     0.180 C 
HETATM    2  O1  UNL     1      -0.085  -1.733   0.853  1.00  0.00    -0.355 OA
HETATM    3  C8  UNL     1       0.917  -1.067   0.199  1.00  0.00     0.248 C 
HETATM    4  C15 UNL     1       0.895  -1.177  -1.296  1.00  0.00     0.288 C 
HETATM    5  N3  UNL     1       0.106  -2.328  -1.674  1.00  0.00    -0.042 N 
ATOM      6  H31 UNL     1       0.466  -3.210  -1.309  1.00  0.00     0.280 HD
ATOM      7  H32 UNL     1       0.179  -2.568  -2.663  1.00  0.00     0.280 HD
HETATM    8  C16 UNL     1      -1.265  -2.025  -1.240  1.00  0.00     0.348 C 
ENDROOT
BRANCH   3   9
HETATM    9  N1  UNL     1       2.178  -1.624   0.712  1.00  0.00    -0.343 N 
ATOM     10  H1  UNL     1       2.223  -2.574   1.080  1.00  0.00     0.164 HD
BRANCH   9  11
HETATM   11  C9  UNL     1       3.245  -0.856   0.681  1.00  0.00     0.147 A 
HETATM   12  N2  UNL     1       4.477  -1.158   1.091  1.00  0.00    -0.340 N 
HETATM   13  C10 UNL     1       5.411  -0.258   0.978  1.00  0.00     0.020 A 
ATOM     14  H2  UNL     1       4.684  -2.076   1.485  1.00  0.00     0.168 HD
HETATM   15  C11 UNL     1       6.851  -0.499   1.414  1.00  0.00     0.069 C 
HETATM   16  C12 UNL     1       5.083   0.951   0.444  1.00  0.00     0.008 A 
HETATM   17  S1  UNL     1       3.418   0.749   0.118  1.00  0.00    -0.057 SA
BRANCH  16  18
HETATM   18  C13 UNL     1       5.884   2.166   0.179  1.00  0.00     0.043 C 
HETATM   19  C14 UNL     1       6.769   2.091  -1.000  1.00  0.00     0.010 C 
ENDBRANCH  16  18
ENDBRANCH   9  11
ENDBRANCH   3   9
BRANCH   1  20
HETATM   20  C6  UNL     1      -2.044  -0.478   0.577  1.00  0.00     0.042 C 
BRANCH  20  21
HETATM   21  C5  UNL     1      -3.405  -0.384  -0.071  1.00  0.00     0.011 A 
HETATM   22  C4  UNL     1      -4.186   0.900   0.278  1.00  0.00     0.027 A 
HETATM   23  C17 UNL     1      -4.618  -0.418   0.782  1.00  0.00     0.099 A 
BRANCH  22  24
HETATM   24  C3  UNL     1      -4.912   1.580  -0.828  1.00  0.00    -0.025 C 
HETATM   25  C2  UNL     1      -5.480   2.750  -0.722  1.00  0.00    -0.035 C 
HETATM   26  C1  UNL     1      -5.448   3.523   0.551  1.00  0.00     0.036 C 
ENDBRANCH  22  24
BRANCH  23  27
HETATM   27  C18 UNL     1      -5.777  -1.128   0.254  1.00  0.00     0.178 C 
HETATM   28  O3  UNL     1      -6.106  -1.007  -0.946  1.00  0.00    -0.648 OA
HETATM   29  O4  UNL     1      -6.541  -1.950   1.059  1.00  0.00    -0.648 OA
ENDBRANCH  23  27
ENDBRANCH  20  21
ENDBRANCH   1  20
BRANCH   8  30
HETATM   30  O2  UNL     1      -2.027  -3.159  -1.603  1.00  0.00    -0.368 OA
ATOM     31  H2  UNL     1      -1.995  -3.343  -2.534  1.00  0.00     0.212 HD
ENDBRANCH   8  30
TORSDOF 8
