REMARK  9 active torsions:
REMARK  status: ('A' for Active; 'I' for Inactive)
REMARK    1  A    between atoms: C2_2  and  C3_3 
REMARK    2  A    between atoms: C10_11  and  C12_13 
REMARK    3  A    between atoms: C12_13  and  C13_14 
REMARK    4  A    between atoms: C13_14  and  C14_15 
REMARK    5  A    between atoms: C15_17  and  C16_18 
REMARK    6  A    between atoms: C16_18  and  O3_19 
REMARK    7  A    between atoms: C17_21  and  O4_22 
REMARK    8  A    between atoms: C18_24  and  O5_25 
REMARK    9  A    between atoms: C19_27  and  O6_28 
ROOT
HETATM    1  C14 UNL     1       1.945   0.691  -0.052  1.00  0.00     0.153 C 
HETATM    2  O2  UNL     1       2.596  -0.058   0.912  1.00  0.00    -0.373 OA
HETATM    3  C15 UNL     1       3.963   0.033   0.874  1.00  0.00     0.176 C 
HETATM    4  C17 UNL     1       4.518   0.302  -0.492  1.00  0.00     0.180 C 
HETATM    5  C18 UNL     1       3.610  -0.372  -1.500  1.00  0.00     0.180 C 
HETATM    6  C19 UNL     1       2.239   0.269  -1.457  1.00  0.00     0.178 C 
ENDROOT
BRANCH   1   7
HETATM    7  C13 UNL     1       0.466   0.741   0.260  1.00  0.00     0.035 C 
BRANCH   7   8
HETATM    8  C12 UNL     1      -0.124  -0.623   0.280  1.00  0.00     0.012 C 
BRANCH   8   9
HETATM    9  C10 UNL     1      -1.604  -0.675   0.593  1.00  0.00    -0.035 C 
HETATM   10  C9  UNL     1      -2.065  -2.144   0.593  1.00  0.00     0.013 C 
HETATM   11  C8  UNL     1      -1.848  -2.800  -0.748  1.00  0.00     0.028 C 
HETATM   12  C7  UNL     1      -2.634  -1.978  -1.720  1.00  0.00    -0.023 C 
HETATM   13  C6  UNL     1      -2.886  -0.723  -1.532  1.00  0.00    -0.071 C 
HETATM   14  C5  UNL     1      -3.635   0.314  -2.327  1.00  0.00     0.113 C 
HETATM   15  C20 UNL     1      -2.437   0.101  -0.334  1.00  0.00     0.037 C 
HETATM   16  C4  UNL     1      -4.411   0.963  -1.218  1.00  0.00     0.139 C 
HETATM   17  C3  UNL     1      -3.736   0.642   0.104  1.00  0.00     0.086 C 
HETATM   18  O1  UNL     1      -5.406   1.622  -1.424  1.00  0.00    -0.297 OA
HETATM   19  C11 UNL     1      -1.718  -0.267   2.046  1.00  0.00     0.016 C 
BRANCH  17  20
HETATM   20  C2  UNL     1      -3.740   1.901   0.857  1.00  0.00    -0.024 C 
HETATM   21  C1  UNL     1      -4.263   1.951   2.054  1.00  0.00     0.008 C 
ENDBRANCH  17  20
ENDBRANCH   8   9
ENDBRANCH   7   8
ENDBRANCH   1   7
BRANCH   6  22
HETATM   22  O6  UNL     1       2.324   1.411  -2.285  1.00  0.00    -0.390 OA
ATOM     23  H6  UNL     1       2.511   1.143  -3.177  1.00  0.00     0.210 HD
ENDBRANCH   6  22
BRANCH   3  24
HETATM   24  C16 UNL     1       4.535   1.022   1.861  1.00  0.00     0.198 C 
BRANCH  24  25
HETATM   25  O3  UNL     1       4.195   0.666   3.165  1.00  0.00    -0.398 OA
ATOM     26  H3  UNL     1       4.555   1.288   3.786  1.00  0.00     0.209 HD
ENDBRANCH  24  25
ENDBRANCH   3  24
BRANCH   5  27
HETATM   27  O5  UNL     1       3.572  -1.727  -1.229  1.00  0.00    -0.390 OA
ATOM     28  H5  UNL     1       3.003  -2.150  -1.861  1.00  0.00     0.210 HD
ENDBRANCH   5  27
BRANCH   4  29
HETATM   29  O4  UNL     1       5.787  -0.273  -0.564  1.00  0.00    -0.390 OA
ATOM     30  H4  UNL     1       6.139  -0.102  -1.430  1.00  0.00     0.210 HD
ENDBRANCH   4  29
TORSDOF 9
