REMARK  4 active torsions:
REMARK  status: ('A' for Active; 'I' for Inactive)
REMARK       I    between atoms: C2_5  and  N3_6 
REMARK       I    between atoms: C2_5  and  N5_21 
REMARK       I    between atoms: N3_6  and  C3_8 
REMARK    1  A    between atoms: C3_8  and  C4_10 
REMARK    2  A    between atoms: C5_11  and  C6_12 
REMARK    3  A    between atoms: N5_21  and  C13_23 
REMARK    4  A    between atoms: C17_27  and  C18_28 
ROOT
HETATM    1  N1  UNL     1      -1.792  -4.100   2.429  1.00  0.00    -0.171 NA
HETATM    2  C1  UNL     1      -2.078  -3.578   1.430  1.00  0.00     0.196 C 
HETATM    3  N2  UNL     1      -2.412  -2.948   0.227  1.00  0.00    -0.126 N 
ATOM      4  H2  UNL     1      -3.322  -3.136  -0.194  1.00  0.00     0.197 HD
HETATM    5  C2  UNL     1      -1.605  -2.137  -0.365  1.00  0.00     0.694 C 
HETATM    6  N3  UNL     1      -0.349  -1.888   0.233  1.00  0.00    -0.155 N 
ATOM      7  H3  UNL     1      -0.097  -2.344   1.110  1.00  0.00     0.187 HD
HETATM    8  C3  UNL     1       0.563  -0.994  -0.401  1.00  0.00     0.259 C 
HETATM    9  O1  UNL     1       0.291  -0.416  -1.479  1.00  0.00    -0.268 OA
HETATM   10  N5  UNL     1      -1.970  -1.514  -1.582  1.00  0.00    -0.191 N 
ATOM     11  H5  UNL     1      -1.530  -1.810  -2.453  1.00  0.00     0.184 HD
ENDROOT
BRANCH  10  12
HETATM   12  C13 UNL     1      -2.947  -0.477  -1.601  1.00  0.00     0.050 A 
HETATM   13  C14 UNL     1      -3.300   0.128  -2.784  1.00  0.00     0.030 A 
HETATM   14  C15 UNL     1      -4.232   1.127  -2.855  1.00  0.00     0.003 A 
HETATM   15  C16 UNL     1      -4.828   1.527  -1.679  1.00  0.00     0.017 A 
HETATM   16  C17 UNL     1      -4.493   0.934  -0.454  1.00  0.00     0.031 A 
HETATM   17  C19 UNL     1      -3.548  -0.070  -0.430  1.00  0.00     0.046 A 
BRANCH  16  18
HETATM   18  C18 UNL     1      -5.128   1.364   0.778  1.00  0.00     0.265 C 
HETATM   19  N6  UNL     1      -4.761   0.739   1.993  1.00  0.00    -0.057 NA
HETATM   20  O2  UNL     1      -5.984   2.277   0.733  1.00  0.00    -0.271 OA
ENDBRANCH  16  18
ENDBRANCH  10  12
BRANCH   8  21
HETATM   21  C4  UNL     1       1.875  -0.738   0.231  1.00  0.00     0.076 C 
HETATM   22  C5  UNL     1       2.706   0.090  -0.368  1.00  0.00     0.018 C 
BRANCH  22  23
HETATM   23  C6  UNL     1       4.016   0.413   0.162  1.00  0.00    -0.017 A 
HETATM   24  C7  UNL     1       4.474  -0.134   1.336  1.00  0.00     0.035 A 
HETATM   25  C8  UNL     1       5.736   0.214   1.792  1.00  0.00     0.045 A 
HETATM   26  C9  UNL     1       6.195  -0.364   3.014  1.00  0.00     0.099 C 
HETATM   27  C10 UNL     1       6.526   1.088   1.093  1.00  0.00     0.024 A 
HETATM   28  N4  UNL     1       6.562  -0.837   3.995  1.00  0.00    -0.191 NA
HETATM   29  C11 UNL     1       6.045   1.627  -0.089  1.00  0.00     0.021 A 
HETATM   30  C12 UNL     1       4.810   1.302  -0.558  1.00  0.00     0.021 A 
HETATM   31 BR1  UNL     1       4.154   2.054  -2.194  1.00  0.00    -0.050 Br
ENDBRANCH  22  23
ENDBRANCH   8  21
TORSDOF 4
