REMARK  6 active torsions:
REMARK  status: ('A' for Active; 'I' for Inactive)
REMARK    1  A    between atoms: C2_2  and  C3_3 
REMARK       I    between atoms: C3_3  and  N1_5 
REMARK       I    between atoms: N1_5  and  C4_7 
REMARK    2  A    between atoms: C4_7  and  C5_9 
REMARK    3  A    between atoms: C5_9  and  C6_10 
REMARK    4  A    between atoms: C16_22  and  C17_23 
REMARK    5  A    between atoms: C18_26  and  C20_28 
REMARK    6  A    between atoms: C20_28  and  O6_29 
ROOT
HETATM    1  C6  UNL     1      -0.165  -0.501  -0.221  1.00  0.00    -0.016 C 
HETATM    2  C7  UNL     1       0.223  -1.809  -0.797  1.00  0.00     0.092 C 
HETATM    3  C8  UNL     1      -0.740  -2.577  -1.558  1.00  0.00     0.167 C 
HETATM    4  O3  UNL     1      -0.560  -3.754  -1.755  1.00  0.00    -0.294 OA
HETATM    5  C9  UNL     1      -1.875  -1.776  -2.017  1.00  0.00     0.163 C 
HETATM    6  F1  UNL     1      -2.265  -2.306  -3.238  1.00  0.00    -0.235 F 
HETATM    7  C10 UNL     1      -2.933  -2.071  -0.947  1.00  0.00     0.052 C 
HETATM    8  C11 UNL     1      -2.417  -2.463   0.382  1.00  0.00     0.013 C 
HETATM    9  C12 UNL     1      -1.949  -1.331   1.315  1.00  0.00    -0.042 C 
HETATM   10  C13 UNL     1      -0.975  -1.933   2.310  1.00  0.00     0.015 C 
HETATM   11  C14 UNL     1      -3.178  -1.044   2.150  1.00  0.00     0.015 C 
HETATM   12  C15 UNL     1      -1.467  -0.268   0.464  1.00  0.00     0.018 C 
HETATM   13  C16 UNL     1      -1.373   1.176   0.740  1.00  0.00     0.103 C 
HETATM   14  C18 UNL     1      -0.966   1.628  -0.708  1.00  0.00    -0.004 C 
HETATM   15  C19 UNL     1       0.103   2.691  -0.660  1.00  0.00     0.019 C 
HETATM   16  C21 UNL     1      -0.527   0.369  -1.419  1.00  0.00     0.010 C 
HETATM   17  C22 UNL     1      -1.588  -0.329  -2.207  1.00  0.00     0.058 C 
ENDROOT
BRANCH   1  18
HETATM   18  C5  UNL     1       1.025  -0.144   0.551  1.00  0.00     0.113 C 
BRANCH  18  19
HETATM   19  C4  UNL     1       2.330   0.052  -0.111  1.00  0.00     0.225 C 
HETATM   20  N1  UNL     1       3.506   0.300   0.695  1.00  0.00    -0.298 N 
HETATM   21  C3  UNL     1       4.783   0.494   0.131  1.00  0.00     0.223 C 
ATOM     22  H1  UNL     1       3.407   0.336   1.710  1.00  0.00     0.171 HD
HETATM   23  O1  UNL     1       4.907   0.451  -1.118  1.00  0.00    -0.273 OA
HETATM   24  O2  UNL     1       2.570   0.032  -1.328  1.00  0.00    -0.273 OA
BRANCH  21  25
HETATM   25  C2  UNL     1       5.995   0.746   0.939  1.00  0.00     0.099 C 
HETATM   26  C1  UNL     1       7.199   0.909   0.049  1.00  0.00     0.014 C 
ENDBRANCH  21  25
ENDBRANCH  18  19
ENDBRANCH   1  18
BRANCH  13  27
HETATM   27  C17 UNL     1      -2.574   1.938   1.114  1.00  0.00     0.178 C 
HETATM   28  O4  UNL     1      -3.768   1.691   1.040  1.00  0.00    -0.648 OA
HETATM   29  O5  UNL     1      -2.382   3.232   1.676  1.00  0.00    -0.648 OA
ENDBRANCH  13  27
BRANCH  14  30
HETATM   30  C20 UNL     1      -2.139   2.306  -1.370  1.00  0.00     0.174 C 
BRANCH  30  31
HETATM   31  O6  UNL     1      -1.710   2.675  -2.645  1.00  0.00    -0.400 OA
ATOM     32  H6  UNL     1      -2.449   3.102  -3.062  1.00  0.00     0.209 HD
ENDBRANCH  30  31
ENDBRANCH  14  30
TORSDOF 6
