REMARK  8 active torsions:
REMARK  status: ('A' for Active; 'I' for Inactive)
REMARK    1  A    between atoms: O1_2  and  C2_3 
REMARK       I    between atoms: C2_3  and  N1_5 
REMARK    2  A    between atoms: N1_5  and  C3_6 
REMARK    3  A    between atoms: C3_6  and  N2_7 
REMARK    4  A    between atoms: C3_6  and  C11_18 
REMARK       I    between atoms: N2_7  and  C4_9 
REMARK    5  A    between atoms: C4_9  and  C5_11 
REMARK       I    between atoms: C11_18  and  N3_20 
REMARK    6  A    between atoms: N3_20  and  N4_22 
REMARK       I    between atoms: N4_22  and  C12_24 
REMARK    7  A    between atoms: C12_24  and  C13_26 
REMARK    8  A    between atoms: C16_29  and  N5_30 
ROOT
HETATM    1  C3  UNL     1       1.698   0.505  -0.230  1.00  0.00     0.258 C 
ENDROOT
BRANCH   1   2
HETATM    2  N1  UNL     1       1.875   1.688  -0.509  1.00  0.00    -0.321 NA
HETATM    3  C2  UNL     1       1.876   2.943  -0.831  1.00  0.00     0.441 C 
HETATM    4  O2  UNL     1       1.419   3.896  -0.109  1.00  0.00    -0.221 OA
BRANCH   3   5
HETATM    5  O1  UNL     1       2.403   3.409  -2.061  1.00  0.00    -0.297 OA
HETATM    6  C1  UNL     1       2.415   4.762  -2.426  1.00  0.00     0.216 C 
ENDBRANCH   3   5
ENDBRANCH   1   2
BRANCH   1   7
HETATM    7  N2  UNL     1       2.824  -0.264   0.116  1.00  0.00    -0.293 N 
HETATM    8  C4  UNL     1       2.923  -1.595   0.469  1.00  0.00     0.258 C 
HETATM    9  O3  UNL     1       2.049  -2.482   0.573  1.00  0.00    -0.267 OA
ATOM     10  H2  UNL     1       3.709   0.243   0.104  1.00  0.00     0.172 HD
BRANCH   8  11
HETATM   11  C5  UNL     1       4.286  -2.127   0.793  1.00  0.00     0.032 A 
HETATM   12  C6  UNL     1       5.241  -1.304   1.309  1.00  0.00     0.018 A 
HETATM   13  C7  UNL     1       6.526  -1.787   1.609  1.00  0.00     0.025 A 
HETATM   14  C8  UNL     1       6.832  -3.100   1.384  1.00  0.00     0.034 A 
HETATM   15 CL1  UNL     1       8.443  -3.689   1.765  1.00  0.00    -0.084 Cl
HETATM   16  C9  UNL     1       5.873  -3.938   0.864  1.00  0.00     0.025 A 
HETATM   17  C10 UNL     1       4.614  -3.451   0.573  1.00  0.00     0.018 A 
ENDBRANCH   8  11
ENDBRANCH   1   7
BRANCH   1  18
HETATM   18  C11 UNL     1       0.347  -0.022  -0.271  1.00  0.00     0.318 C 
HETATM   19  O4  UNL     1      -0.041  -1.167  -0.029  1.00  0.00    -0.261 OA
HETATM   20  N3  UNL     1      -0.725   0.893  -0.645  1.00  0.00    -0.260 N 
ATOM     21  H3  UNL     1      -0.537   1.870  -0.869  1.00  0.00     0.190 HD
BRANCH  20  22
HETATM   22  N4  UNL     1      -2.013   0.377  -0.683  1.00  0.00    -0.263 N 
HETATM   23  C12 UNL     1      -3.019   0.943   0.130  1.00  0.00     0.270 C 
HETATM   24  O5  UNL     1      -2.717   1.922   0.878  1.00  0.00    -0.266 OA
ATOM     25  H4  UNL     1      -2.232  -0.408  -1.296  1.00  0.00     0.190 HD
BRANCH  23  26
HETATM   26  C13 UNL     1      -4.395   0.449   0.147  1.00  0.00     0.033 A 
HETATM   27  C14 UNL     1      -4.773  -0.711  -0.482  1.00  0.00     0.019 A 
HETATM   28  C15 UNL     1      -6.106  -1.139  -0.434  1.00  0.00     0.037 A 
HETATM   29  C16 UNL     1      -7.077  -0.426   0.233  1.00  0.00     0.102 A 
HETATM   30  C17 UNL     1      -6.692   0.737   0.862  1.00  0.00     0.037 A 
HETATM   31  C18 UNL     1      -5.376   1.159   0.815  1.00  0.00     0.019 A 
BRANCH  29  32
HETATM   32  N5  UNL     1      -8.420  -0.881   0.267  1.00  0.00    -0.116 N 
HETATM   33  O6  UNL     1      -9.277  -0.230   0.868  1.00  0.00    -0.532 OA
HETATM   34  O7  UNL     1      -8.809  -2.043  -0.358  1.00  0.00    -0.532 OA
ENDBRANCH  29  32
ENDBRANCH  23  26
ENDBRANCH  20  22
ENDBRANCH   1  18
TORSDOF 8
