REMARK  6 active torsions:
REMARK  status: ('A' for Active; 'I' for Inactive)
REMARK    1  A    between atoms: C2_4  and  O1_6 
REMARK    2  A    between atoms: O1_6  and  C3_7 
REMARK    3  A    between atoms: C4_10  and  O2_11 
REMARK    4  A    between atoms: C17_25  and  O3_26 
REMARK    5  A    between atoms: O3_26  and  C18_27 
REMARK    6  A    between atoms: C20_30  and  O4_31 
ROOT
HETATM    1  C3  UNL     1       2.740  -0.161  -1.303  1.00  0.00     0.232 C 
HETATM    2  N3  UNL     1       1.774  -0.724  -2.214  1.00  0.00    -0.362 N 
ATOM      3  H3  UNL     1       2.015  -0.947  -3.180  1.00  0.00     0.159 HD
HETATM    4  C4  UNL     1       0.472  -0.952  -1.700  1.00  0.00     0.168 C 
HETATM    5  C5  UNL     1       0.462  -1.895  -0.473  1.00  0.00     0.074 C 
HETATM    6  C6  UNL     1       1.486  -1.270   0.403  1.00  0.00     0.021 C 
HETATM    7  C7  UNL     1       1.920   0.107  -0.012  1.00  0.00     0.043 C 
HETATM    8  C8  UNL     1       0.919   1.089  -0.466  1.00  0.00     0.038 C 
HETATM    9  C9  UNL     1       0.308   1.996   0.516  1.00  0.00     0.047 C 
HETATM   10  C10 UNL     1      -1.171   2.017   0.642  1.00  0.00    -0.048 A 
HETATM   11  C11 UNL     1      -1.879   3.172   0.916  1.00  0.00     0.047 A 
HETATM   12  C12 UNL     1      -3.241   3.073   1.061  1.00  0.00     0.105 A 
HETATM   13  C13 UNL     1      -3.870   1.850   0.933  1.00  0.00     0.105 A 
HETATM   14  C14 UNL     1      -3.179   0.692   0.659  1.00  0.00     0.048 A 
HETATM   15  C15 UNL     1      -1.822   0.768   0.511  1.00  0.00    -0.039 A 
HETATM   16  C16 UNL     1      -0.887  -0.254   0.212  1.00  0.00     0.089 C 
HETATM   17  C17 UNL     1      -1.008  -1.642  -0.040  1.00  0.00     0.145 C 
HETATM   18  C20 UNL     1      -0.219   0.219  -1.073  1.00  0.00     0.124 C 
HETATM   19  O5  UNL     1      -5.229   2.068   1.130  1.00  0.00    -0.323 OA
HETATM   20  C22 UNL     1      -5.440   3.467   0.954  1.00  0.00     0.352 C 
HETATM   21  O6  UNL     1      -4.198   4.058   1.337  1.00  0.00    -0.323 OA
ENDROOT
BRANCH   1  22
HETATM   22  O1  UNL     1       3.826  -0.996  -1.052  1.00  0.00    -0.298 OA
BRANCH  22  23
HETATM   23  C2  UNL     1       4.816  -0.548  -0.188  1.00  0.00     0.229 C 
HETATM   24  N1  UNL     1       5.019   0.739  -0.119  1.00  0.00    -0.363 N 
HETATM   25  C1  UNL     1       6.017   1.299   0.742  1.00  0.00     0.149 C 
ATOM     26  H1  UNL     1       4.452   1.363  -0.693  1.00  0.00     0.162 HD
HETATM   27  N2  UNL     1       5.610  -1.400   0.615  1.00  0.00    -0.056 NA
ENDBRANCH  22  23
ENDBRANCH   1  22
BRANCH   4  28
HETATM   28  O2  UNL     1      -0.246  -1.655  -2.643  1.00  0.00    -0.368 OA
ATOM     29  H2  UNL     1      -1.118  -1.808  -2.299  1.00  0.00     0.212 HD
ENDBRANCH   4  28
BRANCH  18  30
HETATM   30  O4  UNL     1      -0.882   1.043  -1.869  1.00  0.00    -0.379 OA
HETATM   31  C21 UNL     1      -1.854   0.778  -2.720  1.00  0.00     0.202 C 
ENDBRANCH  18  30
BRANCH  17  32
HETATM   32  O3  UNL     1      -1.183  -2.416   1.104  1.00  0.00    -0.351 OA
BRANCH  32  33
HETATM   33  C18 UNL     1      -2.069  -3.457   0.929  1.00  0.00     0.303 C 
HETATM   34  C19 UNL     1      -3.151  -3.511   1.962  1.00  0.00     0.076 C 
HETATM   35  F1  UNL     1      -1.327  -4.639   1.061  1.00  0.00    -0.220 F 
ENDBRANCH  32  33
ENDBRANCH  17  32
TORSDOF 6
