REMARK  7 active torsions:
REMARK  status: ('A' for Active; 'I' for Inactive)
REMARK    1  A    between atoms: C4_7  and  N3_8 
REMARK    2  A    between atoms: N5_14  and  C6_16 
REMARK    3  A    between atoms: C6_16  and  C7_17 
REMARK    4  A    between atoms: C7_17  and  C8_18 
REMARK    5  A    between atoms: C8_18  and  C9_19 
REMARK    6  A    between atoms: C9_19  and  C10_20 
REMARK    7  A    between atoms: C10_20  and  N6_21 
ROOT
HETATM    1  N1  UNL     1       2.553  -0.740   2.916  1.00  0.00    -0.191 NA
HETATM    2  C1  UNL     1       3.220  -0.312   2.102  1.00  0.00     0.104 C 
HETATM    3  C2  UNL     1       4.088   0.245   1.093  1.00  0.00     0.104 A 
HETATM    4  C3  UNL     1       5.248   0.912   1.490  1.00  0.00     0.132 A 
HETATM    5  N2  UNL     1       6.087   1.448   0.589  1.00  0.00    -0.201 N 
ATOM      6  H2  UNL     1       6.925   1.929   0.917  1.00  0.00     0.183 HD
HETATM    7  C4  UNL     1       5.854   1.369  -0.733  1.00  0.00     0.677 A 
HETATM    8  N4  UNL     1       4.752   0.736  -1.124  1.00  0.00    -0.176 N 
ATOM      9  H4  UNL     1       4.565   0.671  -2.125  1.00  0.00     0.186 HD
HETATM   10  C5  UNL     1       3.847   0.163  -0.257  1.00  0.00     0.139 A 
HETATM   11  N5  UNL     1       2.838  -0.412  -0.728  1.00  0.00    -0.375 N 
ATOM     12  H5  UNL     1       2.830  -0.372  -1.747  1.00  0.00     0.161 HD
ENDROOT
BRANCH  11  13
HETATM   13  C6  UNL     1       1.728  -1.089  -0.240  1.00  0.00     0.121 C 
BRANCH  13  14
HETATM   14  C7  UNL     1       0.789  -1.565  -1.377  1.00  0.00     0.020 C 
BRANCH  14  15
HETATM   15  C8  UNL     1      -0.367  -2.282  -0.753  1.00  0.00     0.003 C 
BRANCH  15  16
HETATM   16  C9  UNL     1      -1.170  -1.440   0.184  1.00  0.00     0.030 C 
BRANCH  16  17
HETATM   17  C10 UNL     1      -1.771  -0.229  -0.469  1.00  0.00     0.272 C 
BRANCH  17  18
HETATM   18  N6  UNL     1      -2.532   0.560   0.475  1.00  0.00     0.088 N 
HETATM   19  C11 UNL     1      -3.068   1.718  -0.209  1.00  0.00     0.272 C 
HETATM   20  C12 UNL     1      -4.562   1.694  -0.223  1.00  0.00     0.030 C 
HETATM   21  C13 UNL     1      -5.146   0.378  -0.642  1.00  0.00     0.003 C 
HETATM   22  C14 UNL     1      -4.592  -0.709   0.232  1.00  0.00     0.030 C 
HETATM   23  C15 UNL     1      -3.553  -0.157   1.164  1.00  0.00     0.272 C 
ENDBRANCH  17  18
ENDBRANCH  16  17
ENDBRANCH  15  16
ENDBRANCH  14  15
ENDBRANCH  13  14
ENDBRANCH  11  13
BRANCH   7  24
HETATM   24  N3  UNL     1       6.671   1.889  -1.598  1.00  0.00    -0.234 N 
ATOM     25  H32 UNL     1       7.516   2.375  -1.298  1.00  0.00     0.174 HD
ATOM     26  H31 UNL     1       6.494   1.829  -2.601  1.00  0.00     0.174 HD
ENDBRANCH   7  24
TORSDOF 7
