REMARK  9 active torsions:
REMARK  status: ('A' for Active; 'I' for Inactive)
REMARK    1  A    between atoms: N1_1  and  C1_4 
REMARK    2  A    between atoms: C4_7  and  C5_8 
REMARK    3  A    between atoms: C11_16  and  N3_17 
REMARK    4  A    between atoms: N3_17  and  C12_19 
REMARK    5  A    between atoms: C12_19  and  C13_20 
REMARK    6  A    between atoms: C13_20  and  O1_21 
REMARK    7  A    between atoms: O1_21  and  C14_22 
REMARK    8  A    between atoms: C14_22  and  C15_23 
REMARK    9  A    between atoms: C15_23  and  O2_24 
ROOT
HETATM    1  C1  UNL     1       1.265  -3.154   0.496  1.00  0.00     0.114 C 
HETATM    2  C2  UNL     1       2.535  -2.689   0.812  1.00  0.00     0.051 C 
HETATM    3  C3  UNL     1       2.884  -1.351   1.035  1.00  0.00     0.034 C 
HETATM    4  C4  UNL     1       2.172  -0.221   0.707  1.00  0.00     0.059 C 
HETATM    5  N2  UNL     1       0.809  -0.143   0.719  1.00  0.00    -0.191 N 
ATOM      6  H2  UNL     1       0.434   0.801   0.812  1.00  0.00     0.184 HD
HETATM    7  C11 UNL     1      -0.119  -1.113   0.628  1.00  0.00     0.680 C 
HETATM    8  N4  UNL     1       0.139  -2.410   0.392  1.00  0.00    -0.177 N 
ATOM      9  H4  UNL     1      -0.673  -2.938   0.072  1.00  0.00     0.185 HD
ENDROOT
BRANCH   7  10
HETATM   10  N3  UNL     1      -1.312  -0.707   0.788  1.00  0.00    -0.224 N 
ATOM     11  H3  UNL     1      -1.420   0.292   0.964  1.00  0.00     0.177 HD
BRANCH  10  12
HETATM   12  C12 UNL     1      -2.519  -1.462   0.754  1.00  0.00     0.164 C 
BRANCH  12  13
HETATM   13  C13 UNL     1      -3.071  -1.448  -0.648  1.00  0.00     0.188 C 
BRANCH  13  14
HETATM   14  O1  UNL     1      -3.357  -0.190  -1.116  1.00  0.00    -0.387 OA
BRANCH  14  15
HETATM   15  C14 UNL     1      -4.282   0.503  -0.387  1.00  0.00     0.193 C 
BRANCH  15  16
HETATM   16  C15 UNL     1      -4.480   1.863  -1.038  1.00  0.00     0.190 C 
BRANCH  16  17
HETATM   17  O2  UNL     1      -5.425   2.587  -0.304  1.00  0.00    -0.399 OA
ATOM     18  H2  UNL     1      -5.549   3.437  -0.711  1.00  0.00     0.209 HD
ENDBRANCH  16  17
ENDBRANCH  15  16
ENDBRANCH  14  15
ENDBRANCH  13  14
ENDBRANCH  12  13
ENDBRANCH  10  12
ENDBRANCH   7  10
BRANCH   4  19
HETATM   19  C5  UNL     1       2.868   0.996   0.322  1.00  0.00    -0.009 A 
HETATM   20  C6  UNL     1       4.234   1.055   0.234  1.00  0.00     0.014 A 
HETATM   21  C7  UNL     1       4.888   2.239  -0.132  1.00  0.00     0.001 A 
HETATM   22  C8  UNL     1       4.156   3.373  -0.413  1.00  0.00     0.000 A 
HETATM   23  C9  UNL     1       2.783   3.300  -0.322  1.00  0.00     0.001 A 
HETATM   24  C10 UNL     1       2.124   2.149   0.036  1.00  0.00     0.014 A 
ENDBRANCH   4  19
BRANCH   1  25
HETATM   25  N1  UNL     1       1.178  -4.415   0.287  1.00  0.00    -0.385 N 
ATOM     26  H12 UNL     1       2.026  -4.976   0.365  1.00  0.00     0.157 HD
ATOM     27  H11 UNL     1       0.245  -4.756   0.055  1.00  0.00     0.157 HD
ENDBRANCH   1  25
TORSDOF 9
