REMARK  8 active torsions:
REMARK  status: ('A' for Active; 'I' for Inactive)
REMARK    1  A    between atoms: O1_1  and  C1_3 
REMARK    2  A    between atoms: C1_3  and  C2_4 
REMARK    3  A    between atoms: C2_4  and  O2_5 
REMARK    4  A    between atoms: N1_9  and  C5_10 
REMARK    5  A    between atoms: C5_10  and  C6_11 
REMARK    6  A    between atoms: C6_11  and  C7_12 
REMARK    7  A    between atoms: C7_12  and  C8_13 
REMARK    8  A    between atoms: C8_13  and  C9_14 
ROOT
HETATM    1  C2  UNL     1      -3.381   0.689  -0.169  1.00  0.00     0.086 C 
HETATM    2  C3  UNL     1      -2.139   1.327  -0.643  1.00  0.00     0.060 C 
HETATM    3  C4  UNL     1      -0.838   0.734  -0.299  1.00  0.00     0.126 C 
HETATM    4  N1  UNL     1      -0.782  -0.194   0.778  1.00  0.00    -0.375 N 
HETATM    5  C12 UNL     1      -1.989  -0.752   1.279  1.00  0.00     0.078 C 
HETATM    6  S1  UNL     1      -1.965  -2.193   2.030  1.00  0.00    -0.065 SA
HETATM    7  C13 UNL     1      -3.291  -0.061   1.139  1.00  0.00     0.109 C 
ENDROOT
BRANCH   4   8
HETATM    8  C5  UNL     1       0.470  -0.593   1.380  1.00  0.00     0.123 C 
BRANCH   8   9
HETATM    9  C6  UNL     1       1.314  -1.428   0.446  1.00  0.00     0.020 C 
BRANCH   9  10
HETATM   10  C7  UNL     1       2.608  -1.844   1.057  1.00  0.00     0.008 C 
BRANCH  10  11
HETATM   11  C8  UNL     1       3.529  -0.750   1.457  1.00  0.00     0.058 C 
BRANCH  11  12
HETATM   12  C9  UNL     1       3.937   0.090   0.286  1.00  0.00     0.025 A 
HETATM   13  C10 UNL     1       3.360   1.219  -0.238  1.00  0.00     0.113 A 
HETATM   14  N2  UNL     1       4.063   1.660  -1.312  1.00  0.00    -0.360 N 
HETATM   15  C11 UNL     1       5.079   0.806  -1.456  1.00  0.00     0.180 A 
ATOM     16  H2  UNL     1       3.858   2.475  -1.890  1.00  0.00     0.166 HD
HETATM   17  N3  UNL     1       5.025  -0.150  -0.505  1.00  0.00    -0.355 N 
ATOM     18  H3  UNL     1       5.684  -0.921  -0.395  1.00  0.00     0.166 HD
ENDBRANCH  11  12
ENDBRANCH  10  11
ENDBRANCH   9  10
ENDBRANCH   8   9
ENDBRANCH   4   8
BRANCH   1  19
HETATM   19  C1  UNL     1      -4.010  -0.274  -1.189  1.00  0.00     0.202 C 
BRANCH  19  20
HETATM   20  O1  UNL     1      -5.188  -0.721  -0.548  1.00  0.00    -0.398 OA
ATOM     21  H1  UNL     1      -5.577  -1.316  -1.178  1.00  0.00     0.209 HD
ENDBRANCH  19  20
ENDBRANCH   1  19
BRANCH   1  22
HETATM   22  O2  UNL     1      -4.352   1.682   0.018  1.00  0.00    -0.387 OA
ATOM     23  H2  UNL     1      -3.963   2.277   0.648  1.00  0.00     0.210 HD
ENDBRANCH   1  22
TORSDOF 8
