REMARK  14 active torsions:
REMARK  status: ('A' for Active; 'I' for Inactive)
REMARK    1  A    between atoms: O1_2  and  C2_3 
REMARK    2  A    between atoms: C2_3  and  C3_4 
REMARK    3  A    between atoms: C3_4  and  N1_5 
REMARK    4  A    between atoms: C3_4  and  C14_41 
REMARK    5  A    between atoms: N1_5  and  C4_7 
REMARK    6  A    between atoms: C5_8  and  N2_9 
REMARK    7  A    between atoms: N2_9  and  C6_11 
REMARK    8  A    between atoms: N5_19  and  N6_20 
REMARK    9  A    between atoms: N7_23  and  N8_24 
REMARK   10  A    between atoms: N9_27  and  N10_28 
REMARK   11  A    between atoms: N10_28  and  O2_30 
REMARK   12  A    between atoms: C12_36  and  O3_37 
REMARK   13  A    between atoms: C14_41  and  O5_42 
REMARK   14  A    between atoms: C14_41  and  O6_44 
ROOT
HETATM    1  N2  UNL     1       0.813  -0.445  -0.941  1.00  0.00    -0.325 N 
ATOM      2  H2  UNL     1       0.705   0.005  -1.850  1.00  0.00     0.169 HD
ENDROOT
BRANCH   1   3
HETATM    3  C5  UNL     1       0.067  -1.639  -0.680  1.00  0.00     0.138 A 
HETATM    4  C4  UNL     1      -1.303  -1.479  -0.618  1.00  0.00     0.130 A 
HETATM    5  C13 UNL     1      -2.076  -2.593  -0.370  1.00  0.00     0.237 A 
HETATM    6  C12 UNL     1      -1.441  -3.829  -0.193  1.00  0.00     0.141 A 
HETATM    7  O4  UNL     1      -3.329  -2.574  -0.290  1.00  0.00    -0.283 OA
HETATM    8  C10 UNL     1      -0.065  -3.928  -0.266  1.00  0.00     0.044 A 
HETATM    9  N11 UNL     1       0.668  -2.830  -0.509  1.00  0.00    -0.342 N 
HETATM   10  C11 UNL     1       0.568  -5.276  -0.069  1.00  0.00     0.071 C 
ATOM     11  H11 UNL     1       1.684  -2.899  -0.564  1.00  0.00     0.167 HD
BRANCH   4  12
HETATM   12  N1  UNL     1      -1.940  -0.203  -0.802  1.00  0.00    -0.351 N 
ATOM     13  H1  UNL     1      -2.126   0.110  -1.755  1.00  0.00     0.166 HD
BRANCH  12  14
HETATM   14  C3  UNL     1      -2.283   0.555   0.155  1.00  0.00     0.066 C 
BRANCH  14  15
HETATM   15  C2  UNL     1      -2.934   1.847  -0.187  1.00  0.00     0.224 C 
BRANCH  15  16
HETATM   16  O1  UNL     1      -4.220   1.909   0.376  1.00  0.00    -0.390 OA
HETATM   17  C1  UNL     1      -4.828   3.116   0.057  1.00  0.00     0.201 C 
ENDBRANCH  15  16
ENDBRANCH  14  15
BRANCH  14  18
HETATM   18  C14 UNL     1      -2.035   0.147   1.547  1.00  0.00     0.303 C 
BRANCH  18  19
HETATM   19  O5  UNL     1      -1.212   1.043   2.226  1.00  0.00    -0.366 OA
ATOM     20  H5  UNL     1      -1.052   0.780   3.125  1.00  0.00     0.213 HD
ENDBRANCH  18  19
BRANCH  18  21
HETATM   21  O6  UNL     1      -3.218   0.021   2.277  1.00  0.00    -0.366 OA
ATOM     22  H6  UNL     1      -3.058  -0.242   3.176  1.00  0.00     0.213 HD
ENDBRANCH  18  21
ENDBRANCH  14  18
ENDBRANCH  12  14
ENDBRANCH   4  12
BRANCH   6  23
HETATM   23  O3  UNL     1      -2.193  -4.964   0.058  1.00  0.00    -0.355 OA
ATOM     24  H3  UNL     1      -3.139  -4.896   0.108  1.00  0.00     0.218 HD
ENDBRANCH   6  23
ENDBRANCH   1   3
BRANCH   1  25
HETATM   25  C6  UNL     1       1.605   0.083  -0.095  1.00  0.00     0.142 A 
HETATM   26  N3  UNL     1       1.845  -0.397   1.137  1.00  0.00    -0.336 N 
HETATM   27  C7  UNL     1       2.689   0.195   1.994  1.00  0.00     0.183 A 
ATOM     28  H3  UNL     1       1.365  -1.247   1.432  1.00  0.00     0.168 HD
HETATM   29  N4  UNL     1       3.335   1.329   1.614  1.00  0.00    -0.334 N 
HETATM   30  C8  UNL     1       3.130   1.861   0.376  1.00  0.00     0.180 A 
ATOM     31  H4  UNL     1       3.978   1.786   2.261  1.00  0.00     0.168 HD
HETATM   32  C9  UNL     1       2.258   1.249  -0.509  1.00  0.00     0.164 A 
HETATM   33  N9  UNL     1       3.656   3.008  -0.272  1.00  0.00    -0.139 N 
HETATM   34  N5  UNL     1       2.285   2.047  -1.669  1.00  0.00    -0.177 N 
HETATM   35  N7  UNL     1       3.385   2.908  -1.636  1.00  0.00     0.000 NA
BRANCH  34  36
HETATM   36  N6  UNL     1       1.360   1.998  -2.708  1.00  0.00    -0.325 N 
ATOM     37  H62 UNL     1       0.557   1.369  -2.732  1.00  0.00     0.178 HD
ATOM     38  H61 UNL     1       1.380   2.576  -3.548  1.00  0.00     0.178 HD
ENDBRANCH  34  36
BRANCH  35  39
HETATM   39  N8  UNL     1       4.470   2.215  -2.217  1.00  0.00    -0.324 NA
ATOM     40  H82 UNL     1       4.272   2.142  -3.215  1.00  0.00     0.174 HD
ATOM     41  H81 UNL     1       5.273   2.844  -2.193  1.00  0.00     0.174 HD
ENDBRANCH  35  39
BRANCH  33  42
HETATM   42  N10 UNL     1       4.325   4.047   0.358  1.00  0.00    -0.188 N 
ATOM     43  H10 UNL     1       3.937   4.987   0.275  1.00  0.00     0.217 HD
BRANCH  42  44
HETATM   44  O2  UNL     1       5.369   3.902   1.018  1.00  0.00    -0.273 OA
ATOM     45  H2  UNL     1       5.827   4.614   1.449  1.00  0.00     0.246 HD
ENDBRANCH  42  44
ENDBRANCH  33  42
ENDBRANCH   1  25
TORSDOF 14
