REMARK  14 active torsions:
REMARK  status: ('A' for Active; 'I' for Inactive)
REMARK    1  A    between atoms: O1_2  and  C2_3 
REMARK    2  A    between atoms: C2_3  and  C3_5 
REMARK    3  A    between atoms: C4_8  and  C5_9 
REMARK    4  A    between atoms: C5_9  and  N2_10 
REMARK    5  A    between atoms: C5_9  and  C7_17 
REMARK    6  A    between atoms: N2_10  and  O3_11 
REMARK    7  A    between atoms: O3_11  and  C6_12 
REMARK    8  A    between atoms: C8_18  and  C9_19 
REMARK    9  A    between atoms: C9_19  and  O4_20 
REMARK   10  A    between atoms: C9_19  and  O5_22 
REMARK   11  A    between atoms: C11_30  and  O7_31 
REMARK   12  A    between atoms: C12_34  and  C13_35 
REMARK   13  A    between atoms: C13_35  and  O8_36 
REMARK   14  A    between atoms: C13_35  and  O9_38 
ROOT
HETATM    1  C5  UNL     1      -0.791   0.070  -1.118  1.00  0.00     0.190 C 
ENDROOT
BRANCH   1   2
HETATM    2  C4  UNL     1       0.232   0.258  -0.052  1.00  0.00     0.120 A 
HETATM    3  N1  UNL     1       0.808  -0.431   0.838  1.00  0.00    -0.342 N 
HETATM    4  C3  UNL     1       1.698   0.008   1.689  1.00  0.00     0.127 A 
ATOM      5  H1  UNL     1       0.556  -1.418   0.897  1.00  0.00     0.167 HD
HETATM    6  C12 UNL     1       2.018   1.321   1.585  1.00  0.00     0.072 A 
HETATM    7  S1  UNL     1       0.990   1.813   0.257  1.00  0.00    -0.066 SA
BRANCH   4   8
HETATM    8  C2  UNL     1       2.239  -0.913   2.693  1.00  0.00     0.310 C 
HETATM    9  O2  UNL     1       1.885  -2.143   2.696  1.00  0.00    -0.258 OA
BRANCH   8  10
HETATM   10  O1  UNL     1       3.111  -0.549   3.654  1.00  0.00    -0.321 OA
HETATM   11  C1  UNL     1       3.635  -1.454   4.642  1.00  0.00     0.213 C 
ENDBRANCH   8  10
ENDBRANCH   4   8
BRANCH   6  12
HETATM   12  C13 UNL     1       3.002   2.231   2.254  1.00  0.00     0.297 C 
BRANCH  12  13
HETATM   13  O8  UNL     1       3.477   3.090   1.191  1.00  0.00    -0.367 OA
ATOM     14  H8  UNL     1       4.101   3.667   1.615  1.00  0.00     0.213 HD
ENDBRANCH  12  13
BRANCH  12  15
HETATM   15  O9  UNL     1       4.111   1.537   2.644  1.00  0.00    -0.367 OA
ATOM     16  H9  UNL     1       4.735   2.114   3.068  1.00  0.00     0.213 HD
ENDBRANCH  12  15
ENDBRANCH   6  12
ENDBRANCH   1   2
BRANCH   1  17
HETATM   17  N2  UNL     1      -0.798   1.023  -1.908  1.00  0.00    -0.269 NA
BRANCH  17  18
HETATM   18  O3  UNL     1      -0.818   1.960  -2.700  1.00  0.00    -0.131 OA
BRANCH  18  19
HETATM   19  C6  UNL     1      -1.511   3.185  -2.695  1.00  0.00     0.264 C 
HETATM   20  N3  UNL     1      -1.999   3.531  -1.566  1.00  0.00    -0.365 N 
ATOM     21  H32 UNL     1      -1.903   2.973  -0.717  1.00  0.00     0.159 HD
ATOM     22  H31 UNL     1      -2.501   4.419  -1.562  1.00  0.00     0.159 HD
HETATM   23  N4  UNL     1      -1.645   3.960  -3.874  1.00  0.00    -0.054 NA
ENDBRANCH  18  19
ENDBRANCH  17  18
ENDBRANCH   1  17
BRANCH   1  24
HETATM   24  C7  UNL     1      -1.525  -1.100  -1.388  1.00  0.00     0.089 A 
HETATM   25  C8  UNL     1      -1.746  -2.175  -0.601  1.00  0.00     0.086 A 
HETATM   26  N5  UNL     1      -2.177  -3.399  -1.055  1.00  0.00    -0.307 N 
HETATM   27  C10 UNL     1      -2.422  -3.600  -2.345  1.00  0.00     0.326 A 
ATOM     28  H5  UNL     1      -2.310  -4.163  -0.392  1.00  0.00     0.170 HD
HETATM   29  O6  UNL     1      -2.819  -4.716  -2.799  1.00  0.00    -0.247 OA
HETATM   30  N6  UNL     1      -2.237  -2.579  -3.180  1.00  0.00    -0.288 N 
HETATM   31  C11 UNL     1      -1.814  -1.378  -2.771  1.00  0.00     0.160 A 
ATOM     32  H6  UNL     1      -2.426  -2.719  -4.173  1.00  0.00     0.172 HD
BRANCH  25  33
HETATM   33  C9  UNL     1      -1.841  -2.035   0.858  1.00  0.00     0.306 C 
BRANCH  33  34
HETATM   34  O4  UNL     1      -2.942  -2.920   1.254  1.00  0.00    -0.366 OA
ATOM     35  H4  UNL     1      -3.003  -2.829   2.198  1.00  0.00     0.213 HD
ENDBRANCH  33  34
BRANCH  33  36
HETATM   36  O5  UNL     1      -2.285  -0.773   1.287  1.00  0.00    -0.366 OA
ATOM     37  H5  UNL     1      -2.346  -0.682   2.231  1.00  0.00     0.213 HD
ENDBRANCH  33  36
ENDBRANCH  25  33
BRANCH  31  38
HETATM   38  O7  UNL     1      -1.635  -0.344  -3.661  1.00  0.00    -0.345 OA
ATOM     39  H7  UNL     1      -1.826  -0.527  -4.573  1.00  0.00     0.219 HD
ENDBRANCH  31  38
ENDBRANCH   1  24
TORSDOF 14
