REMARK  11 active torsions:
REMARK  status: ('A' for Active; 'I' for Inactive)
REMARK    1  A    between atoms: C2_2  and  C10_39 
REMARK    2  A    between atoms: N1_3  and  N2_5 
REMARK    3  A    between atoms: N3_7  and  C3_9 
REMARK    4  A    between atoms: C4_12  and  N5_13 
REMARK    5  A    between atoms: C6_15  and  C7_16 
REMARK    6  A    between atoms: C7_16  and  N6_17 
REMARK    7  A    between atoms: C7_16  and  N7_21 
REMARK    8  A    between atoms: C8_29  and  N10_30 
REMARK    9  A    between atoms: N10_30  and  O1_34 
REMARK   10  A    between atoms: C9_36  and  O2_37 
REMARK   11  A    between atoms: N13_44  and  N14_45 
ROOT
HETATM    1  C3  UNL     1      -0.484   0.331  -0.197  1.00  0.00     0.159 A 
HETATM    2  N4  UNL     1      -1.573   1.060  -0.433  1.00  0.00    -0.322 N 
ATOM      3  H4  UNL     1      -1.599   1.886  -1.030  1.00  0.00     0.169 HD
HETATM    4  C4  UNL     1      -2.621   0.565   0.215  1.00  0.00     0.163 A 
HETATM    5  C8  UNL     1      -2.194  -0.561   0.923  1.00  0.00     0.163 A 
HETATM    6  C9  UNL     1      -0.864  -0.711   0.670  1.00  0.00     0.146 A 
ENDROOT
BRANCH   1   7
HETATM    7  N3  UNL     1       0.843   0.459  -0.665  1.00  0.00    -0.269 N 
HETATM    8  N2  UNL     1       1.765   0.020   0.017  1.00  0.00    -0.241 N 
ATOM      9  H2  UNL     1       1.376  -0.393   0.865  1.00  0.00     0.208 HD
ATOM     10  H3  UNL     1       1.033   0.911  -1.559  1.00  0.00     0.190 HD
BRANCH   8  11
HETATM   11  N1  UNL     1       3.059  -0.108   0.047  1.00  0.00    -0.287 N 
HETATM   12  C2  UNL     1       4.012   0.639  -0.247  1.00  0.00     0.067 C 
HETATM   13  C1  UNL     1       3.806   1.996  -0.753  1.00  0.00     0.074 C 
ATOM     14  H1  UNL     1       3.360  -1.022   0.386  1.00  0.00     0.188 HD
BRANCH  12  15
HETATM   15  C10 UNL     1       5.362   0.073  -0.035  1.00  0.00     0.137 A 
HETATM   16  N12 UNL     1       5.517  -1.194   0.420  1.00  0.00    -0.291 N 
HETATM   17  C11 UNL     1       6.731  -1.714   0.637  1.00  0.00     0.350 A 
ATOM     18  H12 UNL     1       4.691  -1.764   0.601  1.00  0.00     0.172 HD
HETATM   19  O3  UNL     1       6.911  -2.888   1.061  1.00  0.00    -0.244 OA
HETATM   20  N13 UNL     1       7.830  -0.968   0.399  1.00  0.00    -0.159 N 
HETATM   21  C12 UNL     1       7.643   0.283  -0.051  1.00  0.00     0.350 A 
HETATM   22  O4  UNL     1       8.662   0.979  -0.271  1.00  0.00    -0.244 OA
HETATM   23  N15 UNL     1       6.425   0.828  -0.276  1.00  0.00    -0.291 N 
ATOM     24  H15 UNL     1       6.328   1.784  -0.618  1.00  0.00     0.172 HD
BRANCH  20  25
HETATM   25  N14 UNL     1       9.105  -1.495   0.626  1.00  0.00    -0.330 N 
ATOM     26 2H14 UNL     1       9.247  -2.445   0.968  1.00  0.00     0.177 HD
ATOM     27 1H14 UNL     1       9.936  -0.931   0.446  1.00  0.00     0.177 HD
ENDBRANCH  20  25
ENDBRANCH  12  15
ENDBRANCH   8  11
ENDBRANCH   1   7
BRANCH   6  28
HETATM   28  O2  UNL     1      -0.032  -1.694   1.162  1.00  0.00    -0.355 OA
ATOM     29  H2  UNL     1      -0.288  -2.397   1.747  1.00  0.00     0.218 HD
ENDBRANCH   6  28
BRANCH   4  30
HETATM   30  N5  UNL     1      -3.953   1.061   0.212  1.00  0.00    -0.232 N 
HETATM   31  C5  UNL     1      -5.005   0.361  -0.288  1.00  0.00     0.150 A 
HETATM   32  C6  UNL     1      -6.149   1.100  -0.122  1.00  0.00     0.102 A 
HETATM   33  N8  UNL     1      -5.766   2.245   0.480  1.00  0.00    -0.285 N 
HETATM   34  N9  UNL     1      -4.455   2.194   0.665  1.00  0.00    -0.234 N 
ATOM     35  H8  UNL     1      -6.379   3.016   0.746  1.00  0.00     0.188 HD
ATOM     36  H9  UNL     1      -3.905   2.934   1.101  1.00  0.00     0.209 HD
BRANCH  32  37
HETATM   37  C7  UNL     1      -7.523   0.670  -0.534  1.00  0.00     0.430 C 
BRANCH  37  38
HETATM   38  N6  UNL     1      -7.803  -0.672  -0.073  1.00  0.00    -0.045 N 
ATOM     39  H63 UNL     1      -7.092  -1.334  -0.384  1.00  0.00     0.277 HD
ATOM     40  H62 UNL     1      -7.666  -0.761   0.934  1.00  0.00     0.277 HD
ATOM     41  H61 UNL     1      -8.739  -0.965  -0.354  1.00  0.00     0.277 HD
ENDBRANCH  37  38
BRANCH  37  42
HETATM   42  N7  UNL     1      -7.592   0.754  -1.972  1.00  0.00    -0.045 N 
ATOM     43  H73 UNL     1      -7.341   1.676  -2.329  1.00  0.00     0.277 HD
ATOM     44  H72 UNL     1      -6.854   0.225  -2.437  1.00  0.00     0.277 HD
ATOM     45  H71 UNL     1      -8.528   0.461  -2.253  1.00  0.00     0.277 HD
ENDBRANCH  37  42
ENDBRANCH  32  37
ENDBRANCH   4  30
BRANCH   5  46
HETATM   46  N10 UNL     1      -3.045  -1.353   1.733  1.00  0.00    -0.163 N 
HETATM   47  N11 UNL     1      -3.348  -2.538   1.354  1.00  0.00    -0.318 N 
ATOM     48 2H11 UNL     1      -2.975  -2.867   0.464  1.00  0.00     0.179 HD
ATOM     49 1H11 UNL     1      -3.961  -3.108   1.937  1.00  0.00     0.179 HD
BRANCH  46  50
HETATM   50  O1  UNL     1      -3.546  -0.911   2.928  1.00  0.00    -0.268 OA
ATOM     51  H1  UNL     1      -4.117  -1.442   3.471  1.00  0.00     0.247 HD
ENDBRANCH  46  50
ENDBRANCH   5  46
TORSDOF 11
