REMARK  8 active torsions:
REMARK  status: ('A' for Active; 'I' for Inactive)
REMARK    1  A    between atoms: N1_1  and  C1_4 
REMARK    2  A    between atoms: C1_4  and  O1_5 
REMARK    3  A    between atoms: C1_4  and  N2_7 
REMARK    4  A    between atoms: N2_7  and  C2_9 
REMARK    5  A    between atoms: C2_9  and  C3_10 
REMARK    6  A    between atoms: C3_10  and  N3_11 
REMARK    7  A    between atoms: N4_14  and  C6_15 
REMARK    8  A    between atoms: C6_15  and  N5_16 
ROOT
HETATM    1  N3  UNL     1      -1.425  -0.040   0.346  1.00  0.00     0.092 N 
HETATM    2  C4  UNL     1      -0.596   0.784   1.196  1.00  0.00     0.287 C 
HETATM    3  C5  UNL     1       0.205   1.675   0.234  1.00  0.00     0.126 C 
HETATM    4  N4  UNL     1       1.247   0.820  -0.337  1.00  0.00    -0.276 NA
HETATM    5  C10 UNL     1       0.916  -0.565  -0.261  1.00  0.00     0.126 C 
HETATM    6  C11 UNL     1      -0.529  -0.902  -0.392  1.00  0.00     0.287 C 
ENDROOT
BRANCH   1   7
HETATM    7  C3  UNL     1      -2.421  -0.789   1.083  1.00  0.00     0.292 C 
BRANCH   7   8
HETATM    8  C2  UNL     1      -3.225  -1.565   0.038  1.00  0.00     0.153 C 
BRANCH   8   9
HETATM    9  N2  UNL     1      -3.840  -0.609  -0.872  1.00  0.00    -0.355 N 
ATOM     10  H2  UNL     1      -3.505  -0.584  -1.835  1.00  0.00     0.163 HD
BRANCH   9  11
HETATM   11  C1  UNL     1      -4.868   0.284  -0.510  1.00  0.00     0.210 C 
BRANCH  11  12
HETATM   12  N1  UNL     1      -5.975  -0.151  -0.010  1.00  0.00    -0.366 N 
ATOM     13  H12 UNL     1      -6.719   0.495   0.252  1.00  0.00     0.159 HD
ATOM     14  H11 UNL     1      -6.056  -1.162   0.102  1.00  0.00     0.159 HD
ENDBRANCH  11  12
BRANCH  11  15
HETATM   15  O1  UNL     1      -4.757   1.674  -0.664  1.00  0.00    -0.333 OA
ATOM     16  H1  UNL     1      -3.942   1.994  -1.032  1.00  0.00     0.220 HD
ENDBRANCH  11  15
ENDBRANCH   9  11
ENDBRANCH   8   9
ENDBRANCH   7   8
ENDBRANCH   1   7
BRANCH   4  17
HETATM   17  C6  UNL     1       2.456   1.160   0.345  1.00  0.00     0.161 C 
BRANCH  17  18
HETATM   18  N5  UNL     1       3.621   0.429  -0.057  1.00  0.00    -0.300 N 
HETATM   19  C7  UNL     1       4.043  -0.725   0.489  1.00  0.00     0.190 A 
HETATM   20  N6  UNL     1       5.172  -1.139  -0.124  1.00  0.00    -0.344 N 
HETATM   21  C8  UNL     1       5.490  -0.241  -1.086  1.00  0.00     0.115 A 
ATOM     22  H6  UNL     1       5.697  -1.985   0.100  1.00  0.00     0.167 HD
HETATM   23 BR1  UNL     1       6.991  -0.335  -2.260  1.00  0.00    -0.028 Br
HETATM   24  C9  UNL     1       4.503   0.730  -1.024  1.00  0.00     0.122 A 
HETATM   25 BR2  UNL     1       4.441   2.257  -2.163  1.00  0.00    -0.028 Br
ENDBRANCH  17  18
ENDBRANCH   4  17
TORSDOF 8
