REMARK  5 active torsions:
REMARK  status: ('A' for Active; 'I' for Inactive)
REMARK    1  A    between atoms: C5_7  and  O1_8 
REMARK    2  A    between atoms: C6_10  and  C7_11 
REMARK    3  A    between atoms: C7_11  and  N2_12 
REMARK    4  A    between atoms: C12_17  and  C13_18 
REMARK    5  A    between atoms: C13_18  and  N3_19 
ROOT
HETATM    1  C1  UNL     1      -6.935   1.904  -0.107  1.00  0.00     0.014 C 
HETATM    2  C2  UNL     1      -6.405   0.854  -0.375  1.00  0.00    -0.089 C 
HETATM    3  C3  UNL     1      -5.759  -0.432  -0.730  1.00  0.00     0.191 C 
HETATM    4  N1  UNL     1      -4.880  -0.264  -1.827  1.00  0.00    -0.402 N 
ATOM      5  H1  UNL     1      -5.080   0.400  -2.575  1.00  0.00     0.154 HD
HETATM    6  C4  UNL     1      -3.713  -1.060  -1.836  1.00  0.00     0.153 C 
HETATM    7  C5  UNL     1      -2.908  -1.052  -0.585  1.00  0.00     0.085 C 
HETATM    8  C6  UNL     1      -1.822   0.047  -0.606  1.00  0.00     0.048 C 
HETATM    9  C18 UNL     1      -2.551   1.149   0.056  1.00  0.00     0.010 C 
HETATM   10  C19 UNL     1      -3.399   0.550   1.155  1.00  0.00     0.011 C 
HETATM   11  C20 UNL     1      -3.701  -0.829   0.657  1.00  0.00     0.059 C 
HETATM   12  C21 UNL     1      -5.179  -1.074   0.475  1.00  0.00     0.211 C 
HETATM   13  F1  UNL     1      -5.811  -0.538   1.599  1.00  0.00    -0.246 F 
ENDROOT
BRANCH   7  14
HETATM   14  O1  UNL     1      -2.286  -2.319  -0.482  1.00  0.00    -0.387 OA
ATOM     15  H1  UNL     1      -1.772  -2.314   0.317  1.00  0.00     0.210 HD
ENDBRANCH   7  14
BRANCH   8  16
HETATM   16  C7  UNL     1      -0.654  -0.528   0.080  1.00  0.00     0.245 C 
BRANCH  16  17
HETATM   17  N2  UNL     1       0.523   0.257   0.215  1.00  0.00    -0.062 N 
HETATM   18  C8  UNL     1       0.656   1.271  -0.800  1.00  0.00     0.273 C 
HETATM   19  C9  UNL     1       0.559   0.765   1.568  1.00  0.00     0.238 C 
HETATM   20  C10 UNL     1       1.555   1.892   1.599  1.00  0.00     0.028 C 
HETATM   21  C11 UNL     1       2.907   1.322   1.334  1.00  0.00     0.010 C 
HETATM   22  C12 UNL     1       2.951   0.005   0.662  1.00  0.00     0.039 C 
HETATM   23  C15 UNL     1       1.735  -0.573   0.095  1.00  0.00     0.127 C 
HETATM   24  C16 UNL     1       1.987  -0.888  -1.387  1.00  0.00     0.046 C 
HETATM   25  C17 UNL     1       1.428  -1.943   0.713  1.00  0.00     0.046 C 
BRANCH  22  26
HETATM   26  C13 UNL     1       4.116   0.060  -0.349  1.00  0.00     0.129 C 
BRANCH  26  27
HETATM   27  N3  UNL     1       5.298   0.322   0.453  1.00  0.00    -0.366 N 
HETATM   28  C14 UNL     1       6.480   0.244  -0.057  1.00  0.00     0.196 C 
HETATM   29  N4  UNL     1       7.664   0.484   0.662  1.00  0.00    -0.067 NA
HETATM   30  N5  UNL     1       6.605  -0.106  -1.430  1.00  0.00    -0.067 NA
ATOM     31  H3  UNL     1       5.192   0.572   1.436  1.00  0.00     0.161 HD
ENDBRANCH  26  27
ENDBRANCH  22  26
ENDBRANCH  16  17
ENDBRANCH   8  16
TORSDOF 5
