REMARK  7 active torsions:
REMARK  status: ('A' for Active; 'I' for Inactive)
REMARK    1  A    between atoms: N1_2  and  C2_3 
REMARK    2  A    between atoms: C4_9  and  N4_10 
REMARK    3  A    between atoms: N4_10  and  C5_12 
REMARK    4  A    between atoms: C5_12  and  C6_13 
REMARK    5  A    between atoms: C6_13  and  N5_14 
REMARK    6  A    between atoms: C11_19  and  O1_20 
REMARK    7  A    between atoms: C12_22  and  O2_23 
ROOT
HETATM    1  C2  UNL     1      -2.676   1.367  -0.459  1.00  0.00     0.201 A 
HETATM    2  C3  UNL     1      -2.933   2.734  -0.316  1.00  0.00     0.148 A 
HETATM    3  N2  UNL     1      -1.795   3.404  -0.467  1.00  0.00    -0.308 N 
ATOM      4  H2  UNL     1      -1.679   4.416  -0.415  1.00  0.00     0.186 HD
HETATM    5  N3  UNL     1      -0.842   2.518  -0.697  1.00  0.00    -0.284 N 
ATOM      6  H3  UNL     1       0.139   2.749  -0.852  1.00  0.00     0.188 HD
HETATM    7  C4  UNL     1      -1.343   1.270  -0.699  1.00  0.00     0.152 A 
ENDROOT
BRANCH   7   8
HETATM    8  N4  UNL     1      -0.722   0.155  -0.888  1.00  0.00    -0.372 N 
ATOM      9  H4  UNL     1      -1.244  -0.721  -0.860  1.00  0.00     0.161 HD
BRANCH   8  10
HETATM   10  C5  UNL     1       0.705   0.128  -1.139  1.00  0.00     0.149 C 
BRANCH  10  11
HETATM   11  C6  UNL     1       1.481  -0.020   0.152  1.00  0.00     0.257 C 
BRANCH  11  12
HETATM   12  N5  UNL     1       2.895  -0.050  -0.053  1.00  0.00    -0.063 N 
HETATM   13  C7  UNL     1       3.397   1.039  -0.836  1.00  0.00     0.238 C 
HETATM   14  C8  UNL     1       4.867   1.072  -0.478  1.00  0.00     0.037 C 
HETATM   15  C9  UNL     1       4.994   0.325   0.823  1.00  0.00     0.044 C 
HETATM   16  C10 UNL     1       3.543   0.127   1.232  1.00  0.00     0.245 C 
HETATM   17  C11 UNL     1       5.559  -1.038   0.526  1.00  0.00     0.154 C 
HETATM   18  C12 UNL     1       4.454  -1.949   0.100  1.00  0.00     0.173 C 
HETATM   19  C13 UNL     1       3.356  -1.283  -0.655  1.00  0.00     0.271 C 
BRANCH  17  20
HETATM   20  O1  UNL     1       6.178  -1.492   1.697  1.00  0.00    -0.393 OA
ATOM     21  H1  UNL     1       6.535  -2.352   1.510  1.00  0.00     0.210 HD
ENDBRANCH  17  20
BRANCH  18  22
HETATM   22  O2  UNL     1       5.027  -2.912  -0.763  1.00  0.00    -0.391 OA
ATOM     23  H2  UNL     1       4.324  -3.491  -1.034  1.00  0.00     0.210 HD
ENDBRANCH  18  22
ENDBRANCH  11  12
ENDBRANCH  10  11
ENDBRANCH   8  10
ENDBRANCH   7   8
BRANCH   1  24
HETATM   24  N1  UNL     1      -3.703   0.402  -0.349  1.00  0.00    -0.005 N 
HETATM   25  C1  UNL     1      -4.874   0.954  -1.005  1.00  0.00     0.283 C 
HETATM   26  C14 UNL     1      -3.340  -0.897  -0.811  1.00  0.00     0.249 C 
HETATM   27  C15 UNL     1      -4.534  -1.815  -0.810  1.00  0.00     0.048 C 
HETATM   28  C16 UNL     1      -5.289  -1.812   0.483  1.00  0.00     0.088 C 
HETATM   29 CL1  UNL     1      -6.973  -2.280   0.145  1.00  0.00    -0.125 Cl
HETATM   30  C17 UNL     1      -5.292  -0.523   1.210  1.00  0.00     0.088 C 
HETATM   31  C18 UNL     1      -4.024   0.275   1.069  1.00  0.00     0.379 C 
HETATM   32  F1  UNL     1      -4.212   1.493   1.684  1.00  0.00    -0.218 F 
ENDBRANCH   1  24
TORSDOF 7
