REMARK  5 active torsions:
REMARK  status: ('A' for Active; 'I' for Inactive)
REMARK    1  A    between atoms: C5_9  and  N2_10 
REMARK    2  A    between atoms: C6_13  and  C7_14 
REMARK    3  A    between atoms: C7_14  and  C8_15 
REMARK    4  A    between atoms: C11_21  and  C12_22 
REMARK    5  A    between atoms: N4_23  and  N5_25 
ROOT
HETATM    1  C8  UNL     1       0.770  -0.009  -1.251  1.00  0.00     0.046 A 
HETATM    2  N3  UNL     1       0.677  -0.421  -2.518  1.00  0.00    -0.364 N 
ATOM      3  H3  UNL     1      -0.163  -0.332  -3.090  1.00  0.00     0.165 HD
HETATM    4  C9  UNL     1       1.824  -0.966  -2.945  1.00  0.00     0.108 A 
HETATM    5  C10 UNL     1       2.741  -0.921  -1.922  1.00  0.00     0.040 A 
HETATM    6 BR2  UNL     1       4.552  -1.556  -1.958  1.00  0.00    -0.049 Br
HETATM    7  C11 UNL     1       2.076  -0.325  -0.875  1.00  0.00     0.026 A 
ENDROOT
BRANCH   1   8
HETATM    8  C7  UNL     1      -0.146   0.604  -0.339  1.00  0.00     0.046 C 
BRANCH   8   9
HETATM    9  C6  UNL     1      -1.305   0.238   0.115  1.00  0.00     0.017 A 
HETATM   10  C2  UNL     1      -2.052   1.102   1.068  1.00  0.00    -0.025 A 
HETATM   11  C1  UNL     1      -1.494   2.421   1.479  1.00  0.00     0.050 C 
HETATM   12  C3  UNL     1      -3.215   0.746   1.583  1.00  0.00     0.085 A 
HETATM   13 BR1  UNL     1      -4.105   1.913   2.799  1.00  0.00    -0.045 Br
HETATM   14  C4  UNL     1      -3.879  -0.514   1.273  1.00  0.00     0.265 A 
HETATM   15  O1  UNL     1      -5.000  -0.804   1.797  1.00  0.00    -0.267 OA
HETATM   16  N1  UNL     1      -3.217  -1.376   0.372  1.00  0.00    -0.308 N 
HETATM   17  C5  UNL     1      -1.946  -1.012  -0.203  1.00  0.00     0.112 A 
ATOM     18  H1  UNL     1      -3.644  -2.269   0.124  1.00  0.00     0.170 HD
BRANCH  17  19
HETATM   19  N2  UNL     1      -1.434  -1.887  -0.974  1.00  0.00    -0.385 N 
ATOM     20  H22 UNL     1      -1.888  -2.772  -1.199  1.00  0.00     0.157 HD
ATOM     21  H21 UNL     1      -0.535  -1.629  -1.381  1.00  0.00     0.157 HD
ENDBRANCH  17  19
ENDBRANCH   8   9
ENDBRANCH   1   8
BRANCH   7  22
HETATM   22  C12 UNL     1       2.703  -0.087   0.415  1.00  0.00     0.123 C 
HETATM   23  N4  UNL     1       3.919  -0.413   0.674  1.00  0.00    -0.297 N 
ATOM     24  H4  UNL     1       4.475  -0.860  -0.055  1.00  0.00     0.187 HD
BRANCH  23  25
HETATM   25  N5  UNL     1       4.498  -0.180   1.903  1.00  0.00    -0.250 N 
HETATM   26  N6  UNL     1       4.911   0.958   2.281  1.00  0.00    -0.331 N 
ATOM     27  H62 UNL     1       4.801   1.733   1.627  1.00  0.00     0.178 HD
ATOM     28  H61 UNL     1       5.339   1.130   3.190  1.00  0.00     0.178 HD
ATOM     29  H5  UNL     1       4.600  -0.967   2.544  1.00  0.00     0.207 HD
ENDBRANCH  23  25
ENDBRANCH   7  22
TORSDOF 5
