REMARK  7 active torsions:
REMARK  status: ('A' for Active; 'I' for Inactive)
REMARK    1  A    between atoms: N2_5  and  C3_6 
REMARK    2  A    between atoms: C3_6  and  C4_7 
REMARK    3  A    between atoms: C5_10  and  N4_11 
REMARK    4  A    between atoms: C6_16  and  C7_17 
REMARK    5  A    between atoms: C7_17  and  C8_18 
REMARK    6  A    between atoms: N6_19  and  N7_21 
REMARK    7  A    between atoms: C9_24  and  C10_25 
ROOT
HETATM    1  C4  UNL     1       0.681   1.339  -0.231  1.00  0.00     0.090 A 
HETATM    2  N3  UNL     1       0.567   2.263   0.747  1.00  0.00    -0.189 N 
ATOM      3  H3  UNL     1      -0.315   2.553   1.169  1.00  0.00     0.184 HD
HETATM    4  C5  UNL     1       1.778   2.751   1.090  1.00  0.00     0.676 A 
HETATM    5  N5  UNL     1       2.657   2.112   0.303  1.00  0.00    -0.193 N 
ATOM      6  H5  UNL     1       3.665   2.264   0.322  1.00  0.00     0.184 HD
HETATM    7  C6  UNL     1       2.024   1.231  -0.527  1.00  0.00     0.060 A 
ENDROOT
BRANCH   1   8
HETATM    8  C3  UNL     1      -0.406   0.611  -0.866  1.00  0.00     0.148 C 
BRANCH   8   9
HETATM    9  N2  UNL     1      -1.339  -0.005  -0.186  1.00  0.00    -0.267 N 
HETATM   10  N1  UNL     1      -1.428  -0.054   1.127  1.00  0.00    -0.294 N 
HETATM   11  C2  UNL     1      -2.518  -0.771   1.505  1.00  0.00     0.058 A 
ATOM     12  H1  UNL     1      -0.770   0.385   1.771  1.00  0.00     0.187 HD
HETATM   13  C1  UNL     1      -2.948  -1.043   2.723  1.00  0.00     0.046 C 
HETATM   14  C11 UNL     1      -3.102  -1.165   0.321  1.00  0.00     0.063 A 
HETATM   15  C9  UNL     1      -2.363  -0.685  -0.743  1.00  0.00     0.063 A 
HETATM   16 BR2  UNL     1      -4.678  -2.204   0.121  1.00  0.00    -0.046 Br
BRANCH  15  17
HETATM   17  C10 UNL     1      -2.656  -0.891  -2.181  1.00  0.00     0.145 C 
HETATM   18 BR1  UNL     1      -4.106   0.232  -2.794  1.00  0.00    -0.090 Br
ENDBRANCH  15  17
ENDBRANCH   8   9
ENDBRANCH   1   8
BRANCH   7  19
HETATM   19  C7  UNL     1       2.726   0.372  -1.512  1.00  0.00     0.106 C 
BRANCH  19  20
HETATM   20  C8  UNL     1       2.873  -0.995  -1.001  1.00  0.00     0.085 C 
HETATM   21  N6  UNL     1       1.919  -1.599  -0.413  1.00  0.00    -0.322 N 
ATOM     22  H6  UNL     1       1.025  -1.123  -0.291  1.00  0.00     0.185 HD
BRANCH  21  23
HETATM   23  N7  UNL     1       2.075  -2.915   0.074  1.00  0.00    -0.346 N 
ATOM     24  H72 UNL     1       2.975  -3.376  -0.056  1.00  0.00     0.176 HD
ATOM     25  H71 UNL     1       1.311  -3.399   0.545  1.00  0.00     0.176 HD
ENDBRANCH  21  23
ENDBRANCH  19  20
ENDBRANCH   7  19
BRANCH   4  26
HETATM   26  N4  UNL     1       2.036   3.655   1.995  1.00  0.00    -0.234 N 
ATOM     27  H42 UNL     1       1.368   4.141   2.593  1.00  0.00     0.174 HD
ATOM     28  H41 UNL     1       2.951   4.024   2.254  1.00  0.00     0.174 HD
ENDBRANCH   4  26
TORSDOF 7
