REMARK  3 active torsions:
REMARK  status: ('A' for Active; 'I' for Inactive)
REMARK    1  A    between atoms: O1_2  and  C2_3 
REMARK    2  A    between atoms: C12_15  and  O4_16 
REMARK    3  A    between atoms: C15_21  and  O6_22 
ROOT
HETATM    1  C2  UNL     1      -1.275   0.066  -1.262  1.00  0.00     0.190 C 
HETATM    2  C3  UNL     1      -1.365  -0.043   0.026  1.00  0.00     0.040 C 
HETATM    3  C4  UNL     1      -1.617  -1.189   0.850  1.00  0.00    -0.035 C 
HETATM    4  C5  UNL     1      -2.712  -2.004   0.621  1.00  0.00     0.024 C 
HETATM    5  C6  UNL     1      -0.490  -1.413   1.673  1.00  0.00    -0.002 C 
HETATM    6  C7  UNL     1       0.656  -0.435   1.467  1.00  0.00     0.096 C 
HETATM    7  C8  UNL     1       1.825  -1.342   1.575  1.00  0.00     0.203 C 
HETATM    8  O2  UNL     1       2.067  -1.998   2.643  1.00  0.00    -0.288 OA
HETATM    9  C9  UNL     1       2.731  -1.518   0.478  1.00  0.00     0.201 C 
HETATM   10  O3  UNL     1       3.140  -2.659   0.086  1.00  0.00    -0.289 OA
HETATM   11  C10 UNL     1       3.184  -0.245  -0.204  1.00  0.00     0.089 C 
HETATM   12  C11 UNL     1       3.320  -0.425  -1.682  1.00  0.00     0.021 C 
HETATM   13  C12 UNL     1       2.232   0.855   0.200  1.00  0.00     0.137 C 
HETATM   14  C13 UNL     1       0.780   0.321   0.193  1.00  0.00     0.063 C 
HETATM   15  C14 UNL     1       0.000   1.519  -0.189  1.00  0.00     0.172 C 
HETATM   16  O5  UNL     1      -0.839   1.407  -1.478  1.00  0.00    -0.321 OA
HETATM   17  C15 UNL     1      -1.353   1.397   0.580  1.00  0.00     0.189 C 
ENDROOT
BRANCH   1  18
HETATM   18  O1  UNL     1      -1.514  -1.006  -2.085  1.00  0.00    -0.335 OA
HETATM   19  C1  UNL     1      -2.456  -0.857  -3.146  1.00  0.00     0.212 C 
ENDBRANCH   1  18
BRANCH  17  20
HETATM   20  O6  UNL     1      -1.235   1.520   1.904  1.00  0.00    -0.383 OA
HETATM   21  C16 UNL     1      -2.114   2.514   2.363  1.00  0.00     0.202 C 
ENDBRANCH  17  20
BRANCH  13  22
HETATM   22  O4  UNL     1       2.365   1.981  -0.580  1.00  0.00    -0.394 OA
ATOM     23  H4  UNL     1       1.766   2.673  -0.326  1.00  0.00     0.210 HD
ENDBRANCH  13  22
TORSDOF 3
