REMARK  3 active torsions:
REMARK  status: ('A' for Active; 'I' for Inactive)
REMARK    1  A    between atoms: O1_2  and  C2_3 
REMARK    2  A    between atoms: C4_5  and  O2_6 
REMARK    3  A    between atoms: C16_21  and  O6_22 
ROOT
HETATM    1  C2  UNL     1       3.193  -0.748   0.778  1.00  0.00     0.071 A 
HETATM    2  C3  UNL     1       2.689   0.147  -0.138  1.00  0.00     0.074 A 
HETATM    3  C4  UNL     1       1.345   0.422  -0.215  1.00  0.00     0.084 A 
HETATM    4  C6  UNL     1       0.498  -0.247   0.679  1.00  0.00     0.046 A 
HETATM    5  C7  UNL     1       1.004  -1.140   1.593  1.00  0.00     0.037 A 
HETATM    6  C8  UNL     1       2.356  -1.407   1.659  1.00  0.00     0.053 A 
HETATM    7  C9  UNL     1       0.091  -1.818   2.510  1.00  0.00     0.233 A 
HETATM    8  O3  UNL     1       0.516  -2.632   3.349  1.00  0.00    -0.283 OA
HETATM    9  C10 UNL     1      -1.330  -1.515   2.417  1.00  0.00     0.234 A 
HETATM   10  O4  UNL     1      -2.158  -2.064   3.175  1.00  0.00    -0.283 OA
HETATM   11  C11 UNL     1      -1.824  -0.564   1.435  1.00  0.00     0.062 A 
HETATM   12  C12 UNL     1      -0.949   0.015   0.635  1.00  0.00     0.097 A 
HETATM   13  O5  UNL     1      -1.627   0.894  -0.233  1.00  0.00    -0.336 OA
HETATM   14  C13 UNL     1      -2.949   0.394  -0.326  1.00  0.00     0.091 C 
HETATM   15  C14 UNL     1      -3.938   1.424  -0.781  1.00  0.00     0.049 C 
HETATM   16  C15 UNL     1      -2.991  -0.858  -1.186  1.00  0.00     0.049 C 
HETATM   17  C16 UNL     1      -3.190  -0.052   1.101  1.00  0.00     0.192 C 
ENDROOT
BRANCH   1  18
HETATM   18  O1  UNL     1       4.544  -0.999   0.827  1.00  0.00    -0.356 OA
HETATM   19  C1  UNL     1       5.412  -0.333  -0.068  1.00  0.00     0.210 C 
ENDBRANCH   1  18
BRANCH   3  20
HETATM   20  O2  UNL     1       0.834   1.324  -1.138  1.00  0.00    -0.355 OA
HETATM   21  C5  UNL     1       1.740   1.966  -2.013  1.00  0.00     0.210 C 
ENDBRANCH   3  20
BRANCH  17  22
HETATM   22  O6  UNL     1      -3.454   1.002   1.955  1.00  0.00    -0.388 OA
ATOM     23  H6  UNL     1      -4.321   1.327   1.743  1.00  0.00     0.210 HD
ENDBRANCH  17  22
TORSDOF 3
