REMARK  3 active torsions:
REMARK  status: ('A' for Active; 'I' for Inactive)
REMARK    1  A    between atoms: C2_2  and  C4_4 
REMARK    2  A    between atoms: C4_4  and  O1_5 
REMARK    3  A    between atoms: C4_4  and  C5_7 
ROOT
HETATM    1  C5  UNL     1      -1.719  -0.854  -0.421  1.00  0.00     0.139 C 
HETATM    2  C6  UNL     1      -2.338  -1.868   0.425  1.00  0.00     0.198 C 
HETATM    3  O2  UNL     1      -1.716  -1.738   1.696  1.00  0.00    -0.364 OA
HETATM    4  C7  UNL     1      -0.421  -1.271   1.372  1.00  0.00     0.232 C 
HETATM    5  C8  UNL     1       0.357  -2.480   1.013  1.00  0.00     0.131 C 
HETATM    6  S1  UNL     1       1.440  -2.104  -0.383  1.00  0.00    -0.119 SA
HETATM    7  C9  UNL     1       1.662  -0.309  -0.396  1.00  0.00     0.166 C 
HETATM    8  C10 UNL     1       2.278   0.071  -1.724  1.00  0.00     0.227 C 
HETATM    9  O3  UNL     1       3.198   1.088  -1.387  1.00  0.00    -0.352 OA
HETATM   10  C11 UNL     1       3.697   0.599  -0.189  1.00  0.00     0.159 C 
HETATM   11  C12 UNL     1       4.364   1.740   0.550  1.00  0.00     0.078 C 
HETATM   12  C13 UNL     1       4.751  -0.428  -0.485  1.00  0.00     0.078 C 
HETATM   13  O4  UNL     1       2.626   0.104   0.517  1.00  0.00    -0.327 OA
HETATM   14  C14 UNL     1       0.357   0.390  -0.241  1.00  0.00     0.113 C 
HETATM   15  N1  UNL     1      -0.672  -0.296   0.403  1.00  0.00    -0.354 N 
ENDROOT
BRANCH   1  16
HETATM   16  C4  UNL     1      -2.540   0.168  -1.071  1.00  0.00     0.146 C 
BRANCH  16  17
HETATM   17  C2  UNL     1      -3.264   1.189  -0.295  1.00  0.00     0.008 C 
HETATM   18  C1  UNL     1      -4.343   0.659   0.628  1.00  0.00     0.012 C 
HETATM   19  C3  UNL     1      -2.428   2.252   0.360  1.00  0.00     0.012 C 
ENDBRANCH  16  17
BRANCH  16  20
HETATM   20  O1  UNL     1      -3.529  -0.487  -1.856  1.00  0.00    -0.393 OA
ATOM     21  H1  UNL     1      -3.062  -1.146  -2.357  1.00  0.00     0.210 HD
ENDBRANCH  16  20
ENDBRANCH   1  16
TORSDOF 3
