REMARK  8 active torsions:
REMARK  status: ('A' for Active; 'I' for Inactive)
REMARK    1  A    between atoms: O1_2  and  C2_3 
REMARK    2  A    between atoms: C2_3  and  C3_5 
REMARK    3  A    between atoms: C8_10  and  O3_11 
REMARK    4  A    between atoms: O3_11  and  C9_12 
REMARK    5  A    between atoms: C9_12  and  O5_14 
REMARK    6  A    between atoms: O5_14  and  C10_15 
REMARK    7  A    between atoms: C10_15  and  C13_18 
REMARK    8  A    between atoms: C16_25  and  C17_26 
ROOT
HETATM    1  C13 UNL     1      -1.535  -1.091   0.567  1.00  0.00     0.233 C 
HETATM    2  N1  UNL     1      -1.691  -2.367   1.211  1.00  0.00    -0.050 N 
ATOM      3  H11 UNL     1      -1.315  -2.520   2.147  1.00  0.00     0.279 HD
ATOM      4  H12 UNL     1      -1.173  -3.179   0.876  1.00  0.00     0.279 HD
HETATM    5  C14 UNL     1      -3.121  -2.278   1.005  1.00  0.00     0.302 C 
HETATM    6  C15 UNL     1      -3.787  -3.487   0.588  1.00  0.00     0.093 C 
HETATM    7  N2  UNL     1      -4.310  -4.461   0.251  1.00  0.00    -0.195 NA
HETATM    8  C16 UNL     1      -2.880  -1.243  -0.070  1.00  0.00     0.097 C 
ENDROOT
BRANCH   8   9
HETATM    9  C17 UNL     1      -3.767  -0.048   0.048  1.00  0.00    -0.049 A 
HETATM   10  C18 UNL     1      -4.506   0.424  -1.021  1.00  0.00     0.008 A 
HETATM   11  C19 UNL     1      -5.328   1.512  -0.952  1.00  0.00     0.007 A 
HETATM   12  C20 UNL     1      -5.439   2.190   0.237  1.00  0.00    -0.062 A 
HETATM   13  C21 UNL     1      -6.328   3.392   0.364  1.00  0.00     0.048 C 
HETATM   14  C22 UNL     1      -4.713   1.752   1.340  1.00  0.00     0.007 A 
HETATM   15  C23 UNL     1      -3.892   0.647   1.235  1.00  0.00     0.008 A 
ENDBRANCH   8   9
BRANCH   1  16
HETATM   16  C10 UNL     1      -0.361  -0.947  -0.357  1.00  0.00     0.095 C 
HETATM   17  C11 UNL     1      -0.479  -1.890  -1.528  1.00  0.00     0.048 C 
HETATM   18  C12 UNL     1      -0.348   0.503  -0.834  1.00  0.00     0.048 C 
BRANCH  16  19
HETATM   19  O5  UNL     1       0.830  -1.170   0.387  1.00  0.00    -0.285 OA
BRANCH  19  20
HETATM   20  C9  UNL     1       2.095  -1.057  -0.150  1.00  0.00     0.412 C 
HETATM   21  O4  UNL     1       2.240  -0.745  -1.346  1.00  0.00    -0.229 OA
BRANCH  20  22
HETATM   22  O3  UNL     1       3.263  -1.278   0.589  1.00  0.00    -0.255 OA
BRANCH  22  23
HETATM   23  C8  UNL     1       4.521  -1.159   0.030  1.00  0.00     0.097 A 
HETATM   24  C3  UNL     1       5.229   0.003   0.175  1.00  0.00     0.073 A 
HETATM   25  C4  UNL     1       6.498   0.106  -0.399  1.00  0.00     0.020 A 
HETATM   26  C5  UNL     1       7.060  -0.934  -1.109  1.00  0.00     0.001 A 
HETATM   27  C6  UNL     1       6.354  -2.100  -1.256  1.00  0.00     0.003 A 
HETATM   28  C7  UNL     1       5.103  -2.205  -0.693  1.00  0.00     0.038 A 
BRANCH  24  29
HETATM   29  C2  UNL     1       4.650   1.101   0.930  1.00  0.00     0.295 C 
HETATM   30  O2  UNL     1       3.542   1.096   1.482  1.00  0.00    -0.259 OA
BRANCH  29  31
HETATM   31  O1  UNL     1       5.402   2.265   1.047  1.00  0.00    -0.322 OA
HETATM   32  C1  UNL     1       4.943   3.400   1.758  1.00  0.00     0.213 C 
ENDBRANCH  29  31
ENDBRANCH  24  29
ENDBRANCH  22  23
ENDBRANCH  20  22
ENDBRANCH  19  20
ENDBRANCH  16  19
ENDBRANCH   1  16
TORSDOF 8
