REMARK  6 active torsions:
REMARK  status: ('A' for Active; 'I' for Inactive)
REMARK    1  A    between atoms: O1_2  and  C2_3 
REMARK    2  A    between atoms: C5_6  and  O2_7 
REMARK    3  A    between atoms: O2_7  and  C6_8 
REMARK       I    between atoms: C6_8  and  N1_10 
REMARK    4  A    between atoms: N1_10  and  C8_12 
REMARK    5  A    between atoms: C13_17  and  O4_18 
REMARK    6  A    between atoms: O4_18  and  C14_19 
ROOT
HETATM    1  C2  UNL     1       1.854   1.882  -0.701  1.00  0.00     0.116 A 
HETATM    2  C3  UNL     1       0.693   2.672  -0.792  1.00  0.00     0.141 A 
HETATM    3  C4  UNL     1      -0.566   2.159  -0.602  1.00  0.00     0.144 A 
HETATM    4  C5  UNL     1      -0.677   0.815  -0.311  1.00  0.00     0.151 A 
HETATM    5  C11 UNL     1       0.413  -0.004  -0.210  1.00  0.00     0.118 A 
HETATM    6  C12 UNL     1       1.678   0.583  -0.417  1.00  0.00     0.044 A 
HETATM    7  C13 UNL     1       2.812  -0.370  -0.322  1.00  0.00     0.173 C 
HETATM    8  C16 UNL     1       2.642  -1.265   0.900  1.00  0.00     0.075 C 
HETATM    9  C17 UNL     1       1.290  -1.922   0.951  1.00  0.00     0.063 C 
HETATM   10  C18 UNL     1       0.758  -1.933   2.387  1.00  0.00     0.046 C 
HETATM   11  C19 UNL     1       1.461  -3.368   0.482  1.00  0.00     0.046 C 
HETATM   12  O6  UNL     1       0.337  -1.353   0.080  1.00  0.00    -0.337 OA
HETATM   13  O7  UNL     1      -1.466   3.196  -0.762  1.00  0.00    -0.320 OA
HETATM   14  C20 UNL     1      -0.742   4.405  -0.695  1.00  0.00     0.352 C 
HETATM   15  O8  UNL     1       0.564   4.023  -1.068  1.00  0.00    -0.320 OA
ENDROOT
BRANCH   4  16
HETATM   16  O2  UNL     1      -1.947   0.305  -0.121  1.00  0.00    -0.255 OA
BRANCH  16  17
HETATM   17  C6  UNL     1      -2.712  -0.213  -1.155  1.00  0.00     0.368 C 
HETATM   18  O3  UNL     1      -2.276  -0.238  -2.315  1.00  0.00    -0.238 OA
HETATM   19  N1  UNL     1      -4.002  -0.711  -0.849  1.00  0.00    -0.328 N 
HETATM   20  C7  UNL     1      -4.804  -1.251  -1.921  1.00  0.00     0.155 C 
BRANCH  19  21
HETATM   21  C8  UNL     1      -4.509  -0.678   0.522  1.00  0.00     0.080 C 
HETATM   22  C9  UNL     1      -5.733   0.224   0.610  1.00  0.00     0.032 C 
HETATM   23  C10 UNL     1      -4.804  -2.058   1.041  1.00  0.00     0.032 C 
ENDBRANCH  19  21
ENDBRANCH  16  17
ENDBRANCH   4  16
BRANCH   1  24
HETATM   24  O1  UNL     1       3.093   2.463  -0.903  1.00  0.00    -0.352 OA
HETATM   25  C1  UNL     1       3.696   3.041   0.273  1.00  0.00     0.210 C 
ENDBRANCH   1  24
BRANCH   7  26
HETATM   26  O4  UNL     1       4.071   0.157  -0.486  1.00  0.00    -0.311 OA
BRANCH  26  27
HETATM   27  C14 UNL     1       4.923  -0.168  -1.537  1.00  0.00     0.255 C 
HETATM   28  C15 UNL     1       6.262   0.460  -1.620  1.00  0.00     0.126 C 
HETATM   29  O5  UNL     1       4.530  -0.993  -2.396  1.00  0.00    -0.266 OA
ENDBRANCH  26  27
ENDBRANCH   7  26
TORSDOF 6
