REMARK  6 active torsions:
REMARK  status: ('A' for Active; 'I' for Inactive)
REMARK    1  A    between atoms: C2_2  and  N2_7 
REMARK    2  A    between atoms: N1_3  and  O1_5 
REMARK    3  A    between atoms: N2_7  and  C3_9 
REMARK    4  A    between atoms: C3_9  and  C4_10 
REMARK    5  A    between atoms: C3_9  and  C5_14 
REMARK       I    between atoms: C5_14  and  N4_16 
REMARK    6  A    between atoms: N4_16  and  N5_18 
REMARK       I    between atoms: N5_18  and  C6_20 
REMARK       I    between atoms: C6_20  and  N6_22 
ROOT
HETATM    1  C5  UNL     1       1.125   0.223   0.732  1.00  0.00     0.264 C 
HETATM    2  O2  UNL     1       1.109   1.355   0.193  1.00  0.00    -0.269 OA
HETATM    3  N4  UNL     1      -0.103  -0.474   0.884  1.00  0.00    -0.264 N 
ATOM      4  H4  UNL     1      -0.092  -1.395   1.322  1.00  0.00     0.190 HD
ENDROOT
BRANCH   1   5
HETATM    5  C3  UNL     1       2.390  -0.364   1.195  1.00  0.00     0.215 C 
BRANCH   5   6
HETATM    6  N2  UNL     1       3.530   0.468   0.964  1.00  0.00    -0.361 N 
ATOM      7  H2  UNL     1       4.019   0.831   1.782  1.00  0.00     0.162 HD
BRANCH   6   8
HETATM    8  C2  UNL     1       4.038   0.831  -0.320  1.00  0.00     0.094 C 
HETATM    9  C1  UNL     1       4.812  -0.173  -1.091  1.00  0.00     0.090 C 
HETATM   10  N1  UNL     1       3.859   1.990  -0.844  1.00  0.00    -0.258 N 
ATOM     11  H1  UNL     1       3.329   2.695  -0.332  1.00  0.00     0.195 HD
BRANCH  10  12
HETATM   12  O1  UNL     1       4.360   2.290  -2.061  1.00  0.00    -0.288 OA
ATOM     13  H1  UNL     1       4.228   3.147  -2.449  1.00  0.00     0.244 HD
ENDBRANCH  10  12
ENDBRANCH   6   8
ENDBRANCH   5   6
BRANCH   5  14
HETATM   14  C4  UNL     1       2.647  -1.675   0.562  1.00  0.00     0.087 C 
HETATM   15  N3  UNL     1       2.770  -2.708   1.283  1.00  0.00    -0.409 N 
ATOM     16  H32 UNL     1       2.689  -2.619   2.296  1.00  0.00     0.155 HD
ATOM     17  H31 UNL     1       2.947  -3.613   0.846  1.00  0.00     0.155 HD
ENDBRANCH   5  14
ENDBRANCH   1   5
BRANCH   3  18
HETATM   18  N5  UNL     1      -1.319   0.048   0.461  1.00  0.00    -0.249 N 
HETATM   19  C6  UNL     1      -2.518  -0.667   0.643  1.00  0.00     0.338 C 
HETATM   20  O3  UNL     1      -2.470  -1.791   1.198  1.00  0.00    -0.245 OA
HETATM   21  N6  UNL     1      -3.788  -0.173   0.227  1.00  0.00    -0.308 N 
HETATM   22  C7  UNL     1      -5.064  -0.811   0.360  1.00  0.00     0.254 C 
HETATM   23  C9  UNL     1      -3.998   1.106  -0.424  1.00  0.00     0.232 C 
HETATM   24  N7  UNL     1      -6.038   0.290   0.362  1.00  0.00    -0.343 N 
HETATM   25  C8  UNL     1      -5.463   1.288  -0.478  1.00  0.00     0.236 C 
ATOM     26  H7  UNL     1      -6.929   0.331   0.856  1.00  0.00     0.164 HD
HETATM   27  O4  UNL     1      -6.090   2.154  -1.135  1.00  0.00    -0.272 OA
ATOM     28  H5  UNL     1      -1.343   0.963   0.012  1.00  0.00     0.192 HD
ENDBRANCH   3  18
TORSDOF 6
