REMARK  6 active torsions:
REMARK  status: ('A' for Active; 'I' for Inactive)
REMARK    1  A    between atoms: S1_2  and  N1_5 
REMARK       I    between atoms: N1_5  and  C2_7 
REMARK    2  A    between atoms: C2_7  and  C3_9 
REMARK    3  A    between atoms: C5_16  and  N4_17 
REMARK    4  A    between atoms: C6_19  and  O5_20 
REMARK    5  A    between atoms: C6_19  and  N5_22 
REMARK    6  A    between atoms: N5_22  and  N6_24 
ROOT
HETATM    1  C3  UNL     1      -0.153  -0.616  -0.283  1.00  0.00     0.150 A 
HETATM    2  N2  UNL     1      -0.377  -1.676  -1.086  1.00  0.00    -0.301 N 
ATOM      3  H2  UNL     1      -1.282  -2.112  -1.264  1.00  0.00     0.171 HD
HETATM    4  C4  UNL     1       0.784  -2.052  -1.603  1.00  0.00     0.326 A 
HETATM    5  O4  UNL     1       0.946  -3.013  -2.398  1.00  0.00    -0.247 OA
HETATM    6  N3  UNL     1       1.760  -1.251  -1.147  1.00  0.00    -0.292 N 
ATOM      7  H3  UNL     1       2.747  -1.326  -1.393  1.00  0.00     0.172 HD
HETATM    8  C5  UNL     1       1.228  -0.325  -0.307  1.00  0.00     0.145 A 
ENDROOT
BRANCH   8   9
HETATM    9  N4  UNL     1       1.866   0.707   0.404  1.00  0.00    -0.305 N 
HETATM   10  C6  UNL     1       3.176   1.076   0.455  1.00  0.00     0.237 C 
ATOM     11  H4  UNL     1       1.243   1.275   0.978  1.00  0.00     0.171 HD
BRANCH  10  12
HETATM   12  O5  UNL     1       3.440   2.089   1.232  1.00  0.00    -0.331 OA
ATOM     13  H5  UNL     1       4.354   2.346   1.268  1.00  0.00     0.221 HD
ENDBRANCH  10  12
BRANCH  10  14
HETATM   14  N5  UNL     1       4.284   0.546  -0.188  1.00  0.00    -0.272 N 
ATOM     15  H5  UNL     1       4.194  -0.249  -0.821  1.00  0.00     0.190 HD
BRANCH  14  16
HETATM   16  N6  UNL     1       5.558   1.149   0.064  1.00  0.00    -0.342 N 
ATOM     17  H62 UNL     1       5.631   1.943   0.700  1.00  0.00     0.176 HD
ATOM     18  H61 UNL     1       6.373   0.759  -0.409  1.00  0.00     0.176 HD
ENDBRANCH  14  16
ENDBRANCH  10  14
ENDBRANCH   8   9
BRANCH   1  19
HETATM   19  C2  UNL     1      -1.179   0.077   0.455  1.00  0.00     0.285 C 
HETATM   20  N1  UNL     1      -2.540  -0.383   0.379  1.00  0.00    -0.249 N 
ATOM     21  H1  UNL     1      -2.751  -1.195  -0.201  1.00  0.00     0.182 HD
HETATM   22  O3  UNL     1      -1.017   1.074   1.182  1.00  0.00    -0.265 OA
BRANCH  20  23
HETATM   23  S1  UNL     1      -3.831   0.385   1.231  1.00  0.00     0.229 S 
HETATM   24  C1  UNL     1      -5.288   0.295   0.225  1.00  0.00     0.186 C 
HETATM   25  O1  UNL     1      -4.032  -0.426   2.506  1.00  0.00    -0.206 OA
HETATM   26  O2  UNL     1      -3.528   1.819   1.517  1.00  0.00    -0.206 OA
ENDBRANCH  20  23
ENDBRANCH   1  19
TORSDOF 6
