REMARK  6 active torsions:
REMARK  status: ('A' for Active; 'I' for Inactive)
REMARK    1  A    between atoms: C2_2  and  C4_4 
REMARK    2  A    between atoms: C4_4  and  N1_5 
REMARK    3  A    between atoms: C4_4  and  C10_21 
REMARK       I    between atoms: N1_5  and  C5_7 
REMARK       I    between atoms: C5_7  and  N2_9 
REMARK    4  A    between atoms: N6_17  and  O2_18 
REMARK    5  A    between atoms: C10_21  and  O3_22 
REMARK    6  A    between atoms: C10_21  and  O4_24 
ROOT
HETATM    1  N1  UNL     1      -1.008  -0.461  -0.136  1.00  0.00    -0.333 N 
ATOM      2  H1  UNL     1      -0.832  -1.108   0.633  1.00  0.00     0.164 HD
HETATM    3  C5  UNL     1       0.100   0.201  -0.743  1.00  0.00     0.321 C 
HETATM    4  O1  UNL     1      -0.169   0.995  -1.694  1.00  0.00    -0.247 OA
HETATM    5  N2  UNL     1       1.438  -0.016  -0.307  1.00  0.00    -0.298 N 
HETATM    6  C6  UNL     1       1.657  -0.932   0.777  1.00  0.00     0.151 C 
HETATM    7  C7  UNL     1       3.105  -1.209   1.037  1.00  0.00     0.154 C 
HETATM    8  N3  UNL     1       3.959  -0.960  -0.078  1.00  0.00    -0.349 N 
ATOM      9  H3  UNL     1       4.666  -1.637  -0.363  1.00  0.00     0.174 HD
HETATM   10  N4  UNL     1       3.798   0.202  -0.741  1.00  0.00    -0.179 NA
HETATM   11  C8  UNL     1       4.633   1.296  -0.308  1.00  0.00     0.248 C 
HETATM   12  N5  UNL     1       3.857   2.451  -0.743  1.00  0.00    -0.120 NA
HETATM   13  N6  UNL     1       2.551   2.047  -0.420  1.00  0.00    -0.070 NA
HETATM   14  C9  UNL     1       2.493   0.682  -0.963  1.00  0.00     0.306 C 
ENDROOT
BRANCH   1  15
HETATM   15  C4  UNL     1      -2.371  -0.249  -0.570  1.00  0.00     0.144 C 
BRANCH  15  16
HETATM   16  C2  UNL     1      -3.237   0.279   0.560  1.00  0.00     0.005 C 
HETATM   17  C1  UNL     1      -4.647   0.505   0.131  1.00  0.00     0.012 C 
HETATM   18  C3  UNL     1      -2.680   1.537   1.156  1.00  0.00     0.012 C 
ENDBRANCH  15  16
BRANCH  15  19
HETATM   19  C10 UNL     1      -2.903  -1.574  -1.050  1.00  0.00     0.276 C 
BRANCH  19  20
HETATM   20  O3  UNL     1      -2.865  -2.492  -0.019  1.00  0.00    -0.369 OA
ATOM     21  H3  UNL     1      -3.201  -3.328  -0.322  1.00  0.00     0.212 HD
ENDBRANCH  19  20
BRANCH  19  22
HETATM   22  O4  UNL     1      -2.004  -2.025  -2.043  1.00  0.00    -0.369 OA
ATOM     23  H4  UNL     1      -2.340  -2.861  -2.346  1.00  0.00     0.212 HD
ENDBRANCH  19  22
ENDBRANCH  15  19
ENDBRANCH   1  15
BRANCH  13  24
HETATM   24  O2  UNL     1       2.535   1.890   0.940  1.00  0.00    -0.294 OA
ATOM     25  H2  UNL     1       1.652   1.617   1.158  1.00  0.00     0.238 HD
ENDBRANCH  13  24
TORSDOF 6
