REMARK  4 active torsions:
REMARK  status: ('A' for Active; 'I' for Inactive)
REMARK       I    between atoms: C2_5  and  N3_6 
REMARK       I    between atoms: C2_5  and  N8_20 
REMARK       I    between atoms: C3_8  and  N5_10 
REMARK    1  A    between atoms: N5_10  and  N6_12 
REMARK    2  A    between atoms: C4_14  and  C5_15 
REMARK    3  A    between atoms: C5_15  and  N7_16 
REMARK    4  A    between atoms: N8_20  and  C6_22 
ROOT
HETATM    1  N1  UNL     1      -2.892  -4.176  -0.995  1.00  0.00    -0.171 NA
HETATM    2  C1  UNL     1      -2.173  -3.495  -0.412  1.00  0.00     0.196 C 
HETATM    3  N2  UNL     1      -1.317  -2.652   0.292  1.00  0.00    -0.126 N 
ATOM      4  H2  UNL     1      -0.746  -3.023   1.051  1.00  0.00     0.197 HD
HETATM    5  C2  UNL     1      -1.247  -1.409  -0.014  1.00  0.00     0.695 C 
HETATM    6  N3  UNL     1      -0.352  -0.616   0.749  1.00  0.00    -0.161 N 
ATOM      7  H3  UNL     1      -0.364  -0.721   1.764  1.00  0.00     0.187 HD
HETATM    8  C3  UNL     1       0.469   0.222   0.241  1.00  0.00     0.221 C 
HETATM    9  N4  UNL     1       0.520   0.399  -1.168  1.00  0.00    -0.061 NA
HETATM   10  N5  UNL     1       1.327   0.972   1.080  1.00  0.00    -0.274 N 
ATOM     11  H5  UNL     1       0.927   1.716   1.652  1.00  0.00     0.189 HD
HETATM   12  N8  UNL     1      -2.041  -0.906  -1.064  1.00  0.00    -0.168 N 
ATOM     13  H8  UNL     1      -1.794  -1.120  -2.030  1.00  0.00     0.186 HD
ENDROOT
BRANCH  12  14
HETATM   14  C6  UNL     1      -3.097  -0.164  -0.812  1.00  0.00     0.183 A 
HETATM   15  N9  UNL     1      -3.573   0.217   0.377  1.00  0.00    -0.276 N 
HETATM   16  N10 UNL     1      -4.618   0.942   0.418  1.00  0.00    -0.258 N 
ATOM     17  H9  UNL     1      -3.106  -0.069   1.238  1.00  0.00     0.189 HD
HETATM   18  C7  UNL     1      -5.208   1.301  -0.721  1.00  0.00     0.305 A 
ATOM     19  H10 UNL     1      -5.000   1.245   1.314  1.00  0.00     0.191 HD
HETATM   20  O1  UNL     1      -6.259   2.022  -0.874  1.00  0.00    -0.258 OA
HETATM   21  S1  UNL     1      -4.205   0.557  -1.892  1.00  0.00     0.010 SA
ENDBRANCH  12  14
BRANCH  10  22
HETATM   22  N6  UNL     1       2.694   0.734   1.155  1.00  0.00    -0.312 N 
HETATM   23  C4  UNL     1       3.414   0.874   0.099  1.00  0.00     0.107 C 
ATOM     24  H6  UNL     1       3.121   0.452   2.037  1.00  0.00     0.185 HD
BRANCH  23  25
HETATM   25  C5  UNL     1       4.877   0.642   0.085  1.00  0.00     0.275 C 
BRANCH  25  26
HETATM   26  N7  UNL     1       5.217  -0.416   1.034  1.00  0.00    -0.075 N 
ATOM     27  H73 UNL     1       4.869  -0.217   1.972  1.00  0.00     0.274 HD
ATOM     28  H72 UNL     1       4.691  -1.272   0.860  1.00  0.00     0.274 HD
ATOM     29  H71 UNL     1       6.224  -0.576   1.024  1.00  0.00     0.274 HD
ENDBRANCH  25  26
ENDBRANCH  23  25
ENDBRANCH  10  22
TORSDOF 4
