REMARK  3 active torsions:
REMARK  status: ('A' for Active; 'I' for Inactive)
REMARK    1  A    between atoms: C4_9  and  N4_10 
REMARK    2  A    between atoms: C4_9  and  C7_15 
REMARK       I    between atoms: N4_10  and  C5_12 
REMARK       I    between atoms: C7_15  and  N5_17 
REMARK    3  A    between atoms: C9_21  and  O3_22 
ROOT
HETATM    1  C7  UNL     1      -0.924   1.515  -1.422  1.00  0.00     0.263 C 
HETATM    2  O2  UNL     1      -1.994   1.567  -2.063  1.00  0.00    -0.270 OA
HETATM    3  N5  UNL     1       0.078   2.483  -1.650  1.00  0.00    -0.262 N 
ATOM      4  H5  UNL     1       0.955   2.440  -1.131  1.00  0.00     0.181 HD
HETATM    5  C8  UNL     1      -0.135   3.522  -2.607  1.00  0.00     0.184 C 
HETATM    6  N6  UNL     1      -0.320   4.373  -3.369  1.00  0.00    -0.172 NA
ENDROOT
BRANCH   1   7
HETATM    7  C4  UNL     1      -0.672   0.433  -0.403  1.00  0.00     0.162 C 
HETATM    8  C3  UNL     1      -0.572   1.128   0.919  1.00  0.00     0.179 C 
HETATM    9  N3  UNL     1       0.701   1.703   1.196  1.00  0.00    -0.137 NA
HETATM   10  N2  UNL     1       1.644   0.660   1.302  1.00  0.00    -0.291 N 
HETATM   11  C2  UNL     1       1.540  -0.454   0.391  1.00  0.00     0.120 C 
ATOM     12  H2  UNL     1       2.382   0.692   2.006  1.00  0.00     0.183 HD
HETATM   13  N1  UNL     1       2.264  -1.489   0.530  1.00  0.00    -0.381 N 
HETATM   14  C9  UNL     1       0.555  -0.340  -0.714  1.00  0.00     0.225 C 
HETATM   15  C1  UNL     1       3.247  -1.745   1.527  1.00  0.00     0.147 C 
ATOM     16  H1  UNL     1       2.123  -2.228  -0.159  1.00  0.00     0.160 HD
BRANCH  14  17
HETATM   17  O3  UNL     1       1.192   0.122  -1.881  1.00  0.00    -0.385 OA
ATOM     18  H3  UNL     1       0.562   0.195  -2.588  1.00  0.00     0.210 HD
ENDBRANCH  14  17
BRANCH   7  19
HETATM   19  N4  UNL     1      -1.827  -0.466  -0.431  1.00  0.00    -0.340 N 
HETATM   20  C5  UNL     1      -2.013  -1.579   0.399  1.00  0.00     0.214 C 
HETATM   21  C6  UNL     1      -3.223  -2.419   0.292  1.00  0.00     0.117 C 
HETATM   22  O1  UNL     1      -1.169  -1.904   1.257  1.00  0.00    -0.274 OA
ATOM     23  H4  UNL     1      -2.558  -0.265  -1.113  1.00  0.00     0.163 HD
ENDBRANCH   7  19
ENDBRANCH   1   7
TORSDOF 3
