REMARK  1 active torsions:
REMARK  status: ('A' for Active; 'I' for Inactive)
REMARK       I    between atoms: N2_3  and  C2_5 
REMARK    1  A    between atoms: C2_5  and  C3_7 
ROOT
HETATM    1  N1  UNL     1       5.306   2.310  -0.706  1.00  0.00    -0.172 NA
HETATM    2  C1  UNL     1       4.248   1.947  -0.395  1.00  0.00     0.184 C 
HETATM    3  N2  UNL     1       2.979   1.500  -0.035  1.00  0.00    -0.261 N 
ATOM      4  H2  UNL     1       2.212   2.159   0.098  1.00  0.00     0.181 HD
HETATM    5  C2  UNL     1       2.775   0.083   0.146  1.00  0.00     0.281 C 
HETATM    6  O1  UNL     1       3.723  -0.726  -0.019  1.00  0.00    -0.268 OA
ENDROOT
BRANCH   5   7
HETATM    7  C3  UNL     1       1.445  -0.451   0.529  1.00  0.00     0.385 C 
HETATM    8  N3  UNL     1       1.521  -1.866   0.639  1.00  0.00    -0.307 N 
HETATM    9  C4  UNL     1       0.584  -2.769   0.053  1.00  0.00     0.320 C 
ATOM     10  H3  UNL     1       2.296  -2.262   1.171  1.00  0.00     0.166 HD
HETATM   11  O2  UNL     1       0.681  -4.027   0.179  1.00  0.00    -0.247 OA
HETATM   12  N4  UNL     1      -0.475  -2.175  -0.690  1.00  0.00    -0.301 N 
HETATM   13  C5  UNL     1      -0.712  -0.761  -0.502  1.00  0.00     0.262 C 
ATOM     14  H4  UNL     1      -1.045  -2.726  -1.331  1.00  0.00     0.167 HD
HETATM   15  C6  UNL     1      -1.574  -0.613   0.730  1.00  0.00     0.094 C 
HETATM   16  S1  UNL     1      -1.667  -0.173  -1.930  1.00  0.00    -0.034 SA
HETATM   17  N7  UNL     1       0.490   0.021  -0.435  1.00  0.00    -0.009 N 
HETATM   18  C7  UNL     1      -1.953   0.808   1.002  1.00  0.00     0.127 C 
HETATM   19  N5  UNL     1      -2.845   1.371   0.013  1.00  0.00    -0.371 N 
HETATM   20  C8  UNL     1      -2.602   1.249  -1.381  1.00  0.00     0.137 C 
ATOM     21  H5  UNL     1      -3.676   1.872   0.327  1.00  0.00     0.161 HD
HETATM   22  N6  UNL     1      -3.040   2.136  -2.234  1.00  0.00    -0.380 N 
ATOM     23  H62 UNL     1      -3.573   2.947  -1.921  1.00  0.00     0.158 HD
ATOM     24  H61 UNL     1      -2.865   2.048  -3.235  1.00  0.00     0.158 HD
ATOM     25  H72 UNL     1       0.269   1.003  -0.268  1.00  0.00     0.284 HD
ATOM     26  H71 UNL     1       0.920   0.095  -1.357  1.00  0.00     0.284 HD
ENDBRANCH   5   7
TORSDOF 1
