REMARK  4 active torsions:
REMARK  status: ('A' for Active; 'I' for Inactive)
REMARK    1  A    between atoms: C4_9  and  N2_10 
REMARK    2  A    between atoms: C4_9  and  C8_18 
REMARK    3  A    between atoms: N2_10  and  S2_12 
REMARK    4  A    between atoms: S2_12  and  C5_15 
ROOT
HETATM    1  C1  UNL     1      -3.500   0.694   0.756  1.00  0.00     0.039 C 
HETATM    2  C2  UNL     1      -2.250   0.762   0.318  1.00  0.00     0.015 C 
HETATM    3  C3  UNL     1      -1.920   1.852  -0.666  1.00  0.00     0.219 C 
HETATM    4  S1  UNL     1      -0.784   1.169  -1.813  1.00  0.00     0.235 S 
HETATM    5  O1  UNL     1      -1.550   0.601  -2.971  1.00  0.00    -0.205 OA
HETATM    6  O2  UNL     1       0.030   2.323  -2.385  1.00  0.00    -0.205 OA
HETATM    7  N1  UNL     1       0.283   0.040  -1.124  1.00  0.00    -0.267 N 
ATOM      8  H1  UNL     1       1.244  -0.061  -1.449  1.00  0.00     0.177 HD
HETATM    9  C4  UNL     1      -0.240  -0.755  -0.069  1.00  0.00     0.260 C 
HETATM   10  N5  UNL     1      -1.240  -0.130   0.734  1.00  0.00    -0.343 N 
ATOM     11  H5  UNL     1      -1.222  -0.355   1.729  1.00  0.00     0.164 HD
ENDROOT
BRANCH   9  12
HETATM   12  N2  UNL     1       0.738  -1.385   0.746  1.00  0.00    -0.263 N 
ATOM     13  H2  UNL     1       0.800  -2.403   0.770  1.00  0.00     0.177 HD
BRANCH  12  14
HETATM   14  S2  UNL     1       1.788  -0.464   1.667  1.00  0.00     0.257 S 
HETATM   15  O3  UNL     1       1.101   0.343   2.741  1.00  0.00    -0.201 OA
HETATM   16  O4  UNL     1       2.750  -1.398   2.400  1.00  0.00    -0.201 OA
BRANCH  14  17
HETATM   17  C5  UNL     1       2.773   0.552   0.646  1.00  0.00     0.044 C 
HETATM   18  C6  UNL     1       3.914   0.051   0.144  1.00  0.00     0.033 C 
HETATM   19  C7  UNL     1       2.445   1.950   0.282  1.00  0.00     0.062 C 
ENDBRANCH  14  17
ENDBRANCH  12  14
ENDBRANCH   9  12
BRANCH   9  20
HETATM   20  C8  UNL     1      -0.949  -1.933  -0.728  1.00  0.00     0.159 C 
HETATM   21  N3  UNL     1      -0.930  -2.127  -1.985  1.00  0.00    -0.386 N 
ATOM     22  H32 UNL     1      -0.455  -1.520  -2.653  1.00  0.00     0.157 HD
ATOM     23  H31 UNL     1      -1.404  -2.915  -2.426  1.00  0.00     0.157 HD
HETATM   24  N4  UNL     1      -1.609  -2.776   0.199  1.00  0.00    -0.081 NA
ENDBRANCH   9  20
TORSDOF 4
