REMARK  5 active torsions:
REMARK  status: ('A' for Active; 'I' for Inactive)
REMARK    1  A    between atoms: C2_2  and  N1_3 
REMARK    2  A    between atoms: C2_2  and  C10_20 
REMARK    3  A    between atoms: C2_2  and  C11_23 
REMARK       I    between atoms: N1_3  and  C3_5 
REMARK       I    between atoms: C3_5  and  N2_7 
REMARK    4  A    between atoms: N2_7  and  N3_9 
REMARK       I    between atoms: N3_9  and  C4_11 
REMARK    5  A    between atoms: C4_11  and  C5_13 
ROOT
HETATM    1  N1  UNL     1      -1.687   0.763  -0.985  1.00  0.00    -0.317 N 
ATOM      2  H1  UNL     1      -1.675   1.306  -1.848  1.00  0.00     0.166 HD
HETATM    3  C3  UNL     1      -0.467   0.562  -0.326  1.00  0.00     0.336 C 
HETATM    4  O1  UNL     1      -0.451  -0.105   0.736  1.00  0.00    -0.246 OA
HETATM    5  N2  UNL     1       0.754   1.084  -0.816  1.00  0.00    -0.249 N 
ATOM      6  H2  UNL     1       0.758   1.622  -1.683  1.00  0.00     0.192 HD
ENDROOT
BRANCH   5   7
HETATM    7  N3  UNL     1       1.960   0.874  -0.129  1.00  0.00    -0.262 N 
HETATM    8  C4  UNL     1       2.857  -0.149  -0.491  1.00  0.00     0.270 C 
HETATM    9  O2  UNL     1       2.530  -0.884  -1.474  1.00  0.00    -0.266 OA
ATOM     10  H3  UNL     1       2.194   1.481   0.657  1.00  0.00     0.190 HD
BRANCH   8  11
HETATM   11  C5  UNL     1       4.116  -0.411   0.181  1.00  0.00     0.036 A 
HETATM   12  C6  UNL     1       4.939  -1.454  -0.240  1.00  0.00     0.034 A 
HETATM   13  C7  UNL     1       6.116  -1.683   0.399  1.00  0.00     0.088 A 
HETATM   14  N4  UNL     1       6.495  -0.917   1.431  1.00  0.00    -0.375 N 
HETATM   15  C8  UNL     1       5.723   0.090   1.855  1.00  0.00     0.088 A 
ATOM     16  H4  UNL     1       7.382  -1.104   1.899  1.00  0.00     0.164 HD
HETATM   17  C9  UNL     1       4.506   0.369   1.235  1.00  0.00     0.034 A 
ENDBRANCH   8  11
ENDBRANCH   5   7
BRANCH   1  18
HETATM   18  C2  UNL     1      -2.957   0.258  -0.531  1.00  0.00     0.188 C 
HETATM   19  C1  UNL     1      -2.916  -1.240  -0.446  1.00  0.00     0.059 C 
BRANCH  18  20
HETATM   20  C10 UNL     1      -4.039   0.651  -1.491  1.00  0.00     0.268 C 
HETATM   21  N5  UNL     1      -5.371   0.237  -1.222  1.00  0.00    -0.059 NA
HETATM   22  O3  UNL     1      -3.741   1.333  -2.503  1.00  0.00    -0.274 OA
ENDBRANCH  18  20
BRANCH  18  23
HETATM   23  C11 UNL     1      -3.332   0.823   0.804  1.00  0.00     0.268 C 
HETATM   24  N6  UNL     1      -4.535   0.425   1.419  1.00  0.00    -0.059 NA
HETATM   25  O4  UNL     1      -2.609   1.651   1.414  1.00  0.00    -0.274 OA
ENDBRANCH  18  23
ENDBRANCH   1  18
TORSDOF 5
