REMARK  3 active torsions:
REMARK  status: ('A' for Active; 'I' for Inactive)
REMARK    1  A    between atoms: C3_3  and  C4_4 
REMARK    2  A    between atoms: C4_4  and  N1_5 
REMARK    3  A    between atoms: N1_5  and  C5_7 
ROOT
HETATM    1  N1  UNL     1       0.064   0.572  -0.229  1.00  0.00    -0.391 N 
ATOM      2  H1  UNL     1       0.692   1.147  -0.791  1.00  0.00     0.159 HD
ENDROOT
BRANCH   1   3
HETATM    3  C4  UNL     1       0.592  -0.445   0.565  1.00  0.00     0.114 C 
BRANCH   3   4
HETATM    4  C3  UNL     1       2.091  -0.439   0.377  1.00  0.00     0.064 A 
HETATM    5  C2  UNL     1       3.016   0.213   1.170  1.00  0.00     0.051 A 
HETATM    6  C1  UNL     1       4.263  -0.041   0.647  1.00  0.00     0.109 A 
HETATM    7  N4  UNL     1       4.096  -0.825  -0.431  1.00  0.00    -0.311 N 
HETATM    8  N3  UNL     1       2.797  -1.059  -0.586  1.00  0.00    -0.300 N 
ATOM      9  H4  UNL     1       4.841  -1.181  -1.030  1.00  0.00     0.186 HD
ATOM     10  H3  UNL     1       2.393  -1.628  -1.330  1.00  0.00     0.187 HD
ENDBRANCH   3   4
ENDBRANCH   1   3
BRANCH   1  11
HETATM   11  C5  UNL     1      -1.316   0.817  -0.267  1.00  0.00     0.108 C 
HETATM   12  C6  UNL     1      -2.151  -0.324  -0.800  1.00  0.00     0.054 C 
HETATM   13  C7  UNL     1      -2.832  -0.807   0.471  1.00  0.00     0.234 C 
HETATM   14  N2  UNL     1      -3.265   0.466   1.033  1.00  0.00    -0.073 N 
HETATM   15  C8  UNL     1      -2.000   1.211   0.975  1.00  0.00     0.257 C 
ATOM     16  H22 UNL     1      -4.063   0.907   0.575  1.00  0.00     0.277 HD
ATOM     17  H21 UNL     1      -3.713   0.419   1.948  1.00  0.00     0.277 HD
ENDBRANCH   1  11
TORSDOF 3
