REMARK  5 active torsions:
REMARK  status: ('A' for Active; 'I' for Inactive)
REMARK    1  A    between atoms: N1_1  and  N2_4 
REMARK    2  A    between atoms: N2_4  and  C1_6 
REMARK    3  A    between atoms: C2_8  and  C3_9 
REMARK    4  A    between atoms: C3_9  and  N3_10 
REMARK    5  A    between atoms: N3_10  and  C4_13 
ROOT
HETATM    1  C3  UNL     1       1.025   0.594   0.308  1.00  0.00     0.269 C 
ENDROOT
BRANCH   1   2
HETATM    2  C2  UNL     1       1.603  -0.770   0.434  1.00  0.00     0.199 A 
HETATM    3  C1  UNL     1       2.953  -1.174   0.593  1.00  0.00     0.266 A 
HETATM    4  O1  UNL     1       2.243  -1.329  -0.708  1.00  0.00    -0.351 OA
BRANCH   3   5
HETATM    5  N2  UNL     1       4.163  -0.484   0.386  1.00  0.00    -0.311 N 
ATOM      6  H2  UNL     1       5.039  -0.950   0.621  1.00  0.00     0.182 HD
BRANCH   5   7
HETATM    7  N1  UNL     1       4.207   0.747  -0.102  1.00  0.00    -0.347 N 
ATOM      8  H12 UNL     1       3.321   1.198  -0.331  1.00  0.00     0.176 HD
ATOM      9  H11 UNL     1       5.083   1.247  -0.252  1.00  0.00     0.176 HD
ENDBRANCH   5   7
ENDBRANCH   3   5
ENDBRANCH   1   2
BRANCH   1  10
HETATM   10  N3  UNL     1      -0.009   0.677  -0.713  1.00  0.00    -0.068 N 
ATOM     11  H32 UNL     1      -0.229   1.646  -0.943  1.00  0.00     0.277 HD
ATOM     12  H31 UNL     1       0.339   0.374  -1.623  1.00  0.00     0.277 HD
BRANCH  10  13
HETATM   13  C4  UNL     1      -1.196  -0.060  -0.327  1.00  0.00     0.186 C 
HETATM   14  C5  UNL     1      -2.183  -0.035  -1.473  1.00  0.00     0.033 C 
HETATM   15  C6  UNL     1      -3.464  -0.440  -0.729  1.00  0.00     0.002 C 
HETATM   16  C7  UNL     1      -3.425   0.586   0.412  1.00  0.00     0.002 C 
HETATM   17  C8  UNL     1      -1.956   0.646   0.775  1.00  0.00     0.033 C 
ENDBRANCH  10  13
ENDBRANCH   1  10
TORSDOF 5
