REMARK  5 active torsions:
REMARK  status: ('A' for Active; 'I' for Inactive)
REMARK    1  A    between atoms: N1_1  and  C1_5 
REMARK    2  A    between atoms: C1_5  and  C2_6 
REMARK    3  A    between atoms: C2_6  and  N2_7 
REMARK    4  A    between atoms: N2_7  and  C3_10 
REMARK    5  A    between atoms: C3_10  and  C4_11 
ROOT
HETATM    1  C3  UNL     1       0.461  -0.770  -0.794  1.00  0.00     0.265 C 
ENDROOT
BRANCH   1   2
HETATM    2  N2  UNL     1       1.576  -1.267  -0.020  1.00  0.00    -0.071 N 
ATOM      3  H22 UNL     1       1.948  -2.144  -0.384  1.00  0.00     0.277 HD
ATOM      4  H21 UNL     1       1.296  -1.607   0.900  1.00  0.00     0.277 HD
BRANCH   2   5
HETATM    5  C2  UNL     1       2.574  -0.226   0.051  1.00  0.00     0.259 C 
BRANCH   5   6
HETATM    6  C1  UNL     1       3.827  -0.680   0.819  1.00  0.00     0.257 C 
BRANCH   6   7
HETATM    7  N1  UNL     1       4.719   0.468   0.771  1.00  0.00    -0.078 N 
ATOM      8  H13 UNL     1       4.909   0.809  -0.172  1.00  0.00     0.274 HD
ATOM      9  H12 UNL     1       4.305   1.332   1.122  1.00  0.00     0.274 HD
ATOM     10  H11 UNL     1       5.550   0.167   1.280  1.00  0.00     0.274 HD
ENDBRANCH   6   7
ENDBRANCH   5   6
ENDBRANCH   2   5
ENDBRANCH   1   2
BRANCH   1  11
HETATM   11  C4  UNL     1      -0.340   0.295  -0.130  1.00  0.00     0.172 C 
HETATM   12  C5  UNL     1      -1.314   0.883  -1.123  1.00  0.00     0.265 C 
HETATM   13  N3  UNL     1      -2.364   1.637  -0.474  1.00  0.00    -0.073 N 
HETATM   14  C6  UNL     1      -3.486   0.715  -0.320  1.00  0.00     0.234 C 
ATOM     15  H32 UNL     1      -2.071   2.072   0.401  1.00  0.00     0.277 HD
ATOM     16  H31 UNL     1      -2.609   2.498  -0.964  1.00  0.00     0.277 HD
HETATM   17  C7  UNL     1      -3.309   0.018   1.012  1.00  0.00     0.054 C 
HETATM   18  C8  UNL     1      -2.076  -0.849   0.890  1.00  0.00     0.170 C 
HETATM   19  O1  UNL     1      -0.916  -0.106   1.060  1.00  0.00    -0.382 OA
ENDBRANCH   1  11
TORSDOF 5
