REMARK  0 active torsions:
REMARK  status: ('A' for Active; 'I' for Inactive)
ROOT
HETATM    1  C1  UNL     1       1.381  -0.062  -0.480  1.00  0.00     0.015 C 
HETATM    2  C2  UNL     1      -0.018  -0.411  -0.126  1.00  0.00    -0.040 A 
HETATM    3  C3  UNL     1      -1.148  -0.023  -0.997  1.00  0.00     0.015 A 
HETATM    4  C4  UNL     1      -0.986   0.501   0.459  1.00  0.00    -0.005 A 
HETATM    5  C5  UNL     1      -0.293  -0.418   1.383  1.00  0.00     0.015 A 
ENDROOT
TORSDOF 0
