REMARK  0 active torsions:
REMARK  status: ('A' for Active; 'I' for Inactive)
ROOT
HETATM    1  C1  UNL     1       1.534   0.188  -0.171  1.00  0.00     0.001 C 
HETATM    2  C2  UNL     1       0.585   1.340   0.043  1.00  0.00     0.004 C 
HETATM    3  C3  UNL     1      -0.852   0.919   0.120  1.00  0.00    -0.014 C 
HETATM    4  C4  UNL     1      -1.097  -0.229   1.056  1.00  0.00     0.009 C 
HETATM    5  C5  UNL     1      -0.588  -1.130  -0.077  1.00  0.00    -0.014 C 
HETATM    6  C6  UNL     1       0.914  -1.152   0.046  1.00  0.00     0.004 C 
HETATM    7  C7  UNL     1      -1.081  -0.069  -1.032  1.00  0.00     0.009 C 
ENDROOT
TORSDOF 0
