REMARK  0 active torsions:
REMARK  status: ('A' for Active; 'I' for Inactive)
ROOT
HETATM    1  C1  UNL     1      -1.000   0.971  -0.280  1.00  0.00     0.008 C 
HETATM    2  C2  UNL     1      -1.353  -0.487  -0.603  1.00  0.00     0.033 C 
HETATM    3  C3  UNL     1      -0.064  -1.174  -0.154  1.00  0.00     0.186 C 
HETATM    4  C4  UNL     1       0.063  -0.480   1.212  1.00  0.00     0.039 C 
HETATM    5  C5  UNL     1       0.208   0.929   0.599  1.00  0.00     0.013 C 
HETATM    6  C6  UNL     1       1.405   0.639  -0.277  1.00  0.00     0.237 C 
HETATM    7  N1  UNL     1       1.010  -0.616  -0.903  1.00  0.00    -0.070 N 
ATOM      8  H11 UNL     1       0.783  -0.507  -1.891  1.00  0.00     0.277 HD
ATOM      9  H12 UNL     1       1.791  -1.263  -1.010  1.00  0.00     0.277 HD
ENDROOT
TORSDOF 0
