REMARK  1 active torsions:
REMARK  status: ('A' for Active; 'I' for Inactive)
REMARK    1  A    between atoms: C4_4  and  C5_5 
ROOT
HETATM    1  C1  UNL     1      -3.810   0.041   0.156  1.00  0.00     0.017 C 
HETATM    2  C2  UNL     1      -2.650  -0.283   0.038  1.00  0.00    -0.089 C 
HETATM    3  C3  UNL     1      -1.258  -0.648  -0.111  1.00  0.00     0.065 C 
HETATM    4  C4  UNL     1      -0.315   0.188   0.242  1.00  0.00     0.033 C 
ENDROOT
BRANCH   4   5
HETATM    5  C5  UNL     1       1.083  -0.167   0.097  1.00  0.00    -0.001 C 
HETATM    6  C6  UNL     1       2.163   0.767   0.492  1.00  0.00     0.067 C 
HETATM    7  N1  UNL     1       1.397  -1.316  -0.382  1.00  0.00    -0.403 N 
ATOM      8  H12 UNL     1       0.653  -1.959  -0.654  1.00  0.00     0.156 HD
ATOM      9  H11 UNL     1       2.381  -1.566  -0.484  1.00  0.00     0.156 HD
ENDBRANCH   4   5
TORSDOF 1
