REMARK  2 active torsions:
REMARK  status: ('A' for Active; 'I' for Inactive)
REMARK    1  A    between atoms: C2_2  and  N1_3 
REMARK    2  A    between atoms: N1_3  and  C3_5 
ROOT
HETATM    1  C3  UNL     1       0.463   0.368  -0.336  1.00  0.00     0.081 C 
HETATM    2  C4  UNL     1       0.062   0.432   1.115  1.00  0.00     0.025 C 
HETATM    3  C5  UNL     1      -1.302   0.946   1.356  1.00  0.00     0.002 C 
HETATM    4  C6  UNL     1      -2.219   0.903   0.171  1.00  0.00     0.000 C 
HETATM    5  C7  UNL     1      -2.425  -0.460  -0.389  1.00  0.00     0.000 C 
HETATM    6  C8  UNL     1      -1.405  -0.859  -1.425  1.00  0.00     0.002 C 
HETATM    7  C9  UNL     1      -0.021  -0.993  -0.848  1.00  0.00     0.025 C 
ENDROOT
BRANCH   1   8
HETATM    8  N1  UNL     1       1.900   0.454  -0.458  1.00  0.00    -0.395 N 
ATOM      9  H1  UNL     1       2.298   1.227  -0.991  1.00  0.00     0.159 HD
BRANCH   8  10
HETATM   10  C2  UNL     1       2.777  -0.484   0.128  1.00  0.00     0.073 C 
HETATM   11  C1  UNL     1       4.010  -0.159   0.437  1.00  0.00     0.029 C 
ENDBRANCH   8  10
ENDBRANCH   1   8
TORSDOF 2
