REMARK  3 active torsions:
REMARK  status: ('A' for Active; 'I' for Inactive)
REMARK    1  A    between atoms: N1_1  and  C1_5 
REMARK    2  A    between atoms: C2_6  and  C8_13 
REMARK    3  A    between atoms: C5_9  and  C6_11 
ROOT
HETATM    1  C1  UNL     1       1.103  -0.402  -0.202  1.00  0.00     0.227 C 
HETATM    2  C2  UNL     1       0.353   0.268   0.969  1.00  0.00     0.024 C 
HETATM    3  C3  UNL     1       0.674   1.690   0.409  1.00  0.00     0.010 C 
HETATM    4  C4  UNL     1      -0.038   1.437  -0.942  1.00  0.00     0.046 C 
HETATM    5  C5  UNL     1      -0.084  -0.040  -1.139  1.00  0.00     0.136 C 
HETATM    6  F1  UNL     1       0.136  -0.469  -2.406  1.00  0.00    -0.240 F 
ENDROOT
BRANCH   1   7
HETATM    7  N1  UNL     1       1.319  -1.770  -0.031  1.00  0.00    -0.071 N 
ATOM      8  H13 UNL     1       1.800  -1.949   0.851  1.00  0.00     0.274 HD
ATOM      9  H12 UNL     1       0.438  -2.251   0.152  1.00  0.00     0.274 HD
ATOM     10  H11 UNL     1       1.815  -2.213  -0.805  1.00  0.00     0.274 HD
ENDBRANCH   1   7
BRANCH   2  11
HETATM   11  C8  UNL     1      -1.074   0.095   0.770  1.00  0.00    -0.001 A 
HETATM   12  C6  UNL     1      -1.140  -0.815  -0.478  1.00  0.00     0.032 A 
HETATM   13  C7  UNL     1      -1.985  -0.941   0.659  1.00  0.00     0.014 A 
ENDBRANCH   2  11
TORSDOF 3
