REMARK  16 active torsions:
REMARK  status: ('A' for Active; 'I' for Inactive)
REMARK    1  A    between atoms: C2_2  and  N1_3 
REMARK       I    between atoms: N1_3  and  C3_5 
REMARK       I    between atoms: C3_5  and  N2_7 
REMARK    2  A    between atoms: N2_7  and  C4_9 
REMARK    3  A    between atoms: C4_9  and  C5_10 
REMARK    4  A    between atoms: C5_10  and  C6_11 
REMARK    5  A    between atoms: C6_11  and  C7_12 
REMARK    6  A    between atoms: C7_12  and  S1_13 
REMARK    7  A    between atoms: S1_13  and  C8_14 
REMARK    8  A    between atoms: C9_15  and  C10_16 
REMARK    9  A    between atoms: C10_16  and  N3_17 
REMARK   10  A    between atoms: N3_17  and  C13_20 
REMARK   11  A    between atoms: C13_20  and  C14_21 
REMARK   12  A    between atoms: C14_21  and  C15_22 
REMARK   13  A    between atoms: C15_22  and  N4_23 
REMARK   14  A    between atoms: N4_23  and  S2_25 
REMARK   15  A    between atoms: S2_25  and  C17_28 
REMARK   16  A    between atoms: C22_33  and  O3_34 
ROOT
HETATM    1  C8  UNL     1       1.917  -0.165   1.040  1.00  0.00     0.093 A 
HETATM    2  C9  UNL     1       0.744   0.197   0.340  1.00  0.00     0.062 A 
HETATM    3  N5  UNL     1       0.270   1.442   0.488  1.00  0.00    -0.309 N 
ATOM      4  H5  UNL     1      -0.576   1.715  -0.012  1.00  0.00     0.170 HD
HETATM    5  C23 UNL     1       0.888   2.349   1.287  1.00  0.00     0.329 A 
HETATM    6  O4  UNL     1       0.411   3.514   1.401  1.00  0.00    -0.246 OA
HETATM    7  N6  UNL     1       1.995   1.995   1.942  1.00  0.00    -0.270 N 
HETATM    8  C24 UNL     1       2.633   2.992   2.792  1.00  0.00     0.164 C 
HETATM    9  C25 UNL     1       2.524   0.761   1.838  1.00  0.00     0.270 A 
HETATM   10  O5  UNL     1       3.560   0.536   2.494  1.00  0.00    -0.266 OA
ENDROOT
BRANCH   2  11
HETATM   11  C10 UNL     1       0.119  -0.816  -0.505  1.00  0.00     0.295 C 
BRANCH  11  12
HETATM   12  N3  UNL     1      -1.065  -0.465  -1.221  1.00  0.00    -0.069 N 
HETATM   13  C11 UNL     1      -1.372  -1.709  -2.014  1.00  0.00     0.272 C 
HETATM   14  C12 UNL     1      -0.853   0.535  -2.213  1.00  0.00     0.272 C 
BRANCH  12  15
HETATM   15  C13 UNL     1      -2.170  -0.318  -0.342  1.00  0.00     0.238 C 
BRANCH  15  16
HETATM   16  C14 UNL     1      -3.306   0.528  -0.805  1.00  0.00     0.048 C 
BRANCH  16  17
HETATM   17  C15 UNL     1      -4.430   0.550   0.252  1.00  0.00     0.131 C 
BRANCH  17  18
HETATM   18  N4  UNL     1      -5.504   1.383  -0.249  1.00  0.00    -0.348 N 
ATOM     19  H4  UNL     1      -5.473   1.856  -1.152  1.00  0.00     0.169 HD
BRANCH  18  20
HETATM   20  S2  UNL     1      -6.818   1.494   0.816  1.00  0.00     0.047 S 
HETATM   21  C16 UNL     1      -6.403   1.323   2.511  1.00  0.00     0.142 C 
HETATM   22  O2  UNL     1      -7.547   2.847   0.665  1.00  0.00    -0.245 OA
BRANCH  20  23
HETATM   23  C17 UNL     1      -8.076   0.619   0.393  1.00  0.00     0.044 C 
HETATM   24  C18 UNL     1      -8.804  -0.081   1.396  1.00  0.00     0.052 C 
HETATM   25  C19 UNL     1     -10.065  -0.631   0.737  1.00  0.00     0.006 C 
HETATM   26  C20 UNL     1      -9.679  -1.360  -0.507  1.00  0.00     0.007 C 
HETATM   27  C21 UNL     1      -9.124  -0.509  -1.606  1.00  0.00     0.065 C 
HETATM   28  C22 UNL     1      -8.434   0.656  -1.000  1.00  0.00     0.059 C 
BRANCH  28  29
HETATM   29  O3  UNL     1      -8.142   1.720  -1.690  1.00  0.00    -0.364 OA
ATOM     30  H3  UNL     1      -8.378   1.744  -2.610  1.00  0.00     0.217 HD
ENDBRANCH  28  29
ENDBRANCH  20  23
ENDBRANCH  18  20
ENDBRANCH  17  18
ENDBRANCH  16  17
ENDBRANCH  15  16
ENDBRANCH  12  15
ENDBRANCH  11  12
ENDBRANCH   2  11
BRANCH   1  31
HETATM   31  S1  UNL     1       2.540  -1.804   0.852  1.00  0.00    -0.122 SA
BRANCH  31  32
HETATM   32  C7  UNL     1       3.681  -2.014  -0.512  1.00  0.00     0.080 C 
BRANCH  32  33
HETATM   33  C6  UNL     1       4.994  -1.323  -0.364  1.00  0.00     0.012 C 
BRANCH  33  34
HETATM   34  C5  UNL     1       5.800  -1.790   0.817  1.00  0.00     0.020 C 
BRANCH  34  35
HETATM   35  C4  UNL     1       7.111  -1.028   0.888  1.00  0.00     0.124 C 
BRANCH  35  36
HETATM   36  N2  UNL     1       7.897  -1.240  -0.319  1.00  0.00    -0.343 N 
HETATM   37  C3  UNL     1       9.161  -0.602  -0.436  1.00  0.00     0.316 C 
HETATM   38  N1  UNL     1       9.966  -0.773  -1.590  1.00  0.00    -0.344 N 
HETATM   39  O1  UNL     1       9.604   0.136   0.484  1.00  0.00    -0.247 OA
ATOM     40  H1  UNL     1       9.621  -1.367  -2.344  1.00  0.00     0.164 HD
ATOM     41  H2  UNL     1       7.546  -1.837  -1.068  1.00  0.00     0.164 HD
BRANCH  38  42
HETATM   42  C2  UNL     1      11.251  -0.141  -1.740  1.00  0.00     0.120 C 
HETATM   43  C1  UNL     1      12.204  -0.575  -0.635  1.00  0.00     0.026 C 
ENDBRANCH  38  42
ENDBRANCH  35  36
ENDBRANCH  34  35
ENDBRANCH  33  34
ENDBRANCH  32  33
ENDBRANCH  31  32
ENDBRANCH   1  31
TORSDOF 16
