REMARK  17 active torsions:
REMARK  status: ('A' for Active; 'I' for Inactive)
REMARK    1  A    between atoms: C2_2  and  N1_3 
REMARK    2  A    between atoms: N1_3  and  C3_4 
REMARK    3  A    between atoms: N1_3  and  C5_6 
REMARK    4  A    between atoms: C5_6  and  C6_7 
REMARK    5  A    between atoms: C6_7  and  N2_8 
REMARK    6  A    between atoms: N2_8  and  C7_10 
REMARK    7  A    between atoms: C8_13  and  N4_14 
REMARK    8  A    between atoms: N4_14  and  C9_15 
REMARK    9  A    between atoms: N4_14  and  C11_17 
REMARK   10  A    between atoms: C11_17  and  C12_18 
REMARK   11  A    between atoms: C12_18  and  O1_19 
REMARK   12  A    between atoms: C17_30  and  N8_31 
REMARK   13  A    between atoms: N8_31  and  C18_32 
REMARK       I    between atoms: N9_35  and  C21_36 
REMARK       I    between atoms: C21_36  and  N11_40 
REMARK   14  A    between atoms: N11_40  and  C22_42 
REMARK   15  A    between atoms: C22_42  and  C23_43 
REMARK   16  A    between atoms: C23_43  and  C24_44 
REMARK   17  A    between atoms: C24_44  and  N12_45 
ROOT
HETATM    1  C7  UNL     1      -2.098  -0.543   0.155  1.00  0.00     0.163 C 
HETATM    2  N3  UNL     1      -3.242  -1.108   0.584  1.00  0.00    -0.173 N 
ATOM      3  H3  UNL     1      -3.899  -0.479   1.045  1.00  0.00     0.186 HD
HETATM    4  C8  UNL     1      -3.638  -2.403   0.485  1.00  0.00     0.683 C 
HETATM    5  N5  UNL     1      -2.831  -3.466   0.783  1.00  0.00    -0.174 N 
ATOM      6  H5  UNL     1      -3.260  -4.264   1.252  1.00  0.00     0.186 HD
HETATM    7  C14 UNL     1      -1.489  -3.546   0.501  1.00  0.00     0.152 A 
HETATM    8  N6  UNL     1      -0.812  -4.702   0.481  1.00  0.00    -0.336 N 
ATOM      9  H6  UNL     1      -1.204  -5.625   0.669  1.00  0.00     0.168 HD
HETATM   10  C15 UNL     1       0.459  -4.445   0.175  1.00  0.00     0.182 A 
HETATM   11  N7  UNL     1       0.621  -3.128  -0.007  1.00  0.00    -0.346 N 
ATOM     12  H7  UNL     1       1.488  -2.649  -0.250  1.00  0.00     0.167 HD
HETATM   13  C16 UNL     1      -0.593  -2.553   0.195  1.00  0.00     0.122 A 
HETATM   14  C17 UNL     1      -0.816  -1.188   0.095  1.00  0.00     0.175 C 
ENDROOT
BRANCH  14  15
HETATM   15  N8  UNL     1       0.081  -0.411  -0.059  1.00  0.00    -0.436 NA
BRANCH  15  16
HETATM   16  C18 UNL     1       1.335   0.067  -0.219  1.00  0.00     0.167 C 
HETATM   17  C19 UNL     1       1.296   1.505  -0.803  1.00  0.00     0.060 C 
HETATM   18  C20 UNL     1       2.703   1.770  -1.303  1.00  0.00     0.144 C 
HETATM   19  N9  UNL     1       3.526   1.864  -0.107  1.00  0.00    -0.218 N 
HETATM   20  C21 UNL     1       4.835   2.414  -0.183  1.00  0.00     0.669 C 
HETATM   21  C28 UNL     1       2.966   1.398   1.137  1.00  0.00     0.144 C 
HETATM   22  N10 UNL     1       4.965   3.689  -0.079  1.00  0.00    -0.235 N 
HETATM   23  N11 UNL     1       5.997   1.610  -0.369  1.00  0.00    -0.227 N 
ATOM     24 2H10 UNL     1       4.133   4.264   0.054  1.00  0.00     0.174 HD
ATOM     25 1H10 UNL     1       5.904   4.084  -0.134  1.00  0.00     0.174 HD
ATOM     26  H11 UNL     1       6.873   2.073  -0.612  1.00  0.00     0.177 HD
HETATM   27  C29 UNL     1       2.232   0.099   0.997  1.00  0.00     0.060 C 
BRANCH  23  28
HETATM   28  C22 UNL     1       5.996   0.182  -0.232  1.00  0.00     0.139 C 
BRANCH  28  29
HETATM   29  C23 UNL     1       7.334  -0.452  -0.442  1.00  0.00     0.048 C 
BRANCH  29  30
HETATM   30  C24 UNL     1       8.302   0.092   0.576  1.00  0.00     0.238 C 
BRANCH  30  31
HETATM   31  N12 UNL     1       9.626  -0.460   0.475  1.00  0.00    -0.068 N 
HETATM   32  C25 UNL     1       9.680  -1.900   0.241  1.00  0.00     0.272 C 
HETATM   33  C26 UNL     1      10.571   0.083   1.430  1.00  0.00     0.265 A 
HETATM   34  C27 UNL     1      10.704   0.337  -0.035  1.00  0.00     0.265 A 
ENDBRANCH  30  31
ENDBRANCH  29  30
ENDBRANCH  28  29
ENDBRANCH  23  28
ENDBRANCH  15  16
ENDBRANCH  14  15
BRANCH   1  35
HETATM   35  N2  UNL     1      -2.130   0.622  -0.226  1.00  0.00    -0.351 N 
ATOM     36  H2  UNL     1      -1.177   0.855  -0.504  1.00  0.00     0.166 HD
BRANCH  35  37
HETATM   37  C6  UNL     1      -2.876   1.751  -0.445  1.00  0.00     0.082 C 
BRANCH  37  38
HETATM   38  C5  UNL     1      -4.230   1.890   0.187  1.00  0.00     0.161 C 
BRANCH  38  39
HETATM   39  N1  UNL     1      -4.795   3.166  -0.180  1.00  0.00    -0.409 N 
BRANCH  39  40
HETATM   40  C2  UNL     1      -4.132   4.286   0.386  1.00  0.00     0.112 C 
HETATM   41  C1  UNL     1      -3.818   4.042   1.832  1.00  0.00     0.026 C 
ENDBRANCH  39  40
BRANCH  39  42
HETATM   42  C3  UNL     1      -5.168   3.269  -1.551  1.00  0.00     0.112 C 
HETATM   43  C4  UNL     1      -6.281   4.293  -1.780  1.00  0.00     0.026 C 
ENDBRANCH  39  42
ENDBRANCH  38  39
ENDBRANCH  37  38
ENDBRANCH  35  37
ENDBRANCH   1  35
BRANCH   4  44
HETATM   44  N4  UNL     1      -4.949  -2.691   0.044  1.00  0.00    -0.216 N 
BRANCH  44  45
HETATM   45  C9  UNL     1      -5.165  -2.925  -1.368  1.00  0.00     0.137 C 
HETATM   46  C10 UNL     1      -5.979  -1.839  -2.034  1.00  0.00     0.027 C 
ENDBRANCH  44  45
BRANCH  44  47
HETATM   47  C11 UNL     1      -6.079  -2.764   0.937  1.00  0.00     0.167 C 
BRANCH  47  48
HETATM   48  C12 UNL     1      -6.586  -4.180   1.045  1.00  0.00     0.187 C 
BRANCH  48  49
HETATM   49  O1  UNL     1      -7.662  -4.358   1.876  1.00  0.00    -0.394 OA
HETATM   50  C13 UNL     1      -8.751  -3.623   1.450  1.00  0.00     0.201 C 
ENDBRANCH  48  49
ENDBRANCH  47  48
ENDBRANCH  44  47
ENDBRANCH   4  44
TORSDOF 17
