REMARK  15 active torsions:
REMARK  status: ('A' for Active; 'I' for Inactive)
REMARK       I    between atoms: C2_2  and  N1_4 
REMARK    1  A    between atoms: N1_4  and  C3_6 
REMARK    2  A    between atoms: C3_6  and  C5_8 
REMARK       I    between atoms: C5_8  and  N2_10 
REMARK    3  A    between atoms: N2_10  and  C6_12 
REMARK    4  A    between atoms: C6_12  and  C7_13 
REMARK    5  A    between atoms: C7_13  and  C8_14 
REMARK    6  A    between atoms: C8_14  and  C9_15 
REMARK    7  A    between atoms: C9_15  and  C10_16 
REMARK    8  A    between atoms: C10_16  and  C11_17 
REMARK    9  A    between atoms: C11_17  and  N3_18 
REMARK       I    between atoms: N3_18  and  C12_19 
REMARK   10  A    between atoms: C12_19  and  C13_21 
REMARK   11  A    between atoms: C13_21  and  C14_22 
REMARK   12  A    between atoms: C13_21  and  C26_40 
REMARK   13  A    between atoms: C14_22  and  C15_23 
REMARK   14  A    between atoms: C15_23  and  C16_24 
REMARK   15  A    between atoms: C16_24  and  C17_25 
REMARK       I    between atoms: C17_25  and  N4_27 
ROOT
HETATM    1  C13 UNL     1      -0.699   1.776   0.504  1.00  0.00     0.162 C 
ENDROOT
BRANCH   1   2
HETATM    2  C12 UNL     1       0.133   1.044  -0.560  1.00  0.00     0.302 C 
HETATM    3  N3  UNL     1       0.955   0.033  -0.285  1.00  0.00    -0.387 NA
HETATM    4  O3  UNL     1      -0.117   1.576  -1.711  1.00  0.00    -0.256 OA
BRANCH   3   5
HETATM    5  C11 UNL     1       1.798  -1.002  -0.004  1.00  0.00     0.159 C 
BRANCH   5   6
HETATM    6  C10 UNL     1       3.296  -0.793  -0.336  1.00  0.00     0.059 C 
BRANCH   6   7
HETATM    7  C9  UNL     1       3.569  -0.506  -1.741  1.00  0.00     0.006 C 
BRANCH   7   8
HETATM    8  C8  UNL     1       4.977  -0.352  -2.152  1.00  0.00     0.002 C 
BRANCH   8   9
HETATM    9  C7  UNL     1       5.849  -1.516  -2.149  1.00  0.00     0.020 C 
BRANCH   9  10
HETATM   10  C6  UNL     1       6.130  -2.208  -0.893  1.00  0.00     0.122 C 
BRANCH  10  11
HETATM   11  N2  UNL     1       6.746  -1.452   0.164  1.00  0.00    -0.359 N 
HETATM   12  C5  UNL     1       8.027  -0.895  -0.018  1.00  0.00     0.240 C 
HETATM   13  O2  UNL     1       8.639  -1.042  -1.085  1.00  0.00    -0.271 OA
ATOM     14  H2  UNL     1       6.254  -1.319   1.048  1.00  0.00     0.162 HD
BRANCH  12  15
HETATM   15  C3  UNL     1       8.675  -0.116   1.081  1.00  0.00     0.172 C 
HETATM   16  C4  UNL     1       7.835   1.079   1.373  1.00  0.00     0.042 C 
BRANCH  15  17
HETATM   17  N1  UNL     1      10.011   0.267   0.669  1.00  0.00    -0.349 N 
HETATM   18  C2  UNL     1      11.142  -0.363   1.231  1.00  0.00     0.214 C 
HETATM   19  C1  UNL     1      12.529  -0.001   0.827  1.00  0.00     0.117 C 
HETATM   20  O1  UNL     1      10.974  -1.259   2.102  1.00  0.00    -0.274 OA
ATOM     21  H1  UNL     1      10.135   0.997  -0.032  1.00  0.00     0.163 HD
ENDBRANCH  15  17
ENDBRANCH  12  15
ENDBRANCH  10  11
ENDBRANCH   9  10
ENDBRANCH   8   9
ENDBRANCH   7   8
ENDBRANCH   6   7
ENDBRANCH   5   6
ENDBRANCH   3   5
ENDBRANCH   1   2
BRANCH   1  22
HETATM   22  C14 UNL     1      -2.134   1.546   0.045  1.00  0.00     0.023 C 
BRANCH  22  23
HETATM   23  C15 UNL     1      -3.105   2.186   0.996  1.00  0.00     0.010 C 
BRANCH  23  24
HETATM   24  C16 UNL     1      -4.511   1.979   0.521  1.00  0.00     0.103 C 
BRANCH  24  25
HETATM   25  C17 UNL     1      -4.840   0.542   0.476  1.00  0.00     0.219 C 
HETATM   26  O4  UNL     1      -4.143  -0.373   0.979  1.00  0.00    -0.273 OA
HETATM   27  N4  UNL     1      -6.071   0.179  -0.208  1.00  0.00    -0.349 N 
HETATM   28  C18 UNL     1      -6.259  -1.238  -0.229  1.00  0.00     0.152 C 
HETATM   29  C25 UNL     1      -6.861   1.290  -0.714  1.00  0.00     0.141 C 
HETATM   30  C19 UNL     1      -7.676  -1.671   0.167  1.00  0.00     0.122 C 
HETATM   31  N5  UNL     1      -8.196  -0.718   1.019  1.00  0.00    -0.394 N 
HETATM   32  C23 UNL     1      -8.381  -1.966  -1.116  1.00  0.00     0.133 C 
HETATM   33  C20 UNL     1      -9.278   0.100   0.717  1.00  0.00     0.062 C 
ATOM     34  H5  UNL     1      -7.756  -0.606   1.933  1.00  0.00     0.159 HD
HETATM   35  C21 UNL     1      -9.342   0.776  -0.590  1.00  0.00     0.048 C 
HETATM   36  C22 UNL     1     -10.418   0.052  -1.420  1.00  0.00     0.086 C 
HETATM   37  C24 UNL     1      -8.108   0.887  -1.402  1.00  0.00     0.076 C 
HETATM   38  S1  UNL     1     -10.182  -1.726  -1.024  1.00  0.00    -0.151 SA
HETATM   39  S2  UNL     1      -7.794  -0.675  -2.291  1.00  0.00    -0.144 SA
ENDBRANCH  24  25
ENDBRANCH  23  24
ENDBRANCH  22  23
ENDBRANCH   1  22
BRANCH   1  40
HETATM   40  C26 UNL     1      -0.487   1.274   1.847  1.00  0.00     0.137 C 
HETATM   41  C27 UNL     1      -0.807  -0.098   2.305  1.00  0.00     0.091 C 
HETATM   42  O5  UNL     1       0.001   2.035   2.699  1.00  0.00    -0.297 OA
ENDBRANCH   1  40
TORSDOF 15
