REMARK  17 active torsions:
REMARK  status: ('A' for Active; 'I' for Inactive)
REMARK    1  A    between atoms: C2_2  and  C3_3 
REMARK    2  A    between atoms: C3_3  and  C4_4 
REMARK    3  A    between atoms: C4_4  and  C5_5 
REMARK    4  A    between atoms: C5_5  and  C6_6 
REMARK    5  A    between atoms: C6_6  and  O1_7 
REMARK    6  A    between atoms: O1_7  and  C7_8 
REMARK       I    between atoms: C7_8  and  N1_10 
REMARK       I    between atoms: N2_13  and  C10_14 
REMARK    7  A    between atoms: C10_14  and  C11_16 
REMARK    8  A    between atoms: C11_16  and  C12_17 
REMARK    9  A    between atoms: C11_16  and  N3_24 
REMARK   10  A    between atoms: C12_17  and  C13_18 
REMARK   11  A    between atoms: C13_18  and  C14_20 
REMARK       I    between atoms: N3_24  and  C18_26 
REMARK   12  A    between atoms: C18_26  and  C19_28 
REMARK   13  A    between atoms: C19_28  and  N4_29 
REMARK       I    between atoms: N4_29  and  C20_31 
REMARK   14  A    between atoms: C20_31  and  C21_33 
REMARK   15  A    between atoms: C21_33  and  N5_35 
REMARK       I    between atoms: N5_35  and  C23_37 
REMARK   16  A    between atoms: C23_37  and  C24_39 
REMARK   17  A    between atoms: C24_39  and  N6_41 
ROOT
HETATM    1  C11 UNL     1       0.116   0.645  -0.287  1.00  0.00     0.183 C 
ENDROOT
BRANCH   1   2
HETATM    2  C10 UNL     1      -0.684  -0.302  -1.033  1.00  0.00     0.243 C 
HETATM    3  N2  UNL     1      -2.080  -0.278  -1.039  1.00  0.00    -0.347 N 
HETATM    4  C9  UNL     1      -2.816  -1.318  -1.738  1.00  0.00     0.146 C 
HETATM    5  C27 UNL     1      -2.852   0.766  -0.434  1.00  0.00     0.146 C 
HETATM    6  C8  UNL     1      -4.298  -1.212  -1.620  1.00  0.00     0.148 C 
HETATM    7  N1  UNL     1      -4.792  -0.655  -0.401  1.00  0.00    -0.325 N 
HETATM    8  C7  UNL     1      -6.153  -0.950  -0.019  1.00  0.00     0.362 C 
HETATM    9  C28 UNL     1      -3.973   0.172   0.428  1.00  0.00     0.148 C 
HETATM   10  O2  UNL     1      -6.866  -1.702  -0.748  1.00  0.00    -0.238 OA
HETATM   11  O3  UNL     1      -0.166  -1.233  -1.745  1.00  0.00    -0.271 OA
BRANCH   8  12
HETATM   12  O1  UNL     1      -6.723  -0.440   1.125  1.00  0.00    -0.304 OA
BRANCH  12  13
HETATM   13  C6  UNL     1      -8.039  -0.680   1.552  1.00  0.00     0.180 C 
BRANCH  13  14
HETATM   14  C5  UNL     1      -9.073  -0.209   0.543  1.00  0.00     0.027 C 
BRANCH  14  15
HETATM   15  C4  UNL     1      -8.884   1.268   0.332  1.00  0.00     0.002 C 
BRANCH  15  16
HETATM   16  C3  UNL     1      -9.838   1.858  -0.672  1.00  0.00    -0.000 C 
BRANCH  16  17
HETATM   17  C2  UNL     1     -11.259   1.675  -0.234  1.00  0.00    -0.005 C 
HETATM   18  C1  UNL     1     -12.214   2.264  -1.275  1.00  0.00     0.005 C 
ENDBRANCH  16  17
ENDBRANCH  15  16
ENDBRANCH  14  15
ENDBRANCH  13  14
ENDBRANCH  12  13
ENDBRANCH   8  12
ENDBRANCH   1   2
BRANCH   1  19
HETATM   19  C12 UNL     1       0.104   0.532   1.221  1.00  0.00     0.114 C 
BRANCH  19  20
HETATM   20  C13 UNL     1       0.552  -0.788   1.698  1.00  0.00     0.136 C 
HETATM   21  O4  UNL     1       0.384  -1.764   1.010  1.00  0.00    -0.297 OA
BRANCH  20  22
HETATM   22  C14 UNL     1       1.233  -1.002   3.014  1.00  0.00     0.009 C 
HETATM   23  C15 UNL     1       2.614  -0.353   3.001  1.00  0.00     0.022 C 
HETATM   24  C16 UNL     1       0.420  -0.362   4.119  1.00  0.00     0.022 C 
HETATM   25  C17 UNL     1       1.422  -2.476   3.243  1.00  0.00     0.022 C 
ENDBRANCH  20  22
ENDBRANCH  19  20
ENDBRANCH   1  19
BRANCH   1  26
HETATM   26  N3  UNL     1       1.549   0.478  -0.692  1.00  0.00    -0.346 N 
HETATM   27  C18 UNL     1       2.227   1.507  -1.378  1.00  0.00     0.236 C 
HETATM   28  O5  UNL     1       1.586   2.551  -1.657  1.00  0.00    -0.272 OA
ATOM     29  H3  UNL     1       2.039  -0.388  -0.469  1.00  0.00     0.163 HD
BRANCH  27  30
HETATM   30  C19 UNL     1       3.639   1.470  -1.799  1.00  0.00     0.225 C 
BRANCH  30  31
HETATM   31  N4  UNL     1       4.341   0.276  -1.441  1.00  0.00    -0.351 N 
HETATM   32  C20 UNL     1       5.708   0.111  -1.752  1.00  0.00     0.240 C 
HETATM   33  O6  UNL     1       6.300   1.032  -2.356  1.00  0.00    -0.271 OA
ATOM     34  H4  UNL     1       3.845  -0.469  -0.952  1.00  0.00     0.163 HD
BRANCH  32  35
HETATM   35  C21 UNL     1       6.485  -1.098  -1.400  1.00  0.00     0.172 C 
HETATM   36  C22 UNL     1       6.411  -1.319   0.115  1.00  0.00     0.042 C 
BRANCH  35  37
HETATM   37  N5  UNL     1       7.855  -0.972  -1.813  1.00  0.00    -0.346 N 
HETATM   38  C23 UNL     1       8.865  -0.396  -1.000  1.00  0.00     0.240 C 
HETATM   39  O7  UNL     1       8.626   0.059   0.162  1.00  0.00    -0.271 OA
ATOM     40  H5  UNL     1       8.115  -1.314  -2.738  1.00  0.00     0.163 HD
BRANCH  38  41
HETATM   41  C24 UNL     1      10.279  -0.284  -1.464  1.00  0.00     0.165 C 
HETATM   42  C25 UNL     1      10.227   0.527  -2.763  1.00  0.00     0.042 C 
BRANCH  41  43
HETATM   43  N6  UNL     1      11.045   0.422  -0.509  1.00  0.00    -0.414 N 
HETATM   44  C26 UNL     1      11.193  -0.128   0.788  1.00  0.00     0.140 C 
ATOM     45  H6  UNL     1      11.483   1.311  -0.749  1.00  0.00     0.153 HD
ENDBRANCH  41  43
ENDBRANCH  38  41
ENDBRANCH  35  37
ENDBRANCH  32  35
ENDBRANCH  30  31
ENDBRANCH  27  30
ENDBRANCH   1  26
TORSDOF 17
