REMARK  14 active torsions:
REMARK  status: ('A' for Active; 'I' for Inactive)
REMARK    1  A    between atoms: S1_2  and  C2_3 
REMARK    2  A    between atoms: C2_3  and  C3_4 
REMARK       I    between atoms: C3_4  and  N1_6 
REMARK    3  A    between atoms: N1_6  and  C4_8 
REMARK    4  A    between atoms: C4_8  and  C5_9 
REMARK    5  A    between atoms: C4_8  and  C24_41 
REMARK       I    between atoms: C5_9  and  N2_11 
REMARK    6  A    between atoms: C10_17  and  C11_18 
REMARK       I    between atoms: C11_18  and  N3_20 
REMARK    7  A    between atoms: N3_20  and  C12_22 
REMARK    8  A    between atoms: C12_22  and  C13_23 
REMARK    9  A    between atoms: C12_22  and  C21_38 
REMARK       I    between atoms: C13_23  and  N4_25 
REMARK   10  A    between atoms: N4_25  and  C14_27 
REMARK   11  A    between atoms: C14_27  and  C15_28 
REMARK   12  A    between atoms: C14_27  and  C18_35 
REMARK       I    between atoms: C15_28  and  N5_30 
REMARK   13  A    between atoms: N5_30  and  C16_32 
REMARK   14  A    between atoms: C16_32  and  C17_33 
ROOT
HETATM    1  C11 UNL     1      -0.202  -1.100   1.326  1.00  0.00     0.242 C 
HETATM    2  O3  UNL     1       0.634  -2.051   1.340  1.00  0.00    -0.271 OA
HETATM    3  N3  UNL     1       0.316   0.211   1.246  1.00  0.00    -0.346 N 
ATOM      4  H3  UNL     1      -0.345   0.988   1.221  1.00  0.00     0.163 HD
ENDROOT
BRANCH   1   5
HETATM    5  C10 UNL     1      -1.607  -1.492   1.401  1.00  0.00     0.198 C 
HETATM    6  N2  UNL     1      -2.571  -0.427   1.363  1.00  0.00    -0.326 N 
HETATM    7  C5  UNL     1      -3.303  -0.024   0.223  1.00  0.00     0.244 C 
HETATM    8  C6  UNL     1      -2.735   0.209   2.647  1.00  0.00     0.201 C 
HETATM    9  O2  UNL     1      -3.102  -0.659  -0.866  1.00  0.00    -0.271 OA
HETATM   10  S2  UNL     1      -2.542  -1.218   3.770  1.00  0.00    -0.137 SA
HETATM   11  C7  UNL     1      -1.943  -2.421   2.526  1.00  0.00     0.032 C 
HETATM   12  C8  UNL     1      -0.791  -3.146   3.143  1.00  0.00     0.029 C 
HETATM   13  C9  UNL     1      -3.036  -3.399   2.160  1.00  0.00     0.029 C 
BRANCH   7  14
HETATM   14  C4  UNL     1      -4.288   1.071   0.178  1.00  0.00     0.180 C 
BRANCH  14  15
HETATM   15  N1  UNL     1      -4.967   1.113  -1.112  1.00  0.00    -0.347 N 
HETATM   16  C3  UNL     1      -6.368   0.900  -1.251  1.00  0.00     0.227 C 
HETATM   17  O1  UNL     1      -7.095   0.662  -0.236  1.00  0.00    -0.273 OA
ATOM     18  H1  UNL     1      -4.416   1.303  -1.949  1.00  0.00     0.163 HD
BRANCH  16  19
HETATM   19  C2  UNL     1      -7.025   0.945  -2.570  1.00  0.00     0.176 C 
BRANCH  19  20
HETATM   20  S1  UNL     1      -7.023  -0.691  -3.371  1.00  0.00    -0.164 SA
HETATM   21  C1  UNL     1      -8.050  -1.794  -2.396  1.00  0.00     0.090 C 
ENDBRANCH  19  20
ENDBRANCH  16  19
ENDBRANCH  14  15
BRANCH  14  22
HETATM   22  C24 UNL     1      -3.666   2.445   0.459  1.00  0.00     0.009 C 
HETATM   23  C25 UNL     1      -2.681   2.739  -0.664  1.00  0.00     0.012 C 
HETATM   24  C26 UNL     1      -4.724   3.523   0.419  1.00  0.00     0.012 C 
ENDBRANCH  14  22
ENDBRANCH   7  14
ENDBRANCH   1   5
BRANCH   3  25
HETATM   25  C12 UNL     1       1.758   0.524   1.196  1.00  0.00     0.180 C 
BRANCH  25  26
HETATM   26  C13 UNL     1       2.359   0.066  -0.043  1.00  0.00     0.241 C 
HETATM   27  O4  UNL     1       1.603  -0.578  -0.860  1.00  0.00    -0.271 OA
HETATM   28  N4  UNL     1       3.659   0.246  -0.454  1.00  0.00    -0.346 N 
ATOM     29  H4  UNL     1       4.285   0.758   0.168  1.00  0.00     0.163 HD
BRANCH  28  30
HETATM   30  C14 UNL     1       4.213  -0.247  -1.728  1.00  0.00     0.180 C 
BRANCH  30  31
HETATM   31  C15 UNL     1       5.052   0.782  -2.342  1.00  0.00     0.241 C 
HETATM   32  O5  UNL     1       5.201   1.857  -1.643  1.00  0.00    -0.271 OA
HETATM   33  N5  UNL     1       5.709   0.748  -3.580  1.00  0.00    -0.353 N 
ATOM     34  H5  UNL     1       5.628  -0.069  -4.185  1.00  0.00     0.162 HD
BRANCH  33  35
HETATM   35  C16 UNL     1       6.521   1.910  -3.999  1.00  0.00     0.192 C 
BRANCH  35  36
HETATM   36  C17 UNL     1       7.141   1.691  -5.321  1.00  0.00     0.250 C 
HETATM   37  O6  UNL     1       6.947   0.654  -5.916  1.00  0.00    -0.305 OA
ENDBRANCH  35  36
ENDBRANCH  33  35
ENDBRANCH  30  31
BRANCH  30  38
HETATM   38  C18 UNL     1       5.004  -1.507  -1.495  1.00  0.00     0.009 C 
HETATM   39  C19 UNL     1       6.189  -1.327  -0.577  1.00  0.00     0.012 C 
HETATM   40  C20 UNL     1       5.451  -2.158  -2.759  1.00  0.00     0.012 C 
ENDBRANCH  30  38
ENDBRANCH  28  30
ENDBRANCH  25  26
BRANCH  25  41
HETATM   41  C21 UNL     1       2.386   0.178   2.492  1.00  0.00     0.009 C 
HETATM   42  C22 UNL     1       1.709   0.992   3.636  1.00  0.00     0.012 C 
HETATM   43  C23 UNL     1       3.859   0.246   2.633  1.00  0.00     0.012 C 
ENDBRANCH  25  41
ENDBRANCH   3  25
TORSDOF 14
