REMARK  2 active torsions:
REMARK  status: ('A' for Active; 'I' for Inactive)
REMARK    1  A    between atoms: C4_5  and  N2_6 
REMARK    2  A    between atoms: N2_6  and  C5_8 
ROOT
HETATM    1  N2  UNL     1       0.379  -1.232  -0.087  1.00  0.00    -0.411 N 
ATOM      2  H2  UNL     1       0.557  -2.234  -0.022  1.00  0.00     0.154 HD
ENDROOT
BRANCH   1   3
HETATM    3  C4  UNL     1       1.437  -0.320  -0.306  1.00  0.00     0.107 C 
HETATM    4  C3  UNL     1       2.623  -1.151  -0.824  1.00  0.00     0.056 C 
HETATM    5  C2  UNL     1       3.844  -0.430  -0.370  1.00  0.00     0.274 C 
HETATM    6  N1  UNL     1       3.459   0.421   0.716  1.00  0.00     0.086 N 
HETATM    7  C1  UNL     1       3.926   1.766   0.598  1.00  0.00     0.310 C 
HETATM    8  C12 UNL     1       2.039   0.293   0.919  1.00  0.00     0.296 C 
ENDBRANCH   1   3
BRANCH   1   9
HETATM    9  C5  UNL     1      -0.930  -0.719   0.040  1.00  0.00     0.077 C 
HETATM   10  C6  UNL     1      -1.214   0.110   1.250  1.00  0.00     0.024 C 
HETATM   11  C7  UNL     1      -2.485  -0.380   1.907  1.00  0.00     0.002 C 
HETATM   12  C8  UNL     1      -3.726   0.016   1.179  1.00  0.00     0.000 C 
HETATM   13  C9  UNL     1      -3.687  -0.278  -0.302  1.00  0.00     0.000 C 
HETATM   14  C10 UNL     1      -2.749   0.612  -1.046  1.00  0.00     0.002 C 
HETATM   15  C11 UNL     1      -1.355   0.128  -1.158  1.00  0.00     0.024 C 
ENDBRANCH   1   9
TORSDOF 2
