REMARK  2 active torsions:
REMARK  status: ('A' for Active; 'I' for Inactive)
REMARK    1  A    between atoms: C2_2  and  C3_3 
REMARK    2  A    between atoms: C3_3  and  N1_4 
ROOT
HETATM    1  N1  UNL     1       0.790  -0.438   0.386  1.00  0.00     0.090 N 
HETATM    2  C4  UNL     1       0.445  -1.450  -0.540  1.00  0.00     0.275 C 
HETATM    3  C5  UNL     1      -0.823  -1.188  -1.313  1.00  0.00     0.060 C 
HETATM    4  C6  UNL     1      -1.953  -0.697  -0.480  1.00  0.00     0.020 C 
HETATM    5  C7  UNL     1      -3.097  -0.335  -1.427  1.00  0.00     0.037 C 
HETATM    6  C8  UNL     1      -2.470  -1.914   0.309  1.00  0.00     0.037 C 
HETATM    7  N2  UNL     1      -1.710   0.321   0.430  1.00  0.00    -0.404 N 
ATOM      8  H2  UNL     1      -2.168   0.300   1.341  1.00  0.00     0.154 HD
HETATM    9  C9  UNL     1      -0.844   1.378   0.116  1.00  0.00     0.045 C 
HETATM   10  C10 UNL     1      -1.180   2.167  -1.120  1.00  0.00     0.039 C 
HETATM   11  C11 UNL     1      -0.931   2.373   1.289  1.00  0.00     0.039 C 
HETATM   12  C12 UNL     1       0.590   0.912  -0.034  1.00  0.00     0.302 C 
ENDROOT
BRANCH   1  13
HETATM   13  C3  UNL     1       2.154  -0.581   0.817  1.00  0.00     0.272 C 
BRANCH  13  14
HETATM   14  C2  UNL     1       3.181  -0.293  -0.237  1.00  0.00     0.026 C 
HETATM   15  C1  UNL     1       4.595  -0.458   0.302  1.00  0.00     0.007 C 
ENDBRANCH  13  14
ENDBRANCH   1  13
TORSDOF 2
