REMARK  14 active torsions:
REMARK  status: ('A' for Active; 'I' for Inactive)
REMARK    1  A    between atoms: C2_2  and  O1_3 
REMARK    2  A    between atoms: O1_3  and  C3_4 
REMARK    3  A    between atoms: C3_4  and  C4_5 
REMARK    4  A    between atoms: C4_5  and  C5_6 
REMARK    5  A    between atoms: C5_6  and  N1_7 
REMARK       I    between atoms: N1_7  and  C6_9 
REMARK    6  A    between atoms: C6_9  and  C7_11 
REMARK    7  A    between atoms: N3_23  and  C16_24 
REMARK    8  A    between atoms: C16_24  and  O3_25 
REMARK    9  A    between atoms: C17_27  and  N4_28 
REMARK       I    between atoms: N4_28  and  C18_30 
REMARK   10  A    between atoms: C18_30  and  C19_32 
REMARK   11  A    between atoms: C23_36  and  C24_37 
REMARK       I    between atoms: C24_37  and  N5_39 
REMARK   12  A    between atoms: N5_39  and  C25_41 
REMARK   13  A    between atoms: C25_41  and  C26_42 
REMARK   14  A    between atoms: C26_42  and  O6_43 
ROOT
HETATM    1  C7  UNL     1       2.844  -0.114  -0.915  1.00  0.00     0.081 A 
HETATM    2  S1  UNL     1       2.252   1.071  -2.030  1.00  0.00    -0.066 SA
HETATM    3  C8  UNL     1       0.624   1.149  -1.526  1.00  0.00     0.086 A 
HETATM    4  N2  UNL     1      -0.448   1.880  -1.958  1.00  0.00    -0.353 N 
ATOM      5  H2  UNL     1      -0.324   2.531  -2.733  1.00  0.00     0.166 HD
HETATM    6  C9  UNL     1      -1.684   1.762  -1.379  1.00  0.00     0.020 A 
HETATM    7  C10 UNL     1      -1.744   0.868  -0.354  1.00  0.00    -0.017 A 
HETATM    8  C11 UNL     1      -0.690   0.112   0.112  1.00  0.00     0.025 A 
HETATM    9  C12 UNL     1       0.579   0.250  -0.501  1.00  0.00     0.006 A 
HETATM   10  C13 UNL     1       1.732  -0.402  -0.188  1.00  0.00    -0.026 A 
HETATM   11  C14 UNL     1       1.818  -1.434   0.938  1.00  0.00     0.050 C 
HETATM   12  C15 UNL     1      -3.104   0.722   0.300  1.00  0.00     0.166 C 
HETATM   13  N3  UNL     1      -4.136   1.047  -0.632  1.00  0.00    -0.343 N 
HETATM   14  C23 UNL     1      -4.057   2.411  -1.191  1.00  0.00     0.184 C 
HETATM   15  C28 UNL     1      -2.786   2.588  -1.905  1.00  0.00     0.092 C 
ENDROOT
BRANCH  13  16
HETATM   16  C16 UNL     1      -5.152   0.214  -1.062  1.00  0.00     0.154 C 
HETATM   17  C17 UNL     1      -5.530  -1.159  -0.919  1.00  0.00     0.146 C 
BRANCH  16  18
HETATM   18  O3  UNL     1      -6.046   0.868  -1.830  1.00  0.00    -0.345 OA
ATOM     19  H3  UNL     1      -6.744   0.296  -2.125  1.00  0.00     0.219 HD
ENDBRANCH  16  18
BRANCH  17  20
HETATM   20  N4  UNL     1      -4.737  -2.124  -0.300  1.00  0.00    -0.332 N 
HETATM   21  C18 UNL     1      -3.500  -2.569  -0.858  1.00  0.00     0.229 C 
HETATM   22  O4  UNL     1      -3.089  -2.096  -1.938  1.00  0.00    -0.272 OA
ATOM     23  H4  UNL     1      -5.051  -2.527   0.583  1.00  0.00     0.168 HD
BRANCH  21  24
HETATM   24  C19 UNL     1      -2.676  -3.604  -0.171  1.00  0.00     0.030 C 
HETATM   25  C20 UNL     1      -1.400  -3.805  -0.936  1.00  0.00     0.025 C 
HETATM   26  C21 UNL     1      -2.434  -3.256   1.262  1.00  0.00     0.025 C 
HETATM   27  C22 UNL     1      -3.454  -4.914  -0.183  1.00  0.00     0.025 C 
ENDBRANCH  21  24
ENDBRANCH  17  20
ENDBRANCH  13  16
BRANCH  14  28
HETATM   28  C24 UNL     1      -4.382   3.441  -0.178  1.00  0.00     0.241 C 
HETATM   29  O5  UNL     1      -4.783   3.175   0.984  1.00  0.00    -0.271 OA
HETATM   30  N5  UNL     1      -4.233   4.805  -0.532  1.00  0.00    -0.357 N 
ATOM     31  H5  UNL     1      -3.909   5.062  -1.464  1.00  0.00     0.162 HD
BRANCH  30  32
HETATM   32  C25 UNL     1      -4.541   5.818   0.429  1.00  0.00     0.148 C 
BRANCH  32  33
HETATM   33  C26 UNL     1      -4.314   7.233   0.016  1.00  0.00     0.186 C 
BRANCH  33  34
HETATM   34  O6  UNL     1      -3.071   7.639  -0.294  1.00  0.00    -0.394 OA
HETATM   35  C27 UNL     1      -2.326   7.087  -1.263  1.00  0.00     0.201 C 
ENDBRANCH  33  34
ENDBRANCH  32  33
ENDBRANCH  30  32
ENDBRANCH  14  28
BRANCH   1  36
HETATM   36  C6  UNL     1       4.222  -0.576  -0.900  1.00  0.00     0.259 C 
HETATM   37  N1  UNL     1       4.782  -1.510  -0.055  1.00  0.00    -0.356 N 
ATOM     38  H1  UNL     1       4.225  -1.969   0.666  1.00  0.00     0.162 HD
HETATM   39  O2  UNL     1       5.008  -0.054  -1.775  1.00  0.00    -0.267 OA
BRANCH  37  40
HETATM   40  C5  UNL     1       6.223  -1.825  -0.229  1.00  0.00     0.125 C 
BRANCH  40  41
HETATM   41  C4  UNL     1       6.694  -2.852   0.754  1.00  0.00     0.046 C 
BRANCH  41  42
HETATM   42  C3  UNL     1       8.143  -3.110   0.509  1.00  0.00     0.169 C 
BRANCH  42  43
HETATM   43  O1  UNL     1       8.879  -1.959   0.664  1.00  0.00    -0.391 OA
BRANCH  43  44
HETATM   44  C2  UNL     1       8.806  -1.385   1.914  1.00  0.00     0.163 C 
HETATM   45  C1  UNL     1       9.306  -2.356   2.981  1.00  0.00     0.033 C 
ENDBRANCH  43  44
ENDBRANCH  42  43
ENDBRANCH  41  42
ENDBRANCH  40  41
ENDBRANCH  37  40
ENDBRANCH   1  36
TORSDOF 14
