REMARK  8 active torsions:
REMARK  status: ('A' for Active; 'I' for Inactive)
REMARK    1  A    between atoms: N3_7  and  C4_8 
REMARK    2  A    between atoms: C4_8  and  C5_9 
REMARK    3  A    between atoms: C8_12  and  N4_13 
REMARK    4  A    between atoms: N4_13  and  C9_15 
REMARK    5  A    between atoms: C9_15  and  C10_16 
REMARK    6  A    between atoms: C13_20  and  O1_21 
REMARK    7  A    between atoms: O1_21  and  C14_22 
REMARK    8  A    between atoms: C19_27  and  O2_28 
ROOT
HETATM    1  N1  UNL     1       1.459  -3.213  -2.607  1.00  0.00    -0.191 NA
HETATM    2  C1  UNL     1       2.077  -2.246  -2.332  1.00  0.00     0.104 C 
HETATM    3  C2  UNL     1       2.796  -1.030  -2.005  1.00  0.00     0.106 A 
HETATM    4  C3  UNL     1       3.759  -0.425  -2.749  1.00  0.00     0.134 A 
HETATM    5  N2  UNL     1       4.108   0.674  -2.083  1.00  0.00    -0.306 N 
ATOM      6  H2  UNL     1       4.816   1.334  -2.404  1.00  0.00     0.186 HD
HETATM    7  N3  UNL     1       3.434   0.809  -0.965  1.00  0.00    -0.276 N 
HETATM    8  C8  UNL     1       2.583  -0.227  -0.858  1.00  0.00     0.141 A 
ENDROOT
BRANCH   8   9
HETATM    9  N4  UNL     1       1.699  -0.523  -0.015  1.00  0.00    -0.369 N 
ATOM     10  H4  UNL     1       1.218  -1.384  -0.274  1.00  0.00     0.161 HD
BRANCH   9  11
HETATM   11  C9  UNL     1       1.186   0.002   1.189  1.00  0.00     0.162 C 
BRANCH  11  12
HETATM   12  C10 UNL     1      -0.316  -0.277   0.983  1.00  0.00    -0.004 A 
HETATM   13  C11 UNL     1      -0.767  -1.556   1.087  1.00  0.00     0.056 A 
HETATM   14  C12 UNL     1      -2.129  -1.810   0.855  1.00  0.00     0.150 A 
HETATM   15  F1  UNL     1      -2.587  -3.056   0.969  1.00  0.00    -0.203 F 
HETATM   16  C13 UNL     1      -3.025  -0.815   0.524  1.00  0.00     0.110 A 
HETATM   17  C18 UNL     1      -2.510   0.480   0.438  1.00  0.00     0.077 A 
HETATM   18  C19 UNL     1      -1.170   0.743   0.667  1.00  0.00     0.076 A 
BRANCH  16  19
HETATM   19  O1  UNL     1      -4.343  -1.140   0.268  1.00  0.00    -0.343 OA
BRANCH  19  20
HETATM   20  C14 UNL     1      -5.178  -0.417  -0.589  1.00  0.00     0.129 C 
HETATM   21  C15 UNL     1      -6.483  -1.160  -0.748  1.00  0.00     0.032 C 
HETATM   22  C16 UNL     1      -6.861  -0.519   0.618  1.00  0.00     0.005 C 
HETATM   23  C17 UNL     1      -5.989   0.636   0.184  1.00  0.00     0.032 C 
ENDBRANCH  19  20
ENDBRANCH  16  19
BRANCH  18  24
HETATM   24  O2  UNL     1      -0.682   2.017   0.580  1.00  0.00    -0.360 OA
ATOM     25  H2  UNL     1      -1.275   2.726   0.360  1.00  0.00     0.217 HD
ENDBRANCH  18  24
ENDBRANCH  11  12
ENDBRANCH   9  11
ENDBRANCH   8   9
BRANCH   7  26
HETATM   26  C4  UNL     1       3.718   1.828   0.034  1.00  0.00     0.155 C 
BRANCH  26  27
HETATM   27  C5  UNL     1       5.039   1.563   0.718  1.00  0.00     0.005 A 
HETATM   28  C6  UNL     1       5.324   0.272   1.405  1.00  0.00     0.007 A 
HETATM   29  C7  UNL     1       6.124   0.794   0.139  1.00  0.00     0.007 A 
ENDBRANCH  26  27
ENDBRANCH   7  26
TORSDOF 8
