REMARK  9 active torsions:
REMARK  status: ('A' for Active; 'I' for Inactive)
REMARK    1  A    between atoms: C4_4  and  C5_5 
REMARK    2  A    between atoms: C5_5  and  C6_6 
REMARK    3  A    between atoms: C6_6  and  C8_8 
REMARK    4  A    between atoms: N1_19  and  O1_21 
REMARK    5  A    between atoms: O1_21  and  C19_22 
REMARK    6  A    between atoms: C19_22  and  C20_24 
REMARK    7  A    between atoms: C20_24  and  C21_25 
REMARK    8  A    between atoms: C21_25  and  O3_28 
REMARK    9  A    between atoms: C26_32  and  O4_33 
ROOT
HETATM    1  C8  UNL     1      -2.886  -0.323  -0.456  1.00  0.00     0.001 C 
HETATM    2  C9  UNL     1      -3.466   1.066  -0.643  1.00  0.00     0.006 C 
HETATM    3  C10 UNL     1      -2.126   1.832  -0.701  1.00  0.00     0.006 C 
HETATM    4  C11 UNL     1      -1.236   1.110   0.262  1.00  0.00     0.001 C 
HETATM    5  C12 UNL     1       0.054   0.650  -0.279  1.00  0.00    -0.002 C 
HETATM    6  C13 UNL     1       0.393   1.075  -1.674  1.00  0.00     0.010 C 
HETATM    7  C14 UNL     1       1.758   0.433  -1.986  1.00  0.00    -0.009 C 
HETATM    8  C15 UNL     1       1.619  -0.959  -2.500  1.00  0.00     0.005 C 
HETATM    9  C16 UNL     1       1.880  -2.029  -1.466  1.00  0.00     0.011 C 
HETATM   10  C17 UNL     1       1.424  -1.458  -0.113  1.00  0.00     0.040 C 
HETATM   11  C18 UNL     1       2.454  -0.439   0.229  1.00  0.00     0.015 C 
HETATM   12  N1  UNL     1       3.082  -0.404   1.329  1.00  0.00    -0.266 N 
ATOM     13  H1  UNL     1       2.897  -1.102   2.049  1.00  0.00     0.194 HD
HETATM   14  C24 UNL     1       2.716   0.585  -0.844  1.00  0.00     0.059 C 
HETATM   15  C25 UNL     1       0.051  -0.869  -0.270  1.00  0.00     0.029 C 
HETATM   16  C26 UNL     1      -0.880  -1.162   0.842  1.00  0.00     0.132 C 
HETATM   17  C27 UNL     1      -1.992  -0.167   0.688  1.00  0.00    -0.010 C 
HETATM   18  C28 UNL     1      -2.562   0.116   2.021  1.00  0.00     0.018 C 
ENDROOT
BRANCH  12  19
HETATM   19  O1  UNL     1       4.014   0.581   1.544  1.00  0.00    -0.200 OA
BRANCH  19  20
HETATM   20  C19 UNL     1       5.325   0.402   1.187  1.00  0.00     0.284 C 
HETATM   21  O2  UNL     1       5.637  -0.708   0.652  1.00  0.00    -0.263 OA
BRANCH  20  22
HETATM   22  C20 UNL     1       6.340   1.469   1.419  1.00  0.00     0.150 C 
BRANCH  22  23
HETATM   23  C21 UNL     1       7.697   1.012   0.934  1.00  0.00     0.059 C 
HETATM   24  C22 UNL     1       8.138  -0.223   1.658  1.00  0.00     0.045 C 
HETATM   25  C23 UNL     1       7.661   0.781  -0.564  1.00  0.00     0.045 C 
BRANCH  23  26
HETATM   26  O3  UNL     1       8.579   2.085   1.145  1.00  0.00    -0.390 OA
ATOM     27  H3  UNL     1       9.432   1.798   0.840  1.00  0.00     0.210 HD
ENDBRANCH  23  26
ENDBRANCH  22  23
ENDBRANCH  20  22
ENDBRANCH  19  20
ENDBRANCH  12  19
BRANCH  16  28
HETATM   28  O4  UNL     1      -1.252  -2.459   1.005  1.00  0.00    -0.394 OA
ATOM     29  H4  UNL     1      -1.850  -2.647   1.719  1.00  0.00     0.210 HD
ENDBRANCH  16  28
BRANCH   1  30
HETATM   30  C6  UNL     1      -3.759  -1.453  -0.645  1.00  0.00    -0.010 C 
HETATM   31  C7  UNL     1      -4.173  -1.563  -2.130  1.00  0.00     0.010 C 
BRANCH  30  32
HETATM   32  C5  UNL     1      -4.993  -1.660   0.140  1.00  0.00     0.032 C 
BRANCH  32  33
HETATM   33  C4  UNL     1      -6.096  -0.707  -0.120  1.00  0.00    -0.024 C 
HETATM   34  C2  UNL     1      -6.695  -0.075   0.856  1.00  0.00    -0.091 C 
HETATM   35  C1  UNL     1      -7.811   0.880   0.470  1.00  0.00     0.042 C 
HETATM   36  C3  UNL     1      -6.396  -0.228   2.285  1.00  0.00     0.042 C 
ENDBRANCH  32  33
ENDBRANCH  30  32
ENDBRANCH   1  30
TORSDOF 9
