REMARK  8 active torsions:
REMARK  status: ('A' for Active; 'I' for Inactive)
REMARK    1  A    between atoms: N2_7  and  O1_8 
REMARK    2  A    between atoms: O1_8  and  C5_9 
REMARK    3  A    between atoms: C5_9  and  C6_10 
REMARK    4  A    between atoms: C6_10  and  C7_11 
REMARK    5  A    between atoms: C7_11  and  C8_12 
REMARK    6  A    between atoms: C8_12  and  C9_13 
REMARK    7  A    between atoms: C21_25  and  O2_26 
REMARK    8  A    between atoms: C25_31  and  O3_32 
ROOT
HETATM    1  C9  UNL     1       1.224  -0.553   0.470  1.00  0.00    -0.006 C 
HETATM    2  C10 UNL     1       0.670  -1.746   1.248  1.00  0.00     0.006 C 
HETATM    3  C11 UNL     1      -0.482  -2.292   0.422  1.00  0.00     0.011 C 
HETATM    4  C12 UNL     1      -1.090  -1.080  -0.176  1.00  0.00    -0.025 C 
HETATM    5  C13 UNL     1      -1.804  -1.245  -1.472  1.00  0.00     0.016 C 
HETATM    6  C14 UNL     1      -2.345   0.193  -1.606  1.00  0.00    -0.008 C 
HETATM    7  C15 UNL     1      -1.262   1.176  -1.894  1.00  0.00     0.006 C 
HETATM    8  C16 UNL     1      -0.151   1.154  -0.833  1.00  0.00     0.011 C 
HETATM    9  C17 UNL     1       0.117  -0.252  -0.462  1.00  0.00    -0.032 C 
HETATM   10  C18 UNL     1       0.666  -0.835  -1.809  1.00  0.00     0.016 C 
HETATM   11  C19 UNL     1      -2.870   0.431  -0.230  1.00  0.00     0.005 C 
HETATM   12  C20 UNL     1      -4.311   0.536  -0.057  1.00  0.00     0.026 C 
HETATM   13  C21 UNL     1      -5.113   1.406  -0.918  1.00  0.00     0.123 C 
HETATM   14  C22 UNL     1      -6.487   1.233  -0.230  1.00  0.00     0.032 C 
HETATM   15  C23 UNL     1      -6.481  -0.234   0.222  1.00  0.00     0.010 C 
HETATM   16  C24 UNL     1      -5.089  -0.765  -0.102  1.00  0.00     0.021 C 
HETATM   17  C25 UNL     1      -4.531  -1.547   1.056  1.00  0.00     0.123 C 
HETATM   18  C26 UNL     1      -3.080  -1.793   0.990  1.00  0.00     0.042 C 
HETATM   19  C27 UNL     1      -2.214  -0.598   0.642  1.00  0.00    -0.029 C 
HETATM   20  C28 UNL     1      -1.943   0.032   1.974  1.00  0.00     0.016 C 
ENDROOT
BRANCH   1  21
HETATM   21  C8  UNL     1       1.821   0.464   1.334  1.00  0.00     0.005 C 
BRANCH  21  22
HETATM   22  C7  UNL     1       2.446   1.676   0.813  1.00  0.00     0.002 C 
BRANCH  22  23
HETATM   23  C6  UNL     1       3.597   1.511  -0.130  1.00  0.00     0.029 C 
BRANCH  23  24
HETATM   24  C5  UNL     1       4.762   0.760   0.482  1.00  0.00     0.202 C 
BRANCH  24  25
HETATM   25  O1  UNL     1       5.758   0.689  -0.528  1.00  0.00    -0.272 OA
BRANCH  25  26
HETATM   26  N2  UNL     1       6.961   0.098  -0.389  1.00  0.00    -0.220 N 
HETATM   27  C2  UNL     1       8.139   0.652  -0.055  1.00  0.00     0.105 A 
HETATM   28  C1  UNL     1       8.416   2.090   0.252  1.00  0.00     0.091 C 
HETATM   29  N1  UNL     1       9.090  -0.298  -0.030  1.00  0.00    -0.353 N 
HETATM   30  C3  UNL     1       8.546  -1.475  -0.345  1.00  0.00     0.109 A 
ATOM     31  H1  UNL     1      10.073  -0.143   0.194  1.00  0.00     0.166 HD
HETATM   32  C4  UNL     1       7.203  -1.209  -0.569  1.00  0.00     0.142 A 
ENDBRANCH  25  26
ENDBRANCH  24  25
ENDBRANCH  23  24
ENDBRANCH  22  23
ENDBRANCH  21  22
ENDBRANCH   1  21
BRANCH  17  33
HETATM   33  O3  UNL     1      -4.939  -0.899   2.234  1.00  0.00    -0.395 OA
ATOM     34  H3  UNL     1      -4.587  -1.393   2.965  1.00  0.00     0.210 HD
ENDBRANCH  17  33
BRANCH  13  35
HETATM   35  O2  UNL     1      -5.354   0.949  -2.213  1.00  0.00    -0.395 OA
ATOM     36  H2  UNL     1      -5.875   1.514  -2.772  1.00  0.00     0.210 HD
ENDBRANCH  13  35
TORSDOF 8
