REMARK  9 active torsions:
REMARK  status: ('A' for Active; 'I' for Inactive)
REMARK    1  A    between atoms: C2_2  and  C3_3 
REMARK    2  A    between atoms: C2_2  and  C6_7 
REMARK    3  A    between atoms: C3_3  and  C4_4 
REMARK    4  A    between atoms: C4_4  and  C5_5 
REMARK    5  A    between atoms: C20_21  and  O2_22 
REMARK    6  A    between atoms: O2_22  and  C21_23 
REMARK    7  A    between atoms: C21_23  and  C22_25 
REMARK    8  A    between atoms: C22_25  and  O4_28 
REMARK    9  A    between atoms: C26_31  and  O5_32 
ROOT
HETATM    1  C6  UNL     1       3.773   1.410   0.855  1.00  0.00    -0.077 C 
HETATM    2  C7  UNL     1       3.585   1.904   2.273  1.00  0.00     0.044 C 
HETATM    3  C8  UNL     1       2.504   1.128   0.225  1.00  0.00    -0.069 C 
HETATM    4  C9  UNL     1       2.537   1.071  -1.316  1.00  0.00     0.036 C 
HETATM    5  C10 UNL     1       0.996   1.219  -1.485  1.00  0.00     0.011 C 
HETATM    6  C11 UNL     1       0.627  -0.007  -0.621  1.00  0.00     0.009 C 
HETATM    7  C12 UNL     1       1.576   0.056   0.559  1.00  0.00    -0.016 C 
HETATM    8  C13 UNL     1       2.234  -1.331   0.628  1.00  0.00     0.020 C 
HETATM    9  C14 UNL     1       0.861   0.204   1.866  1.00  0.00     0.014 C 
HETATM   10  C15 UNL     1      -0.269  -0.801   2.025  1.00  0.00     0.007 C 
HETATM   11  C16 UNL     1      -1.075  -0.976   0.795  1.00  0.00     0.007 C 
HETATM   12  C17 UNL     1      -2.526  -1.239   1.126  1.00  0.00    -0.016 C 
HETATM   13  C18 UNL     1      -2.483  -2.537   1.969  1.00  0.00     0.018 C 
HETATM   14  C19 UNL     1      -3.167  -0.233   2.002  1.00  0.00     0.018 C 
HETATM   15  C20 UNL     1      -3.313  -1.609  -0.100  1.00  0.00     0.142 C 
HETATM   16  C25 UNL     1      -2.359  -1.855  -1.226  1.00  0.00     0.065 C 
HETATM   17  C26 UNL     1      -1.519  -0.672  -1.558  1.00  0.00     0.129 C 
HETATM   18  C27 UNL     1      -0.831  -0.046  -0.328  1.00  0.00    -0.009 C 
HETATM   19  C28 UNL     1      -1.384   1.338  -0.241  1.00  0.00     0.018 C 
ENDROOT
BRANCH   1  20
HETATM   20  C2  UNL     1       4.990   0.591   0.762  1.00  0.00     0.011 C 
HETATM   21  C1  UNL     1       6.157   1.517   1.189  1.00  0.00     0.015 C 
BRANCH  20  22
HETATM   22  C3  UNL     1       5.403   0.147  -0.623  1.00  0.00     0.015 C 
BRANCH  22  23
HETATM   23  C4  UNL     1       6.764  -0.569  -0.480  1.00  0.00     0.070 C 
BRANCH  23  24
HETATM   24  C5  UNL     1       7.213  -1.047  -1.814  1.00  0.00     0.231 C 
HETATM   25  O1  UNL     1       8.258  -1.632  -1.906  1.00  0.00    -0.307 OA
ENDBRANCH  23  24
ENDBRANCH  22  23
ENDBRANCH  20  22
ENDBRANCH   1  20
BRANCH  17  26
HETATM   26  O5  UNL     1      -2.295   0.224  -2.255  1.00  0.00    -0.395 OA
ATOM     27  H5  UNL     1      -1.759   0.979  -2.467  1.00  0.00     0.210 HD
ENDBRANCH  17  26
BRANCH  15  28
HETATM   28  O2  UNL     1      -4.298  -0.672  -0.461  1.00  0.00    -0.313 OA
BRANCH  28  29
HETATM   29  C21 UNL     1      -5.629  -0.926  -0.614  1.00  0.00     0.293 C 
HETATM   30  O3  UNL     1      -6.041  -2.096  -0.420  1.00  0.00    -0.262 OA
BRANCH  29  31
HETATM   31  C22 UNL     1      -6.608   0.111  -0.996  1.00  0.00     0.138 C 
HETATM   32  C23 UNL     1      -6.288   0.707  -2.362  1.00  0.00     0.056 C 
HETATM   33  C24 UNL     1      -6.623   1.266  -0.013  1.00  0.00     0.056 C 
BRANCH  31  34
HETATM   34  O4  UNL     1      -7.894  -0.421  -1.084  1.00  0.00    -0.380 OA
ATOM     35  H4  UNL     1      -8.524   0.246  -1.330  1.00  0.00     0.211 HD
ENDBRANCH  31  34
ENDBRANCH  29  31
ENDBRANCH  28  29
ENDBRANCH  15  28
TORSDOF 9
