REMARK  9 active torsions:
REMARK  status: ('A' for Active; 'I' for Inactive)
REMARK    1  A    between atoms: C2_2  and  O1_5 
REMARK    2  A    between atoms: O1_5  and  C5_6 
REMARK       I    between atoms: C5_6  and  N1_8 
REMARK    3  A    between atoms: N1_8  and  C6_10 
REMARK    4  A    between atoms: C6_10  and  C7_11 
REMARK    5  A    between atoms: C7_11  and  N2_12 
REMARK    6  A    between atoms: C11_16  and  C12_17 
REMARK    7  A    between atoms: C11_16  and  C14_23 
REMARK    8  A    between atoms: C12_17  and  C13_18 
REMARK    9  A    between atoms: C13_18  and  N3_19 
ROOT
HETATM    1  N2  UNL     1      -0.506   1.379   0.172  1.00  0.00    -0.359 N 
HETATM    2  C8  UNL     1      -1.376   1.608   1.238  1.00  0.00     0.064 C 
HETATM    3  C9  UNL     1      -2.633   2.224   0.680  1.00  0.00     0.046 C 
HETATM    4  C10 UNL     1      -3.608   1.414  -0.018  1.00  0.00     0.020 C 
HETATM    5  C11 UNL     1      -3.357  -0.042  -0.294  1.00  0.00    -0.007 C 
HETATM    6  C20 UNL     1      -1.939  -0.423  -0.373  1.00  0.00     0.059 C 
HETATM    7  C21 UNL     1      -1.036   0.678  -0.908  1.00  0.00     0.065 C 
ENDROOT
BRANCH   1   8
HETATM    8  C7  UNL     1       0.916   1.287   0.379  1.00  0.00     0.067 C 
HETATM    9  C22 UNL     1       1.524   1.331  -0.970  1.00  0.00     0.037 C 
HETATM   10  C23 UNL     1       2.781   2.168  -1.084  1.00  0.00     0.003 C 
HETATM   11  C24 UNL     1       2.601   3.613  -0.754  1.00  0.00     0.000 C 
HETATM   12  C25 UNL     1       1.403   3.750   0.177  1.00  0.00     0.003 C 
HETATM   13  C26 UNL     1       1.415   2.548   1.090  1.00  0.00     0.037 C 
BRANCH   8  14
HETATM   14  C6  UNL     1       1.138   0.088   1.191  1.00  0.00     0.097 C 
BRANCH  14  15
HETATM   15  N1  UNL     1       2.346  -0.394   1.658  1.00  0.00    -0.314 N 
HETATM   16  C5  UNL     1       3.450  -0.947   1.013  1.00  0.00     0.365 C 
HETATM   17  O2  UNL     1       3.541  -1.144  -0.252  1.00  0.00    -0.238 OA
ATOM     18  H1  UNL     1       2.449  -0.333   2.671  1.00  0.00     0.170 HD
BRANCH  16  19
HETATM   19  O1  UNL     1       4.601  -1.357   1.697  1.00  0.00    -0.294 OA
BRANCH  19  20
HETATM   20  C2  UNL     1       5.728  -1.925   1.068  1.00  0.00     0.061 C 
HETATM   21  C1  UNL     1       6.734  -2.219   2.143  1.00  0.00     0.046 C 
HETATM   22  C3  UNL     1       6.298  -1.094  -0.046  1.00  0.00     0.046 C 
HETATM   23  C4  UNL     1       5.245  -3.236   0.476  1.00  0.00     0.046 C 
ENDBRANCH  19  20
ENDBRANCH  16  19
ENDBRANCH  14  15
ENDBRANCH   8  14
ENDBRANCH   1   8
BRANCH   5  24
HETATM   24  C12 UNL     1      -3.976  -0.786   0.876  1.00  0.00     0.042 C 
BRANCH  24  25
HETATM   25  C13 UNL     1      -3.831  -2.272   0.815  1.00  0.00     0.230 C 
BRANCH  25  26
HETATM   26  N3  UNL     1      -4.460  -2.868   2.018  1.00  0.00    -0.079 N 
ATOM     27  H33 UNL     1      -4.090  -2.477   2.884  1.00  0.00     0.274 HD
ATOM     28  H32 UNL     1      -5.431  -2.577   2.133  1.00  0.00     0.274 HD
ATOM     29  H31 UNL     1      -4.361  -3.882   1.976  1.00  0.00     0.274 HD
ENDBRANCH  25  26
ENDBRANCH  24  25
ENDBRANCH   5  24
BRANCH   5  30
HETATM   30  C14 UNL     1      -4.141  -0.504  -1.484  1.00  0.00    -0.049 A 
HETATM   31  C15 UNL     1      -3.854  -1.549  -2.281  1.00  0.00     0.011 A 
HETATM   32  C16 UNL     1      -4.680  -1.878  -3.360  1.00  0.00     0.043 A 
HETATM   33  C17 UNL     1      -5.806  -1.141  -3.631  1.00  0.00     0.116 A 
HETATM   34  F1  UNL     1      -6.618  -1.471  -4.698  1.00  0.00    -0.206 F 
HETATM   35  C18 UNL     1      -6.126  -0.073  -2.840  1.00  0.00     0.043 A 
HETATM   36  C19 UNL     1      -5.293   0.231  -1.781  1.00  0.00     0.011 A 
ENDBRANCH   5  30
TORSDOF 9
