REMARK  6 active torsions:
REMARK  status: ('A' for Active; 'I' for Inactive)
REMARK    1  A    between atoms: C2_2  and  C3_3 
REMARK    2  A    between atoms: N1_8  and  C8_9 
REMARK    3  A    between atoms: N2_11  and  C10_12 
REMARK    4  A    between atoms: C15_18  and  C16_19 
REMARK    5  A    between atoms: C16_19  and  N4_20 
REMARK       I    between atoms: N4_20  and  C17_22 
REMARK       I    between atoms: C17_22  and  N5_24 
REMARK    6  A    between atoms: N5_24  and  C18_26 
ROOT
HETATM    1  C10 UNL     1      -1.100   4.408  -0.928  1.00  0.00     0.096 C 
HETATM    2  C11 UNL     1      -2.065   4.977  -0.204  1.00  0.00     0.110 C 
HETATM    3  C12 UNL     1      -2.727   6.195  -0.579  1.00  0.00     0.089 C 
HETATM    4  N3  UNL     1      -3.272   7.173  -0.882  1.00  0.00    -0.192 NA
ENDROOT
BRANCH   1   5
HETATM    5  N2  UNL     1      -0.556   3.211  -0.412  1.00  0.00    -0.387 N 
HETATM    6  C9  UNL     1      -1.157   1.943  -0.784  1.00  0.00     0.158 C 
HETATM    7  C8  UNL     1      -1.239   1.082   0.442  1.00  0.00     0.246 C 
HETATM    8  C15 UNL     1       0.152   0.883   1.010  1.00  0.00     0.040 C 
HETATM    9  C14 UNL     1       0.643   2.206   1.478  1.00  0.00     0.028 C 
HETATM   10  C13 UNL     1       0.573   3.319   0.473  1.00  0.00     0.122 C 
BRANCH   7  11
HETATM   11  N1  UNL     1      -1.952  -0.122   0.346  1.00  0.00     0.096 N 
HETATM   12  C7  UNL     1      -2.578  -0.378   1.642  1.00  0.00     0.273 C 
HETATM   13  C6  UNL     1      -2.842  -1.878   1.636  1.00  0.00     0.031 C 
HETATM   14  C5  UNL     1      -3.927  -2.106   0.630  1.00  0.00     0.012 C 
HETATM   15  C3  UNL     1      -3.788  -1.407  -0.664  1.00  0.00    -0.018 C 
HETATM   16  C4  UNL     1      -5.201  -1.008  -1.123  1.00  0.00     0.017 C 
HETATM   17  C24 UNL     1      -2.892  -0.242  -0.731  1.00  0.00     0.282 C 
BRANCH  15  18
HETATM   18  C2  UNL     1      -3.330  -2.448  -1.697  1.00  0.00     0.006 C 
HETATM   19  C1  UNL     1      -4.219  -3.635  -1.744  1.00  0.00     0.006 C 
ENDBRANCH  15  18
ENDBRANCH   7  11
BRANCH   8  20
HETATM   20  C16 UNL     1       1.095   0.268   0.042  1.00  0.00     0.131 C 
BRANCH  20  21
HETATM   21  N4  UNL     1       2.384   0.097   0.676  1.00  0.00    -0.342 N 
HETATM   22  C17 UNL     1       3.519  -0.484  -0.021  1.00  0.00     0.320 C 
HETATM   23  O1  UNL     1       3.268  -0.811  -1.206  1.00  0.00    -0.247 OA
HETATM   24  N5  UNL     1       4.751  -0.638   0.621  1.00  0.00    -0.309 N 
ATOM     25  H5  UNL     1       4.784  -0.319   1.589  1.00  0.00     0.170 HD
ATOM     26  H4  UNL     1       2.500   0.394   1.645  1.00  0.00     0.164 HD
BRANCH  24  27
HETATM   27  C18 UNL     1       5.950  -1.170   0.120  1.00  0.00     0.039 A 
HETATM   28  C19 UNL     1       7.004  -1.337   1.018  1.00  0.00     0.053 A 
HETATM   29  C20 UNL     1       8.226  -1.844   0.653  1.00  0.00     0.037 A 
HETATM   30 CL1  UNL     1       9.553  -2.058   1.773  1.00  0.00    -0.084 Cl
HETATM   31  C21 UNL     1       8.418  -2.203  -0.667  1.00  0.00     0.048 A 
HETATM   32  C22 UNL     1       7.380  -2.041  -1.560  1.00  0.00     0.037 A 
HETATM   33 CL2  UNL     1       7.615  -2.495  -3.235  1.00  0.00    -0.084 Cl
HETATM   34  C23 UNL     1       6.137  -1.524  -1.179  1.00  0.00     0.053 A 
ENDBRANCH  24  27
ENDBRANCH  20  21
ENDBRANCH   8  20
ENDBRANCH   1   5
TORSDOF 6
