REMARK  6 active torsions:
REMARK  status: ('A' for Active; 'I' for Inactive)
REMARK    1  A    between atoms: C2_2  and  C3_3 
REMARK    2  A    between atoms: C2_2  and  C13_15 
REMARK    3  A    between atoms: C3_3  and  C4_4 
REMARK    4  A    between atoms: C19_22  and  S1_23 
REMARK    5  A    between atoms: S1_23  and  N2_26 
REMARK    6  A    between atoms: N2_26  and  C20_28 
ROOT
HETATM    1  C13 UNL     1       0.249  -0.780   0.039  1.00  0.00    -0.027 A 
HETATM    2  C14 UNL     1      -0.245  -1.813  -0.734  1.00  0.00     0.011 A 
HETATM    3  C15 UNL     1       0.156  -2.002  -2.016  1.00  0.00     0.023 A 
HETATM    4  C16 UNL     1       1.080  -1.169  -2.613  1.00  0.00     0.046 A 
HETATM    5  C17 UNL     1       1.518  -1.361  -3.987  1.00  0.00     0.099 C 
HETATM    6  N1  UNL     1       1.867  -1.501  -5.080  1.00  0.00    -0.191 NA
HETATM    7  C18 UNL     1       1.565  -0.151  -1.846  1.00  0.00     0.048 A 
HETATM    8  C19 UNL     1       1.176   0.071  -0.526  1.00  0.00     0.087 A 
ENDROOT
BRANCH   8   9
HETATM    9  S1  UNL     1       1.888   1.424   0.331  1.00  0.00     0.259 S 
HETATM   10  O1  UNL     1       2.192   1.185   1.756  1.00  0.00    -0.201 OA
HETATM   11  O2  UNL     1       1.171   2.727   0.061  1.00  0.00    -0.201 OA
BRANCH   9  12
HETATM   12  N2  UNL     1       3.468   1.724  -0.414  1.00  0.00    -0.309 N 
ATOM     13  H2  UNL     1       3.715   2.594  -0.886  1.00  0.00     0.172 HD
BRANCH  12  14
HETATM   14  C20 UNL     1       4.356   0.617  -0.281  1.00  0.00     0.123 C 
HETATM   15  C21 UNL     1       5.322   0.983   0.921  1.00  0.00     0.029 C 
HETATM   16  C22 UNL     1       6.361  -0.074   1.061  1.00  0.00     0.029 C 
HETATM   17  C23 UNL     1       6.107  -1.220   0.116  1.00  0.00     0.233 C 
HETATM   18  N3  UNL     1       6.070  -0.797  -1.250  1.00  0.00    -0.069 N 
HETATM   19  C24 UNL     1       5.209   0.352  -1.471  1.00  0.00     0.205 C 
ATOM     20  H32 UNL     1       7.011  -0.618  -1.600  1.00  0.00     0.277 HD
ATOM     21  H31 UNL     1       5.808  -1.570  -1.862  1.00  0.00     0.277 HD
HETATM   22  C25 UNL     1       6.051   1.596  -1.760  1.00  0.00     0.042 C 
ENDBRANCH  12  14
ENDBRANCH   9  12
ENDBRANCH   8   9
BRANCH   1  23
HETATM   23  C2  UNL     1      -0.266  -0.623   1.440  1.00  0.00     0.039 C 
HETATM   24  C1  UNL     1      -0.717  -1.999   1.924  1.00  0.00     0.019 C 
BRANCH  23  25
HETATM   25  C3  UNL     1      -1.163   0.466   1.710  1.00  0.00    -0.009 C 
BRANCH  25  26
HETATM   26  C4  UNL     1      -2.564   0.645   1.304  1.00  0.00    -0.012 C 
HETATM   27  C5  UNL     1      -3.565  -0.363   1.782  1.00  0.00     0.040 C 
HETATM   28  C6  UNL     1      -4.299  -1.196   0.822  1.00  0.00     0.004 C 
HETATM   29  C7  UNL     1      -5.819  -1.113   0.922  1.00  0.00     0.000 C 
HETATM   30  C8  UNL     1      -6.451  -0.641  -0.365  1.00  0.00     0.000 C 
HETATM   31  C9  UNL     1      -6.501   0.870  -0.435  1.00  0.00     0.000 C 
HETATM   32  C10 UNL     1      -5.195   1.375  -1.010  1.00  0.00     0.006 C 
HETATM   33  C11 UNL     1      -4.344   1.840   0.121  1.00  0.00     0.084 C 
HETATM   34  C12 UNL     1      -2.886   1.339   0.024  1.00  0.00     0.267 C 
HETATM   35  F1  UNL     1      -2.124   2.497  -0.016  1.00  0.00    -0.201 F 
HETATM   36  F2  UNL     1      -2.762   0.736  -1.145  1.00  0.00    -0.201 F 
ENDBRANCH  25  26
ENDBRANCH  23  25
ENDBRANCH   1  23
TORSDOF 6
