REMARK  6 active torsions:
REMARK  status: ('A' for Active; 'I' for Inactive)
REMARK    1  A    between atoms: C2_2  and  C3_3 
REMARK    2  A    between atoms: N1_8  and  C8_9 
REMARK    3  A    between atoms: C8_9  and  C9_10 
REMARK    4  A    between atoms: C8_9  and  C23_32 
REMARK    5  A    between atoms: N3_14  and  C11_16 
REMARK    6  A    between atoms: C23_32  and  O2_33 
ROOT
HETATM    1  C9  UNL     1       0.253  -0.726  -0.126  1.00  0.00     0.080 A 
HETATM    2  N2  UNL     1       1.439  -0.109  -0.005  1.00  0.00    -0.189 N 
ATOM      3  H2  UNL     1       1.450   0.737   0.564  1.00  0.00     0.184 HD
HETATM    4  C10 UNL     1       2.612  -0.475  -0.545  1.00  0.00     0.683 A 
HETATM    5  N3  UNL     1       3.622   0.213  -0.513  1.00  0.00    -0.192 N 
ATOM      6  H3  UNL     1       4.328  -0.342  -0.997  1.00  0.00     0.184 HD
HETATM    7  N4  UNL     1       2.607  -1.627  -1.307  1.00  0.00    -0.191 N 
ATOM      8  H4  UNL     1       3.469  -1.961  -1.739  1.00  0.00     0.184 HD
HETATM    9  C17 UNL     1       1.481  -2.291  -1.472  1.00  0.00     0.064 A 
HETATM   10  C18 UNL     1       0.276  -1.879  -0.909  1.00  0.00     0.022 A 
HETATM   11  C19 UNL     1      -0.851  -2.722  -1.241  1.00  0.00     0.211 C 
HETATM   12  O1  UNL     1      -0.585  -4.094  -0.983  1.00  0.00    -0.382 OA
HETATM   13  C20 UNL     1       0.434  -4.556  -1.789  1.00  0.00     0.204 C 
HETATM   14  C21 UNL     1       1.487  -3.605  -2.187  1.00  0.00    -0.032 C 
HETATM   15  C22 UNL     1       1.757  -3.500  -3.661  1.00  0.00     0.048 C 
ENDROOT
BRANCH   1  16
HETATM   16  C8  UNL     1      -1.052  -0.264   0.406  1.00  0.00     0.051 C 
BRANCH  16  17
HETATM   17  N1  UNL     1      -1.910   0.459  -0.443  1.00  0.00    -0.274 NA
HETATM   18  C3  UNL     1      -1.404   1.530  -1.218  1.00  0.00     0.063 C 
HETATM   19  C4  UNL     1      -1.016   2.666  -0.281  1.00  0.00     0.022 C 
HETATM   20  C5  UNL     1      -2.227   2.596   0.621  1.00  0.00     0.021 C 
HETATM   21  C6  UNL     1      -2.890   1.267   0.286  1.00  0.00     0.059 C 
HETATM   22  C7  UNL     1      -4.140   1.513  -0.558  1.00  0.00     0.026 C 
BRANCH  18  23
HETATM   23  C2  UNL     1      -0.560   1.432  -2.381  1.00  0.00     0.015 C 
HETATM   24  C1  UNL     1      -0.698   2.787  -3.136  1.00  0.00     0.006 C 
ENDBRANCH  18  23
ENDBRANCH  16  17
BRANCH  16  25
HETATM   25  C23 UNL     1      -1.398  -0.789   1.739  1.00  0.00     0.097 C 
HETATM   26  C24 UNL     1      -2.527  -1.780   1.799  1.00  0.00     0.044 C 
HETATM   27  C25 UNL     1      -3.341  -1.695   3.071  1.00  0.00     0.003 C 
HETATM   28  C26 UNL     1      -2.368  -1.862   4.222  1.00  0.00     0.000 C 
HETATM   29  C27 UNL     1      -1.243  -0.864   4.203  1.00  0.00     0.003 C 
HETATM   30  C28 UNL     1      -1.450   0.057   2.964  1.00  0.00     0.044 C 
BRANCH  25  31
HETATM   31  O2  UNL     1      -0.217  -1.552   2.104  1.00  0.00    -0.384 OA
ATOM     32  H2  UNL     1      -0.440  -1.890   2.963  1.00  0.00     0.211 HD
ENDBRANCH  25  31
ENDBRANCH  16  25
ENDBRANCH   1  16
BRANCH   5  33
HETATM   33  C11 UNL     1       4.266   1.347  -0.153  1.00  0.00     0.049 A 
HETATM   34  C12 UNL     1       3.975   2.156   0.924  1.00  0.00     0.032 A 
HETATM   35  C13 UNL     1       4.680   3.320   1.187  1.00  0.00     0.026 A 
HETATM   36  C14 UNL     1       5.713   3.729   0.383  1.00  0.00     0.034 A 
HETATM   37 CL1  UNL     1       6.613   5.207   0.698  1.00  0.00    -0.084 Cl
HETATM   38  C15 UNL     1       6.034   2.946  -0.705  1.00  0.00     0.026 A 
HETATM   39  C16 UNL     1       5.351   1.811  -0.968  1.00  0.00     0.032 A 
ENDBRANCH   5  33
TORSDOF 6
