REMARK  7 active torsions:
REMARK  status: ('A' for Active; 'I' for Inactive)
REMARK    1  A    between atoms: C4_4  and  C5_6 
REMARK    2  A    between atoms: C5_6  and  C6_7 
REMARK    3  A    between atoms: C16_20  and  C17_21 
REMARK    4  A    between atoms: C17_21  and  C19_23 
REMARK    5  A    between atoms: C19_23  and  C20_24 
REMARK    6  A    between atoms: C20_24  and  O5_26 
REMARK    7  A    between atoms: C29_35  and  O6_36 
ROOT
HETATM    1  C1  UNL     1      -4.793   2.983   0.433  1.00  0.00     0.017 C 
HETATM    2  C2  UNL     1      -4.063   1.890   0.595  1.00  0.00    -0.054 C 
HETATM    3  C3  UNL     1      -2.725   1.991  -0.056  1.00  0.00     0.081 C 
HETATM    4  C4  UNL     1      -2.531   0.874  -0.995  1.00  0.00     0.128 C 
HETATM    5  F1  UNL     1      -1.580   1.130  -2.007  1.00  0.00    -0.241 F 
HETATM    6  C7  UNL     1      -2.031  -0.400  -0.333  1.00  0.00     0.024 C 
HETATM    7  C8  UNL     1      -2.306  -1.443  -1.451  1.00  0.00     0.024 C 
HETATM    8  C9  UNL     1      -2.878  -0.842   0.807  1.00  0.00    -0.045 C 
HETATM    9  C10 UNL     1      -2.377  -1.841   1.535  1.00  0.00    -0.018 C 
HETATM   10  C11 UNL     1      -1.054  -2.504   1.268  1.00  0.00     0.033 C 
HETATM   11  C12 UNL     1      -0.138  -1.385   0.983  1.00  0.00    -0.001 C 
HETATM   12  C13 UNL     1       1.265  -1.837   0.844  1.00  0.00     0.006 C 
HETATM   13  C14 UNL     1       1.550  -2.688  -0.358  1.00  0.00     0.084 C 
HETATM   14  C15 UNL     1       2.735  -2.047  -0.988  1.00  0.00     0.132 C 
HETATM   15  O3  UNL     1       3.020  -2.133  -2.160  1.00  0.00    -0.298 OA
HETATM   16  C16 UNL     1       3.409  -1.336   0.127  1.00  0.00     0.068 C 
HETATM   17  C22 UNL     1       2.234  -0.637   0.753  1.00  0.00    -0.029 C 
HETATM   18  C23 UNL     1       2.440  -0.192   2.161  1.00  0.00     0.016 C 
HETATM   19  C24 UNL     1       1.681   0.455  -0.084  1.00  0.00     0.011 C 
HETATM   20  C25 UNL     1       0.219   0.774   0.180  1.00  0.00     0.007 C 
HETATM   21  C26 UNL     1      -0.576  -0.440  -0.117  1.00  0.00     0.006 C 
HETATM   22  C27 UNL     1      -4.171  -0.496   1.421  1.00  0.00    -0.044 C 
HETATM   23  C28 UNL     1      -5.261  -1.540   1.088  1.00  0.00     0.047 C 
HETATM   24  C29 UNL     1      -4.728   0.840   1.367  1.00  0.00     0.176 C 
ENDROOT
BRANCH  16  25
HETATM   25  C17 UNL     1       4.481  -0.474  -0.401  1.00  0.00     0.003 C 
HETATM   26  C18 UNL     1       5.484  -1.384  -1.113  1.00  0.00     0.011 C 
BRANCH  25  27
HETATM   27  C19 UNL     1       5.235   0.354   0.576  1.00  0.00     0.116 C 
BRANCH  27  28
HETATM   28  C20 UNL     1       6.253   1.160  -0.142  1.00  0.00     0.258 C 
HETATM   29  O4  UNL     1       7.410   0.780  -0.434  1.00  0.00    -0.265 OA
BRANCH  28  30
HETATM   30  O5  UNL     1       5.935   2.471  -0.551  1.00  0.00    -0.326 OA
HETATM   31  C21 UNL     1       6.874   3.280  -1.239  1.00  0.00     0.213 C 
ENDBRANCH  28  30
ENDBRANCH  27  28
ENDBRANCH  25  27
ENDBRANCH  16  25
BRANCH   4  32
HETATM   32  C5  UNL     1      -3.791   0.680  -1.801  1.00  0.00     0.158 C 
BRANCH  32  33
HETATM   33  C6  UNL     1      -4.156   1.871  -2.618  1.00  0.00     0.175 C 
HETATM   34  O1  UNL     1      -5.300   2.001  -3.121  1.00  0.00    -0.648 OA
HETATM   35  O2  UNL     1      -3.233   2.871  -2.847  1.00  0.00    -0.648 OA
ENDBRANCH  32  33
ENDBRANCH   4  32
BRANCH  24  36
HETATM   36  O6  UNL     1      -4.949   1.424   2.647  1.00  0.00    -0.387 OA
ATOM     37  H6  UNL     1      -5.381   0.742   3.148  1.00  0.00     0.210 HD
ENDBRANCH  24  36
TORSDOF 7
