REMARK  9 active torsions:
REMARK  status: ('A' for Active; 'I' for Inactive)
REMARK    1  A    between atoms: O1_2  and  C2_3 
REMARK    2  A    between atoms: C2_3  and  C3_5 
REMARK    3  A    between atoms: C3_5  and  N1_6 
REMARK    4  A    between atoms: C3_5  and  C4_10 
REMARK    5  A    between atoms: C4_10  and  C5_11 
REMARK    6  A    between atoms: C5_11  and  C6_12 
REMARK    7  A    between atoms: C6_12  and  C8_14 
REMARK    8  A    between atoms: C21_27  and  O3_28 
REMARK    9  A    between atoms: C21_27  and  C22_30 
ROOT
HETATM    1  C8  UNL     1       3.277   0.576   0.600  1.00  0.00    -0.007 C 
HETATM    2  C9  UNL     1       2.340   1.308   1.587  1.00  0.00     0.006 C 
HETATM    3  C10 UNL     1       1.028   1.688   0.904  1.00  0.00     0.010 C 
HETATM    4  C11 UNL     1       0.296   0.380   0.770  1.00  0.00     0.019 C 
HETATM    5  C12 UNL     1       1.103  -0.472  -0.139  1.00  0.00    -0.079 C 
HETATM    6  C13 UNL     1       0.537  -1.579  -0.574  1.00  0.00    -0.023 C 
HETATM    7  C14 UNL     1      -0.823  -1.980  -0.195  1.00  0.00     0.033 C 
HETATM    8  C15 UNL     1      -1.610  -1.035   0.622  1.00  0.00     0.006 C 
HETATM    9  C16 UNL     1      -1.126   0.424   0.414  1.00  0.00     0.002 C 
HETATM   10  C17 UNL     1      -1.453   0.840  -1.002  1.00  0.00     0.033 C 
HETATM   11  C18 UNL     1      -2.867   0.501  -1.336  1.00  0.00    -0.023 C 
HETATM   12  C19 UNL     1      -3.584  -0.388  -0.709  1.00  0.00    -0.072 C 
HETATM   13  C20 UNL     1      -4.998  -0.707  -1.055  1.00  0.00     0.077 C 
HETATM   14  C21 UNL     1      -5.915  -0.601   0.125  1.00  0.00     0.090 C 
HETATM   15  C27 UNL     1      -5.292  -0.723   1.459  1.00  0.00     0.044 C 
HETATM   16  C28 UNL     1      -3.844  -0.540   1.616  1.00  0.00     0.017 C 
HETATM   17  C29 UNL     1      -3.068  -1.177   0.447  1.00  0.00    -0.016 C 
HETATM   18  C30 UNL     1      -3.410  -2.647   0.347  1.00  0.00     0.020 C 
HETATM   19  C31 UNL     1       2.466  -0.034  -0.496  1.00  0.00     0.039 C 
ENDROOT
BRANCH   1  20
HETATM   20  C6  UNL     1       4.151  -0.372   1.361  1.00  0.00    -0.014 C 
HETATM   21  C7  UNL     1       3.227  -1.556   1.848  1.00  0.00     0.010 C 
BRANCH  20  22
HETATM   22  C5  UNL     1       5.216  -1.118   0.647  1.00  0.00     0.007 C 
BRANCH  22  23
HETATM   23  C4  UNL     1       6.376  -0.448   0.074  1.00  0.00     0.043 C 
BRANCH  23  24
HETATM   24  C3  UNL     1       6.313   0.519  -1.036  1.00  0.00     0.282 C 
BRANCH  24  25
HETATM   25  C2  UNL     1       7.732   1.032  -1.317  1.00  0.00     0.289 C 
HETATM   26  O2  UNL     1       8.234   0.750  -2.417  1.00  0.00    -0.263 OA
BRANCH  25  27
HETATM   27  O1  UNL     1       8.317   1.760  -0.328  1.00  0.00    -0.325 OA
HETATM   28  C1  UNL     1       9.609   2.284  -0.476  1.00  0.00     0.213 C 
ENDBRANCH  25  27
ENDBRANCH  24  25
BRANCH  24  29
HETATM   29  N1  UNL     1       5.877  -0.080  -2.288  1.00  0.00    -0.066 N 
ATOM     30  H13 UNL     1       5.939   0.547  -3.090  1.00  0.00     0.275 HD
ATOM     31  H12 UNL     1       6.511  -0.793  -2.648  1.00  0.00     0.275 HD
ATOM     32  H11 UNL     1       4.934  -0.421  -2.101  1.00  0.00     0.275 HD
ENDBRANCH  24  29
ENDBRANCH  23  24
ENDBRANCH  22  23
ENDBRANCH  20  22
ENDBRANCH   1  20
BRANCH  14  33
HETATM   33  O3  UNL     1      -6.818  -1.684   0.001  1.00  0.00    -0.385 OA
ATOM     34  H3  UNL     1      -7.399  -1.617   0.749  1.00  0.00     0.211 HD
ENDBRANCH  14  33
BRANCH  14  35
HETATM   35  C22 UNL     1      -6.813   0.580   0.068  1.00  0.00    -0.008 A 
HETATM   36  C23 UNL     1      -6.626   1.712  -0.663  1.00  0.00     0.016 A 
HETATM   37  C24 UNL     1      -7.513   2.782  -0.687  1.00  0.00     0.062 A 
HETATM   38  C25 UNL     1      -8.652   2.671   0.090  1.00  0.00     0.188 A 
HETATM   39  F1  UNL     1      -9.521   3.717   0.065  1.00  0.00    -0.186 F 
HETATM   40  N2  UNL     1      -8.870   1.567   0.824  1.00  0.00    -0.342 N 
HETATM   41  C26 UNL     1      -7.974   0.539   0.821  1.00  0.00     0.100 A 
ATOM     42  H2  UNL     1      -9.716   1.497   1.390  1.00  0.00     0.167 HD
ENDBRANCH  14  35
TORSDOF 9
