REMARK  7 active torsions:
REMARK  status: ('A' for Active; 'I' for Inactive)
REMARK    1  A    between atoms: C2_2  and  C3_3 
REMARK    2  A    between atoms: C2_2  and  C17_28 
REMARK       I    between atoms: C3_3  and  N1_5 
REMARK    3  A    between atoms: N1_5  and  C4_7 
REMARK    4  A    between atoms: C7_10  and  N2_11 
REMARK    5  A    between atoms: C10_16  and  S1_17 
REMARK    6  A    between atoms: C20_31  and  N5_32 
REMARK    7  A    between atoms: C24_36  and  N6_37 
ROOT
HETATM    1  C3  UNL     1       0.089   1.874   1.363  1.00  0.00     0.248 C 
HETATM    2  O1  UNL     1       0.950   2.656   1.881  1.00  0.00    -0.268 OA
HETATM    3  N1  UNL     1       0.267   0.524   1.145  1.00  0.00    -0.336 N 
ATOM      4  H1  UNL     1      -0.505   0.054   0.672  1.00  0.00     0.164 HD
ENDROOT
BRANCH   3   5
HETATM    5  C4  UNL     1       1.375  -0.313   1.485  1.00  0.00     0.182 C 
HETATM    6  C5  UNL     1       2.713   0.377   1.248  1.00  0.00     0.049 C 
HETATM    7  C6  UNL     1       3.076   0.321  -0.220  1.00  0.00     0.034 C 
HETATM    8  C7  UNL     1       3.432  -1.148  -0.470  1.00  0.00     0.144 C 
HETATM    9  C16 UNL     1       2.521  -2.067   0.253  1.00  0.00     0.290 C 
HETATM   10  F1  UNL     1       2.131  -3.052  -0.694  1.00  0.00    -0.225 F 
HETATM   11  N4  UNL     1       1.327  -1.557   0.831  1.00  0.00    -0.371 N 
ATOM     12  H4  UNL     1       0.454  -2.082   0.773  1.00  0.00     0.158 HD
BRANCH   8  13
HETATM   13  N2  UNL     1       4.811  -1.305  -0.010  1.00  0.00    -0.332 N 
HETATM   14  C8  UNL     1       5.309  -2.007   1.006  1.00  0.00     0.184 A 
HETATM   15  N3  UNL     1       6.661  -1.824   1.097  1.00  0.00    -0.349 N 
HETATM   16  C9  UNL     1       7.039  -0.991   0.125  1.00  0.00     0.077 A 
ATOM     17  H3  UNL     1       7.276  -2.251   1.790  1.00  0.00     0.166 HD
HETATM   18  C10 UNL     1       8.279  -0.449  -0.224  1.00  0.00     0.030 A 
HETATM   19  C15 UNL     1       5.886  -0.667  -0.569  1.00  0.00     0.065 A 
HETATM   20  C12 UNL     1       8.302   0.411  -1.282  1.00  0.00     0.044 A 
HETATM   21  C13 UNL     1       7.195   0.760  -2.001  1.00  0.00     0.037 A 
HETATM   22 CL1  UNL     1       7.206   1.871  -3.343  1.00  0.00    -0.084 Cl
HETATM   23  C14 UNL     1       5.961   0.205  -1.632  1.00  0.00     0.056 A 
BRANCH  18  24
HETATM   24  S1  UNL     1       9.713  -0.889   0.728  1.00  0.00    -0.132 SA
HETATM   25  C11 UNL     1      11.185  -0.008   0.120  1.00  0.00     0.095 C 
ENDBRANCH  18  24
ENDBRANCH   8  13
ENDBRANCH   3   5
BRANCH   1  26
HETATM   26  C2  UNL     1      -1.169   2.576   0.997  1.00  0.00     0.004 C 
HETATM   27  C1  UNL     1      -1.234   3.877   1.146  1.00  0.00     0.025 C 
BRANCH  26  28
HETATM   28  C17 UNL     1      -2.325   1.797   0.560  1.00  0.00     0.023 C 
HETATM   29  C18 UNL     1      -3.524   2.594   0.175  1.00  0.00     0.011 C 
HETATM   30  C19 UNL     1      -4.829   1.892   0.305  1.00  0.00     0.026 C 
HETATM   31  C20 UNL     1      -4.873   0.470   0.662  1.00  0.00     0.083 C 
HETATM   32  C26 UNL     1      -3.607  -0.162   1.148  1.00  0.00     0.026 C 
HETATM   33  C27 UNL     1      -2.742   0.903   1.766  1.00  0.00     0.011 C 
BRANCH  31  34
HETATM   34  N5  UNL     1      -5.514  -0.303  -0.362  1.00  0.00    -0.387 N 
HETATM   35  C21 UNL     1      -4.932  -0.370  -1.626  1.00  0.00     0.058 C 
HETATM   36  C22 UNL     1      -5.882  -0.992  -2.618  1.00  0.00     0.046 C 
HETATM   37  C23 UNL     1      -6.551  -2.184  -2.015  1.00  0.00     0.039 C 
HETATM   38  C24 UNL     1      -7.360  -1.842  -0.780  1.00  0.00     0.201 C 
HETATM   39  C25 UNL     1      -6.898  -0.519  -0.197  1.00  0.00     0.155 C 
BRANCH  38  40
HETATM   40  N6  UNL     1      -7.273  -2.852   0.250  1.00  0.00    -0.073 N 
ATOM     41  H63 UNL     1      -7.535  -3.768  -0.115  1.00  0.00     0.274 HD
ATOM     42  H62 UNL     1      -6.301  -3.042   0.493  1.00  0.00     0.274 HD
ATOM     43  H61 UNL     1      -7.818  -2.622   1.081  1.00  0.00     0.274 HD
ENDBRANCH  38  40
ENDBRANCH  31  34
ENDBRANCH  26  28
ENDBRANCH   1  26
TORSDOF 7
