REMARK  7 active torsions:
REMARK  status: ('A' for Active; 'I' for Inactive)
REMARK    1  A    between atoms: N1_2  and  C2_3 
REMARK    2  A    between atoms: N1_2  and  C10_12 
REMARK    3  A    between atoms: C2_3  and  C3_4 
REMARK    4  A    between atoms: C3_4  and  N2_5 
REMARK    5  A    between atoms: C13_15  and  C14_16 
REMARK    6  A    between atoms: N4_22  and  C17_24 
REMARK    7  A    between atoms: C20_27  and  O1_28 
ROOT
HETATM    1  C14 UNL     1       1.494  -0.144   0.239  1.00  0.00     0.062 A 
HETATM    2  N3  UNL     1       1.647  -1.440  -0.107  1.00  0.00    -0.324 N 
ATOM      3  H3  UNL     1       0.919  -2.147  -0.209  1.00  0.00     0.174 HD
HETATM    4  S1  UNL     1       3.277  -1.628  -0.330  1.00  0.00    -0.010 SA
HETATM    5  C15 UNL     1       3.801  -0.040   0.020  1.00  0.00     0.079 A 
HETATM    6  C16 UNL     1       5.045   0.592   0.068  1.00  0.00     0.121 A 
HETATM    7  N4  UNL     1       6.096  -0.015  -0.203  1.00  0.00    -0.370 N 
ATOM      8  H4  UNL     1       6.888   0.621  -0.110  1.00  0.00     0.161 HD
HETATM    9  N5  UNL     1       5.144   1.915   0.419  1.00  0.00    -0.350 N 
ATOM     10  H5  UNL     1       6.042   2.397   0.458  1.00  0.00     0.166 HD
HETATM   11  C23 UNL     1       4.012   2.526   0.702  1.00  0.00     0.114 A 
HETATM   12  C24 UNL     1       2.749   1.957   0.673  1.00  0.00     0.063 A 
HETATM   13 CL1  UNL     1       1.445   2.989   1.158  1.00  0.00    -0.082 Cl
HETATM   14  C25 UNL     1       2.618   0.604   0.313  1.00  0.00     0.037 A 
ENDROOT
BRANCH   1  15
HETATM   15  C13 UNL     1       0.078   0.253   0.500  1.00  0.00    -0.006 A 
HETATM   16  C12 UNL     1      -0.575  -0.392   1.552  1.00  0.00     0.016 A 
HETATM   17  C11 UNL     1      -1.904  -0.129   1.793  1.00  0.00     0.032 A 
HETATM   18  C10 UNL     1      -2.628   0.763   1.021  1.00  0.00     0.051 A 
HETATM   19  C27 UNL     1      -1.969   1.388  -0.009  1.00  0.00     0.061 A 
HETATM   20  C26 UNL     1      -0.629   1.124  -0.255  1.00  0.00     0.040 A 
HETATM   21 CL2  UNL     1      -2.823   2.536  -1.016  1.00  0.00    -0.082 Cl
BRANCH  18  22
HETATM   22  N1  UNL     1      -3.992   0.948   1.356  1.00  0.00    -0.381 N 
HETATM   23  C1  UNL     1      -4.440   2.294   1.627  1.00  0.00     0.150 C 
BRANCH  22  24
HETATM   24  C2  UNL     1      -4.834  -0.225   1.423  1.00  0.00     0.153 C 
BRANCH  24  25
HETATM   25  C3  UNL     1      -5.900  -0.296   0.366  1.00  0.00     0.043 C 
HETATM   26  C6  UNL     1      -6.677  -1.591   0.669  1.00  0.00     0.032 C 
HETATM   27  C7  UNL     1      -8.073  -1.383   0.187  1.00  0.00     0.002 C 
HETATM   28  C8  UNL     1      -8.312   0.065   0.454  1.00  0.00     0.002 C 
HETATM   29  C9  UNL     1      -6.969   0.730   0.619  1.00  0.00     0.032 C 
BRANCH  25  30
HETATM   30  N2  UNL     1      -5.348  -0.294  -0.919  1.00  0.00    -0.410 N 
HETATM   31  C4  UNL     1      -4.531  -1.418  -1.237  1.00  0.00     0.143 C 
HETATM   32  C5  UNL     1      -6.182   0.049  -2.009  1.00  0.00     0.143 C 
ENDBRANCH  25  30
ENDBRANCH  24  25
ENDBRANCH  22  24
ENDBRANCH  18  22
ENDBRANCH   1  15
BRANCH   7  33
HETATM   33  C17 UNL     1       6.551  -1.263  -0.588  1.00  0.00     0.083 C 
HETATM   34  C18 UNL     1       7.369  -1.222  -1.879  1.00  0.00     0.028 C 
HETATM   35  C19 UNL     1       8.703  -0.584  -1.689  1.00  0.00     0.034 C 
HETATM   36  C20 UNL     1       8.906   0.087  -0.372  1.00  0.00     0.118 C 
HETATM   37  C21 UNL     1       8.454  -0.696   0.816  1.00  0.00     0.034 C 
HETATM   38  C22 UNL     1       7.512  -1.826   0.472  1.00  0.00     0.028 C 
BRANCH  36  39
HETATM   39  O1  UNL     1      10.298   0.287  -0.224  1.00  0.00    -0.396 OA
ATOM     40  H1  UNL     1      10.427   0.714   0.615  1.00  0.00     0.210 HD
ENDBRANCH  36  39
ENDBRANCH   7  33
TORSDOF 7
