REMARK  7 active torsions:
REMARK  status: ('A' for Active; 'I' for Inactive)
REMARK    1  A    between atoms: O1_2  and  C2_3 
REMARK    2  A    between atoms: C5_6  and  O2_7 
REMARK    3  A    between atoms: O2_7  and  C6_8 
REMARK    4  A    between atoms: C6_8  and  C7_9 
REMARK    5  A    between atoms: C7_9  and  N1_10 
REMARK    6  A    between atoms: C10_13  and  N2_14 
REMARK    7  A    between atoms: C15_20  and  N3_21 
ROOT
HETATM    1  N1  UNL     1       0.742  -0.528  -0.024  1.00  0.00     0.095 N 
HETATM    2  C8  UNL     1       0.345   0.377  -1.028  1.00  0.00     0.275 C 
HETATM    3  C9  UNL     1      -1.039   0.385  -1.499  1.00  0.00     0.056 C 
HETATM    4  C10 UNL     1      -2.077  -0.316  -0.702  1.00  0.00     0.100 C 
HETATM    5  C18 UNL     1      -1.595  -0.975   0.564  1.00  0.00     0.042 C 
HETATM    6  C19 UNL     1      -2.486  -2.197   0.842  1.00  0.00     0.009 C 
HETATM    7  C20 UNL     1      -1.683  -3.324   1.460  1.00  0.00     0.001 C 
HETATM    8  C21 UNL     1      -0.706  -3.882   0.442  1.00  0.00     0.002 C 
HETATM    9  C22 UNL     1      -0.154  -2.781  -0.442  1.00  0.00     0.036 C 
HETATM   10  C23 UNL     1      -0.198  -1.497   0.402  1.00  0.00     0.229 C 
ENDROOT
BRANCH   4  11
HETATM   11  N2  UNL     1      -3.290   0.453  -0.474  1.00  0.00    -0.321 N 
HETATM   12  C11 UNL     1      -3.377   1.628   0.136  1.00  0.00     0.090 A 
HETATM   13 BR1  UNL     1      -1.932   2.626   0.882  1.00  0.00    -0.030 Br
HETATM   14  C12 UNL     1      -4.693   2.078   0.181  1.00  0.00    -0.010 A 
HETATM   15  C13 UNL     1      -5.149   3.353   0.789  1.00  0.00     0.052 C 
HETATM   16  C14 UNL     1      -5.439   1.103  -0.445  1.00  0.00     0.060 A 
HETATM   17  C15 UNL     1      -6.803   1.018  -0.689  1.00  0.00     0.114 A 
HETATM   18  C17 UNL     1      -4.557   0.140  -0.826  1.00  0.00     0.124 A 
HETATM   19  N4  UNL     1      -7.244  -0.090  -1.339  1.00  0.00    -0.338 N 
HETATM   20  C16 UNL     1      -6.371  -1.021  -1.704  1.00  0.00     0.183 A 
ATOM     21  H4  UNL     1      -8.236  -0.206  -1.545  1.00  0.00     0.168 HD
HETATM   22  N5  UNL     1      -5.045  -0.945  -1.471  1.00  0.00    -0.338 N 
ATOM     23  H5  UNL     1      -4.421  -1.692  -1.776  1.00  0.00     0.168 HD
BRANCH  17  24
HETATM   24  N3  UNL     1      -7.650   1.890  -0.351  1.00  0.00    -0.385 N 
ATOM     25  H32 UNL     1      -7.319   2.722   0.137  1.00  0.00     0.157 HD
ATOM     26  H31 UNL     1      -8.652   1.828  -0.530  1.00  0.00     0.157 HD
ENDBRANCH  17  24
ENDBRANCH   4  11
BRANCH   1  27
HETATM   27  C7  UNL     1       1.398   0.081   1.117  1.00  0.00     0.299 C 
BRANCH  27  28
HETATM   28  C6  UNL     1       2.755   0.647   0.730  1.00  0.00     0.206 C 
BRANCH  28  29
HETATM   29  O2  UNL     1       3.615  -0.359   0.234  1.00  0.00    -0.349 OA
BRANCH  29  30
HETATM   30  C5  UNL     1       4.888   0.025  -0.158  1.00  0.00     0.069 A 
HETATM   31  C4  UNL     1       5.359   1.318  -0.096  1.00  0.00     0.039 A 
HETATM   32  C3  UNL     1       6.645   1.652  -0.501  1.00  0.00     0.039 A 
HETATM   33  C2  UNL     1       7.493   0.690  -0.980  1.00  0.00     0.068 A 
HETATM   34  C25 UNL     1       7.036  -0.631  -1.053  1.00  0.00     0.039 A 
HETATM   35  C24 UNL     1       5.752  -0.936  -0.644  1.00  0.00     0.039 A 
BRANCH  33  36
HETATM   36  O1  UNL     1       8.773   0.920  -1.402  1.00  0.00    -0.356 OA
HETATM   37  C1  UNL     1       9.305   2.226  -1.358  1.00  0.00     0.210 C 
ENDBRANCH  33  36
ENDBRANCH  29  30
ENDBRANCH  28  29
ENDBRANCH  27  28
ENDBRANCH   1  27
TORSDOF 7
