REMARK  10 active torsions:
REMARK  status: ('A' for Active; 'I' for Inactive)
REMARK    1  A    between atoms: O1_2  and  C2_3 
REMARK    2  A    between atoms: C5_7  and  O3_8 
REMARK    3  A    between atoms: O3_8  and  C6_9 
REMARK    4  A    between atoms: C8_11  and  C25_32 
REMARK    5  A    between atoms: C11_14  and  O4_15 
REMARK    6  A    between atoms: C11_14  and  C22_29 
REMARK    7  A    between atoms: O4_15  and  C12_16 
REMARK    8  A    between atoms: C12_16  and  C14_18 
REMARK    9  A    between atoms: C26_34  and  C27_35 
REMARK   10  A    between atoms: C27_35  and  O6_36 
ROOT
HETATM    1  C6  UNL     1      -0.019  -1.308  -0.853  1.00  0.00     0.162 C 
HETATM    2  C7  UNL     1      -0.138  -2.817  -1.121  1.00  0.00     0.040 C 
HETATM    3  C8  UNL     1       0.063  -3.502   0.223  1.00  0.00    -0.003 C 
HETATM    4  C9  UNL     1      -0.493  -2.698   1.382  1.00  0.00     0.008 C 
HETATM    5  C10 UNL     1       0.210  -1.396   1.540  1.00  0.00     0.042 C 
HETATM    6  C11 UNL     1       1.002  -1.117   0.237  1.00  0.00     0.095 C 
ENDROOT
BRANCH   6   7
HETATM    7  O4  UNL     1       1.446   0.145   0.362  1.00  0.00    -0.367 OA
BRANCH   7   8
HETATM    8  C12 UNL     1       2.147   0.797  -0.605  1.00  0.00     0.154 C 
HETATM    9  C13 UNL     1       1.213   1.976  -1.102  1.00  0.00     0.045 C 
BRANCH   8  10
HETATM   10  C14 UNL     1       3.271   1.524   0.024  1.00  0.00    -0.002 A 
HETATM   11  C15 UNL     1       3.195   2.830   0.541  1.00  0.00     0.099 A 
HETATM   12  N1  UNL     1       4.364   3.182   1.102  1.00  0.00    -0.365 N 
HETATM   13  C16 UNL     1       5.235   2.169   0.987  1.00  0.00     0.043 A 
ATOM     14  H1  UNL     1       4.559   4.079   1.546  1.00  0.00     0.165 HD
HETATM   15  C17 UNL     1       6.540   2.047   1.384  1.00  0.00     0.032 A 
HETATM   16  C21 UNL     1       4.574   1.146   0.327  1.00  0.00     0.002 A 
HETATM   17  C18 UNL     1       7.229   0.874   1.122  1.00  0.00     0.026 A 
HETATM   18  C19 UNL     1       6.568  -0.153   0.457  1.00  0.00     0.035 A 
HETATM   19 CL1  UNL     1       7.382  -1.679   0.086  1.00  0.00    -0.084 Cl
HETATM   20  C20 UNL     1       5.254  -0.006   0.068  1.00  0.00     0.038 A 
ENDBRANCH   8  10
ENDBRANCH   7   8
ENDBRANCH   6   7
BRANCH   6  21
HETATM   21  C22 UNL     1       2.084  -2.166   0.220  1.00  0.00     0.053 A 
HETATM   22  C23 UNL     1       2.572  -2.389   1.616  1.00  0.00    -0.022 A 
HETATM   23  C24 UNL     1       2.080  -3.637   1.777  1.00  0.00    -0.024 A 
HETATM   24  C25 UNL     1       1.557  -3.538   0.420  1.00  0.00     0.022 A 
ENDBRANCH   6  21
BRANCH   1  25
HETATM   25  O3  UNL     1      -1.251  -0.884  -0.352  1.00  0.00    -0.331 OA
BRANCH  25  26
HETATM   26  C5  UNL     1      -1.991  -0.074  -1.160  1.00  0.00     0.414 C 
HETATM   27  O2  UNL     1      -3.181  -0.792  -1.433  1.00  0.00    -0.331 OA
HETATM   28  C3  UNL     1      -4.097  -0.426  -0.467  1.00  0.00     0.154 C 
HETATM   29  C2  UNL     1      -4.604   0.966  -0.880  1.00  0.00     0.180 C 
HETATM   30  C4  UNL     1      -5.231  -1.393  -0.325  1.00  0.00     0.042 C 
HETATM   31  C26 UNL     1      -3.355   1.810  -1.005  1.00  0.00     0.182 C 
HETATM   32  O5  UNL     1      -2.248   1.113  -0.527  1.00  0.00    -0.329 OA
BRANCH  29  33
HETATM   33  O1  UNL     1      -5.525   1.442   0.018  1.00  0.00    -0.385 OA
HETATM   34  C1  UNL     1      -6.786   1.601  -0.551  1.00  0.00     0.202 C 
ENDBRANCH  29  33
BRANCH  31  35
HETATM   35  C27 UNL     1      -3.461   3.056  -0.118  1.00  0.00     0.199 C 
BRANCH  35  36
HETATM   36  O6  UNL     1      -4.535   3.863  -0.485  1.00  0.00    -0.398 OA
ATOM     37  H6  UNL     1      -4.601   4.635   0.065  1.00  0.00     0.209 HD
ENDBRANCH  35  36
ENDBRANCH  31  35
ENDBRANCH  25  26
ENDBRANCH   1  25
TORSDOF 10
