REMARK  7 active torsions:
REMARK  status: ('A' for Active; 'I' for Inactive)
REMARK    1  A    between atoms: N2_8  and  C5_9 
REMARK    2  A    between atoms: C8_12  and  N3_13 
REMARK    3  A    between atoms: C9_14  and  N4_15 
REMARK    4  A    between atoms: N4_15  and  C10_17 
REMARK    5  A    between atoms: C13_20  and  C14_21 
REMARK    6  A    between atoms: C14_21  and  N5_22 
REMARK    7  A    between atoms: C21_31  and  C22_32 
ROOT
HETATM    1  N3  UNL     1      -1.852   0.687  -1.611  1.00  0.00    -0.176 N 
HETATM    2  C9  UNL     1      -0.598   0.324  -1.395  1.00  0.00     0.686 A 
HETATM    3  N6  UNL     1       0.184   0.861  -2.361  1.00  0.00    -0.188 N 
ATOM      4  H6  UNL     1       1.194   0.747  -2.443  1.00  0.00     0.184 HD
HETATM    5  C23 UNL     1      -0.593   1.567  -3.190  1.00  0.00     0.092 A 
HETATM    6  C24 UNL     1      -0.281   2.295  -4.318  1.00  0.00     0.119 A 
HETATM    7  N7  UNL     1      -1.257   2.936  -5.004  1.00  0.00    -0.373 N 
ATOM      8  H7  UNL     1      -1.040   3.478  -5.840  1.00  0.00     0.164 HD
HETATM    9  C25 UNL     1      -2.512   2.839  -4.556  1.00  0.00     0.090 A 
HETATM   10  C26 UNL     1      -2.869   2.119  -3.429  1.00  0.00     0.049 A 
HETATM   11  C27 UNL     1      -1.875   1.464  -2.728  1.00  0.00     0.082 A 
ENDROOT
BRANCH   2  12
HETATM   12  N4  UNL     1      -0.169  -0.416  -0.432  1.00  0.00    -0.191 N 
ATOM     13  H4  UNL     1      -0.842  -0.772   0.247  1.00  0.00     0.184 HD
BRANCH  12  14
HETATM   14  C10 UNL     1       1.203  -0.758  -0.274  1.00  0.00     0.060 A 
HETATM   15  C11 UNL     1       1.848  -1.519  -1.227  1.00  0.00     0.031 A 
HETATM   16  C12 UNL     1       3.175  -1.868  -1.107  1.00  0.00     0.011 A 
HETATM   17  C13 UNL     1       3.932  -1.464  -0.005  1.00  0.00    -0.029 A 
HETATM   18  C20 UNL     1       3.278  -0.703   0.942  1.00  0.00     0.023 A 
HETATM   19  C21 UNL     1       1.943  -0.355   0.816  1.00  0.00     0.033 A 
BRANCH  17  20
HETATM   20  C14 UNL     1       5.361  -1.846   0.127  1.00  0.00     0.311 C 
BRANCH  20  21
HETATM   21  N5  UNL     1       6.007  -0.812   0.915  1.00  0.00     0.093 N 
HETATM   22  C15 UNL     1       7.413  -1.112   1.126  1.00  0.00     0.278 C 
HETATM   23  C16 UNL     1       7.984   0.028   1.944  1.00  0.00     0.109 C 
HETATM   24  C17 UNL     1       8.152   1.183   0.959  1.00  0.00     0.246 C 
HETATM   25  F1  UNL     1       9.409   1.144   0.434  1.00  0.00    -0.206 F 
HETATM   26  F2  UNL     1       7.960   2.368   1.616  1.00  0.00    -0.206 F 
HETATM   27  C18 UNL     1       7.150   1.068  -0.172  1.00  0.00     0.109 C 
HETATM   28  C19 UNL     1       5.833   0.497   0.315  1.00  0.00     0.278 C 
ENDBRANCH  20  21
ENDBRANCH  17  20
BRANCH  19  29
HETATM   29  C22 UNL     1       1.288   0.464   1.865  1.00  0.00     0.389 C 
HETATM   30  F3  UNL     1       1.970   1.672   1.957  1.00  0.00    -0.209 F 
HETATM   31  F4  UNL     1       1.367  -0.147   3.103  1.00  0.00    -0.209 F 
ENDBRANCH  19  29
ENDBRANCH  12  14
ENDBRANCH   2  12
BRANCH   1  32
HETATM   32  C8  UNL     1      -3.010   0.355  -0.849  1.00  0.00     0.108 C 
HETATM   33  C7  UNL     1      -3.220  -1.135  -0.720  1.00  0.00     0.028 C 
HETATM   34  C6  UNL     1      -4.575  -1.428  -0.128  1.00  0.00     0.027 C 
HETATM   35  C5  UNL     1      -4.837  -0.667   1.149  1.00  0.00     0.086 C 
HETATM   36  C29 UNL     1      -4.376   0.746   1.118  1.00  0.00     0.027 C 
HETATM   37  C28 UNL     1      -2.962   0.905   0.577  1.00  0.00     0.028 C 
BRANCH  35  38
HETATM   38  N2  UNL     1      -6.263  -0.697   1.377  1.00  0.00    -0.360 N 
HETATM   39  C1  UNL     1      -7.121  -1.814   1.562  1.00  0.00     0.097 A 
HETATM   40  N1  UNL     1      -6.693  -3.034   1.547  1.00  0.00    -0.386 N 
HETATM   41  C2  UNL     1      -8.493  -1.363   1.759  1.00  0.00     0.045 A 
ATOM     42  H12 UNL     1      -7.309  -3.836   1.680  1.00  0.00     0.157 HD
ATOM     43  H11 UNL     1      -5.733  -3.350   1.409  1.00  0.00     0.157 HD
HETATM   44  C3  UNL     1      -8.469  -0.048   1.698  1.00  0.00    -0.003 A 
HETATM   45  C4  UNL     1      -7.110   0.470   1.460  1.00  0.00     0.152 A 
ENDBRANCH  35  38
ENDBRANCH   1  32
TORSDOF 7
