REMARK  7 active torsions:
REMARK  status: ('A' for Active; 'I' for Inactive)
REMARK    1  A    between atoms: C2_2  and  C3_3 
REMARK    2  A    between atoms: C8_13  and  C9_14 
REMARK    3  A    between atoms: C10_15  and  C11_16 
REMARK    4  A    between atoms: C12_17  and  C13_18 
REMARK    5  A    between atoms: C13_18  and  N4_19 
REMARK    6  A    between atoms: N4_19  and  C14_21 
REMARK    7  A    between atoms: C27_40  and  O1_41 
ROOT
HETATM    1  C3  UNL     1       5.552   0.038  -0.893  1.00  0.00     0.032 A 
HETATM    2  N1  UNL     1       6.809  -0.470  -0.987  1.00  0.00    -0.336 N 
ATOM      3  H1  UNL     1       7.571   0.153  -1.254  1.00  0.00     0.168 HD
HETATM    4  C4  UNL     1       7.086  -1.762  -0.741  1.00  0.00     0.189 A 
HETATM    5  C5  UNL     1       8.438  -2.277  -0.850  1.00  0.00     0.137 C 
HETATM    6  N2  UNL     1       9.510  -2.705  -0.939  1.00  0.00    -0.188 NA
HETATM    7  N3  UNL     1       6.066  -2.560  -0.391  1.00  0.00    -0.336 N 
ATOM      8  H3  UNL     1       6.266  -3.542  -0.202  1.00  0.00     0.168 HD
HETATM    9  C6  UNL     1       4.798  -2.138  -0.276  1.00  0.00     0.028 A 
HETATM   10  C7  UNL     1       3.676  -3.012   0.109  1.00  0.00     0.070 C 
HETATM   11  C8  UNL     1       4.528  -0.796  -0.534  1.00  0.00     0.062 A 
ENDROOT
BRANCH   1  12
HETATM   12  C2  UNL     1       5.330   1.461  -1.164  1.00  0.00     0.054 C 
HETATM   13  C1  UNL     1       5.182   2.241   0.112  1.00  0.00     0.011 C 
ENDBRANCH   1  12
BRANCH  11  14
HETATM   14  C9  UNL     1       3.197  -0.332  -0.431  1.00  0.00    -0.057 C 
HETATM   15  C10 UNL     1       2.034   0.053  -0.358  1.00  0.00    -0.058 C 
BRANCH  15  16
HETATM   16  C11 UNL     1       0.683   0.490  -0.298  1.00  0.00     0.056 A 
HETATM   17  C12 UNL     1      -0.450  -0.320  -0.435  1.00  0.00     0.047 A 
HETATM   18  N5  UNL     1      -1.518   0.488  -0.317  1.00  0.00    -0.354 N 
HETATM   19  C21 UNL     1      -1.107   1.755  -0.115  1.00  0.00     0.075 A 
ATOM     20  H5  UNL     1      -2.491   0.188  -0.372  1.00  0.00     0.166 HD
HETATM   21  C22 UNL     1       0.271   1.789  -0.098  1.00  0.00     0.029 A 
HETATM   22  C29 UNL     1      -1.859   2.923   0.063  1.00  0.00     0.089 A 
HETATM   23  C23 UNL     1       0.891   3.005   0.099  1.00  0.00     0.103 A 
HETATM   24  N6  UNL     1       0.154   4.135   0.270  1.00  0.00    -0.363 N 
HETATM   25  C24 UNL     1      -1.179   4.105   0.254  1.00  0.00     0.061 A 
ATOM     26  H6  UNL     1       0.631   5.025   0.414  1.00  0.00     0.165 HD
HETATM   27  C25 UNL     1      -1.955   5.249   0.427  1.00  0.00     0.036 A 
HETATM   28  C26 UNL     1      -3.329   5.144   0.399  1.00  0.00     0.058 A 
HETATM   29  C27 UNL     1      -3.984   3.946   0.205  1.00  0.00     0.142 A 
HETATM   30  N7  UNL     1      -3.212   2.858   0.041  1.00  0.00    -0.333 N 
ATOM     31  H7  UNL     1      -3.660   1.953  -0.105  1.00  0.00     0.168 HD
BRANCH  17  32
HETATM   32  C13 UNL     1      -0.364  -1.784  -0.678  1.00  0.00     0.178 C 
BRANCH  32  33
HETATM   33  N4  UNL     1      -1.624  -2.440  -0.772  1.00  0.00    -0.384 N 
ATOM     34  H4  UNL     1      -1.900  -2.811  -1.681  1.00  0.00     0.160 HD
BRANCH  33  35
HETATM   35  C14 UNL     1      -2.521  -2.613   0.312  1.00  0.00     0.037 A 
HETATM   36  C15 UNL     1      -2.104  -2.180   1.574  1.00  0.00     0.033 A 
HETATM   37  C16 UNL     1      -2.989  -2.376   2.610  1.00  0.00     0.048 A 
HETATM   38  C17 UNL     1      -4.226  -2.966   2.438  1.00  0.00     0.155 A 
HETATM   39  F1  UNL     1      -5.049  -3.134   3.475  1.00  0.00    -0.203 F 
HETATM   40  C18 UNL     1      -4.593  -3.378   1.170  1.00  0.00     0.163 A 
HETATM   41  F2  UNL     1      -5.809  -3.965   0.956  1.00  0.00    -0.202 F 
HETATM   42  C19 UNL     1      -3.750  -3.207   0.100  1.00  0.00     0.006 A 
HETATM   43  C20 UNL     1      -4.134  -3.647  -1.273  1.00  0.00     0.054 C 
ENDBRANCH  33  35
ENDBRANCH  32  33
ENDBRANCH  17  32
BRANCH  29  44
HETATM   44  O1  UNL     1      -5.373   3.907   0.187  1.00  0.00    -0.341 OA
HETATM   45  C28 UNL     1      -6.142   2.762   0.001  1.00  0.00     0.211 C 
ENDBRANCH  29  44
ENDBRANCH  15  16
ENDBRANCH  11  14
TORSDOF 7
