REMARK  7 active torsions:
REMARK  status: ('A' for Active; 'I' for Inactive)
REMARK    1  A    between atoms: O1_2  and  C2_3 
REMARK    2  A    between atoms: C5_6  and  C6_7 
REMARK    3  A    between atoms: C9_12  and  N2_13 
REMARK    4  A    between atoms: C13_18  and  C14_19 
REMARK    5  A    between atoms: C15_24  and  N4_25 
REMARK    6  A    between atoms: C16_29  and  C17_30 
REMARK    7  A    between atoms: N6_33  and  C20_34 
ROOT
HETATM    1  C6  UNL     1      -0.717   1.966   0.092  1.00  0.00     0.073 A 
HETATM    2  N1  UNL     1      -2.074   1.872  -0.025  1.00  0.00    -0.339 N 
ATOM      3  H1  UNL     1      -2.702   2.657  -0.198  1.00  0.00     0.167 HD
HETATM    4  C7  UNL     1      -2.455   0.616   0.119  1.00  0.00     0.133 A 
HETATM    5  C8  UNL     1      -3.730   0.053   0.072  1.00  0.00     0.098 A 
HETATM    6  C9  UNL     1      -3.812  -1.308   0.252  1.00  0.00     0.123 A 
HETATM    7  N3  UNL     1      -2.693  -2.013   0.461  1.00  0.00    -0.176 N 
ATOM      8  H3  UNL     1      -2.767  -3.022   0.594  1.00  0.00     0.186 HD
HETATM    9  C15 UNL     1      -1.461  -1.437   0.503  1.00  0.00     0.686 A 
HETATM   10  N5  UNL     1      -1.347  -0.102   0.328  1.00  0.00    -0.130 N 
HETATM   11  C16 UNL     1      -0.251   0.677   0.323  1.00  0.00     0.098 A 
ENDROOT
BRANCH  11  12
HETATM   12  C17 UNL     1       1.124   0.254   0.537  1.00  0.00     0.011 A 
HETATM   13  C18 UNL     1       1.800   0.385   1.741  1.00  0.00     0.032 A 
HETATM   14  C19 UNL     1       3.058  -0.108   1.614  1.00  0.00     0.092 A 
HETATM   15  N6  UNL     1       3.208  -0.560   0.334  1.00  0.00    -0.361 N 
HETATM   16  C26 UNL     1       2.038  -0.338  -0.310  1.00  0.00     0.104 A 
BRANCH  15  17
HETATM   17  C20 UNL     1       4.427  -1.156  -0.115  1.00  0.00     0.088 C 
HETATM   18  C21 UNL     1       4.375  -2.677   0.037  1.00  0.00     0.026 C 
HETATM   19  C22 UNL     1       5.729  -3.243  -0.243  1.00  0.00     0.002 C 
HETATM   20  C23 UNL     1       6.741  -2.206  -0.625  1.00  0.00     0.000 C 
HETATM   21  C24 UNL     1       6.276  -1.265  -1.689  1.00  0.00     0.002 C 
HETATM   22  C25 UNL     1       4.819  -0.838  -1.519  1.00  0.00     0.026 C 
ENDBRANCH  15  17
ENDBRANCH  11  12
BRANCH   1  23
HETATM   23  C5  UNL     1       0.035   3.193  -0.033  1.00  0.00    -0.007 A 
HETATM   24  C4  UNL     1       0.117   3.881  -1.250  1.00  0.00     0.016 A 
HETATM   25  C3  UNL     1       0.831   5.045  -1.387  1.00  0.00     0.037 A 
HETATM   26  C2  UNL     1       1.506   5.599  -0.333  1.00  0.00     0.068 A 
HETATM   27  C28 UNL     1       1.438   4.930   0.890  1.00  0.00     0.037 A 
HETATM   28  C27 UNL     1       0.711   3.751   1.014  1.00  0.00     0.016 A 
BRANCH  26  29
HETATM   29  O1  UNL     1       2.246   6.774  -0.411  1.00  0.00    -0.356 OA
HETATM   30  C1  UNL     1       2.423   7.565  -1.539  1.00  0.00     0.210 C 
ENDBRANCH  26  29
ENDBRANCH   1  23
BRANCH   9  31
HETATM   31  N4  UNL     1      -0.397  -2.110   0.706  1.00  0.00    -0.234 N 
ATOM     32  H42 UNL     1      -0.483  -3.118   0.838  1.00  0.00     0.174 HD
ATOM     33  H41 UNL     1       0.527  -1.678   0.737  1.00  0.00     0.174 HD
ENDBRANCH   9  31
BRANCH   6  34
HETATM   34  N2  UNL     1      -5.058  -1.968   0.211  1.00  0.00    -0.353 N 
HETATM   35  C10 UNL     1      -5.719  -2.187  -1.065  1.00  0.00     0.151 C 
HETATM   36  C11 UNL     1      -6.675  -3.326  -1.044  1.00  0.00     0.187 C 
HETATM   37  O2  UNL     1      -7.481  -3.419   0.063  1.00  0.00    -0.387 OA
HETATM   38  C12 UNL     1      -7.206  -2.532   1.080  1.00  0.00     0.198 C 
HETATM   39  C13 UNL     1      -5.727  -2.473   1.396  1.00  0.00     0.174 C 
BRANCH  39  40
HETATM   40  C14 UNL     1      -5.549  -1.544   2.575  1.00  0.00     0.377 C 
HETATM   41  F1  UNL     1      -6.204  -2.081   3.665  1.00  0.00    -0.212 F 
HETATM   42  F2  UNL     1      -6.142  -0.349   2.243  1.00  0.00    -0.212 F 
ENDBRANCH  39  40
ENDBRANCH   6  34
TORSDOF 7
