REMARK  17 active torsions:
REMARK  status: ('A' for Active; 'I' for Inactive)
REMARK    1  A    between atoms: C2_2  and  C3_3 
REMARK    2  A    between atoms: C2_2  and  O2_6 
REMARK    3  A    between atoms: C3_3  and  O1_4 
REMARK    4  A    between atoms: O2_6  and  C4_7 
REMARK    5  A    between atoms: C4_7  and  C6_9 
REMARK    6  A    between atoms: C6_9  and  O3_10 
REMARK    7  A    between atoms: C8_13  and  O4_14 
REMARK    8  A    between atoms: O4_14  and  C9_15 
REMARK    9  A    between atoms: C10_19  and  O5_20 
REMARK   10  A    between atoms: C11_24  and  O6_25 
REMARK   11  A    between atoms: O6_25  and  C12_26 
REMARK   12  A    between atoms: C13_27  and  O7_28 
REMARK   13  A    between atoms: C14_30  and  O8_31 
REMARK   14  A    between atoms: C15_33  and  O9_34 
REMARK   15  A    between atoms: C16_36  and  O10_37 
REMARK   16  A    between atoms: C17_39  and  C18_40 
REMARK   17  A    between atoms: C18_40  and  O11_41 
ROOT
HETATM    1  C9  UNL     1      -0.884  -1.372   0.595  1.00  0.00     0.379 C 
HETATM    2  N1  UNL     1      -0.274  -2.365  -0.312  1.00  0.00    -0.002 N 
ATOM      3  H11 UNL     1       0.742  -2.300  -0.382  1.00  0.00     0.285 HD
ATOM      4  H12 UNL     1      -0.463  -2.201  -1.301  1.00  0.00     0.285 HD
HETATM    5  C10 UNL     1      -0.764  -3.658   0.191  1.00  0.00     0.435 C 
HETATM    6  N2  UNL     1      -2.177  -3.699  -0.054  1.00  0.00    -0.086 NA
HETATM    7  N3  UNL     1      -2.781  -2.751   0.812  1.00  0.00    -0.107 NA
HETATM    8  C11 UNL     1      -2.347  -1.409   0.359  1.00  0.00     0.287 C 
ENDROOT
BRANCH   1   9
HETATM    9  O4  UNL     1      -0.235  -0.160   0.319  1.00  0.00    -0.293 OA
BRANCH   9  10
HETATM   10  C8  UNL     1       1.138  -0.117   0.507  1.00  0.00     0.186 C 
HETATM   11  C7  UNL     1       1.963   0.438  -0.371  1.00  0.00     0.107 C 
HETATM   12  C6  UNL     1       3.416   0.399  -0.013  1.00  0.00     0.214 C 
HETATM   13  O13 UNL     1       3.665  -0.921   0.379  1.00  0.00    -0.319 OA
HETATM   14  C19 UNL     1       3.101  -1.061   1.653  1.00  0.00     0.268 C 
HETATM   15  O12 UNL     1       1.739  -0.666   1.651  1.00  0.00    -0.299 OA
HETATM   16  C20 UNL     1       3.196  -2.526   2.018  1.00  0.00     0.071 C 
BRANCH  12  17
HETATM   17  C4  UNL     1       4.288   0.821  -1.132  1.00  0.00     0.184 C 
HETATM   18  C5  UNL     1       4.087  -0.115  -2.356  1.00  0.00     0.046 C 
BRANCH  17  19
HETATM   19  O2  UNL     1       5.624   0.700  -0.778  1.00  0.00    -0.373 OA
BRANCH  19  20
HETATM   20  C2  UNL     1       6.412   1.778  -1.065  1.00  0.00     0.141 C 
HETATM   21  C1  UNL     1       7.386   1.252  -2.169  1.00  0.00     0.042 C 
BRANCH  20  22
HETATM   22  C3  UNL     1       7.306   2.130   0.082  1.00  0.00     0.195 C 
BRANCH  22  23
HETATM   23  O1  UNL     1       6.649   2.478   1.250  1.00  0.00    -0.398 OA
ATOM     24  H1  UNL     1       7.217   2.701   1.978  1.00  0.00     0.209 HD
ENDBRANCH  22  23
ENDBRANCH  20  22
ENDBRANCH  19  20
ENDBRANCH  17  19
ENDBRANCH  12  17
BRANCH  12  25
HETATM   25  O3  UNL     1       3.620   1.194   1.096  1.00  0.00    -0.360 OA
ATOM     26  H3  UNL     1       3.060   0.923   1.814  1.00  0.00     0.213 HD
ENDBRANCH  12  25
ENDBRANCH   9  10
ENDBRANCH   1   9
BRANCH   8  27
HETATM   27  O6  UNL     1      -3.071  -0.453   1.024  1.00  0.00    -0.355 OA
BRANCH  27  28
HETATM   28  C12 UNL     1      -3.955   0.248   0.253  1.00  0.00     0.164 C 
HETATM   29  C13 UNL     1      -3.525   1.691   0.076  1.00  0.00     0.179 C 
HETATM   30  C14 UNL     1      -4.640   2.642  -0.220  1.00  0.00     0.180 C 
HETATM   31  C15 UNL     1      -5.805   2.054  -0.947  1.00  0.00     0.178 C 
HETATM   32  C16 UNL     1      -6.209   0.696  -0.434  1.00  0.00     0.158 C 
HETATM   33  C17 UNL     1      -5.366   0.326   0.775  1.00  0.00     0.072 C 
BRANCH  29  34
HETATM   34  O7  UNL     1      -2.611   1.711  -1.005  1.00  0.00    -0.390 OA
ATOM     35  H7  UNL     1      -2.342   2.615  -1.116  1.00  0.00     0.210 HD
ENDBRANCH  29  34
BRANCH  30  36
HETATM   36  O8  UNL     1      -4.107   3.711  -0.942  1.00  0.00    -0.390 OA
ATOM     37  H8  UNL     1      -4.815   4.315  -1.130  1.00  0.00     0.210 HD
ENDBRANCH  30  36
BRANCH  31  38
HETATM   38  O9  UNL     1      -6.926   2.873  -0.886  1.00  0.00    -0.390 OA
ATOM     39  H9  UNL     1      -7.667   2.499  -1.348  1.00  0.00     0.210 HD
ENDBRANCH  31  38
BRANCH  32  40
HETATM   40  O10 UNL     1      -5.993  -0.277  -1.400  1.00  0.00    -0.392 OA
ATOM     41  H10 UNL     1      -6.248  -1.133  -1.077  1.00  0.00     0.210 HD
ENDBRANCH  32  40
BRANCH  33  42
HETATM   42  C18 UNL     1      -5.879  -0.826   1.524  1.00  0.00     0.174 C 
BRANCH  42  43
HETATM   43  O11 UNL     1      -5.115  -1.038   2.668  1.00  0.00    -0.400 OA
ATOM     44  H11 UNL     1      -5.447  -1.784   3.153  1.00  0.00     0.209 HD
ENDBRANCH  42  43
ENDBRANCH  33  42
ENDBRANCH  27  28
ENDBRANCH   8  27
BRANCH   5  45
HETATM   45  O5  UNL     1      -0.065  -4.659  -0.453  1.00  0.00    -0.357 OA
ATOM     46  H5  UNL     1      -0.381  -5.494  -0.128  1.00  0.00     0.213 HD
ENDBRANCH   5  45
TORSDOF 17
