REMARK  19 active torsions:
REMARK  status: ('A' for Active; 'I' for Inactive)
REMARK    1  A    between atoms: C2_2  and  O2_4 
REMARK    2  A    between atoms: O2_4  and  C3_5 
REMARK    3  A    between atoms: C3_5  and  O3_6 
REMARK    4  A    between atoms: C3_5  and  C4_8 
REMARK    5  A    between atoms: C4_8  and  N1_9 
REMARK    6  A    between atoms: C4_8  and  C5_13 
REMARK    7  A    between atoms: C5_13  and  N2_14 
REMARK    8  A    between atoms: C5_13  and  O4_18 
REMARK    9  A    between atoms: O4_18  and  C6_19 
REMARK   10  A    between atoms: C10_24  and  O6_25 
REMARK   11  A    between atoms: C11_27  and  O7_28 
REMARK   12  A    between atoms: C11_27  and  O8_30 
REMARK   13  A    between atoms: N3_34  and  O9_36 
REMARK   14  A    between atoms: C14_39  and  C15_40 
REMARK   15  A    between atoms: C15_40  and  O11_41 
REMARK   16  A    between atoms: C15_40  and  C16_43 
REMARK   17  A    between atoms: C16_43  and  O12_45 
REMARK   18  A    between atoms: C18_47  and  O13_48 
REMARK   19  A    between atoms: C19_50  and  O14_51 
ROOT
HETATM    1  C6  UNL     1       0.225   0.520  -0.206  1.00  0.00     0.240 C 
HETATM    2  O5  UNL     1      -0.652   0.824   0.814  1.00  0.00    -0.311 OA
HETATM    3  C7  UNL     1      -1.940   0.906   0.741  1.00  0.00     0.167 C 
HETATM    4  C8  UNL     1      -2.319   1.719   2.026  1.00  0.00     0.079 C 
HETATM    5  C9  UNL     1      -2.648   1.685  -0.341  1.00  0.00     0.105 C 
HETATM    6  C10 UNL     1      -2.124   3.035  -0.645  1.00  0.00     0.185 C 
HETATM    7  C11 UNL     1      -1.662   3.034  -2.086  1.00  0.00     0.191 C 
HETATM    8  C12 UNL     1      -0.390   2.260  -2.323  1.00  0.00     0.131 C 
HETATM    9  C13 UNL     1       0.204   1.738  -1.076  1.00  0.00     0.079 C 
HETATM   10  N3  UNL     1       0.934   2.649  -0.544  1.00  0.00    -0.272 N 
ATOM     11  H3  UNL     1       1.381   2.399   0.338  1.00  0.00     0.193 HD
HETATM   12  O10 UNL     1      -2.726  -0.219   0.875  1.00  0.00    -0.345 OA
HETATM   13  C14 UNL     1      -2.352  -1.323   0.164  1.00  0.00     0.187 C 
HETATM   14  C18 UNL     1      -0.899  -1.592   0.160  1.00  0.00     0.184 C 
HETATM   15  C19 UNL     1      -0.131  -0.739  -0.852  1.00  0.00     0.218 C 
ENDROOT
BRANCH   1  16
HETATM   16  O4  UNL     1       1.446   0.470   0.399  1.00  0.00    -0.312 OA
BRANCH  16  17
HETATM   17  C5  UNL     1       2.595   0.183  -0.167  1.00  0.00     0.357 C 
BRANCH  17  18
HETATM   18  C4  UNL     1       3.369  -0.828   0.642  1.00  0.00     0.294 C 
BRANCH  18  19
HETATM   19  C3  UNL     1       4.770  -0.997   0.069  1.00  0.00     0.301 C 
BRANCH  19  20
HETATM   20  O2  UNL     1       5.579  -1.753   0.955  1.00  0.00    -0.288 OA
BRANCH  20  21
HETATM   21  C2  UNL     1       6.732  -1.261   1.539  1.00  0.00     0.257 C 
HETATM   22  C1  UNL     1       7.530  -2.105   2.455  1.00  0.00     0.126 C 
HETATM   23  O1  UNL     1       7.071  -0.084   1.266  1.00  0.00    -0.266 OA
ENDBRANCH  20  21
ENDBRANCH  19  20
BRANCH  19  24
HETATM   24  O3  UNL     1       4.714  -1.593  -1.188  1.00  0.00    -0.368 OA
ATOM     25  H3  UNL     1       4.172  -1.087  -1.782  1.00  0.00     0.212 HD
ENDBRANCH  19  24
ENDBRANCH  18  19
BRANCH  18  26
HETATM   26  N1  UNL     1       2.733  -2.077   0.858  1.00  0.00    -0.066 N 
ATOM     27  H13 UNL     1       2.721  -2.639   0.007  1.00  0.00     0.275 HD
ATOM     28  H12 UNL     1       3.303  -2.687   1.444  1.00  0.00     0.275 HD
ATOM     29  H11 UNL     1       1.795  -1.964   1.242  1.00  0.00     0.275 HD
ENDBRANCH  18  26
ENDBRANCH  17  18
BRANCH  17  30
HETATM   30  N2  UNL     1       3.567   1.307  -0.234  1.00  0.00    -0.051 N 
ATOM     31  H23 UNL     1       3.912   1.640   0.666  1.00  0.00     0.277 HD
ATOM     32  H22 UNL     1       4.488   1.067  -0.601  1.00  0.00     0.277 HD
ATOM     33  H21 UNL     1       3.044   1.991  -0.781  1.00  0.00     0.277 HD
ENDBRANCH  17  30
ENDBRANCH  16  17
ENDBRANCH   1  16
BRANCH  15  34
HETATM   34  O14 UNL     1      -0.818  -0.652  -2.060  1.00  0.00    -0.387 OA
ATOM     35  H14 UNL     1      -1.050  -1.472  -2.481  1.00  0.00     0.210 HD
ENDBRANCH  15  34
BRANCH  10  36
HETATM   36  O9  UNL     1       1.189   3.891  -0.995  1.00  0.00    -0.290 OA
ATOM     37  H9  UNL     1       1.730   4.566  -0.601  1.00  0.00     0.244 HD
ENDBRANCH  10  36
BRANCH  14  38
HETATM   38  O13 UNL     1      -0.658  -2.943  -0.019  1.00  0.00    -0.390 OA
ATOM     39  H13 UNL     1       0.276  -3.116  -0.022  1.00  0.00     0.210 HD
ENDBRANCH  14  38
BRANCH   7  40
HETATM   40  O7  UNL     1      -2.662   2.367  -2.811  1.00  0.00    -0.363 OA
ATOM     41  H7  UNL     1      -2.372   2.366  -3.716  1.00  0.00     0.213 HD
ENDBRANCH   7  40
BRANCH   7  42
HETATM   42  O8  UNL     1      -1.616   4.322  -2.609  1.00  0.00    -0.363 OA
ATOM     43  H8  UNL     1      -1.326   4.321  -3.514  1.00  0.00     0.213 HD
ENDBRANCH   7  42
BRANCH  13  44
HETATM   44  C15 UNL     1      -3.115  -2.514   0.657  1.00  0.00     0.178 C 
BRANCH  44  45
HETATM   45  O11 UNL     1      -2.797  -3.687  -0.068  1.00  0.00    -0.390 OA
ATOM     46  H11 UNL     1      -3.281  -4.442   0.245  1.00  0.00     0.210 HD
ENDBRANCH  44  45
BRANCH  44  47
HETATM   47  C16 UNL     1      -4.611  -2.347   0.676  1.00  0.00     0.145 C 
HETATM   48  C17 UNL     1      -5.092  -1.262   1.602  1.00  0.00     0.042 C 
BRANCH  47  49
HETATM   49  O12 UNL     1      -5.202  -2.206  -0.545  1.00  0.00    -0.393 OA
ATOM     50  H12 UNL     1      -6.146  -2.101  -0.533  1.00  0.00     0.210 HD
ENDBRANCH  47  49
ENDBRANCH  44  47
ENDBRANCH  13  44
BRANCH   6  51
HETATM   51  O6  UNL     1      -3.180   3.997  -0.641  1.00  0.00    -0.390 OA
ATOM     52  H6  UNL     1      -2.844   4.864  -0.836  1.00  0.00     0.210 HD
ENDBRANCH   6  51
TORSDOF 19
