REMARK  13 active torsions:
REMARK  status: ('A' for Active; 'I' for Inactive)
REMARK    1  A    between atoms: C2_2  and  S1_6 
REMARK    2  A    between atoms: S1_6  and  S2_7 
REMARK    3  A    between atoms: S2_7  and  C3_8 
REMARK    4  A    between atoms: C6_14  and  N3_15 
REMARK    5  A    between atoms: C7_19  and  N4_20 
REMARK    6  A    between atoms: N4_20  and  C8_22 
REMARK    7  A    between atoms: C9_26  and  C10_27 
REMARK    8  A    between atoms: C10_27  and  O1_28 
REMARK    9  A    between atoms: O1_28  and  C11_29 
REMARK   10  A    between atoms: C12_31  and  N6_32 
REMARK   11  A    between atoms: C13_36  and  O3_37 
REMARK   12  A    between atoms: C14_39  and  N7_40 
REMARK   13  A    between atoms: C15_45  and  O5_46 
ROOT
HETATM    1  C8  UNL     1      -0.554   0.035   0.052  1.00  0.00     0.339 C 
HETATM    2  N5  UNL     1       0.041   0.275   1.356  1.00  0.00    -0.021 N 
ATOM      3  H51 UNL     1       0.061  -0.555   1.949  1.00  0.00     0.283 HD
ATOM      4  H52 UNL     1      -0.540   0.852   1.964  1.00  0.00     0.283 HD
HETATM    5  C9  UNL     1       1.339   0.832   1.116  1.00  0.00     0.349 C 
HETATM    6  O4  UNL     1       1.220   1.561  -0.066  1.00  0.00    -0.323 OA
HETATM    7  C15 UNL     1       0.423   0.784  -0.870  1.00  0.00     0.309 C 
ENDROOT
BRANCH   1   8
HETATM    8  N4  UNL     1      -1.798   0.640  -0.095  1.00  0.00    -0.382 N 
ATOM      9  H4  UNL     1      -1.838   1.652  -0.214  1.00  0.00     0.155 HD
BRANCH   8  10
HETATM   10  C7  UNL     1      -2.997  -0.083  -0.086  1.00  0.00     0.151 C 
HETATM   11  C3  UNL     1      -3.279  -0.741   1.234  1.00  0.00     0.087 C 
HETATM   12  C4  UNL     1      -3.731  -2.178   1.081  1.00  0.00     0.045 C 
HETATM   13  C5  UNL     1      -4.744  -2.373  -0.006  1.00  0.00     0.236 C 
HETATM   14  N2  UNL     1      -4.569  -1.519  -1.132  1.00  0.00    -0.044 N 
HETATM   15  C6  UNL     1      -3.169  -1.063  -1.236  1.00  0.00     0.403 C 
ATOM     16  H22 UNL     1      -4.885  -1.963  -1.994  1.00  0.00     0.279 HD
ATOM     17  H21 UNL     1      -5.220  -0.734  -1.114  1.00  0.00     0.279 HD
BRANCH  11  18
HETATM   18  S2  UNL     1      -4.516   0.161   2.229  1.00  0.00    -0.084 SA
BRANCH  18  19
HETATM   19  S1  UNL     1      -6.274   0.352   1.061  1.00  0.00    -0.045 SA
BRANCH  19  20
HETATM   20  C2  UNL     1      -6.242   1.886   0.212  1.00  0.00     0.047 C 
HETATM   21  C1  UNL     1      -7.144   2.162  -0.954  1.00  0.00     0.076 C 
HETATM   22  N1  UNL     1      -5.475   2.843   0.592  1.00  0.00    -0.397 N 
ATOM     23  H12 UNL     1      -5.456   3.735   0.098  1.00  0.00     0.156 HD
ATOM     24  H11 UNL     1      -4.862   2.655   1.385  1.00  0.00     0.156 HD
ENDBRANCH  19  20
ENDBRANCH  18  19
ENDBRANCH  11  18
BRANCH  15  25
HETATM   25  N3  UNL     1      -3.114  -0.343  -2.475  1.00  0.00    -0.048 N 
ATOM     26  H33 UNL     1      -3.438  -0.878  -3.281  1.00  0.00     0.276 HD
ATOM     27  H32 UNL     1      -3.802   0.406  -2.551  1.00  0.00     0.276 HD
ATOM     28  H31 UNL     1      -2.147  -0.028  -2.547  1.00  0.00     0.276 HD
ENDBRANCH  15  25
ENDBRANCH   8  10
ENDBRANCH   1   8
BRANCH   7  29
HETATM   29  O5  UNL     1       1.068  -0.038  -1.758  1.00  0.00    -0.367 OA
ATOM     30  H5  UNL     1       1.671   0.425  -2.327  1.00  0.00     0.212 HD
ENDBRANCH   7  29
BRANCH   5  31
HETATM   31  C10 UNL     1       2.433  -0.189   0.906  1.00  0.00     0.232 C 
BRANCH  31  32
HETATM   32  O1  UNL     1       3.631   0.486   0.666  1.00  0.00    -0.355 OA
BRANCH  32  33
HETATM   33  C11 UNL     1       4.694  -0.327   0.365  1.00  0.00     0.295 C 
HETATM   34  O2  UNL     1       5.186   0.045  -0.862  1.00  0.00    -0.324 OA
HETATM   35  C12 UNL     1       6.433   0.572  -0.780  1.00  0.00     0.352 C 
HETATM   36  C13 UNL     1       6.645   0.919   0.667  1.00  0.00     0.209 C 
HETATM   37  C14 UNL     1       5.799  -0.142   1.377  1.00  0.00     0.271 C 
BRANCH  35  38
HETATM   38  N6  UNL     1       7.460  -0.324  -1.282  1.00  0.00    -0.050 N 
ATOM     39  H63 UNL     1       7.415  -1.229  -0.813  1.00  0.00     0.277 HD
ATOM     40  H62 UNL     1       7.251  -0.620  -2.236  1.00  0.00     0.277 HD
ATOM     41  H61 UNL     1       8.398   0.072  -1.220  1.00  0.00     0.277 HD
ENDBRANCH  35  38
BRANCH  36  42
HETATM   42  O3  UNL     1       6.123   2.173   0.906  1.00  0.00    -0.389 OA
ATOM     43  H3  UNL     1       6.257   2.392   1.821  1.00  0.00     0.210 HD
ENDBRANCH  36  42
BRANCH  37  44
HETATM   44  N7  UNL     1       6.591  -1.353   1.429  1.00  0.00    -0.068 N 
ATOM     45  H73 UNL     1       6.025  -2.181   1.616  1.00  0.00     0.275 HD
ATOM     46  H72 UNL     1       6.944  -1.628   0.512  1.00  0.00     0.275 HD
ATOM     47  H71 UNL     1       7.338  -1.228   2.113  1.00  0.00     0.275 HD
ENDBRANCH  37  44
ENDBRANCH  32  33
ENDBRANCH  31  32
ENDBRANCH   5  31
TORSDOF 13
