REMARK  8 active torsions:
REMARK  status: ('A' for Active; 'I' for Inactive)
REMARK    1  A    between atoms: N3_10  and  C6_11 
REMARK    2  A    between atoms: C6_11  and  C7_12 
REMARK    3  A    between atoms: C7_12  and  O2_13 
REMARK    4  A    between atoms: C7_12  and  C8_15 
REMARK       I    between atoms: C8_15  and  N4_17 
REMARK    5  A    between atoms: N4_17  and  N5_19 
REMARK    6  A    between atoms: N5_19  and  C9_21 
REMARK    7  A    between atoms: C10_22  and  C11_23 
REMARK    8  A    between atoms: C12_27  and  N7_28 
ROOT
HETATM    1  N7  UNL     1       6.544  -0.112  -1.154  1.00  0.00    -0.125 N 
ATOM      2  H7  UNL     1       6.895  -0.873  -1.736  1.00  0.00     0.197 HD
HETATM    3  C13 UNL     1       6.835   1.256  -1.424  1.00  0.00     0.196 C 
HETATM    4  N8  UNL     1       7.085   2.361  -1.654  1.00  0.00    -0.171 NA
ENDROOT
BRANCH   1   5
HETATM    5  C12 UNL     1       5.731  -0.335  -0.018  1.00  0.00     0.700 A 
HETATM    6  N6  UNL     1       4.334  -0.304  -0.078  1.00  0.00    -0.132 N 
HETATM    7  C10 UNL     1       3.350   0.017  -1.082  1.00  0.00     0.176 C 
HETATM    8  C15 UNL     1       3.485  -0.568   1.110  1.00  0.00     0.317 A 
HETATM    9  C9  UNL     1       2.345   0.640  -0.440  1.00  0.00     0.154 C 
HETATM   10  N12 UNL     1       2.647   0.614   0.985  1.00  0.00    -0.335 N 
ATOM     11  H12 UNL     1       2.346   1.262   1.713  1.00  0.00     0.165 HD
HETATM   12  N11 UNL     1       4.189  -0.766   2.299  1.00  0.00    -0.325 N 
HETATM   13  C14 UNL     1       5.501  -0.765   2.318  1.00  0.00     0.205 A 
ATOM     14  H11 UNL     1       3.675  -0.914   3.168  1.00  0.00     0.166 HD
HETATM   15  N9  UNL     1       6.264  -0.557   1.162  1.00  0.00    -0.162 N 
HETATM   16  N10 UNL     1       6.072  -0.990   3.608  1.00  0.00    -0.063 NA
ATOM     17  H9  UNL     1       7.281  -0.579   1.240  1.00  0.00     0.187 HD
BRANCH   7  18
HETATM   18  C11 UNL     1       3.507  -0.251  -2.490  1.00  0.00     0.231 C 
HETATM   19  O4  UNL     1       4.443  -0.859  -3.026  1.00  0.00    -0.643 OA
HETATM   20  O5  UNL     1       2.526   0.198  -3.417  1.00  0.00    -0.643 OA
ENDBRANCH   7  18
BRANCH   9  21
HETATM   21  N5  UNL     1       1.191   1.186  -1.051  1.00  0.00    -0.281 N 
ATOM     22  H5  UNL     1       1.232   1.570  -1.995  1.00  0.00     0.188 HD
BRANCH  21  23
HETATM   23  N4  UNL     1      -0.006   1.187  -0.330  1.00  0.00    -0.266 N 
HETATM   24  C8  UNL     1      -0.915   0.135  -0.533  1.00  0.00     0.266 C 
HETATM   25  O3  UNL     1      -0.667  -0.781  -1.350  1.00  0.00    -0.269 OA
ATOM     26  H4  UNL     1      -0.216   1.936   0.330  1.00  0.00     0.190 HD
BRANCH  24  27
HETATM   27  C7  UNL     1      -2.225   0.044   0.210  1.00  0.00     0.230 C 
BRANCH  27  28
HETATM   28  C6  UNL     1      -3.308  -0.035  -0.818  1.00  0.00     0.173 C 
BRANCH  28  29
HETATM   29  N3  UNL     1      -4.627  -0.102  -0.276  1.00  0.00    -0.319 N 
HETATM   30  C2  UNL     1      -5.290   1.027   0.211  1.00  0.00     0.101 A 
HETATM   31  C1  UNL     1      -4.874   2.277   0.064  1.00  0.00     0.064 C 
HETATM   32  N1  UNL     1      -6.564   0.848   0.860  1.00  0.00    -0.310 N 
HETATM   33  C3  UNL     1      -7.069  -0.464   0.961  1.00  0.00     0.250 A 
ATOM     34  H1  UNL     1      -7.082   1.643   1.233  1.00  0.00     0.170 HD
HETATM   35  O1  UNL     1      -8.178  -0.710   1.515  1.00  0.00    -0.268 OA
HETATM   36  C4  UNL     1      -6.325  -1.587   0.428  1.00  0.00     0.119 A 
HETATM   37  C5  UNL     1      -5.168  -1.442  -0.161  1.00  0.00     0.125 A 
HETATM   38  N2  UNL     1      -4.427  -2.550  -0.692  1.00  0.00    -0.082 NA
ENDBRANCH  28  29
ENDBRANCH  27  28
BRANCH  27  39
HETATM   39  O2  UNL     1      -2.274   1.115   1.047  1.00  0.00    -0.384 OA
ATOM     40  H2  UNL     1      -1.586   1.165   1.700  1.00  0.00     0.210 HD
ENDBRANCH  27  39
ENDBRANCH  24  27
ENDBRANCH  21  23
ENDBRANCH   9  21
ENDBRANCH   1   5
TORSDOF 8
