REMARK  13 active torsions:
REMARK  status: ('A' for Active; 'I' for Inactive)
REMARK    1  A    between atoms: N1_1  and  C1_5 
REMARK    2  A    between atoms: C1_5  and  C2_6 
REMARK    3  A    between atoms: C5_9  and  N2_10 
REMARK    4  A    between atoms: C6_14  and  O1_15 
REMARK    5  A    between atoms: O1_15  and  C7_16 
REMARK    6  A    between atoms: C8_17  and  N3_18 
REMARK    7  A    between atoms: C10_23  and  N4_24 
REMARK    8  A    between atoms: N4_24  and  C11_27 
REMARK    9  A    between atoms: C12_30  and  C13_31 
REMARK   10  A    between atoms: C14_33  and  O3_34 
REMARK   11  A    between atoms: C15_36  and  N6_37 
REMARK   12  A    between atoms: C16_41  and  N7_42 
REMARK   13  A    between atoms: C17_46  and  O4_47 
ROOT
HETATM    1  C7  UNL     1      -1.377  -1.224  -0.092  1.00  0.00     0.185 C 
HETATM    2  C8  UNL     1      -0.344  -1.198   1.005  1.00  0.00     0.217 C 
HETATM    3  C9  UNL     1       0.696  -0.146   0.691  1.00  0.00     0.070 C 
HETATM    4  C10 UNL     1       1.627  -0.725  -0.359  1.00  0.00     0.223 C 
HETATM    5  C16 UNL     1       0.715  -1.286  -1.464  1.00  0.00     0.245 C 
HETATM    6  C17 UNL     1      -0.670  -0.706  -1.353  1.00  0.00     0.181 C 
ENDROOT
BRANCH   4   7
HETATM    7  N4  UNL     1       2.522   0.256  -0.903  1.00  0.00    -0.046 N 
ATOM      8  H42 UNL     1       3.043  -0.123  -1.694  1.00  0.00     0.279 HD
ATOM      9  H41 UNL     1       2.007   0.995  -1.383  1.00  0.00     0.279 HD
BRANCH   7  10
HETATM   10  C11 UNL     1       3.410   0.804   0.083  1.00  0.00     0.338 C 
HETATM   11  N5  UNL     1       4.062   2.011  -0.414  1.00  0.00    -0.065 NA
HETATM   12  O2  UNL     1       5.087   1.707  -1.241  1.00  0.00    -0.276 OA
HETATM   13  C12 UNL     1       6.130   1.254  -0.439  1.00  0.00     0.188 C 
HETATM   14  C14 UNL     1       5.761  -0.061   0.145  1.00  0.00     0.183 C 
HETATM   15  C15 UNL     1       4.364  -0.146   0.708  1.00  0.00     0.263 C 
BRANCH  13  16
HETATM   16  C13 UNL     1       6.567   2.288   0.573  1.00  0.00     0.122 C 
HETATM   17  S1  UNL     1       7.132   3.788  -0.309  1.00  0.00    -0.095 SA
ENDBRANCH  13  16
BRANCH  14  18
HETATM   18  O3  UNL     1       5.885  -1.027  -0.874  1.00  0.00    -0.391 OA
ATOM     19  H3  UNL     1       5.649  -1.868  -0.501  1.00  0.00     0.210 HD
ENDBRANCH  14  18
BRANCH  15  20
HETATM   20  N6  UNL     1       4.483   0.052   2.156  1.00  0.00    -0.069 N 
ATOM     21  H63 UNL     1       4.728   1.017   2.376  1.00  0.00     0.275 HD
ATOM     22  H62 UNL     1       3.570   0.008   2.609  1.00  0.00     0.275 HD
ATOM     23  H61 UNL     1       5.139  -0.601   2.585  1.00  0.00     0.275 HD
ENDBRANCH  15  20
ENDBRANCH   7  10
ENDBRANCH   4   7
BRANCH   5  24
HETATM   24  N7  UNL     1       1.255  -0.817  -2.734  1.00  0.00    -0.070 N 
ATOM     25  H73 UNL     1       1.361   0.197  -2.776  1.00  0.00     0.274 HD
ATOM     26  H72 UNL     1       2.238  -1.055  -2.865  1.00  0.00     0.274 HD
ATOM     27  H71 UNL     1       0.650  -1.189  -3.467  1.00  0.00     0.274 HD
ENDBRANCH   5  24
BRANCH   2  28
HETATM   28  N3  UNL     1      -0.931  -0.857   2.290  1.00  0.00    -0.072 N 
ATOM     29  H33 UNL     1      -1.444   0.023   2.242  1.00  0.00     0.274 HD
ATOM     30  H32 UNL     1      -1.704  -1.480   2.522  1.00  0.00     0.274 HD
ATOM     31  H31 UNL     1      -0.232  -0.839   3.032  1.00  0.00     0.274 HD
ENDBRANCH   2  28
BRANCH   6  32
HETATM   32  O4  UNL     1      -1.370  -1.137  -2.495  1.00  0.00    -0.391 OA
ATOM     33  H4  UNL     1      -0.933  -0.817  -3.275  1.00  0.00     0.210 HD
ENDBRANCH   6  32
BRANCH   1  34
HETATM   34  O1  UNL     1      -2.394  -0.391   0.198  1.00  0.00    -0.349 OA
BRANCH  34  35
HETATM   35  C6  UNL     1      -3.669  -0.894   0.155  1.00  0.00     0.291 C 
HETATM   36  C5  UNL     1      -4.415  -0.914   1.426  1.00  0.00     0.238 C 
HETATM   37  C4  UNL     1      -5.871  -1.239   1.128  1.00  0.00     0.040 C 
HETATM   38  C3  UNL     1      -6.448  -0.077   0.337  1.00  0.00     0.036 C 
HETATM   39  C2  UNL     1      -5.385   0.537  -0.549  1.00  0.00     0.150 C 
HETATM   40  O5  UNL     1      -4.376  -0.323  -0.855  1.00  0.00    -0.352 OA
BRANCH  36  41
HETATM   41  N2  UNL     1      -4.429   0.376   2.126  1.00  0.00    -0.070 N 
ATOM     42  H23 UNL     1      -4.915   1.113   1.615  1.00  0.00     0.274 HD
ATOM     43  H22 UNL     1      -5.027   0.386   2.952  1.00  0.00     0.274 HD
ATOM     44  H21 UNL     1      -3.453   0.594   2.326  1.00  0.00     0.274 HD
ENDBRANCH  36  41
BRANCH  39  45
HETATM   45  C1  UNL     1      -6.078   0.923  -1.855  1.00  0.00     0.261 C 
BRANCH  45  46
HETATM   46  N1  UNL     1      -5.094   1.555  -2.710  1.00  0.00    -0.077 N 
ATOM     47  H13 UNL     1      -4.628   2.344  -2.261  1.00  0.00     0.274 HD
ATOM     48  H12 UNL     1      -4.268   0.976  -2.857  1.00  0.00     0.274 HD
ATOM     49  H11 UNL     1      -5.557   1.813  -3.582  1.00  0.00     0.274 HD
ENDBRANCH  45  46
ENDBRANCH  39  45
ENDBRANCH  34  35
ENDBRANCH   1  34
TORSDOF 13
