REMARK  16 active torsions:
REMARK  status: ('A' for Active; 'I' for Inactive)
REMARK    1  A    between atoms: C2_2  and  O1_4 
REMARK    2  A    between atoms: C2_2  and  C4_6 
REMARK    3  A    between atoms: C4_6  and  C5_7 
REMARK    4  A    between atoms: C5_7  and  C6_8 
REMARK    5  A    between atoms: C8_14  and  N3_15 
REMARK    6  A    between atoms: N3_15  and  C9_17 
REMARK    7  A    between atoms: C9_17  and  C10_18 
REMARK    8  A    between atoms: C10_18  and  O2_19 
REMARK    9  A    between atoms: C10_18  and  C11_21 
REMARK   10  A    between atoms: C11_21  and  O3_22 
REMARK   11  A    between atoms: C11_21  and  C12_24 
REMARK   12  A    between atoms: C11_21  and  N4_27 
REMARK   13  A    between atoms: C12_24  and  O4_25 
REMARK   14  A    between atoms: C14_35  and  N8_36 
REMARK   15  A    between atoms: N8_36  and  N9_38 
REMARK   16  A    between atoms: C16_44  and  N11_45 
ROOT
HETATM    1  C6  UNL     1       3.500   0.513   0.568  1.00  0.00     0.164 A 
HETATM    2  N1  UNL     1       2.350  -0.119   0.302  1.00  0.00    -0.319 N 
ATOM      3  H1  UNL     1       2.378  -1.062  -0.087  1.00  0.00     0.169 HD
HETATM    4  C7  UNL     1       1.156   0.461   0.536  1.00  0.00     0.140 A 
HETATM    5  N2  UNL     1      -0.001  -0.209   0.254  1.00  0.00    -0.324 N 
ATOM      6  H2  UNL     1       0.043  -1.151  -0.134  1.00  0.00     0.169 HD
HETATM    7  C8  UNL     1      -1.186   0.356   0.481  1.00  0.00     0.149 A 
HETATM    8  C14 UNL     1      -1.244   1.650   1.016  1.00  0.00     0.165 A 
HETATM    9  N10 UNL     1      -0.092   2.278   1.281  1.00  0.00    -0.332 N 
ATOM     10  H10 UNL     1      -0.132   3.220   1.670  1.00  0.00     0.168 HD
HETATM   11  C15 UNL     1       1.111   1.730   1.061  1.00  0.00     0.122 A 
HETATM   12  C16 UNL     1       2.290   2.388   1.338  1.00  0.00     0.132 A 
HETATM   13  N12 UNL     1       3.441   1.754   1.081  1.00  0.00    -0.320 N 
ATOM     14  H12 UNL     1       4.316   2.237   1.285  1.00  0.00     0.169 HD
ENDROOT
BRANCH   7  15
HETATM   15  N3  UNL     1      -2.318  -0.209   0.239  1.00  0.00    -0.370 N 
ATOM     16  H3  UNL     1      -3.143   0.347   0.465  1.00  0.00     0.161 HD
BRANCH  15  17
HETATM   17  C9  UNL     1      -2.576  -1.490  -0.295  1.00  0.00     0.158 C 
BRANCH  17  18
HETATM   18  C10 UNL     1      -3.706  -1.635  -1.243  1.00  0.00     0.197 C 
BRANCH  18  19
HETATM   19  O2  UNL     1      -3.585  -0.875  -2.410  1.00  0.00    -0.389 OA
ATOM     20  H2  UNL     1      -4.309  -0.968  -3.018  1.00  0.00     0.210 HD
ENDBRANCH  18  19
BRANCH  18  21
HETATM   21  C11 UNL     1      -5.089  -1.434  -0.706  1.00  0.00     0.218 C 
BRANCH  21  22
HETATM   22  O3  UNL     1      -5.943  -1.953  -1.739  1.00  0.00    -0.364 OA
ATOM     23  H3  UNL     1      -6.821  -1.825  -1.398  1.00  0.00     0.213 HD
ENDBRANCH  21  22
BRANCH  21  24
HETATM   24  C12 UNL     1      -5.441  -2.198   0.517  1.00  0.00     0.231 C 
BRANCH  24  25
HETATM   25  O4  UNL     1      -4.751  -1.812   1.659  1.00  0.00    -0.396 OA
ATOM     26  H4  UNL     1      -4.976  -2.301   2.442  1.00  0.00     0.209 HD
ENDBRANCH  24  25
ENDBRANCH  21  24
BRANCH  21  27
HETATM   27  N4  UNL     1      -5.459  -0.022  -0.572  1.00  0.00    -0.177 N 
HETATM   28  N5  UNL     1      -6.268   0.446   0.370  1.00  0.00    -0.274 N 
HETATM   29  C13 UNL     1      -6.383   1.758   0.167  1.00  0.00     0.217 A 
ATOM     30  H5  UNL     1      -6.717  -0.096   1.109  1.00  0.00     0.189 HD
HETATM   31  N6  UNL     1      -5.635   2.103  -0.914  1.00  0.00    -0.279 N 
HETATM   32  N7  UNL     1      -5.086   0.979  -1.334  1.00  0.00    -0.222 N 
ATOM     33  H6  UNL     1      -5.522   3.034  -1.316  1.00  0.00     0.189 HD
ATOM     34  H7  UNL     1      -4.461   0.900  -2.136  1.00  0.00     0.210 HD
ENDBRANCH  21  27
ENDBRANCH  18  21
ENDBRANCH  17  18
ENDBRANCH  15  17
ENDBRANCH   7  15
BRANCH   8  35
HETATM   35  N8  UNL     1      -2.509   2.260   1.275  1.00  0.00    -0.289 N 
ATOM     36  H8  UNL     1      -3.376   1.758   1.085  1.00  0.00     0.188 HD
BRANCH  35  37
HETATM   37  N9  UNL     1      -2.538   3.546   1.789  1.00  0.00    -0.344 N 
ATOM     38  H92 UNL     1      -1.662   4.035   1.974  1.00  0.00     0.176 HD
ATOM     39  H91 UNL     1      -3.442   3.982   1.974  1.00  0.00     0.176 HD
ENDBRANCH  35  37
ENDBRANCH   8  35
BRANCH   1  40
HETATM   40  C5  UNL     1       4.772  -0.138   0.304  1.00  0.00    -0.027 C 
BRANCH  40  41
HETATM   41  C4  UNL     1       5.827  -0.674   0.064  1.00  0.00    -0.061 C 
BRANCH  41  42
HETATM   42  C2  UNL     1       7.110  -1.320  -0.252  1.00  0.00     0.114 C 
HETATM   43  C1  UNL     1       7.039  -2.013  -1.610  1.00  0.00     0.060 C 
HETATM   44  C3  UNL     1       8.240  -0.320  -0.342  1.00  0.00     0.060 C 
BRANCH  42  45
HETATM   45  O1  UNL     1       7.404  -2.252   0.733  1.00  0.00    -0.378 OA
ATOM     46  H1  UNL     1       7.448  -1.821   1.578  1.00  0.00     0.211 HD
ENDBRANCH  42  45
ENDBRANCH  41  42
ENDBRANCH  40  41
ENDBRANCH   1  40
BRANCH  12  47
HETATM   47  N11 UNL     1       2.216   3.579   1.829  1.00  0.00    -0.383 N 
ATOM     48 2H11 UNL     1       1.339   4.062   2.025  1.00  0.00     0.157 HD
ATOM     49 1H11 UNL     1       3.089   4.066   2.034  1.00  0.00     0.157 HD
ENDBRANCH  12  47
TORSDOF 16
