REMARK  3 active torsions:
REMARK  status: ('A' for Active; 'I' for Inactive)
REMARK       I    between atoms: C1_2  and  N1_3 
REMARK    1  A    between atoms: C1_2  and  C9_12 
REMARK    2  A    between atoms: N1_3  and  C2_5 
REMARK    3  A    between atoms: N2_16  and  C13_17 
ROOT
HETATM    1  C9  UNL     1      -0.551   1.572  -0.677  1.00  0.00     0.095 C 
HETATM    2  C10 UNL     1      -0.708   1.938   0.768  1.00  0.00     0.017 C 
HETATM    3  C11 UNL     1      -2.042   2.643   1.027  1.00  0.00     0.020 C 
HETATM    4  C12 UNL     1      -3.192   1.723   0.733  1.00  0.00     0.117 C 
HETATM    5  N2  UNL     1      -2.717   0.705  -0.148  1.00  0.00    -0.407 N 
HETATM    6  C18 UNL     1      -1.899   1.153  -1.214  1.00  0.00     0.131 C 
ENDROOT
BRANCH   1   7
HETATM    7  C1  UNL     1       0.444   0.491  -0.883  1.00  0.00     0.223 C 
HETATM    8  O1  UNL     1       0.101  -0.594  -1.418  1.00  0.00    -0.273 OA
HETATM    9  N1  UNL     1       1.789   0.646  -0.489  1.00  0.00    -0.356 N 
ATOM     10  H1  UNL     1       2.064   1.527  -0.055  1.00  0.00     0.162 HD
BRANCH   9  11
HETATM   11  C2  UNL     1       2.804  -0.374  -0.665  1.00  0.00     0.084 C 
HETATM   12  C3  UNL     1       3.819   0.119  -1.629  1.00  0.00     0.025 C 
HETATM   13  C4  UNL     1       5.198  -0.382  -1.480  1.00  0.00     0.002 C 
HETATM   14  C5  UNL     1       5.355  -1.682  -0.763  1.00  0.00     0.000 C 
HETATM   15  C6  UNL     1       5.657  -1.354   0.694  1.00  0.00     0.000 C 
HETATM   16  C7  UNL     1       4.592  -0.336   1.105  1.00  0.00     0.002 C 
HETATM   17  C8  UNL     1       3.280  -0.845   0.645  1.00  0.00     0.025 C 
ENDBRANCH   9  11
ENDBRANCH   1   7
BRANCH   5  18
HETATM   18  C13 UNL     1      -3.590  -0.360  -0.418  1.00  0.00     0.079 C 
HETATM   19  C14 UNL     1      -3.971  -1.188   0.775  1.00  0.00     0.025 C 
HETATM   20  C15 UNL     1      -4.978  -2.154   0.136  1.00  0.00     0.002 C 
HETATM   21  C16 UNL     1      -5.831  -1.179  -0.661  1.00  0.00     0.002 C 
HETATM   22  C17 UNL     1      -4.924  -0.001  -0.997  1.00  0.00     0.025 C 
ENDBRANCH   5  18
TORSDOF 3
