REMARK  3 active torsions:
REMARK  status: ('A' for Active; 'I' for Inactive)
REMARK       I    between atoms: C1_2  and  N1_3 
REMARK    1  A    between atoms: C1_2  and  C8_11 
REMARK    2  A    between atoms: N1_3  and  C2_5 
REMARK    3  A    between atoms: N2_14  and  C11_15 
ROOT
HETATM    1  C8  UNL     1       0.103   0.449   0.538  1.00  0.00     0.107 C 
HETATM    2  C9  UNL     1       0.402  -0.670   1.498  1.00  0.00     0.046 C 
HETATM    3  C10 UNL     1       1.922  -0.704   1.437  1.00  0.00     0.273 C 
HETATM    4  N2  UNL     1       2.319  -0.273   0.136  1.00  0.00     0.093 N 
HETATM    5  C17 UNL     1       1.150   0.272  -0.542  1.00  0.00     0.287 C 
ENDROOT
BRANCH   1   6
HETATM    6  C1  UNL     1      -1.285   0.396  -0.017  1.00  0.00     0.223 C 
HETATM    7  O1  UNL     1      -1.373   0.459  -1.265  1.00  0.00    -0.273 OA
HETATM    8  N1  UNL     1      -2.419   0.286   0.784  1.00  0.00    -0.356 N 
ATOM      9  H1  UNL     1      -2.237   0.223   1.786  1.00  0.00     0.162 HD
BRANCH   8  10
HETATM   10  C2  UNL     1      -3.805   0.248   0.413  1.00  0.00     0.084 C 
HETATM   11  C3  UNL     1      -4.309  -1.152   0.310  1.00  0.00     0.025 C 
HETATM   12  C4  UNL     1      -5.654  -1.324  -0.287  1.00  0.00     0.002 C 
HETATM   13  C5  UNL     1      -6.265  -0.048  -0.814  1.00  0.00     0.000 C 
HETATM   14  C6  UNL     1      -5.159   0.579  -1.681  1.00  0.00     0.002 C 
HETATM   15  C7  UNL     1      -4.180   1.160  -0.676  1.00  0.00     0.025 C 
ENDBRANCH   8  10
ENDBRANCH   1   6
BRANCH   4  16
HETATM   16  C11 UNL     1       3.355   0.700   0.073  1.00  0.00     0.223 C 
HETATM   17  C12 UNL     1       4.053   0.552  -1.288  1.00  0.00     0.036 C 
HETATM   18  C13 UNL     1       4.632  -0.846  -1.309  1.00  0.00     0.002 C 
HETATM   19  C14 UNL     1       5.811  -0.862  -0.340  1.00  0.00     0.000 C 
HETATM   20  C15 UNL     1       5.245  -0.643   1.048  1.00  0.00     0.002 C 
HETATM   21  C16 UNL     1       4.416   0.620   1.112  1.00  0.00     0.036 C 
ENDBRANCH   4  16
TORSDOF 3
