REMARK  1 active torsions:
REMARK  status: ('A' for Active; 'I' for Inactive)
REMARK    1  A    between atoms: C4_5  and  C5_6 
ROOT
HETATM    1  C5  UNL     1      -0.618  -0.193   0.213  1.00  0.00    -0.033 C 
HETATM    2  C6  UNL     1      -1.231  -1.471  -0.370  1.00  0.00     0.010 C 
HETATM    3  C7  UNL     1      -2.709  -1.552  -0.134  1.00  0.00     0.005 C 
HETATM    4  C8  UNL     1      -3.306  -0.181  -0.374  1.00  0.00    -0.014 C 
HETATM    5  C9  UNL     1      -3.532   0.450   0.960  1.00  0.00     0.009 C 
HETATM    6  C10 UNL     1      -2.248   0.966   1.580  1.00  0.00    -0.013 C 
HETATM    7  C11 UNL     1      -1.674   1.960   0.587  1.00  0.00     0.010 C 
HETATM    8  C12 UNL     1      -1.130   1.020  -0.469  1.00  0.00    -0.005 C 
HETATM    9  C13 UNL     1      -2.373   0.590  -1.268  1.00  0.00     0.010 C 
HETATM   10  C14 UNL     1      -1.164  -0.084   1.620  1.00  0.00     0.015 C 
ENDROOT
BRANCH   1  11
HETATM   11  C4  UNL     1       0.857  -0.365   0.253  1.00  0.00    -0.002 C 
HETATM   12  C3  UNL     1       1.480  -0.603  -1.095  1.00  0.00     0.036 C 
HETATM   13  C2  UNL     1       2.892  -1.152  -0.907  1.00  0.00     0.272 C 
HETATM   14  N1  UNL     1       3.609  -0.488   0.138  1.00  0.00     0.084 N 
HETATM   15  C1  UNL     1       4.980  -0.314  -0.252  1.00  0.00     0.309 C 
HETATM   16  C16 UNL     1       3.070   0.777   0.520  1.00  0.00     0.272 C 
HETATM   17  C15 UNL     1       1.620   0.710   0.941  1.00  0.00     0.036 C 
ENDBRANCH   1  11
TORSDOF 1
