REMARK  2 active torsions:
REMARK  status: ('A' for Active; 'I' for Inactive)
REMARK    1  A    between atoms: C1_2  and  C2_4 
REMARK    2  A    between atoms: N4_11  and  N5_12 
ROOT
HETATM    1  C2  UNL     1      -0.182  -0.131   0.068  1.00  0.00     0.211 A 
HETATM    2  N2  UNL     1       0.366  -1.316   0.329  1.00  0.00    -0.276 N 
ATOM      3  H2  UNL     1      -0.150  -2.143   0.628  1.00  0.00     0.189 HD
HETATM    4  N3  UNL     1       1.675  -1.268   0.145  1.00  0.00    -0.248 N 
ATOM      5  H3  UNL     1       2.325  -2.042   0.278  1.00  0.00     0.192 HD
HETATM    6  C3  UNL     1       1.998  -0.039  -0.242  1.00  0.00     0.361 A 
HETATM    7  O2  UNL     1       3.125   0.453  -0.527  1.00  0.00    -0.243 OA
HETATM    8  N4  UNL     1       0.839   0.671  -0.290  1.00  0.00    -0.188 N 
ENDROOT
BRANCH   1   9
HETATM    9  C1  UNL     1      -1.586   0.258   0.142  1.00  0.00     0.302 C 
HETATM   10  N1  UNL     1      -2.552  -0.709   0.540  1.00  0.00    -0.054 NA
HETATM   11  O1  UNL     1      -1.931   1.434  -0.143  1.00  0.00    -0.268 OA
ENDBRANCH   1   9
BRANCH   8  12
HETATM   12  N5  UNL     1       0.685   2.005  -0.645  1.00  0.00    -0.333 N 
ATOM     13  H52 UNL     1      -0.184   2.537  -0.681  1.00  0.00     0.177 HD
ATOM     14  H51 UNL     1       1.458   2.612  -0.916  1.00  0.00     0.177 HD
ENDBRANCH   8  12
TORSDOF 2
