REMARK  1 active torsions:
REMARK  status: ('A' for Active; 'I' for Inactive)
REMARK       I    between atoms: C1_4  and  N3_6 
REMARK    1  A    between atoms: N3_6  and  N4_8 
ROOT
HETATM    1  N4  UNL     1       0.480  -0.279  -0.341  1.00  0.00    -0.135 N 
HETATM    2  N5  UNL     1       0.870   0.634   0.532  1.00  0.00    -0.225 N 
ATOM      3  H5  UNL     1       0.269   1.262   1.067  1.00  0.00     0.194 HD
HETATM    4  C2  UNL     1       2.220   0.574   0.578  1.00  0.00     0.344 A 
HETATM    5  O1  UNL     1       2.973   1.297   1.303  1.00  0.00    -0.245 OA
HETATM    6  N6  UNL     1       2.641  -0.377  -0.268  1.00  0.00    -0.257 N 
ATOM      7  H6  UNL     1       3.610  -0.643  -0.440  1.00  0.00     0.175 HD
HETATM    8  C3  UNL     1       1.559  -0.914  -0.846  1.00  0.00     0.365 A 
HETATM    9  O2  UNL     1       1.483  -1.831  -1.699  1.00  0.00    -0.243 OA
ENDROOT
BRANCH   1  10
HETATM   10  N3  UNL     1      -0.870  -0.546  -0.690  1.00  0.00    -0.248 N 
HETATM   11  C1  UNL     1      -1.915   0.199  -0.081  1.00  0.00     0.202 C 
HETATM   12  N1  UNL     1      -2.390   1.270  -0.609  1.00  0.00    -0.372 N 
HETATM   13  N2  UNL     1      -2.472  -0.232   1.152  1.00  0.00    -0.062 NA
ATOM     14  H12 UNL     1      -3.140   1.805  -0.172  1.00  0.00     0.158 HD
ATOM     15  H11 UNL     1      -1.990   1.580  -1.495  1.00  0.00     0.158 HD
ATOM     16  H3  UNL     1      -1.089  -1.270  -1.375  1.00  0.00     0.192 HD
ENDBRANCH   1  10
TORSDOF 1
