REMARK  3 active torsions:
REMARK  status: ('A' for Active; 'I' for Inactive)
REMARK    1  A    between atoms: N1_1  and  N2_4 
REMARK       I    between atoms: N2_4  and  C1_6 
REMARK    2  A    between atoms: C1_6  and  C2_8 
REMARK    3  A    between atoms: N3_10  and  N4_11 
ROOT
HETATM    1  C2  UNL     1      -0.271  -0.045  -0.038  1.00  0.00     0.135 A 
HETATM    2  C3  UNL     1       0.905  -0.704   0.247  1.00  0.00     0.157 A 
HETATM    3  N3  UNL     1       2.054  -0.030   0.063  1.00  0.00    -0.220 N 
HETATM    4  C4  UNL     1       2.055   1.235  -0.382  1.00  0.00     0.359 A 
HETATM    5  O2  UNL     1       3.159   1.826  -0.539  1.00  0.00    -0.243 OA
HETATM    6  N5  UNL     1       0.909   1.881  -0.661  1.00  0.00    -0.249 N 
ATOM      7  H5  UNL     1       0.915   2.844  -0.999  1.00  0.00     0.192 HD
HETATM    8  N6  UNL     1      -0.230   1.223  -0.482  1.00  0.00    -0.290 N 
ATOM      9  H6  UNL     1      -1.108   1.698  -0.690  1.00  0.00     0.187 HD
ENDROOT
BRANCH   1  10
HETATM   10  C1  UNL     1      -1.540  -0.725   0.143  1.00  0.00     0.288 C 
HETATM   11  N2  UNL     1      -2.738  -0.043  -0.151  1.00  0.00    -0.271 N 
ATOM     12  H2  UNL     1      -2.713   0.920  -0.487  1.00  0.00     0.189 HD
HETATM   13  O1  UNL     1      -1.564  -1.930   0.565  1.00  0.00    -0.264 OA
BRANCH  11  14
HETATM   14  N1  UNL     1      -3.954  -0.695   0.022  1.00  0.00    -0.342 N 
ATOM     15  H12 UNL     1      -3.962  -1.658   0.359  1.00  0.00     0.176 HD
ATOM     16  H11 UNL     1      -4.821  -0.201  -0.191  1.00  0.00     0.176 HD
ENDBRANCH  11  14
ENDBRANCH   1  10
BRANCH   3  17
HETATM   17  N4  UNL     1       3.253  -0.681   0.346  1.00  0.00    -0.335 N 
ATOM     18  H42 UNL     1       3.252  -1.643   0.684  1.00  0.00     0.177 HD
ATOM     19  H41 UNL     1       4.125  -0.170   0.206  1.00  0.00     0.177 HD
ENDBRANCH   3  17
TORSDOF 3
