REMARK  0 active torsions:
REMARK  status: ('A' for Active; 'I' for Inactive)
ROOT
HETATM    1  O1  UNL     1      -1.859   2.448   0.025  1.00  0.00    -0.246 OA
HETATM    2  C1  UNL     1      -1.406   1.272  -0.104  1.00  0.00     0.337 C 
HETATM    3  N1  UNL     1      -2.209   0.163   0.303  1.00  0.00    -0.249 N 
ATOM      4  H1  UNL     1      -3.141   0.291   0.697  1.00  0.00     0.192 HD
HETATM    5  N2  UNL     1      -1.646  -1.115   0.132  1.00  0.00    -0.262 N 
ATOM      6  H2  UNL     1      -2.176  -1.942   0.406  1.00  0.00     0.190 HD
HETATM    7  C2  UNL     1      -0.342  -1.262  -0.420  1.00  0.00     0.293 C 
HETATM    8  O2  UNL     1      -0.051  -2.358  -0.964  1.00  0.00    -0.267 OA
HETATM    9  C3  UNL     1       0.574  -0.122  -0.317  1.00  0.00     0.290 C 
HETATM   10  N3  UNL     1       1.886  -0.297  -0.878  1.00  0.00    -0.085 NA
HETATM   11  N4  UNL     1       2.406   0.428   0.198  1.00  0.00    -0.267 N 
ATOM     12  H4  UNL     1       3.228   1.008   0.365  1.00  0.00     0.185 HD
HETATM   13  C4  UNL     1       1.285   0.000   0.956  1.00  0.00     0.290 C 
HETATM   14  O3  UNL     1       1.089  -0.166   2.166  1.00  0.00    -0.267 OA
HETATM   15  N5  UNL     1      -0.103   1.105  -0.654  1.00  0.00    -0.301 N 
ATOM     16  H5  UNL     1       0.326   1.812  -1.251  1.00  0.00     0.167 HD
ENDROOT
TORSDOF 0
