REMARK  2 active torsions:
REMARK  status: ('A' for Active; 'I' for Inactive)
REMARK       I    between atoms: N1_2  and  C2_4 
REMARK       I    between atoms: C2_4  and  N2_6 
REMARK    1  A    between atoms: N2_6  and  N3_8 
REMARK    2  A    between atoms: N3_8  and  C3_10 
ROOT
HETATM    1  C3  UNL     1      -1.616   0.371  -0.670  1.00  0.00     0.207 A 
HETATM    2  N4  UNL     1      -2.064  -0.502   0.241  1.00  0.00    -0.265 N 
ATOM      3  H4  UNL     1      -1.517  -1.251   0.665  1.00  0.00     0.190 HD
HETATM    4  N5  UNL     1      -3.329  -0.234   0.500  1.00  0.00    -0.238 N 
ATOM      5  H5  UNL     1      -3.906  -0.754   1.162  1.00  0.00     0.208 HD
HETATM    6  N6  UNL     1      -3.750   0.795  -0.210  1.00  0.00    -0.249 N 
ATOM      7  H6  UNL     1      -4.683   1.206  -0.200  1.00  0.00     0.192 HD
HETATM    8  C4  UNL     1      -2.685   1.197  -0.959  1.00  0.00     0.307 A 
HETATM    9  O2  UNL     1      -2.757   2.166  -1.752  1.00  0.00    -0.262 OA
ENDROOT
BRANCH   1  10
HETATM   10  N3  UNL     1      -0.462   0.496  -1.219  1.00  0.00    -0.276 N 
ATOM     11  H3  UNL     1      -0.350   1.248  -1.899  1.00  0.00     0.189 HD
BRANCH  10  12
HETATM   12  N2  UNL     1       0.636  -0.294  -0.971  1.00  0.00    -0.250 N 
HETATM   13  C2  UNL     1       1.717   0.085  -0.122  1.00  0.00     0.334 C 
HETATM   14  N1  UNL     1       2.832  -0.727   0.126  1.00  0.00    -0.346 N 
HETATM   15  O1  UNL     1       1.650   1.211   0.427  1.00  0.00    -0.246 OA
HETATM   16  C1  UNL     1       3.883  -0.278   0.993  1.00  0.00     0.151 C 
ATOM     17  H1  UNL     1       2.897  -1.645  -0.314  1.00  0.00     0.163 HD
ATOM     18  H2  UNL     1       0.680  -1.208  -1.422  1.00  0.00     0.192 HD
ENDBRANCH  10  12
ENDBRANCH   1  10
TORSDOF 2
