REMARK  2 active torsions:
REMARK  status: ('A' for Active; 'I' for Inactive)
REMARK    1  A    between atoms: N2_3  and  C2_5 
REMARK    2  A    between atoms: C3_12  and  N6_13 
REMARK       I    between atoms: N6_13  and  C4_15 
REMARK       I    between atoms: C4_15  and  N7_16 
REMARK       I    between atoms: C4_15  and  N8_20 
ROOT
HETATM    1  N1  UNL     1      -4.492  -1.405  -1.692  1.00  0.00    -0.172 NA
HETATM    2  C1  UNL     1      -3.372  -1.357  -1.376  1.00  0.00     0.183 C 
HETATM    3  N2  UNL     1      -2.019  -1.308  -1.018  1.00  0.00    -0.275 N 
ATOM      4  H2  UNL     1      -1.414  -2.107  -1.205  1.00  0.00     0.180 HD
ENDROOT
BRANCH   3   5
HETATM    5  C2  UNL     1      -1.535  -0.250  -0.450  1.00  0.00     0.176 A 
HETATM    6  N3  UNL     1      -2.216   0.862  -0.148  1.00  0.00    -0.267 N 
HETATM    7  N4  UNL     1      -1.411   1.741   0.424  1.00  0.00    -0.239 N 
ATOM      8  H3  UNL     1      -3.208   1.009  -0.332  1.00  0.00     0.190 HD
HETATM    9  N5  UNL     1      -0.220   1.185   0.486  1.00  0.00    -0.268 N 
ATOM     10  H4  UNL     1      -1.665   2.672   0.754  1.00  0.00     0.208 HD
HETATM   11  C3  UNL     1      -0.232  -0.049  -0.040  1.00  0.00     0.167 A 
ATOM     12  H5  UNL     1       0.605   1.634   0.883  1.00  0.00     0.190 HD
BRANCH  11  13
HETATM   13  N6  UNL     1       0.678  -0.920  -0.182  1.00  0.00    -0.323 N 
HETATM   14  C4  UNL     1       2.050  -0.808   0.206  1.00  0.00     0.481 C 
HETATM   15  N7  UNL     1       2.733   0.060  -0.734  1.00  0.00    -0.033 N 
HETATM   16  N8  UNL     1       2.237  -0.319   1.554  1.00  0.00    -0.033 N 
ATOM     17  H73 UNL     1       2.625  -0.250  -1.700  1.00  0.00     0.278 HD
ATOM     18  H72 UNL     1       2.279   0.969  -0.826  1.00  0.00     0.278 HD
ATOM     19  H71 UNL     1       3.711   0.140  -0.457  1.00  0.00     0.278 HD
ATOM     20  H83 UNL     1       1.753   0.569   1.684  1.00  0.00     0.278 HD
ATOM     21  H82 UNL     1       1.721  -0.894   2.220  1.00  0.00     0.278 HD
ATOM     22  H81 UNL     1       3.215  -0.239   1.831  1.00  0.00     0.278 HD
ATOM     23  H6  UNL     1       0.401  -1.798  -0.622  1.00  0.00     0.165 HD
ENDBRANCH  11  13
ENDBRANCH   3   5
TORSDOF 2
