REMARK  0 active torsions:
REMARK  status: ('A' for Active; 'I' for Inactive)
REMARK       I    between atoms: C1_4  and  N3_6 
ROOT
HETATM    1  N1  UNL     1      -3.357  -0.676   1.391  1.00  0.00    -0.373 N 
ATOM      2  H11 UNL     1      -3.123  -1.339   2.130  1.00  0.00     0.158 HD
ATOM      3  H12 UNL     1      -4.235  -0.156   1.397  1.00  0.00     0.158 HD
HETATM    4  C1  UNL     1      -2.538  -0.471   0.415  1.00  0.00     0.187 C 
HETATM    5  N2  UNL     1      -2.867   0.460  -0.623  1.00  0.00    -0.064 NA
HETATM    6  N3  UNL     1      -1.330  -1.186   0.407  1.00  0.00    -0.313 N 
ATOM      7  H3  UNL     1      -1.393  -2.203   0.366  1.00  0.00     0.170 HD
HETATM    8  C2  UNL     1      -0.167  -0.680   0.446  1.00  0.00     0.167 C 
HETATM    9  N4  UNL     1      -0.077   0.732   0.502  1.00  0.00    -0.301 N 
ATOM     10  H4  UNL     1      -0.893   1.215   0.878  1.00  0.00     0.171 HD
HETATM   11  C3  UNL     1       1.018   1.573   0.096  1.00  0.00     0.315 C 
HETATM   12  O1  UNL     1       0.744   2.786  -0.054  1.00  0.00    -0.262 OA
HETATM   13  C4  UNL     1       2.394   1.153  -0.156  1.00  0.00     0.316 C 
HETATM   14  O2  UNL     1       3.163   2.053  -0.607  1.00  0.00    -0.262 OA
HETATM   15  N5  UNL     1       3.023  -0.107   0.023  1.00  0.00    -0.282 N 
ATOM     16  H5  UNL     1       4.043  -0.108   0.052  1.00  0.00     0.172 HD
HETATM   17  C5  UNL     1       2.379  -1.372   0.166  1.00  0.00     0.302 C 
HETATM   18  O3  UNL     1       3.119  -2.368   0.055  1.00  0.00    -0.264 OA
HETATM   19  C6  UNL     1       0.946  -1.621   0.428  1.00  0.00     0.283 C 
HETATM   20  O4  UNL     1       0.667  -2.805   0.665  1.00  0.00    -0.278 OA
ENDROOT
TORSDOF 0
