REMARK  4 active torsions:
REMARK  status: ('A' for Active; 'I' for Inactive)
REMARK    1  A    between atoms: C2_2  and  C3_3 
REMARK    2  A    between atoms: C3_3  and  C4_4 
REMARK    3  A    between atoms: C4_4  and  N1_6 
REMARK    4  A    between atoms: N2_15  and  N3_17 
REMARK       I    between atoms: N3_17  and  C13_19 
ROOT
HETATM    1  C3  UNL     1       1.231  -1.035   0.922  1.00  0.00     0.078 C 
ENDROOT
BRANCH   1   2
HETATM    2  C2  UNL     1       2.480  -1.094   0.146  1.00  0.00     0.002 C 
HETATM    3  C1  UNL     1       3.540  -2.080   0.439  1.00  0.00     0.065 C 
HETATM    4  N2  UNL     1       2.691  -0.275  -0.832  1.00  0.00    -0.307 N 
ATOM      5  H2  UNL     1       1.970   0.413  -1.051  1.00  0.00     0.186 HD
BRANCH   4   6
HETATM    6  N3  UNL     1       3.843  -0.283  -1.597  1.00  0.00    -0.274 N 
HETATM    7  C13 UNL     1       4.973   0.490  -1.256  1.00  0.00     0.200 C 
HETATM    8  N4  UNL     1       6.169   0.022  -1.375  1.00  0.00    -0.372 N 
HETATM    9  N5  UNL     1       4.811   1.809  -0.772  1.00  0.00    -0.062 NA
ATOM     10  H42 UNL     1       6.286  -0.929  -1.724  1.00  0.00     0.158 HD
ATOM     11  H41 UNL     1       6.986   0.581  -1.128  1.00  0.00     0.158 HD
ATOM     12  H3  UNL     1       3.877  -0.866  -2.434  1.00  0.00     0.189 HD
ENDBRANCH   4   6
ENDBRANCH   1   2
BRANCH   1  13
HETATM   13  C4  UNL     1       0.329   0.075   0.402  1.00  0.00     0.082 C 
HETATM   14  C5  UNL     1       1.018   1.415   0.511  1.00  0.00     0.032 C 
BRANCH  13  15
HETATM   15  N1  UNL     1      -0.883   0.034   1.170  1.00  0.00    -0.392 N 
HETATM   16  C6  UNL     1      -2.010   0.291   0.642  1.00  0.00    -0.018 C 
HETATM   17  C7  UNL     1      -2.013   0.632  -0.794  1.00  0.00     0.052 C 
HETATM   18  C12 UNL     1      -3.166   0.208   1.557  1.00  0.00     0.052 C 
HETATM   19  C8  UNL     1      -3.293   1.290  -1.155  1.00  0.00     0.006 C 
HETATM   20  C9  UNL     1      -4.520   0.497  -0.925  1.00  0.00     0.000 C 
HETATM   21  C10 UNL     1      -4.314  -0.876  -0.392  1.00  0.00     0.000 C 
HETATM   22  C11 UNL     1      -4.041  -0.931   1.086  1.00  0.00     0.006 C 
ATOM     23  H1  UNL     1      -0.839  -0.206   2.160  1.00  0.00     0.159 HD
ENDBRANCH  13  15
ENDBRANCH   1  13
TORSDOF 4
