REMARK  6 active torsions:
REMARK  status: ('A' for Active; 'I' for Inactive)
REMARK    1  A    between atoms: C2_2  and  C3_3 
REMARK    2  A    between atoms: C3_3  and  C4_4 
REMARK    3  A    between atoms: C4_4  and  C5_5 
REMARK    4  A    between atoms: C5_5  and  N1_6 
REMARK    5  A    between atoms: N1_6  and  C6_8 
REMARK    6  A    between atoms: C7_11  and  N3_12 
ROOT
HETATM    1  C6  UNL     1      -0.010   0.467   0.790  1.00  0.00     0.680 A 
HETATM    2  N2  UNL     1       0.915   1.299   1.276  1.00  0.00    -0.176 N 
ATOM      3  H2  UNL     1       0.587   2.089   1.832  1.00  0.00     0.186 HD
HETATM    4  C7  UNL     1       2.235   1.183   1.094  1.00  0.00     0.128 A 
HETATM    5  C8  UNL     1       2.742   0.113   0.336  1.00  0.00     0.049 A 
HETATM    6  C9  UNL     1       4.021  -0.172   0.045  1.00  0.00    -0.032 A 
HETATM    7  C10 UNL     1       5.205   0.662   0.510  1.00  0.00     0.050 C 
HETATM    8  C11 UNL     1       4.264  -1.283  -0.719  1.00  0.00    -0.012 A 
HETATM    9  C12 UNL     1       5.597  -1.821  -1.183  1.00  0.00     0.057 C 
HETATM   10  S1  UNL     1       2.697  -1.897  -1.008  1.00  0.00    -0.075 SA
HETATM   11  C13 UNL     1       1.788  -0.734  -0.158  1.00  0.00     0.105 A 
HETATM   12  N4  UNL     1       0.455  -0.564   0.061  1.00  0.00    -0.184 N 
ATOM     13  H4  UNL     1      -0.205  -1.232  -0.336  1.00  0.00     0.185 HD
ENDROOT
BRANCH   1  14
HETATM   14  N1  UNL     1      -1.261   0.667   1.022  1.00  0.00    -0.226 N 
ATOM     15  H1  UNL     1      -1.526   1.475   1.585  1.00  0.00     0.177 HD
BRANCH  14  16
HETATM   16  C5  UNL     1      -2.309  -0.195   0.525  1.00  0.00     0.138 C 
BRANCH  16  17
HETATM   17  C4  UNL     1      -3.592   0.188   1.201  1.00  0.00     0.020 C 
BRANCH  17  18
HETATM   18  C3  UNL     1      -4.733  -0.663   0.745  1.00  0.00     0.001 C 
BRANCH  18  19
HETATM   19  C2  UNL     1      -4.930  -0.511  -0.737  1.00  0.00    -0.004 C 
HETATM   20  C1  UNL     1      -5.230   0.935  -1.109  1.00  0.00     0.005 C 
ENDBRANCH  18  19
ENDBRANCH  17  18
ENDBRANCH  16  17
ENDBRANCH  14  16
ENDBRANCH   1  14
BRANCH   4  21
HETATM   21  N3  UNL     1       2.988   2.075   1.635  1.00  0.00    -0.384 N 
ATOM     22  H32 UNL     1       2.620   2.851   2.185  1.00  0.00     0.157 HD
ATOM     23  H31 UNL     1       3.995   1.987   1.496  1.00  0.00     0.157 HD
ENDBRANCH   4  21
TORSDOF 6
