REMARK  4 active torsions:
REMARK  status: ('A' for Active; 'I' for Inactive)
REMARK       I    between atoms: C1_2  and  N1_3 
REMARK    1  A    between atoms: C1_2  and  C12_23 
REMARK    2  A    between atoms: N1_3  and  C2_5 
REMARK    3  A    between atoms: C5_8  and  N2_9 
REMARK    4  A    between atoms: C6_14  and  C7_15 
ROOT
HETATM    1  C2  UNL     1      -0.893   0.827   1.002  1.00  0.00     0.086 C 
HETATM    2  C3  UNL     1      -0.616   2.243   0.572  1.00  0.00     0.027 C 
HETATM    3  C4  UNL     1       0.391   2.160  -0.548  1.00  0.00     0.031 C 
HETATM    4  C5  UNL     1       0.859   0.742  -0.602  1.00  0.00     0.130 C 
HETATM    5  C11 UNL     1       0.388   0.092   0.682  1.00  0.00     0.054 C 
ENDROOT
BRANCH   4   6
HETATM    6  N2  UNL     1       2.307   0.628  -0.626  1.00  0.00    -0.213 N 
HETATM    7  N3  UNL     1       3.052   1.088  -1.604  1.00  0.00    -0.224 N 
HETATM    8  N4  UNL     1       4.323   0.838  -1.343  1.00  0.00    -0.272 N 
ATOM      9  H3  UNL     1       2.704   1.564  -2.436  1.00  0.00     0.210 HD
HETATM   10  C6  UNL     1       4.375   0.200  -0.163  1.00  0.00     0.117 A 
ATOM     11  H4  UNL     1       5.119   1.085  -1.931  1.00  0.00     0.190 HD
HETATM   12  N5  UNL     1       3.113   0.080   0.266  1.00  0.00    -0.269 N 
ATOM     13  H5  UNL     1       2.821  -0.362   1.138  1.00  0.00     0.190 HD
BRANCH  10  14
HETATM   14  C7  UNL     1       5.625  -0.273   0.517  1.00  0.00     0.061 C 
HETATM   15  C8  UNL     1       6.466  -1.146  -0.385  1.00  0.00     0.049 C 
HETATM   16  C9  UNL     1       7.663  -0.258  -0.031  1.00  0.00     0.171 C 
HETATM   17  F1  UNL     1       8.439  -0.824   0.980  1.00  0.00    -0.249 F 
HETATM   18  C10 UNL     1       6.690   0.794   0.504  1.00  0.00     0.049 C 
ENDBRANCH  10  14
ENDBRANCH   4   6
BRANCH   1  19
HETATM   19  N1  UNL     1      -1.953   0.218   0.216  1.00  0.00    -0.356 N 
HETATM   20  C1  UNL     1      -3.074  -0.415   0.817  1.00  0.00     0.222 C 
HETATM   21  O1  UNL     1      -3.121  -0.431   2.074  1.00  0.00    -0.273 OA
ATOM     22  H1  UNL     1      -1.890   0.246  -0.802  1.00  0.00     0.162 HD
BRANCH  20  23
HETATM   23  C12 UNL     1      -4.134  -1.024  -0.009  1.00  0.00     0.082 C 
HETATM   24  C13 UNL     1      -5.229  -1.639   0.812  1.00  0.00     0.040 C 
HETATM   25  C14 UNL     1      -6.162  -2.369  -0.120  1.00  0.00     0.168 C 
HETATM   26  O2  UNL     1      -6.609  -1.582  -1.164  1.00  0.00    -0.391 OA
HETATM   27  C15 UNL     1      -6.275  -0.244  -1.024  1.00  0.00     0.168 C 
HETATM   28  C16 UNL     1      -4.773  -0.029  -0.954  1.00  0.00     0.040 C 
ENDBRANCH  20  23
ENDBRANCH   1  19
TORSDOF 4
