REMARK  7 active torsions:
REMARK  status: ('A' for Active; 'I' for Inactive)
REMARK    1  A    between atoms: N1_2  and  N2_4 
REMARK    2  A    between atoms: N2_4  and  C2_6 
REMARK    3  A    between atoms: C3_7  and  O1_8 
REMARK    4  A    between atoms: C6_11  and  O2_12 
REMARK    5  A    between atoms: C8_14  and  C9_15 
REMARK    6  A    between atoms: C9_15  and  O3_16 
REMARK    7  A    between atoms: C9_15  and  N3_18 
ROOT
HETATM    1  C2  UNL     1       2.625  -0.904  -0.383  1.00  0.00     0.121 A 
HETATM    2  C3  UNL     1       3.372   0.170   0.001  1.00  0.00     0.102 A 
HETATM    3  C5  UNL     1       2.750   1.185   0.663  1.00  0.00     0.077 A 
HETATM    4  C6  UNL     1       1.401   1.138   0.939  1.00  0.00     0.088 A 
HETATM    5  C8  UNL     1       0.587   0.055   0.559  1.00  0.00     0.089 A 
HETATM    6  C16 UNL     1       1.246  -0.948  -0.099  1.00  0.00     0.164 A 
HETATM    7  F1  UNL     1       0.608  -2.085  -0.412  1.00  0.00    -0.202 F 
ENDROOT
BRANCH   5   8
HETATM    8  C9  UNL     1      -0.769   0.085   1.011  1.00  0.00     0.154 C 
BRANCH   8   9
HETATM    9  O3  UNL     1      -1.002   0.865   2.053  1.00  0.00    -0.345 OA
ATOM     10  H3  UNL     1      -1.903   0.885   2.353  1.00  0.00     0.219 HD
ENDBRANCH   8   9
BRANCH   8  11
HETATM   11  N3  UNL     1      -1.936  -0.548   0.564  1.00  0.00    -0.356 N 
HETATM   12  C10 UNL     1      -3.119  -0.413   1.443  1.00  0.00     0.156 C 
HETATM   13  C11 UNL     1      -4.181   0.286   0.658  1.00  0.00     0.136 C 
HETATM   14  C12 UNL     1      -5.438   0.492   1.488  1.00  0.00     0.041 C 
HETATM   15  O4  UNL     1      -4.517  -0.568  -0.410  1.00  0.00    -0.378 OA
HETATM   16  C13 UNL     1      -3.510  -0.676  -1.306  1.00  0.00     0.136 C 
HETATM   17  C14 UNL     1      -3.890  -1.591  -2.433  1.00  0.00     0.041 C 
HETATM   18  C15 UNL     1      -2.202  -1.178  -0.684  1.00  0.00     0.156 C 
ENDBRANCH   8  11
ENDBRANCH   5   8
BRANCH   4  19
HETATM   19  O2  UNL     1       0.788   2.197   1.622  1.00  0.00    -0.355 OA
HETATM   20  C7  UNL     1       1.520   3.327   2.039  1.00  0.00     0.210 C 
ENDBRANCH   4  19
BRANCH   1  21
HETATM   21  N2  UNL     1       3.233  -1.986  -1.047  1.00  0.00    -0.296 N 
ATOM     22  H2  UNL     1       3.339  -2.858  -0.529  1.00  0.00     0.187 HD
BRANCH  21  23
HETATM   23  N1  UNL     1       3.704  -1.954  -2.368  1.00  0.00    -0.321 N 
HETATM   24  C1  UNL     1       4.957  -2.131  -2.633  1.00  0.00     0.139 C 
ATOM     25  H1  UNL     1       3.048  -1.789  -3.131  1.00  0.00     0.185 HD
ENDBRANCH  21  23
ENDBRANCH   1  21
BRANCH   2  26
HETATM   26  O1  UNL     1       4.738   0.187  -0.297  1.00  0.00    -0.353 OA
HETATM   27  C4  UNL     1       5.495   1.297   0.095  1.00  0.00     0.210 C 
ENDBRANCH   2  26
TORSDOF 7
