REMARK  6 active torsions:
REMARK  status: ('A' for Active; 'I' for Inactive)
REMARK    1  A    between atoms: O1_2  and  C2_3 
REMARK    2  A    between atoms: C2_3  and  C3_5 
REMARK    3  A    between atoms: C3_5  and  N1_7 
REMARK       I    between atoms: N1_7  and  C5_9 
REMARK    4  A    between atoms: C5_9  and  O4_11 
REMARK    5  A    between atoms: O4_11  and  C6_12 
REMARK    6  A    between atoms: C6_12  and  C7_13 
ROOT
HETATM    1  O4  UNL     1       0.095   0.599  -0.736  1.00  0.00    -0.298 OA
ENDROOT
BRANCH   1   2
HETATM    2  C5  UNL     1       1.419   0.934  -0.263  1.00  0.00     0.361 C 
HETATM    3  N1  UNL     1       2.493   1.162  -1.167  1.00  0.00    -0.323 N 
ATOM      4  H1  UNL     1       2.355   1.123  -2.177  1.00  0.00     0.165 HD
HETATM    5  O3  UNL     1       1.482   0.995   0.957  1.00  0.00    -0.238 OA
BRANCH   3   6
HETATM    6  C3  UNL     1       3.809   1.456  -0.584  1.00  0.00     0.182 C 
HETATM    7  C4  UNL     1       3.815   1.898   0.829  1.00  0.00     0.043 C 
BRANCH   6   8
HETATM    8  C2  UNL     1       4.543   0.139  -0.735  1.00  0.00     0.281 C 
HETATM    9  O2  UNL     1       5.355   0.029  -1.721  1.00  0.00    -0.263 OA
BRANCH   8  10
HETATM   10  O1  UNL     1       4.319  -0.902   0.135  1.00  0.00    -0.325 OA
HETATM   11  C1  UNL     1       4.871  -2.168   0.064  1.00  0.00     0.213 C 
ENDBRANCH   8  10
ENDBRANCH   6   8
ENDBRANCH   3   6
ENDBRANCH   1   2
BRANCH   1  12
HETATM   12  C6  UNL     1      -0.772   0.446   0.374  1.00  0.00     0.240 C 
BRANCH  12  13
HETATM   13  C7  UNL     1      -2.166   0.076   0.081  1.00  0.00     0.069 A 
HETATM   14  N2  UNL     1      -2.815  -0.238  -1.062  1.00  0.00    -0.345 N 
HETATM   15  C8  UNL     1      -4.123  -0.543  -0.772  1.00  0.00     0.080 A 
ATOM     16  H2  UNL     1      -2.399  -0.247  -1.993  1.00  0.00     0.167 HD
HETATM   17  C9  UNL     1      -5.150  -0.940  -1.772  1.00  0.00     0.089 C 
HETATM   18  N3  UNL     1      -4.289  -0.412   0.539  1.00  0.00    -0.334 N 
HETATM   19  C10 UNL     1      -5.526  -0.548   1.300  1.00  0.00     0.158 C 
HETATM   20  C11 UNL     1      -3.141  -0.048   1.067  1.00  0.00     0.107 A 
HETATM   21 BR1  UNL     1      -2.764   0.319   2.908  1.00  0.00    -0.029 Br
ENDBRANCH  12  13
ENDBRANCH   1  12
TORSDOF 6
