REMARK  6 active torsions:
REMARK  status: ('A' for Active; 'I' for Inactive)
REMARK    1  A    between atoms: C2_2  and  C3_3 
REMARK    2  A    between atoms: C7_8  and  S1_9 
REMARK    3  A    between atoms: S1_9  and  N1_12 
REMARK    4  A    between atoms: C13_21  and  C14_22 
REMARK    5  A    between atoms: C14_22  and  O3_23 
REMARK    6  A    between atoms: C14_22  and  C15_25 
ROOT
HETATM    1  N1  UNL     1      -0.781   0.193   0.332  1.00  0.00    -0.281 N 
HETATM    2  C8  UNL     1      -0.740  -0.627   1.483  1.00  0.00     0.208 C 
HETATM    3  C9  UNL     1       0.242  -0.276   2.452  1.00  0.00     0.085 C 
HETATM    4  N2  UNL     1       1.017   0.005   3.271  1.00  0.00    -0.195 NA
HETATM    5  C10 UNL     1      -0.778  -2.105   1.109  1.00  0.00     0.120 C 
HETATM    6  C11 UNL     1      -2.141  -2.328   0.506  1.00  0.00     0.248 C 
HETATM    7  F1  UNL     1      -2.236  -3.589  -0.075  1.00  0.00    -0.206 F 
HETATM    8  F2  UNL     1      -3.143  -2.281   1.457  1.00  0.00    -0.206 F 
HETATM    9  C12 UNL     1      -2.380  -1.336  -0.574  1.00  0.00     0.107 C 
HETATM   10  C13 UNL     1      -2.021   0.098  -0.249  1.00  0.00     0.132 C 
ENDROOT
BRANCH   1  11
HETATM   11  S1  UNL     1       0.569   0.940  -0.137  1.00  0.00     0.264 S 
HETATM   12  O1  UNL     1       1.053   1.919   0.947  1.00  0.00    -0.200 OA
HETATM   13  O2  UNL     1       0.419   1.861  -1.360  1.00  0.00    -0.200 OA
BRANCH  11  14
HETATM   14  C7  UNL     1       1.965  -0.021  -0.593  1.00  0.00     0.102 A 
HETATM   15  C6  UNL     1       2.039  -0.821  -1.699  1.00  0.00     0.057 A 
HETATM   16  C5  UNL     1       3.176  -1.570  -1.964  1.00  0.00     0.026 A 
HETATM   17 CL1  UNL     1       0.723  -0.871  -2.843  1.00  0.00    -0.083 Cl
HETATM   18  C4  UNL     1       4.260  -1.523  -1.119  1.00  0.00     0.013 A 
HETATM   19  C3  UNL     1       4.229  -0.715   0.024  1.00  0.00    -0.035 A 
HETATM   20  C18 UNL     1       3.072  -0.003   0.226  1.00  0.00     0.038 A 
BRANCH  19  21
HETATM   21  C2  UNL     1       5.364  -0.654   0.924  1.00  0.00     0.001 C 
HETATM   22  C1  UNL     1       5.377   0.081   1.995  1.00  0.00     0.012 C 
ENDBRANCH  19  21
ENDBRANCH  11  14
ENDBRANCH   1  11
BRANCH  10  23
HETATM   23  C14 UNL     1      -2.444   0.970  -1.372  1.00  0.00     0.146 C 
BRANCH  23  24
HETATM   24  O3  UNL     1      -3.749   0.561  -1.807  1.00  0.00    -0.393 OA
ATOM     25  H3  UNL     1      -4.020   1.119  -2.526  1.00  0.00     0.210 HD
ENDBRANCH  23  24
BRANCH  23  26
HETATM   26  C15 UNL     1      -2.749   2.400  -0.933  1.00  0.00     0.016 A 
HETATM   27  C16 UNL     1      -3.897   2.529   0.096  1.00  0.00     0.007 A 
HETATM   28  C17 UNL     1      -2.467   2.930   0.394  1.00  0.00     0.007 A 
ENDBRANCH  23  26
ENDBRANCH  10  23
TORSDOF 6
