REMARK  4 active torsions:
REMARK  status: ('A' for Active; 'I' for Inactive)
REMARK    1  A    between atoms: N1_1  and  C1_5 
REMARK    2  A    between atoms: C1_5  and  C2_6 
REMARK    3  A    between atoms: C2_6  and  N2_7 
REMARK    4  A    between atoms: N2_7  and  C3_9 
ROOT
HETATM    1  N2  UNL     1      -0.379  -0.536   0.917  1.00  0.00    -0.361 N 
ATOM      2  H2  UNL     1      -0.606  -1.134   1.712  1.00  0.00     0.162 HD
ENDROOT
BRANCH   1   3
HETATM    3  C2  UNL     1      -1.439   0.121   0.180  1.00  0.00     0.150 C 
BRANCH   3   4
HETATM    4  C1  UNL     1      -2.784  -0.206   0.741  1.00  0.00     0.249 C 
BRANCH   4   5
HETATM    5  N1  UNL     1      -3.819   0.465  -0.015  1.00  0.00    -0.078 N 
ATOM      6  H13 UNL     1      -3.662   1.472  -0.065  1.00  0.00     0.274 HD
ATOM      7  H12 UNL     1      -3.760   0.254  -1.011  1.00  0.00     0.274 HD
ATOM      8  H11 UNL     1      -4.738   0.242   0.368  1.00  0.00     0.274 HD
ENDBRANCH   4   5
ENDBRANCH   3   4
ENDBRANCH   1   3
BRANCH   1   9
HETATM    9  C3  UNL     1       0.989  -0.346   0.530  1.00  0.00     0.171 C 
HETATM   10  N3  UNL     1       1.933   0.028   1.313  1.00  0.00    -0.361 N 
HETATM   11  C4  UNL     1       3.185   0.121   0.611  1.00  0.00     0.142 C 
ATOM     12  H3  UNL     1       1.812   0.233   2.305  1.00  0.00     0.162 HD
HETATM   13  C5  UNL     1       2.756   0.254  -0.832  1.00  0.00     0.142 C 
HETATM   14  N4  UNL     1       1.514  -0.536  -0.785  1.00  0.00    -0.361 N 
ATOM     15  H4  UNL     1       1.113  -1.100  -1.534  1.00  0.00     0.162 HD
ENDBRANCH   1   9
TORSDOF 4
