REMARK  2 active torsions:
REMARK  status: ('A' for Active; 'I' for Inactive)
REMARK    1  A    between atoms: C3_6  and  C4_7 
REMARK    2  A    between atoms: C4_7  and  N2_8 
ROOT
HETATM    1  C1  UNL     1       3.277   0.117   0.538  1.00  0.00     0.071 C 
HETATM    2  C2  UNL     1       2.456  -0.007  -0.714  1.00  0.00     0.383 C 
HETATM    3  N1  UNL     1       1.505  -1.109  -0.562  1.00  0.00    -0.016 N 
ATOM      4  H11 UNL     1       1.756  -1.966  -0.069  1.00  0.00     0.282 HD
ATOM      5  H12 UNL     1       1.226  -1.685  -1.356  1.00  0.00     0.282 HD
HETATM    6  C3  UNL     1       0.599  -0.131   0.025  1.00  0.00     0.415 C 
HETATM    7  N3  UNL     1       1.302   0.877  -0.743  1.00  0.00    -0.016 N 
ATOM      8  H31 UNL     1       0.927   1.227  -1.624  1.00  0.00     0.282 HD
ATOM      9  H32 UNL     1       1.366   1.841  -0.416  1.00  0.00     0.282 HD
ENDROOT
BRANCH   6  10
HETATM   10  C4  UNL     1      -0.806  -0.412  -0.435  1.00  0.00     0.333 C 
BRANCH  10  11
HETATM   11  N2  UNL     1      -1.786   0.507   0.047  1.00  0.00     0.083 N 
HETATM   12  C5  UNL     1      -2.975   0.361  -0.785  1.00  0.00     0.309 C 
HETATM   13  C6  UNL     1      -2.155   0.316   1.432  1.00  0.00     0.309 C 
ENDBRANCH  10  11
ENDBRANCH   6  10
TORSDOF 2
