REMARK  4 active torsions:
REMARK  status: ('A' for Active; 'I' for Inactive)
REMARK    1  A    between atoms: C2_2  and  N1_3 
REMARK    2  A    between atoms: N1_3  and  C3_6 
REMARK    3  A    between atoms: C3_6  and  C4_7 
REMARK    4  A    between atoms: C6_12  and  N3_13 
ROOT
HETATM    1  C4  UNL     1       1.094   0.607   0.548  1.00  0.00     0.243 C 
HETATM    2  N2  UNL     1       1.991   1.588  -0.026  1.00  0.00    -0.065 N 
ATOM      3  H21 UNL     1       2.798   1.927   0.497  1.00  0.00     0.277 HD
ATOM      4  H22 UNL     1       1.693   2.554  -0.159  1.00  0.00     0.277 HD
HETATM    5  C5  UNL     1       2.160   0.702  -1.159  1.00  0.00     0.267 C 
HETATM    6  C6  UNL     1       1.847  -0.450  -0.233  1.00  0.00     0.241 C 
ENDROOT
BRANCH   1   7
HETATM    7  C3  UNL     1      -0.297   0.760   0.012  1.00  0.00     0.267 C 
BRANCH   7   8
HETATM    8  N1  UNL     1      -1.217  -0.231   0.589  1.00  0.00    -0.073 N 
ATOM      9  H12 UNL     1      -1.241  -0.236   1.609  1.00  0.00     0.277 HD
ATOM     10  H11 UNL     1      -0.912  -1.198   0.481  1.00  0.00     0.277 HD
BRANCH   8  11
HETATM   11  C2  UNL     1      -2.505   0.068  -0.042  1.00  0.00     0.228 C 
HETATM   12  C1  UNL     1      -3.585  -0.851   0.427  1.00  0.00     0.034 C 
ENDBRANCH   8  11
ENDBRANCH   7   8
ENDBRANCH   1   7
BRANCH   6  13
HETATM   13  N3  UNL     1       3.035  -0.933   0.448  1.00  0.00    -0.071 N 
ATOM     14  H33 UNL     1       3.651  -0.158   0.695  1.00  0.00     0.274 HD
ATOM     15  H32 UNL     1       2.804  -1.270   1.383  1.00  0.00     0.274 HD
ATOM     16  H31 UNL     1       3.542  -1.645  -0.078  1.00  0.00     0.274 HD
ENDBRANCH   6  13
TORSDOF 4
