REMARK  11 active torsions:
REMARK  status: ('A' for Active; 'I' for Inactive)
REMARK    1  A    between atoms: N1_1  and  C1_4 
REMARK    2  A    between atoms: N3_8  and  N4_9 
REMARK    3  A    between atoms: N4_9  and  S1_11 
REMARK    4  A    between atoms: S1_11  and  N5_14 
REMARK    5  A    between atoms: N5_14  and  C3_16 
REMARK    6  A    between atoms: C3_16  and  N6_17 
REMARK    7  A    between atoms: C3_16  and  C4_20 
REMARK    8  A    between atoms: N6_17  and  O3_18 
REMARK    9  A    between atoms: C5_25  and  N8_26 
REMARK   10  A    between atoms: C8_32  and  O7_33 
REMARK   11  A    between atoms: C10_38  and  N11_39 
ROOT
HETATM    1  C1  UNL     1       0.249   3.338   0.202  1.00  0.00     0.679 A 
HETATM    2  N2  UNL     1       0.428   2.002   0.317  1.00  0.00    -0.171 N 
ATOM      3  H2  UNL     1       1.380   1.638   0.360  1.00  0.00     0.186 HD
HETATM    4  C2  UNL     1      -0.589   1.142   0.376  1.00  0.00     0.192 A 
HETATM    5  N3  UNL     1      -0.396  -0.176   0.486  1.00  0.00    -0.152 N 
HETATM    6  N7  UNL     1      -1.446  -0.968   0.538  1.00  0.00    -0.106 N 
ATOM      7  H7  UNL     1      -1.296  -1.973   0.623  1.00  0.00     0.208 HD
HETATM    8  C5  UNL     1      -2.690  -0.513   0.485  1.00  0.00     0.722 A 
HETATM    9  N10 UNL     1      -2.962   0.796   0.375  1.00  0.00    -0.181 N 
ATOM     10  H10 UNL     1      -3.929   1.120   0.338  1.00  0.00     0.184 HD
HETATM   11  C9  UNL     1      -1.954   1.672   0.315  1.00  0.00     0.141 A 
HETATM   12  C10 UNL     1      -2.113   3.034   0.200  1.00  0.00     0.146 A 
HETATM   13  N12 UNL     1      -1.010   3.802   0.148  1.00  0.00    -0.175 N 
ATOM     14  H12 UNL     1      -1.139   4.810   0.061  1.00  0.00     0.186 HD
ENDROOT
BRANCH   5  15
HETATM   15  N4  UNL     1       0.903  -0.682   0.564  1.00  0.00    -0.186 N 
ATOM     16  H4  UNL     1       1.307  -0.907   1.473  1.00  0.00     0.204 HD
BRANCH  15  17
HETATM   17  S1  UNL     1       1.814  -0.924  -0.850  1.00  0.00     0.336 S 
HETATM   18  O1  UNL     1       0.915  -0.722  -2.064  1.00  0.00    -0.181 OA
HETATM   19  O2  UNL     1       2.280  -2.373  -0.861  1.00  0.00    -0.181 OA
BRANCH  17  20
HETATM   20  N5  UNL     1       3.141   0.123  -1.048  1.00  0.00    -0.270 N 
ATOM     21  H5  UNL     1       3.104   1.037  -1.500  1.00  0.00     0.176 HD
BRANCH  20  22
HETATM   22  C3  UNL     1       4.318  -0.470  -0.485  1.00  0.00     0.316 C 
BRANCH  22  23
HETATM   23  N6  UNL     1       5.369  -0.666  -1.473  1.00  0.00    -0.066 NA
BRANCH  23  24
HETATM   24  O3  UNL     1       4.942  -1.480  -2.458  1.00  0.00    -0.294 OA
ATOM     25  H3  UNL     1       5.628  -1.608  -3.103  1.00  0.00     0.238 HD
ENDBRANCH  23  24
ENDBRANCH  22  23
BRANCH  22  26
HETATM   26  C4  UNL     1       4.876   0.306   0.659  1.00  0.00     0.216 C 
HETATM   27  O4  UNL     1       4.299   1.360   0.996  1.00  0.00    -0.645 OA
HETATM   28  O5  UNL     1       6.006  -0.173   1.298  1.00  0.00    -0.645 OA
ENDBRANCH  22  26
ENDBRANCH  20  22
ENDBRANCH  17  20
ENDBRANCH  15  17
ENDBRANCH   5  15
BRANCH   8  29
HETATM   29  N8  UNL     1      -3.782  -1.435   0.563  1.00  0.00    -0.059 N 
HETATM   30  N9  UNL     1      -4.497  -1.701   1.644  1.00  0.00    -0.243 N 
HETATM   31  C6  UNL     1      -5.441  -2.610   1.364  1.00  0.00     0.264 A 
ATOM     32  H9  UNL     1      -4.351  -1.275   2.559  1.00  0.00     0.191 HD
HETATM   33  O6  UNL     1      -6.304  -3.101   2.146  1.00  0.00    -0.267 OA
HETATM   34  C7  UNL     1      -5.304  -2.925   0.037  1.00  0.00     0.134 A 
HETATM   35  C8  UNL     1      -4.253  -2.172  -0.443  1.00  0.00     0.185 A 
BRANCH  35  36
HETATM   36  O7  UNL     1      -3.803  -2.208  -1.744  1.00  0.00    -0.344 OA
ATOM     37  H7  UNL     1      -4.139  -2.733  -2.461  1.00  0.00     0.219 HD
ENDBRANCH  35  36
ENDBRANCH   8  29
BRANCH   1  38
HETATM   38  N1  UNL     1       1.272   4.153   0.141  1.00  0.00    -0.234 N 
ATOM     39  H12 UNL     1       2.228   3.801   0.182  1.00  0.00     0.174 HD
ATOM     40  H11 UNL     1       1.137   5.160   0.054  1.00  0.00     0.174 HD
ENDBRANCH   1  38
BRANCH  12  41
HETATM   41  N11 UNL     1      -3.303   3.527   0.143  1.00  0.00    -0.383 N 
ATOM     42 2H11 UNL     1      -4.139   2.945   0.182  1.00  0.00     0.157 HD
ATOM     43 1H11 UNL     1      -3.421   4.537   0.058  1.00  0.00     0.157 HD
ENDBRANCH  12  41
TORSDOF 11
