REMARK  10 active torsions:
REMARK  status: ('A' for Active; 'I' for Inactive)
REMARK    1  A    between atoms: C2_2  and  N1_3 
REMARK    2  A    between atoms: C2_2  and  C14_41 
REMARK       I    between atoms: N1_3  and  C3_5 
REMARK    3  A    between atoms: C3_5  and  C4_7 
REMARK    4  A    between atoms: C6_9  and  N2_10 
REMARK    5  A    between atoms: N3_13  and  C7_14 
REMARK    6  A    between atoms: C7_14  and  C8_15 
REMARK    7  A    between atoms: C9_18  and  N5_19 
REMARK    8  A    between atoms: N10_32  and  O3_34 
REMARK    9  A    between atoms: C14_41  and  O5_42 
REMARK   10  A    between atoms: C14_41  and  O6_44 
ROOT
HETATM    1  C7  UNL     1      -2.463   1.356  -0.456  1.00  0.00     0.195 C 
ENDROOT
BRANCH   1   2
HETATM    2  N3  UNL     1      -1.066   0.846  -0.406  1.00  0.00    -0.280 N 
HETATM    3  C6  UNL     1      -0.640  -0.130  -1.199  1.00  0.00     0.107 A 
HETATM    4  C5  UNL     1       0.696  -0.550  -1.194  1.00  0.00     0.083 A 
HETATM    5  C4  UNL     1       1.605   0.036  -0.368  1.00  0.00     0.108 A 
HETATM    6  N11 UNL     1       1.156   1.024   0.429  1.00  0.00    -0.304 N 
HETATM    7  C13 UNL     1      -0.141   1.402   0.394  1.00  0.00     0.329 A 
ATOM      8  H11 UNL     1       1.801   1.492   1.066  1.00  0.00     0.171 HD
HETATM    9  O4  UNL     1      -0.447   2.342   1.176  1.00  0.00    -0.246 OA
BRANCH   3  10
HETATM   10  N2  UNL     1      -1.448  -0.741  -2.016  1.00  0.00    -0.385 N 
ATOM     11  H22 UNL     1      -1.121  -1.491  -2.625  1.00  0.00     0.157 HD
ATOM     12  H21 UNL     1      -2.421  -0.435  -2.020  1.00  0.00     0.157 HD
ENDBRANCH   3  10
BRANCH   5  13
HETATM   13  C3  UNL     1       2.991  -0.405  -0.368  1.00  0.00     0.268 C 
HETATM   14  N1  UNL     1       4.003   0.124   0.458  1.00  0.00    -0.347 N 
ATOM     15  H1  UNL     1       3.758   0.870   1.108  1.00  0.00     0.163 HD
HETATM   16  O1  UNL     1       3.328  -1.325  -1.159  1.00  0.00    -0.266 OA
BRANCH  14  17
HETATM   17  C2  UNL     1       5.362  -0.337   0.428  1.00  0.00     0.135 C 
HETATM   18  C1  UNL     1       5.779  -0.922   1.782  1.00  0.00     0.037 C 
BRANCH  17  19
HETATM   19  C14 UNL     1       6.314   0.819   0.177  1.00  0.00     0.276 C 
BRANCH  19  20
HETATM   20  O5  UNL     1       6.053   1.453  -1.043  1.00  0.00    -0.369 OA
ATOM     21  H5  UNL     1       6.649   2.176  -1.200  1.00  0.00     0.212 HD
ENDBRANCH  19  20
BRANCH  19  22
HETATM   22  O6  UNL     1       7.629   0.424   0.171  1.00  0.00    -0.369 OA
ATOM     23  H6  UNL     1       8.225   1.147   0.014  1.00  0.00     0.212 HD
ENDBRANCH  19  22
ENDBRANCH  17  19
ENDBRANCH  14  17
ENDBRANCH   5  13
ENDBRANCH   1   2
BRANCH   1  24
HETATM   24  C8  UNL     1      -3.271   0.387   0.261  1.00  0.00     0.062 A 
HETATM   25  N4  UNL     1      -2.851  -0.133   1.463  1.00  0.00    -0.338 N 
HETATM   26  C9  UNL     1      -3.463  -1.142   2.100  1.00  0.00     0.171 A 
ATOM     27  H4  UNL     1      -2.023   0.274   1.897  1.00  0.00     0.167 HD
HETATM   28  C10 UNL     1      -4.570  -1.689   1.528  1.00  0.00     0.312 A 
HETATM   29  O2  UNL     1      -5.162  -2.642   2.109  1.00  0.00    -0.262 OA
HETATM   30  N6  UNL     1      -5.043  -1.232   0.359  1.00  0.00    -0.196 N 
HETATM   31  N7  UNL     1      -6.142  -1.741  -0.164  1.00  0.00    -0.218 N 
HETATM   32  C12 UNL     1      -4.410  -0.196  -0.287  1.00  0.00     0.133 A 
HETATM   33  N8  UNL     1      -6.651  -1.284  -1.280  1.00  0.00    -0.226 N 
ATOM     34  H7  UNL     1      -6.608  -2.512   0.314  1.00  0.00     0.210 HD
HETATM   35  N9  UNL     1      -6.103  -0.299  -1.940  1.00  0.00    -0.266 N 
ATOM     36  H8  UNL     1      -7.502  -1.710  -1.646  1.00  0.00     0.210 HD
HETATM   37  C11 UNL     1      -4.969   0.267  -1.453  1.00  0.00     0.172 A 
ATOM     38  H9  UNL     1      -6.520   0.039  -2.807  1.00  0.00     0.190 HD
HETATM   39  N10 UNL     1      -4.470   1.275  -2.065  1.00  0.00    -0.250 N 
ATOM     40  H10 UNL     1      -3.618   1.717  -1.719  1.00  0.00     0.196 HD
BRANCH  26  41
HETATM   41  N5  UNL     1      -2.985  -1.574   3.245  1.00  0.00    -0.381 N 
ATOM     42  H52 UNL     1      -2.155  -1.164   3.674  1.00  0.00     0.157 HD
ATOM     43  H51 UNL     1      -3.450  -2.341   3.730  1.00  0.00     0.157 HD
ENDBRANCH  26  41
BRANCH  39  44
HETATM   44  O3  UNL     1      -5.088   1.754  -3.185  1.00  0.00    -0.288 OA
ATOM     45  H3  UNL     1      -4.718   2.502  -3.639  1.00  0.00     0.244 HD
ENDBRANCH  39  44
ENDBRANCH   1  24
TORSDOF 10
