REMARK  11 active torsions:
REMARK  status: ('A' for Active; 'I' for Inactive)
REMARK    1  A    between atoms: O1_2  and  C2_3 
REMARK    2  A    between atoms: C2_3  and  C3_4 
REMARK    3  A    between atoms: C3_4  and  N1_5 
REMARK    4  A    between atoms: C3_4  and  C16_41 
REMARK    5  A    between atoms: N1_5  and  C4_7 
REMARK    6  A    between atoms: C5_10  and  O2_11 
REMARK    7  A    between atoms: N5_21  and  C10_22 
REMARK    8  A    between atoms: C11_25  and  N7_26 
REMARK    9  A    between atoms: C13_34  and  N10_35 
REMARK   10  A    between atoms: C16_41  and  O3_42 
REMARK   11  A    between atoms: C16_41  and  O4_44 
ROOT
HETATM    1  C4  UNL     1      -1.736   0.286  -0.838  1.00  0.00     0.675 C 
HETATM    2  N2  UNL     1      -0.762   0.900  -0.259  1.00  0.00    -0.150 N 
ATOM      3  H2  UNL     1      -0.980   1.251   0.674  1.00  0.00     0.184 HD
HETATM    4  C5  UNL     1       0.612   1.183  -0.711  1.00  0.00     0.409 C 
HETATM    5  N3  UNL     1       0.637   1.501  -2.104  1.00  0.00     0.005 N 
ATOM      6  H31 UNL     1       1.409   2.107  -2.382  1.00  0.00     0.286 HD
ATOM      7  H32 UNL     1      -0.109   2.128  -2.404  1.00  0.00     0.286 HD
HETATM    8  C7  UNL     1       0.629   0.223  -2.752  1.00  0.00     0.230 C 
HETATM    9  C8  UNL     1      -0.747  -0.181  -3.231  1.00  0.00     0.173 C 
HETATM   10  N4  UNL     1      -1.687  -0.293  -2.136  1.00  0.00    -0.224 N 
ATOM     11  H4  UNL     1      -2.473  -0.912  -2.336  1.00  0.00     0.177 HD
HETATM   12  C9  UNL     1       1.221  -0.769  -1.808  1.00  0.00     0.166 C 
HETATM   13  N5  UNL     1       1.430  -0.000  -0.594  1.00  0.00    -0.289 N 
ENDROOT
BRANCH  13  14
HETATM   14  C10 UNL     1       2.258  -0.445   0.451  1.00  0.00     0.155 A 
HETATM   15  N6  UNL     1       1.699  -1.221   1.436  1.00  0.00    -0.174 N 
HETATM   16  C11 UNL     1       2.408  -1.693   2.462  1.00  0.00     0.679 A 
ATOM     17  H6  UNL     1       0.705  -1.445   1.381  1.00  0.00     0.186 HD
HETATM   18  N8  UNL     1       3.718  -1.422   2.567  1.00  0.00    -0.174 N 
HETATM   19  C12 UNL     1       4.329  -0.679   1.651  1.00  0.00     0.167 A 
ATOM     20  H8  UNL     1       4.249  -1.790   3.357  1.00  0.00     0.186 HD
HETATM   21  N9  UNL     1       5.612  -0.292   1.543  1.00  0.00    -0.174 N 
HETATM   22  C15 UNL     1       3.588  -0.175   0.563  1.00  0.00     0.141 A 
HETATM   23  C13 UNL     1       5.693   0.442   0.411  1.00  0.00     0.680 A 
ATOM     24  H9  UNL     1       6.373  -0.509   2.187  1.00  0.00     0.186 HD
HETATM   25  N11 UNL     1       4.475   0.508  -0.173  1.00  0.00    -0.180 N 
HETATM   26  C14 UNL     1       4.231   1.196  -1.397  1.00  0.00     0.176 C 
BRANCH  16  27
HETATM   27  N7  UNL     1       1.819  -2.423   3.364  1.00  0.00    -0.234 N 
ATOM     28  H72 UNL     1       0.823  -2.629   3.284  1.00  0.00     0.174 HD
ATOM     29  H71 UNL     1       2.361  -2.784   4.149  1.00  0.00     0.174 HD
ENDBRANCH  16  27
BRANCH  23  30
HETATM   30  N10 UNL     1       6.782   0.982  -0.016  1.00  0.00    -0.234 N 
ATOM     31 2H10 UNL     1       7.701   0.932   0.424  1.00  0.00     0.174 HD
ATOM     32 1H10 UNL     1       6.843   1.536  -0.870  1.00  0.00     0.174 HD
ENDBRANCH  23  30
ENDBRANCH  13  14
BRANCH   4  33
HETATM   33  O2  UNL     1       1.088   2.149   0.140  1.00  0.00    -0.326 OA
HETATM   34  C6  UNL     1       0.361   3.315   0.136  1.00  0.00     0.208 C 
ENDBRANCH   4  33
BRANCH   1  35
HETATM   35  N1  UNL     1      -2.973   0.143  -0.188  1.00  0.00    -0.215 N 
ATOM     36  H1  UNL     1      -3.802   0.508  -0.657  1.00  0.00     0.178 HD
BRANCH  35  37
HETATM   37  C3  UNL     1      -3.149  -0.487   1.101  1.00  0.00     0.177 C 
BRANCH  37  38
HETATM   38  C2  UNL     1      -4.604  -0.474   1.511  1.00  0.00     0.197 C 
BRANCH  38  39
HETATM   39  O1  UNL     1      -5.103   0.823   1.604  1.00  0.00    -0.394 OA
HETATM   40  C1  UNL     1      -6.445   0.825   1.982  1.00  0.00     0.201 C 
ENDBRANCH  38  39
ENDBRANCH  37  38
BRANCH  37  41
HETATM   41  C16 UNL     1      -2.760  -1.958   0.944  1.00  0.00     0.279 C 
BRANCH  41  42
HETATM   42  O3  UNL     1      -3.557  -2.571   0.006  1.00  0.00    -0.369 OA
ATOM     43  H3  UNL     1      -3.315  -3.485  -0.092  1.00  0.00     0.212 HD
ENDBRANCH  41  42
BRANCH  41  44
HETATM   44  O4  UNL     1      -2.886  -2.647   2.140  1.00  0.00    -0.369 OA
ATOM     45  H4  UNL     1      -2.644  -3.561   2.042  1.00  0.00     0.212 HD
ENDBRANCH  41  44
ENDBRANCH  37  41
ENDBRANCH  35  37
ENDBRANCH   1  35
TORSDOF 11
