REMARK  11 active torsions:
REMARK  status: ('A' for Active; 'I' for Inactive)
REMARK    1  A    between atoms: N1_1  and  C1_4 
REMARK    2  A    between atoms: C2_7  and  C3_8 
REMARK    3  A    between atoms: C3_8  and  N3_9 
REMARK    4  A    between atoms: C3_8  and  C12_41 
REMARK    5  A    between atoms: C5_14  and  N5_15 
REMARK    6  A    between atoms: C7_17  and  C8_18 
REMARK       I    between atoms: C8_18  and  N6_20 
REMARK    7  A    between atoms: N6_20  and  N7_22 
REMARK       I    between atoms: N7_22  and  C9_24 
REMARK    8  A    between atoms: C9_24  and  C10_26 
REMARK    9  A    between atoms: C11_35  and  N11_36 
REMARK   10  A    between atoms: C12_41  and  O5_42 
REMARK   11  A    between atoms: C12_41  and  O6_44 
ROOT
HETATM    1  N3  UNL     1      -2.888  -0.612   1.116  1.00  0.00    -0.208 N 
ATOM      2  H3  UNL     1      -2.261  -0.394   1.891  1.00  0.00     0.178 HD
HETATM    3  C4  UNL     1      -2.266  -0.857   0.058  1.00  0.00     0.708 A 
HETATM    4  N4  UNL     1      -0.881  -0.802   0.082  1.00  0.00    -0.019 N 
ATOM      5  H4  UNL     1      -0.428  -0.560   0.963  1.00  0.00     0.203 HD
HETATM    6  C5  UNL     1      -0.102  -1.046  -0.977  1.00  0.00     0.733 A 
HETATM    7  N10 UNL     1      -0.714  -1.363  -2.138  1.00  0.00    -0.020 N 
ATOM      8  H10 UNL     1      -0.147  -1.554  -2.964  1.00  0.00     0.203 HD
HETATM    9  C11 UNL     1      -2.044  -1.433  -2.231  1.00  0.00     0.705 A 
HETATM   10  N12 UNL     1      -2.802  -1.178  -1.124  1.00  0.00    -0.022 N 
ATOM     11  H12 UNL     1      -3.817  -1.235  -1.202  1.00  0.00     0.203 HD
ENDROOT
BRANCH   1  12
HETATM   12  C3  UNL     1      -4.208  -0.565   1.487  1.00  0.00     0.231 C 
BRANCH  12  13
HETATM   13  C2  UNL     1      -5.189   0.112   0.606  1.00  0.00     0.190 A 
HETATM   14  N2  UNL     1      -5.000   1.287  -0.008  1.00  0.00    -0.168 N 
HETATM   15  C1  UNL     1      -6.151   1.512  -0.694  1.00  0.00     0.698 A 
ATOM     16  H2  UNL     1      -4.173   1.883   0.031  1.00  0.00     0.186 HD
HETATM   17  N13 UNL     1      -6.990   0.490  -0.483  1.00  0.00    -0.090 N 
HETATM   18  O7  UNL     1      -6.405  -0.346   0.298  1.00  0.00    -0.207 OA
ATOM     19  H13 UNL     1      -7.927   0.392  -0.873  1.00  0.00     0.213 HD
BRANCH  15  20
HETATM   20  N1  UNL     1      -6.383   2.557  -1.421  1.00  0.00    -0.233 N 
ATOM     21  H12 UNL     1      -5.744   3.336  -1.582  1.00  0.00     0.174 HD
ATOM     22  H11 UNL     1      -7.247   2.726  -1.936  1.00  0.00     0.174 HD
ENDBRANCH  15  20
ENDBRANCH  12  13
BRANCH  12  23
HETATM   23  C12 UNL     1      -4.400   0.060   2.892  1.00  0.00     0.285 C 
BRANCH  23  24
HETATM   24  O5  UNL     1      -3.899   1.342   2.892  1.00  0.00    -0.369 OA
ATOM     25  H5  UNL     1      -4.017   1.725   3.753  1.00  0.00     0.212 HD
ENDBRANCH  23  24
BRANCH  23  26
HETATM   26  O6  UNL     1      -3.860  -0.763   3.847  1.00  0.00    -0.369 OA
ATOM     27  H6  UNL     1      -3.978  -0.380   4.708  1.00  0.00     0.212 HD
ENDBRANCH  23  26
ENDBRANCH  12  23
ENDBRANCH   1  12
BRANCH   6  28
HETATM   28  N5  UNL     1       1.313  -0.996  -0.860  1.00  0.00    -0.080 N 
HETATM   29  C6  UNL     1       2.103   0.073  -0.931  1.00  0.00     0.173 A 
HETATM   30  C7  UNL     1       3.418  -0.337  -0.733  1.00  0.00     0.137 A 
HETATM   31  N8  UNL     1       3.339  -1.682  -0.547  1.00  0.00    -0.279 N 
HETATM   32  N9  UNL     1       2.086  -2.057  -0.625  1.00  0.00    -0.221 N 
ATOM     33  H8  UNL     1       4.131  -2.301  -0.374  1.00  0.00     0.189 HD
ATOM     34  H9  UNL     1       1.752  -3.015  -0.522  1.00  0.00     0.209 HD
BRANCH  30  35
HETATM   35  C8  UNL     1       4.620   0.482  -0.712  1.00  0.00     0.289 C 
HETATM   36  O1  UNL     1       4.550   1.712  -0.931  1.00  0.00    -0.264 OA
HETATM   37  N6  UNL     1       5.881  -0.095  -0.443  1.00  0.00    -0.262 N 
ATOM     38  H6  UNL     1       5.916  -1.100  -0.270  1.00  0.00     0.190 HD
BRANCH  37  39
HETATM   39  N7  UNL     1       7.069   0.607  -0.398  1.00  0.00    -0.258 N 
HETATM   40  C9  UNL     1       8.278   0.013   0.088  1.00  0.00     0.336 C 
HETATM   41  O2  UNL     1       8.234  -1.177   0.474  1.00  0.00    -0.259 OA
ATOM     42  H7  UNL     1       7.086   1.575  -0.720  1.00  0.00     0.190 HD
BRANCH  40  43
HETATM   43  C10 UNL     1       9.527   0.737   0.145  1.00  0.00     0.271 C 
HETATM   44  O3  UNL     1       9.582   1.960  -0.228  1.00  0.00    -0.640 OA
HETATM   45  O4  UNL     1      10.663   0.099   0.604  1.00  0.00    -0.640 OA
ENDBRANCH  40  43
ENDBRANCH  37  39
ENDBRANCH  30  35
ENDBRANCH   6  28
BRANCH   9  46
HETATM   46  N11 UNL     1      -2.686  -1.733  -3.323  1.00  0.00    -0.234 N 
ATOM     47 2H11 UNL     1      -2.120  -1.923  -4.150  1.00  0.00     0.174 HD
ATOM     48 1H11 UNL     1      -3.702  -1.786  -3.394  1.00  0.00     0.174 HD
ENDBRANCH   9  46
TORSDOF 11
