REMARK  12 active torsions:
REMARK  status: ('A' for Active; 'I' for Inactive)
REMARK    1  A    between atoms: C5_12  and  C6_13 
REMARK    2  A    between atoms: N4_14  and  N5_16 
REMARK    3  A    between atoms: N5_16  and  C7_18 
REMARK    4  A    between atoms: C8_22  and  C9_23 
REMARK    5  A    between atoms: C9_23  and  N8_24 
REMARK    6  A    between atoms: C9_23  and  O2_28 
REMARK    7  A    between atoms: C10_32  and  C11_33 
REMARK    8  A    between atoms: C11_33  and  O3_34 
REMARK    9  A    between atoms: C11_33  and  C12_36 
REMARK   10  A    between atoms: C12_36  and  O4_37 
REMARK   11  A    between atoms: C12_36  and  C13_39 
REMARK   12  A    between atoms: C13_39  and  O5_40 
ROOT
HETATM    1  C13 UNL     1      -4.585  -0.408  -0.963  1.00  0.00     0.255 C 
HETATM    2  C14 UNL     1      -5.009   0.369   0.224  1.00  0.00     0.093 C 
HETATM    3  N10 UNL     1      -5.337   0.994   1.145  1.00  0.00    -0.194 NA
ENDROOT
BRANCH   1   4
HETATM    4  C12 UNL     1      -3.669   0.474  -1.740  1.00  0.00     0.192 C 
BRANCH   4   5
HETATM    5  C11 UNL     1      -2.521   0.994  -0.929  1.00  0.00     0.180 C 
BRANCH   5   6
HETATM    6  C10 UNL     1      -1.404  -0.023  -0.730  1.00  0.00     0.180 C 
HETATM    7  C7  UNL     1      -0.163   0.637  -0.266  1.00  0.00     0.133 C 
HETATM    8  N6  UNL     1       0.059   0.727   0.996  1.00  0.00    -0.288 N 
HETATM    9  N7  UNL     1      -0.895   0.170   1.857  1.00  0.00    -0.110 NA
ATOM     10  H6  UNL     1       0.896   1.185   1.356  1.00  0.00     0.183 HD
HETATM   11  C8  UNL     1      -1.312  -1.174   1.412  1.00  0.00     0.249 C 
HETATM   12  N9  UNL     1      -1.737  -1.149   0.044  1.00  0.00    -0.386 N 
ATOM     13  H9  UNL     1      -2.265  -1.924  -0.356  1.00  0.00     0.155 HD
BRANCH   7  14
HETATM   14  N5  UNL     1       0.769   1.184  -1.231  1.00  0.00    -0.287 N 
ATOM     15  H5  UNL     1       1.241   0.585  -1.908  1.00  0.00     0.188 HD
BRANCH  14  16
HETATM   16  N4  UNL     1       0.993   2.536  -1.201  1.00  0.00    -0.307 N 
HETATM   17  C6  UNL     1       2.109   3.056  -0.937  1.00  0.00     0.155 C 
ATOM     18  H4  UNL     1       0.210   3.157  -1.404  1.00  0.00     0.186 HD
BRANCH  17  19
HETATM   19  C5  UNL     1       3.278   2.269  -0.637  1.00  0.00     0.125 A 
HETATM   20  N3  UNL     1       4.436   2.937  -0.371  1.00  0.00    -0.306 N 
HETATM   21  C4  UNL     1       5.590   2.324  -0.077  1.00  0.00     0.277 A 
ATOM     22  H3  UNL     1       4.423   3.957  -0.397  1.00  0.00     0.170 HD
HETATM   23  C3  UNL     1       5.665   0.953  -0.028  1.00  0.00     0.145 A 
HETATM   24  O1  UNL     1       6.654   2.973   0.167  1.00  0.00    -0.266 OA
HETATM   25  N2  UNL     1       6.618   0.047   0.223  1.00  0.00    -0.293 N 
HETATM   26  C15 UNL     1       4.493   0.268  -0.298  1.00  0.00     0.091 A 
HETATM   27  N1  UNL     1       6.127  -1.181   0.132  1.00  0.00    -0.302 N 
ATOM     28  H2  UNL     1       7.586   0.270   0.452  1.00  0.00     0.187 HD
HETATM   29  C2  UNL     1       4.826  -1.073  -0.187  1.00  0.00     0.051 A 
ATOM     30  H1  UNL     1       6.642  -2.049   0.277  1.00  0.00     0.186 HD
HETATM   31  C1  UNL     1       3.861  -2.188  -0.397  1.00  0.00     0.072 C 
HETATM   32  N11 UNL     1       3.359   0.938  -0.588  1.00  0.00    -0.338 N 
ATOM     33  H11 UNL     1       2.516   0.397  -0.781  1.00  0.00     0.167 HD
ENDBRANCH  17  19
ENDBRANCH  14  16
ENDBRANCH   7  14
BRANCH  11  34
HETATM   34  C9  UNL     1      -2.337  -1.788   2.301  1.00  0.00     0.356 C 
BRANCH  34  35
HETATM   35  N8  UNL     1      -2.716  -3.067   1.743  1.00  0.00    -0.050 N 
ATOM     36  H83 UNL     1      -3.028  -2.996   0.775  1.00  0.00     0.277 HD
ATOM     37  H82 UNL     1      -1.915  -3.679   1.586  1.00  0.00     0.277 HD
ATOM     38  H81 UNL     1      -3.418  -3.488   2.352  1.00  0.00     0.277 HD
ENDBRANCH  34  35
BRANCH  34  39
HETATM   39  O2  UNL     1      -1.790  -1.903   3.585  1.00  0.00    -0.367 OA
ATOM     40  H2  UNL     1      -2.444  -2.295   4.152  1.00  0.00     0.212 HD
ENDBRANCH  34  39
ENDBRANCH  11  34
ENDBRANCH   5   6
BRANCH   5  41
HETATM   41  O3  UNL     1      -2.000   2.071  -1.712  1.00  0.00    -0.390 OA
ATOM     42  H3  UNL     1      -2.696   2.705  -1.836  1.00  0.00     0.210 HD
ENDBRANCH   5  41
ENDBRANCH   4   5
BRANCH   4  43
HETATM   43  O4  UNL     1      -3.299  -0.023  -2.982  1.00  0.00    -0.389 OA
ATOM     44  H4  UNL     1      -4.027  -0.353  -3.496  1.00  0.00     0.210 HD
ENDBRANCH   4  43
ENDBRANCH   1   4
BRANCH   1  45
HETATM   45  O5  UNL     1      -5.772  -0.597  -1.712  1.00  0.00    -0.379 OA
ATOM     46  H5  UNL     1      -6.356  -1.159  -1.217  1.00  0.00     0.211 HD
ENDBRANCH   1  45
TORSDOF 12
