REMARK  10 active torsions:
REMARK  status: ('A' for Active; 'I' for Inactive)
REMARK    1  A    between atoms: N1_1  and  C1_4 
REMARK    2  A    between atoms: N5_15  and  C5_16 
REMARK    3  A    between atoms: C6_18  and  O2_19 
REMARK    4  A    between atoms: C6_18  and  C7_21 
REMARK    5  A    between atoms: C8_24  and  N6_25 
REMARK    6  A    between atoms: C8_24  and  C12_37 
REMARK       I    between atoms: N6_25  and  C9_27 
REMARK    7  A    between atoms: C9_27  and  C10_29 
REMARK    8  A    between atoms: C10_29  and  C11_30 
REMARK    9  A    between atoms: C11_30  and  O6_31 
REMARK   10  A    between atoms: N7_33  and  O7_35 
ROOT
HETATM    1  C5  UNL     1      -0.813   0.778  -0.442  1.00  0.00     0.386 C 
HETATM    2  O1  UNL     1      -0.861  -0.365  -1.195  1.00  0.00    -0.292 OA
HETATM    3  C6  UNL     1       0.512  -0.757  -1.325  1.00  0.00     0.320 C 
HETATM    4  C8  UNL     1       1.095  -0.364  -0.031  1.00  0.00     0.300 C 
HETATM    5  O10 UNL     1       0.379   0.811   0.261  1.00  0.00    -0.297 OA
ENDROOT
BRANCH   1   6
HETATM    6  N5  UNL     1      -1.978   1.094   0.315  1.00  0.00    -0.277 N 
HETATM    7  C4  UNL     1      -2.103   2.292   0.951  1.00  0.00     0.190 A 
HETATM    8  N4  UNL     1      -3.268   2.344   1.578  1.00  0.00    -0.346 N 
HETATM    9  C3  UNL     1      -3.943   1.215   1.389  1.00  0.00     0.123 A 
ATOM     10  H4  UNL     1      -3.600   3.137   2.127  1.00  0.00     0.167 HD
HETATM   11  C2  UNL     1      -5.178   0.776   1.818  1.00  0.00     0.145 A 
HETATM   12  C13 UNL     1      -3.109   0.436   0.586  1.00  0.00     0.158 A 
HETATM   13  N2  UNL     1      -5.539  -0.465   1.413  1.00  0.00    -0.175 N 
HETATM   14  N3  UNL     1      -5.956   1.466   2.548  1.00  0.00    -0.383 N 
HETATM   15  C1  UNL     1      -4.727  -1.209   0.639  1.00  0.00     0.679 A 
ATOM     16  H2  UNL     1      -6.442  -0.843   1.700  1.00  0.00     0.186 HD
HETATM   17  N8  UNL     1      -3.512  -0.769   0.220  1.00  0.00    -0.174 N 
ATOM     18  H8  UNL     1      -2.921  -1.358  -0.367  1.00  0.00     0.186 HD
ATOM     19  H32 UNL     1      -6.869   1.141   2.865  1.00  0.00     0.157 HD
ATOM     20  H31 UNL     1      -5.684   2.401   2.853  1.00  0.00     0.157 HD
BRANCH  15  21
HETATM   21  N1  UNL     1      -5.104  -2.397   0.267  1.00  0.00    -0.234 N 
ATOM     22  H12 UNL     1      -6.016  -2.727   0.582  1.00  0.00     0.174 HD
ATOM     23  H11 UNL     1      -4.489  -2.961  -0.319  1.00  0.00     0.174 HD
ENDBRANCH  15  21
ENDBRANCH   1   6
BRANCH   3  24
HETATM   24  O2  UNL     1       0.953  -0.044  -2.424  1.00  0.00    -0.353 OA
ATOM     25  H2  UNL     1       1.863  -0.304  -2.510  1.00  0.00     0.213 HD
ENDBRANCH   3  24
BRANCH   3  26
HETATM   26  C7  UNL     1       0.491  -2.203  -1.634  1.00  0.00     0.245 C 
HETATM   27  O3  UNL     1       0.879  -2.536  -2.809  1.00  0.00    -0.644 OA
HETATM   28  O4  UNL     1       0.113  -3.230  -0.833  1.00  0.00    -0.644 OA
ENDBRANCH   3  26
BRANCH   4  29
HETATM   29  N6  UNL     1       2.506  -0.091  -0.142  1.00  0.00    -0.310 N 
HETATM   30  C9  UNL     1       3.143   0.974  -0.774  1.00  0.00     0.271 C 
HETATM   31  O5  UNL     1       2.459   1.876  -1.338  1.00  0.00    -0.266 OA
ATOM     32  H6  UNL     1       3.122  -0.771   0.303  1.00  0.00     0.166 HD
BRANCH  30  33
HETATM   33  C10 UNL     1       4.588   1.105  -0.820  1.00  0.00     0.122 C 
HETATM   34  N7  UNL     1       5.464   0.352  -0.343  1.00  0.00    -0.266 N 
ATOM     35  H7  UNL     1       6.408   0.692  -0.527  1.00  0.00     0.194 HD
BRANCH  33  36
HETATM   36  C11 UNL     1       5.095   2.335  -1.554  1.00  0.00     0.229 C 
BRANCH  36  37
HETATM   37  O6  UNL     1       6.460   2.321  -1.513  1.00  0.00    -0.395 OA
ATOM     38  H6  UNL     1       6.777   3.090  -1.972  1.00  0.00     0.209 HD
ENDBRANCH  36  37
ENDBRANCH  33  36
BRANCH  34  39
HETATM   39  O7  UNL     1       5.463  -0.782   0.345  1.00  0.00    -0.290 OA
ATOM     40  H7  UNL     1       6.129  -1.354   0.708  1.00  0.00     0.244 HD
ENDBRANCH  34  39
ENDBRANCH  30  33
ENDBRANCH   4  29
BRANCH   4  41
HETATM   41  C12 UNL     1       0.894  -1.305   1.091  1.00  0.00     0.238 C 
HETATM   42  O8  UNL     1       1.885  -1.775   1.742  1.00  0.00    -0.644 OA
HETATM   43  O9  UNL     1      -0.346  -1.736   1.513  1.00  0.00    -0.644 OA
ENDBRANCH   4  41
TORSDOF 10
