REMARK  8 active torsions:
REMARK  status: ('A' for Active; 'I' for Inactive)
REMARK    1  A    between atoms: C2_2  and  N1_3 
REMARK       I    between atoms: N1_3  and  C3_5 
REMARK       I    between atoms: C3_5  and  N2_7 
REMARK    2  A    between atoms: N2_7  and  C4_9 
REMARK    3  A    between atoms: C5_10  and  O2_11 
REMARK    4  A    between atoms: C8_15  and  O3_16 
REMARK    5  A    between atoms: C15_24  and  C16_25 
REMARK       I    between atoms: C16_25  and  N3_27 
REMARK    6  A    between atoms: C20_32  and  C22_34 
REMARK    7  A    between atoms: C23_35  and  C24_36 
REMARK    8  A    between atoms: C24_36  and  C26_38 
ROOT
HETATM    1  C4  UNL     1      -1.093   0.197  -0.728  1.00  0.00     0.120 C 
HETATM    2  C5  UNL     1      -1.811  -0.808  -1.555  1.00  0.00     0.146 C 
HETATM    3  C6  UNL     1      -3.154  -1.083  -0.916  1.00  0.00     0.027 C 
HETATM    4  C7  UNL     1      -4.032  -1.805  -1.875  1.00  0.00     0.039 C 
HETATM    5  C8  UNL     1      -3.611  -3.240  -2.097  1.00  0.00     0.118 C 
HETATM    6  C9  UNL     1      -3.166  -3.924  -0.860  1.00  0.00     0.032 C 
HETATM    7  C10 UNL     1      -2.231  -3.123   0.021  1.00  0.00     0.012 C 
HETATM    8  C11 UNL     1      -2.857  -1.832   0.360  1.00  0.00    -0.034 C 
HETATM    9  C12 UNL     1      -4.227  -2.170   0.975  1.00  0.00     0.016 C 
HETATM   10  C13 UNL     1      -2.170  -0.914   1.289  1.00  0.00     0.002 C 
HETATM   11  C14 UNL     1      -1.535  -1.534   2.498  1.00  0.00     0.025 C 
HETATM   12  C15 UNL     1      -0.059  -1.180   2.481  1.00  0.00     0.047 C 
HETATM   13  C18 UNL     1       0.212  -0.385   3.758  1.00  0.00     0.021 C 
HETATM   14  C19 UNL     1       1.245   0.624   3.405  1.00  0.00     0.024 C 
HETATM   15  C20 UNL     1       0.816   0.998   1.990  1.00  0.00     0.025 C 
HETATM   16  C21 UNL     1       0.014   2.254   2.133  1.00  0.00     0.029 C 
HETATM   17  C29 UNL     1       0.173  -0.191   1.401  1.00  0.00     0.030 C 
HETATM   18  C30 UNL     1      -1.158   0.024   0.760  1.00  0.00     0.023 C 
ENDROOT
BRANCH   1  19
HETATM   19  N2  UNL     1      -1.589   1.501  -1.155  1.00  0.00    -0.336 N 
HETATM   20  C3  UNL     1      -0.810   2.448  -1.856  1.00  0.00     0.316 C 
HETATM   21  N1  UNL     1      -1.383   3.678  -2.226  1.00  0.00    -0.343 N 
HETATM   22  O1  UNL     1       0.372   2.188  -2.141  1.00  0.00    -0.247 OA
ATOM     23  H1  UNL     1      -2.354   3.880  -1.987  1.00  0.00     0.164 HD
ATOM     24  H2  UNL     1      -2.555   1.743  -0.934  1.00  0.00     0.164 HD
BRANCH  21  25
HETATM   25  C2  UNL     1      -0.603   4.651  -2.941  1.00  0.00     0.120 C 
HETATM   26  C1  UNL     1      -1.402   5.901  -3.246  1.00  0.00     0.026 C 
ENDBRANCH  21  25
ENDBRANCH   1  19
BRANCH   2  27
HETATM   27  O2  UNL     1      -2.104  -0.199  -2.800  1.00  0.00    -0.393 OA
ATOM     28  H2  UNL     1      -2.563  -0.841  -3.329  1.00  0.00     0.210 HD
ENDBRANCH   2  27
BRANCH  12  29
HETATM   29  C16 UNL     1       0.780  -2.395   2.455  1.00  0.00     0.226 C 
HETATM   30  O4  UNL     1       0.212  -3.506   2.616  1.00  0.00    -0.273 OA
HETATM   31  N3  UNL     1       2.170  -2.432   2.269  1.00  0.00    -0.365 N 
HETATM   32  C17 UNL     1       2.931  -3.659   2.258  1.00  0.00     0.149 C 
ATOM     33  H3  UNL     1       2.666  -1.551   2.135  1.00  0.00     0.161 HD
ENDBRANCH  12  29
BRANCH  15  34
HETATM   34  C22 UNL     1       2.030   1.344   1.252  1.00  0.00    -0.096 C 
HETATM   35  C23 UNL     1       3.041   1.651   0.647  1.00  0.00    -0.101 C 
BRANCH  35  36
HETATM   36  C24 UNL     1       4.257   2.041  -0.068  1.00  0.00     0.064 C 
HETATM   37  C25 UNL     1       5.431   1.592   0.769  1.00  0.00     0.024 C 
BRANCH  36  38
HETATM   38  C26 UNL     1       4.301   1.458  -1.460  1.00  0.00    -0.007 C 
HETATM   39  C27 UNL     1       4.267  -0.046  -1.470  1.00  0.00     0.011 C 
HETATM   40  C28 UNL     1       5.630   1.874  -2.089  1.00  0.00     0.011 C 
ENDBRANCH  36  38
ENDBRANCH  35  36
ENDBRANCH  15  34
BRANCH   5  41
HETATM   41  O3  UNL     1      -4.726  -3.921  -2.594  1.00  0.00    -0.396 OA
ATOM     42  H3  UNL     1      -4.461  -4.823  -2.733  1.00  0.00     0.210 HD
ENDBRANCH   5  41
TORSDOF 8
