REMARK  12 active torsions:
REMARK  status: ('A' for Active; 'I' for Inactive)
REMARK    1  A    between atoms: O1_2  and  C2_3 
REMARK    2  A    between atoms: C3_4  and  C4_5 
REMARK    3  A    between atoms: C4_5  and  O2_6 
REMARK    4  A    between atoms: S1_12  and  C8_13 
REMARK    5  A    between atoms: C8_13  and  C9_14 
REMARK    6  A    between atoms: C9_14  and  C10_15 
REMARK    7  A    between atoms: C10_15  and  C11_16 
REMARK    8  A    between atoms: C11_16  and  S2_17 
REMARK    9  A    between atoms: S2_17  and  C12_19 
REMARK   10  A    between atoms: C15_22  and  C16_23 
REMARK   11  A    between atoms: C16_23  and  N2_27 
REMARK   12  A    between atoms: C18_33  and  O5_34 
ROOT
HETATM    1  C9  UNL     1       0.969   1.349   0.649  1.00  0.00     0.010 C 
ENDROOT
BRANCH   1   2
HETATM    2  C8  UNL     1      -0.509   1.742   0.563  1.00  0.00     0.064 C 
BRANCH   2   3
HETATM    3  S1  UNL     1      -1.427   0.586  -0.423  1.00  0.00    -0.210 SA
HETATM    4  C7  UNL     1      -1.282  -1.011   0.345  1.00  0.00     0.066 C 
HETATM    5  C6  UNL     1      -2.400  -1.081   1.301  1.00  0.00     0.042 C 
HETATM    6  C5  UNL     1      -3.276   0.088   1.253  1.00  0.00     0.138 C 
HETATM    7  O3  UNL     1      -4.566  -0.283   1.604  1.00  0.00    -0.374 OA
HETATM    8  C17 UNL     1      -3.164   0.832  -0.017  1.00  0.00     0.098 C 
HETATM    9  C3  UNL     1      -5.437  -0.489   0.589  1.00  0.00     0.177 C 
HETATM   10  C2  UNL     1      -4.876  -0.805  -0.746  1.00  0.00     0.181 C 
HETATM   11  C18 UNL     1      -3.960   0.324  -1.159  1.00  0.00     0.165 C 
BRANCH   9  12
HETATM   12  C4  UNL     1      -6.320   0.756   0.435  1.00  0.00     0.198 C 
BRANCH  12  13
HETATM   13  O2  UNL     1      -6.980   0.904   1.659  1.00  0.00    -0.398 OA
ATOM     14  H2  UNL     1      -7.527   1.675   1.564  1.00  0.00     0.209 HD
ENDBRANCH  12  13
ENDBRANCH   9  12
BRANCH  10  15
HETATM   15  O1  UNL     1      -5.929  -0.894  -1.654  1.00  0.00    -0.385 OA
HETATM   16  C1  UNL     1      -5.927  -2.128  -2.314  1.00  0.00     0.202 C 
ENDBRANCH  10  15
BRANCH  11  17
HETATM   17  O5  UNL     1      -3.193  -0.068  -2.253  1.00  0.00    -0.392 OA
ATOM     18  H5  UNL     1      -2.617   0.642  -2.513  1.00  0.00     0.210 HD
ENDBRANCH  11  17
ENDBRANCH   2   3
ENDBRANCH   1   2
BRANCH   1  19
HETATM   19  C10 UNL     1       1.488   1.341  -0.742  1.00  0.00     0.014 C 
BRANCH  19  20
HETATM   20  C11 UNL     1       2.918   1.009  -0.936  1.00  0.00     0.116 C 
BRANCH  20  21
HETATM   21  S2  UNL     1       3.449  -0.565  -0.386  1.00  0.00     0.066 S 
HETATM   22  O4  UNL     1       3.197  -0.725   1.260  1.00  0.00    -0.251 OA
BRANCH  21  23
HETATM   23  C12 UNL     1       5.202  -0.654  -0.635  1.00  0.00     0.101 A 
HETATM   24  C13 UNL     1       5.861  -1.101  -1.749  1.00  0.00     0.041 A 
HETATM   25  C14 UNL     1       7.208  -0.987  -1.490  1.00  0.00     0.036 A 
HETATM   26  C15 UNL     1       7.385  -0.472  -0.224  1.00  0.00     0.078 A 
HETATM   27  N3  UNL     1       6.144  -0.289   0.250  1.00  0.00    -0.346 N 
ATOM     28  H3  UNL     1       5.939   0.085   1.177  1.00  0.00     0.167 HD
BRANCH  26  29
HETATM   29  C16 UNL     1       8.672  -0.198   0.430  1.00  0.00     0.136 C 
HETATM   30  N1  UNL     1       9.762  -0.445  -0.198  1.00  0.00    -0.383 N 
ATOM     31  H12 UNL     1       9.706  -0.829  -1.141  1.00  0.00     0.157 HD
ATOM     32  H11 UNL     1      10.655  -0.255   0.256  1.00  0.00     0.157 HD
BRANCH  29  33
HETATM   33  N2  UNL     1       8.749   0.332   1.732  1.00  0.00    -0.283 N 
HETATM   34 CL1  UNL     1       8.572   2.030   1.973  1.00  0.00     0.012 Cl
ATOM     35  H2  UNL     1       8.909  -0.285   2.528  1.00  0.00     0.182 HD
ENDBRANCH  29  33
ENDBRANCH  26  29
ENDBRANCH  21  23
ENDBRANCH  20  21
ENDBRANCH  19  20
ENDBRANCH   1  19
TORSDOF 12
