REMARK  10 active torsions:
REMARK  status: ('A' for Active; 'I' for Inactive)
REMARK    1  A    between atoms: C2_2  and  C4_4 
REMARK    2  A    between atoms: C4_4  and  C5_5 
REMARK    3  A    between atoms: C12_14  and  N2_15 
REMARK    4  A    between atoms: N2_15  and  C13_18 
REMARK    5  A    between atoms: C13_18  and  C14_19 
REMARK    6  A    between atoms: C14_19  and  C15_20 
REMARK    7  A    between atoms: C15_20  and  N3_22 
REMARK    8  A    between atoms: C17_26  and  O2_27 
REMARK    9  A    between atoms: C20_32  and  C21_33 
REMARK   10  A    between atoms: C21_33  and  C22_34 
ROOT
HETATM    1  C5  UNL     1      -2.517  -1.540   0.368  1.00  0.00     0.109 C 
HETATM    2  C6  UNL     1      -1.077  -2.051   0.314  1.00  0.00     0.121 C 
HETATM    3  C7  UNL     1      -0.648  -2.434  -1.035  1.00  0.00     0.225 C 
HETATM    4  O1  UNL     1      -1.503  -3.020  -1.787  1.00  0.00    -0.273 OA
HETATM    5  N1  UNL     1       0.670  -2.175  -1.509  1.00  0.00    -0.321 N 
HETATM    6  C8  UNL     1       1.131  -2.215  -2.860  1.00  0.00     0.090 C 
HETATM    7  C9  UNL     1       2.443  -2.325  -2.920  1.00  0.00    -0.007 C 
HETATM    8  C10 UNL     1       2.957  -2.368  -1.544  1.00  0.00     0.056 C 
HETATM    9  C11 UNL     1       1.808  -1.846  -0.702  1.00  0.00     0.129 C 
HETATM   10  C12 UNL     1       2.023  -0.428  -0.348  1.00  0.00     0.238 C 
HETATM   11  C17 UNL     1       1.477   0.605  -1.262  1.00  0.00     0.158 C 
HETATM   12  C18 UNL     1       0.780   1.754  -0.532  1.00  0.00     0.114 C 
HETATM   13  C19 UNL     1      -0.612   1.944  -1.060  1.00  0.00     0.151 C 
HETATM   14  O3  UNL     1      -0.709   2.600  -2.075  1.00  0.00    -0.296 OA
HETATM   15  C20 UNL     1      -1.782   1.370  -0.394  1.00  0.00     0.154 C 
HETATM   16  N4  UNL     1      -2.345   0.364  -1.293  1.00  0.00    -0.349 N 
ATOM     17  H4  UNL     1      -2.343   0.570  -2.292  1.00  0.00     0.163 HD
HETATM   18  C25 UNL     1      -2.897  -0.885  -0.876  1.00  0.00     0.226 C 
HETATM   19  O4  UNL     1      -3.743  -1.378  -1.679  1.00  0.00    -0.273 OA
ENDROOT
BRANCH  10  20
HETATM   20  N2  UNL     1       3.487  -0.242  -0.107  1.00  0.00    -0.066 N 
ATOM     21  H22 UNL     1       3.900  -1.079   0.305  1.00  0.00     0.277 HD
ATOM     22  H21 UNL     1       4.003  -0.219  -0.986  1.00  0.00     0.277 HD
BRANCH  20  23
HETATM   23  C13 UNL     1       3.768   0.902   0.677  1.00  0.00     0.235 C 
BRANCH  23  24
HETATM   24  C14 UNL     1       5.216   1.194   0.802  1.00  0.00     0.059 C 
BRANCH  24  25
HETATM   25  C15 UNL     1       6.106   0.186   1.425  1.00  0.00     0.181 C 
HETATM   26  C16 UNL     1       6.192  -1.128   0.742  1.00  0.00     0.039 C 
BRANCH  25  27
HETATM   27  N3  UNL     1       7.459   0.779   1.447  1.00  0.00    -0.075 N 
ATOM     28  H33 UNL     1       7.779   1.089   0.530  1.00  0.00     0.274 HD
ATOM     29  H32 UNL     1       7.494   1.689   1.907  1.00  0.00     0.274 HD
ATOM     30  H31 UNL     1       8.072   0.085   1.876  1.00  0.00     0.274 HD
ENDBRANCH  25  27
ENDBRANCH  24  25
ENDBRANCH  23  24
ENDBRANCH  20  23
ENDBRANCH  10  20
BRANCH  11  31
HETATM   31  O2  UNL     1       2.567   1.189  -1.946  1.00  0.00    -0.393 OA
ATOM     32  H2  UNL     1       2.217   1.851  -2.531  1.00  0.00     0.210 HD
ENDBRANCH  11  31
BRANCH  15  33
HETATM   33  C21 UNL     1      -2.907   2.281  -0.036  1.00  0.00     0.037 C 
BRANCH  33  34
HETATM   34  C22 UNL     1      -2.633   3.399   0.896  1.00  0.00    -0.020 C 
HETATM   35  C23 UNL     1      -4.014   4.100   1.098  1.00  0.00     0.009 C 
HETATM   36  C24 UNL     1      -1.821   4.493   0.189  1.00  0.00     0.009 C 
ENDBRANCH  33  34
ENDBRANCH  15  33
BRANCH   1  37
HETATM   37  C4  UNL     1      -3.358  -2.623   0.899  1.00  0.00    -0.010 C 
BRANCH  37  38
HETATM   38  C2  UNL     1      -4.790  -2.472   1.144  1.00  0.00    -0.091 C 
HETATM   39  C1  UNL     1      -5.176  -1.352   2.098  1.00  0.00     0.042 C 
HETATM   40  C3  UNL     1      -5.788  -2.665   0.067  1.00  0.00     0.042 C 
ENDBRANCH  37  38
ENDBRANCH   1  37
TORSDOF 10
