REMARK  13 active torsions:
REMARK  status: ('A' for Active; 'I' for Inactive)
REMARK    1  A    between atoms: C2_2  and  C3_3 
REMARK    2  A    between atoms: C3_3  and  C4_4 
REMARK    3  A    between atoms: C4_4  and  C6_6 
REMARK    4  A    between atoms: C6_6  and  C7_7 
REMARK    5  A    between atoms: C9_12  and  C10_13 
REMARK    6  A    between atoms: C17_24  and  C18_25 
REMARK    7  A    between atoms: C20_32  and  C21_33 
REMARK    8  A    between atoms: C21_33  and  C22_34 
REMARK    9  A    between atoms: C22_34  and  C23_35 
REMARK   10  A    between atoms: C23_35  and  N3_36 
REMARK   11  A    between atoms: N6_41  and  C25_42 
REMARK   12  A    between atoms: C26_43  and  N7_44 
REMARK   13  A    between atoms: N7_44  and  C27_46 
ROOT
HETATM    1  C7  UNL     1      -0.932  -1.212  -0.196  1.00  0.00     0.160 C 
HETATM    2  C8  UNL     1       0.122  -1.257  -1.296  1.00  0.00     0.237 C 
HETATM    3  O1  UNL     1      -0.181  -0.691  -2.357  1.00  0.00    -0.272 OA
HETATM    4  N1  UNL     1       1.376  -1.882  -1.190  1.00  0.00    -0.344 N 
ATOM      5  H1  UNL     1       2.176  -1.360  -1.548  1.00  0.00     0.163 HD
HETATM    6  C9  UNL     1       1.656  -3.183  -0.629  1.00  0.00     0.204 C 
HETATM    7  C11 UNL     1       2.897  -3.129   0.285  1.00  0.00     0.042 C 
HETATM    8  C12 UNL     1       3.030  -4.463   1.026  1.00  0.00     0.030 C 
HETATM    9  C13 UNL     1       4.159  -2.941  -0.498  1.00  0.00     0.030 C 
HETATM   10  S1  UNL     1       2.566  -1.882   1.513  1.00  0.00    -0.085 SA
HETATM   11  S2  UNL     1       4.147  -0.706   2.129  1.00  0.00    -0.085 SA
HETATM   12  C14 UNL     1       4.368   0.862   1.304  1.00  0.00     0.042 C 
HETATM   13  C15 UNL     1       5.143   1.826   2.179  1.00  0.00     0.030 C 
HETATM   14  C16 UNL     1       5.285   0.592   0.099  1.00  0.00     0.030 C 
HETATM   15  C17 UNL     1       3.099   1.471   0.732  1.00  0.00     0.204 C 
HETATM   16  N2  UNL     1       2.022   1.441   1.677  1.00  0.00    -0.340 N 
ATOM     17  H2  UNL     1       2.250   1.779   2.612  1.00  0.00     0.163 HD
HETATM   18  C19 UNL     1       0.684   1.008   1.495  1.00  0.00     0.263 C 
HETATM   19  O6  UNL     1       0.131   0.600   2.579  1.00  0.00    -0.267 OA
HETATM   20  C20 UNL     1      -0.064   0.995   0.225  1.00  0.00     0.080 C 
HETATM   21  N6  UNL     1      -1.227   0.191   0.109  1.00  0.00    -0.241 NA
ENDROOT
BRANCH  20  22
HETATM   22  C21 UNL     1      -0.016   2.170  -0.649  1.00  0.00     0.004 C 
BRANCH  22  23
HETATM   23  C22 UNL     1      -0.419   3.512  -0.204  1.00  0.00     0.049 C 
BRANCH  23  24
HETATM   24  C23 UNL     1      -0.204   4.523  -1.364  1.00  0.00     0.126 C 
BRANCH  24  25
HETATM   25  N3  UNL     1      -0.597   5.824  -0.924  1.00  0.00    -0.367 N 
HETATM   26  C24 UNL     1      -1.460   6.528  -1.561  1.00  0.00     0.196 C 
HETATM   27  N4  UNL     1      -1.787   7.820  -1.040  1.00  0.00    -0.067 NA
HETATM   28  N5  UNL     1      -2.044   6.012  -2.733  1.00  0.00    -0.067 NA
ATOM     29  H3  UNL     1      -0.178   6.206  -0.076  1.00  0.00     0.161 HD
ENDBRANCH  24  25
ENDBRANCH  23  24
ENDBRANCH  22  23
ENDBRANCH  20  22
BRANCH  21  30
HETATM   30  C25 UNL     1      -2.154   0.179   1.157  1.00  0.00     0.083 C 
HETATM   31  C26 UNL     1      -2.814   1.281   1.813  1.00  0.00     0.102 C 
BRANCH  31  32
HETATM   32  N7  UNL     1      -3.719   2.118   1.049  1.00  0.00    -0.343 N 
ATOM     33  H7  UNL     1      -3.491   3.110   0.991  1.00  0.00     0.167 HD
BRANCH  32  34
HETATM   34  C27 UNL     1      -4.881   1.692   0.381  1.00  0.00     0.352 C 
HETATM   35  O7  UNL     1      -5.338   0.542   0.324  1.00  0.00    -0.283 OA
ENDBRANCH  32  34
ENDBRANCH  31  32
ENDBRANCH  21  30
BRANCH   1  36
HETATM   36  C6  UNL     1      -1.936  -2.124  -0.717  1.00  0.00     0.034 C 
BRANCH  36  37
HETATM   37  C4  UNL     1      -3.170  -2.626  -0.175  1.00  0.00    -0.017 C 
HETATM   38  C5  UNL     1      -3.654  -3.762  -1.172  1.00  0.00     0.010 C 
BRANCH  37  39
HETATM   39  C3  UNL     1      -3.087  -3.396   1.123  1.00  0.00     0.004 C 
BRANCH  39  40
HETATM   40  C2  UNL     1      -4.461  -3.952   1.417  1.00  0.00    -0.004 C 
HETATM   41  C1  UNL     1      -5.479  -2.845   1.552  1.00  0.00     0.005 C 
ENDBRANCH  39  40
ENDBRANCH  37  39
ENDBRANCH  36  37
ENDBRANCH   1  36
BRANCH  15  42
HETATM   42  C18 UNL     1       3.509   2.895   0.425  1.00  0.00     0.198 C 
HETATM   43  O4  UNL     1       2.980   3.884   0.992  1.00  0.00    -0.646 OA
HETATM   44  O5  UNL     1       4.503   3.050  -0.522  1.00  0.00    -0.646 OA
ENDBRANCH  15  42
BRANCH   6  45
HETATM   45  C10 UNL     1       1.987  -4.100  -1.747  1.00  0.00     0.198 C 
HETATM   46  O2  UNL     1       1.994  -3.675  -2.922  1.00  0.00    -0.646 OA
HETATM   47  O3  UNL     1       2.286  -5.433  -1.435  1.00  0.00    -0.646 OA
ENDBRANCH   6  45
TORSDOF 13
