REMARK  22 active torsions:
REMARK  status: ('A' for Active; 'I' for Inactive)
REMARK    1  A    between atoms: C2_2  and  C30_52 
REMARK    2  A    between atoms: C4_4  and  N1_5 
REMARK    3  A    between atoms: C5_9  and  O1_10 
REMARK    4  A    between atoms: C6_12  and  O2_13 
REMARK    5  A    between atoms: C8_16  and  C9_17 
REMARK    6  A    between atoms: C9_17  and  O3_18 
REMARK    7  A    between atoms: C9_17  and  N2_20 
REMARK    8  A    between atoms: N2_20  and  C10_23 
REMARK    9  A    between atoms: C10_23  and  C11_24 
REMARK   10  A    between atoms: C11_24  and  O4_25 
REMARK   11  A    between atoms: C11_24  and  C12_27 
REMARK   12  A    between atoms: C12_27  and  N3_28 
REMARK   13  A    between atoms: N3_28  and  C13_29 
REMARK   14  A    between atoms: N3_28  and  S2_42 
REMARK   15  A    between atoms: C13_29  and  C14_30 
REMARK   16  A    between atoms: C14_30  and  O5_31 
REMARK   17  A    between atoms: C14_30  and  C15_33 
REMARK   18  A    between atoms: C15_33  and  S1_34 
REMARK   19  A    between atoms: S1_34  and  C16_35 
REMARK   20  A    between atoms: C16_35  and  C17_36 
REMARK   21  A    between atoms: S2_42  and  C23_45 
REMARK   22  A    between atoms: C23_45  and  C24_46 
ROOT
HETATM    1  C11 UNL     1       0.292  -0.052  -0.398  1.00  0.00     0.158 C 
ENDROOT
BRANCH   1   2
HETATM    2  C10 UNL     1      -1.005  -0.398   0.272  1.00  0.00     0.268 C 
BRANCH   2   3
HETATM    3  N2  UNL     1      -2.034  -0.468  -0.780  1.00  0.00    -0.046 N 
ATOM      4  H22 UNL     1      -1.663  -0.841  -1.654  1.00  0.00     0.280 HD
ATOM      5  H21 UNL     1      -2.302   0.458  -1.115  1.00  0.00     0.280 HD
BRANCH   3   6
HETATM    6  C9  UNL     1      -3.166  -1.219  -0.312  1.00  0.00     0.327 C 
BRANCH   6   7
HETATM    7  C8  UNL     1      -4.503  -0.578  -0.480  1.00  0.00     0.076 C 
HETATM    8  C3  UNL     1      -4.775   0.562   0.454  1.00  0.00    -0.036 C 
HETATM    9  C2  UNL     1      -5.095   1.757   0.038  1.00  0.00    -0.075 C 
HETATM   10  C4  UNL     1      -4.743   0.151   1.879  1.00  0.00     0.244 C 
HETATM   11  C1  UNL     1      -5.481   2.861   0.976  1.00  0.00     0.044 C 
HETATM   12  C5  UNL     1      -5.851  -0.872   2.074  1.00  0.00     0.181 C 
HETATM   13  C6  UNL     1      -5.801  -2.014   1.123  1.00  0.00     0.150 C 
HETATM   14  C7  UNL     1      -5.588  -1.641  -0.300  1.00  0.00     0.048 C 
BRANCH   9  15
HETATM   15  C30 UNL     1      -5.053   2.202  -1.404  1.00  0.00     0.006 C 
HETATM   16  C31 UNL     1      -6.393   2.668  -1.895  1.00  0.00     0.014 C 
HETATM   17  C32 UNL     1      -4.106   3.422  -1.444  1.00  0.00     0.014 C 
ENDBRANCH   9  15
BRANCH  10  18
HETATM   18  N1  UNL     1      -4.851   1.144   2.870  1.00  0.00    -0.069 N 
ATOM     19  H13 UNL     1      -4.130   1.848   2.713  1.00  0.00     0.275 HD
ATOM     20  H12 UNL     1      -5.697   1.688   2.702  1.00  0.00     0.275 HD
ATOM     21  H11 UNL     1      -4.829   0.861   3.850  1.00  0.00     0.275 HD
ENDBRANCH  10  18
BRANCH  12  22
HETATM   22  O1  UNL     1      -7.089  -0.257   2.140  1.00  0.00    -0.391 OA
ATOM     23  H1  UNL     1      -7.781  -0.896   2.262  1.00  0.00     0.210 HD
ENDBRANCH  12  22
BRANCH  13  24
HETATM   24  O2  UNL     1      -7.017  -2.701   1.216  1.00  0.00    -0.393 OA
ATOM     25  H2  UNL     1      -6.985  -3.431   0.608  1.00  0.00     0.210 HD
ENDBRANCH  13  24
ENDBRANCH   6   7
BRANCH   6  26
HETATM   26  O3  UNL     1      -3.187  -2.317  -1.279  1.00  0.00    -0.369 OA
ATOM     27  H3  UNL     1      -2.336  -2.725  -1.172  1.00  0.00     0.212 HD
ENDBRANCH   6  26
ENDBRANCH   3   6
ENDBRANCH   2   3
ENDBRANCH   1   2
BRANCH   1  28
HETATM   28  O4  UNL     1       0.266   1.159  -1.013  1.00  0.00    -0.393 OA
ATOM     29  H4  UNL     1       1.087   1.378  -1.437  1.00  0.00     0.210 HD
ENDBRANCH   1  28
BRANCH   1  30
HETATM   30  C12 UNL     1       1.512  -0.366   0.363  1.00  0.00     0.140 C 
BRANCH  30  31
HETATM   31  N3  UNL     1       2.719  -0.618  -0.353  1.00  0.00    -0.205 NA
BRANCH  31  32
HETATM   32  C13 UNL     1       3.015   0.065  -1.522  1.00  0.00     0.139 C 
BRANCH  32  33
HETATM   33  C14 UNL     1       4.299   0.899  -1.541  1.00  0.00     0.141 C 
BRANCH  33  34
HETATM   34  O5  UNL     1       4.397   1.545  -2.793  1.00  0.00    -0.394 OA
ATOM     35  H5  UNL     1       5.194   2.062  -2.805  1.00  0.00     0.210 HD
ENDBRANCH  33  34
BRANCH  33  36
HETATM   36  C15 UNL     1       5.552   0.104  -1.388  1.00  0.00     0.107 C 
BRANCH  36  37
HETATM   37  S1  UNL     1       7.094   0.946  -1.434  1.00  0.00    -0.162 SA
BRANCH  37  38
HETATM   38  C16 UNL     1       7.606   2.025  -0.157  1.00  0.00     0.112 C 
BRANCH  38  39
HETATM   39  C17 UNL     1       6.916   3.337  -0.036  1.00  0.00    -0.049 A 
HETATM   40  C18 UNL     1       5.849   3.572   0.774  1.00  0.00     0.008 A 
HETATM   41  C19 UNL     1       5.257   4.805   0.856  1.00  0.00     0.001 A 
HETATM   42  C20 UNL     1       5.735   5.856   0.110  1.00  0.00     0.000 A 
HETATM   43  C21 UNL     1       6.808   5.656  -0.718  1.00  0.00     0.001 A 
HETATM   44  C22 UNL     1       7.385   4.413  -0.785  1.00  0.00     0.008 A 
ENDBRANCH  38  39
ENDBRANCH  37  38
ENDBRANCH  36  37
ENDBRANCH  33  36
ENDBRANCH  32  33
ENDBRANCH  31  32
BRANCH  31  45
HETATM   45  S2  UNL     1       2.888  -2.335  -0.471  1.00  0.00     0.215 S 
HETATM   46  O6  UNL     1       1.591  -2.844  -1.096  1.00  0.00    -0.211 OA
HETATM   47  O7  UNL     1       4.029  -2.703  -1.308  1.00  0.00    -0.211 OA
BRANCH  45  48
HETATM   48  C23 UNL     1       3.030  -3.078   1.124  1.00  0.00     0.196 C 
BRANCH  48  49
HETATM   49  C24 UNL     1       3.202  -4.561   0.976  1.00  0.00    -0.043 A 
HETATM   50  C25 UNL     1       4.488  -5.055   0.864  1.00  0.00     0.008 A 
HETATM   51  C26 UNL     1       4.713  -6.394   0.731  1.00  0.00     0.001 A 
HETATM   52  C27 UNL     1       3.623  -7.243   0.711  1.00  0.00     0.000 A 
HETATM   53  C28 UNL     1       2.344  -6.786   0.819  1.00  0.00     0.001 A 
HETATM   54  C29 UNL     1       2.128  -5.420   0.954  1.00  0.00     0.008 A 
ENDBRANCH  48  49
ENDBRANCH  45  48
ENDBRANCH  31  45
ENDBRANCH  30  31
ENDBRANCH   1  30
TORSDOF 22
