REMARK  21 active torsions:
REMARK  status: ('A' for Active; 'I' for Inactive)
REMARK    1  A    between atoms: C2_2  and  C4_4 
REMARK    2  A    between atoms: C4_4  and  C5_5 
REMARK    3  A    between atoms: C5_5  and  N1_6 
REMARK    4  A    between atoms: C5_5  and  C13_23 
REMARK    5  A    between atoms: N1_6  and  C6_8 
REMARK    6  A    between atoms: C6_8  and  O1_9 
REMARK    7  A    between atoms: C6_8  and  C7_11 
REMARK    8  A    between atoms: C7_11  and  N2_12 
REMARK    9  A    between atoms: C7_11  and  C8_16 
REMARK       I    between atoms: C8_16  and  N3_18 
REMARK       I    between atoms: C13_23  and  N4_25 
REMARK   10  A    between atoms: N4_25  and  C14_27 
REMARK   11  A    between atoms: C14_27  and  O4_28 
REMARK   12  A    between atoms: C14_27  and  C15_30 
REMARK   13  A    between atoms: C15_30  and  C16_31 
REMARK   14  A    between atoms: C15_30  and  N5_39 
REMARK   15  A    between atoms: C16_31  and  C17_32 
REMARK   16  A    between atoms: N5_39  and  C24_41 
REMARK   17  A    between atoms: C24_41  and  O5_42 
REMARK   18  A    between atoms: C24_41  and  C25_44 
REMARK   19  A    between atoms: C25_44  and  N6_45 
REMARK   20  A    between atoms: C25_44  and  C31_54 
REMARK       I    between atoms: N6_45  and  C26_47 
REMARK   21  A    between atoms: C26_47  and  C27_49 
ROOT
HETATM    1  C27 UNL     1      -5.897  -3.521  -1.692  1.00  0.00     0.122 C 
HETATM    2  C28 UNL     1      -6.836  -3.082  -0.570  1.00  0.00     0.041 C 
HETATM    3  C29 UNL     1      -5.574  -4.969  -1.441  1.00  0.00     0.041 C 
HETATM    4  C30 UNL     1      -6.552  -3.385  -2.976  1.00  0.00     0.078 C 
HETATM    5  N7  UNL     1      -7.065  -3.257  -4.005  1.00  0.00    -0.196 NA
ENDROOT
BRANCH   1   6
HETATM    6  C26 UNL     1      -4.648  -2.713  -1.708  1.00  0.00     0.240 C 
HETATM    7  N6  UNL     1      -4.740  -1.296  -1.737  1.00  0.00    -0.347 N 
ATOM      8  H6  UNL     1      -5.659  -0.853  -1.746  1.00  0.00     0.163 HD
HETATM    9  O6  UNL     1      -3.550  -3.317  -1.696  1.00  0.00    -0.272 OA
BRANCH   7  10
HETATM   10  C25 UNL     1      -3.520  -0.450  -1.755  1.00  0.00     0.162 C 
BRANCH  10  11
HETATM   11  C24 UNL     1      -3.269   0.095  -0.437  1.00  0.00     0.139 C 
BRANCH  11  12
HETATM   12  N5  UNL     1      -2.227   0.953  -0.013  1.00  0.00    -0.342 N 
ATOM     13  H5  UNL     1      -1.543   1.269  -0.701  1.00  0.00     0.167 HD
BRANCH  12  14
HETATM   14  C15 UNL     1      -2.092   1.397   1.342  1.00  0.00     0.037 C 
BRANCH  14  15
HETATM   15  C14 UNL     1      -0.707   1.407   1.833  1.00  0.00     0.267 C 
BRANCH  15  16
HETATM   16  N4  UNL     1       0.003   0.160   1.693  1.00  0.00    -0.328 N 
HETATM   17  C13 UNL     1       1.367   0.129   1.261  1.00  0.00     0.242 C 
HETATM   18  O3  UNL     1       1.885   1.274   1.026  1.00  0.00    -0.271 OA
ATOM     19  H4  UNL     1      -0.475  -0.715   1.906  1.00  0.00     0.165 HD
BRANCH  17  20
HETATM   20  C5  UNL     1       2.214  -1.053   1.069  1.00  0.00     0.176 C 
BRANCH  20  21
HETATM   21  C4  UNL     1       1.465  -2.305   1.492  1.00  0.00     0.038 C 
BRANCH  21  22
HETATM   22  C2  UNL     1       2.077  -3.583   1.058  1.00  0.00    -0.020 C 
HETATM   23  C1  UNL     1       3.448  -3.880   1.572  1.00  0.00     0.009 C 
HETATM   24  C3  UNL     1       1.126  -4.706   1.474  1.00  0.00     0.009 C 
ENDBRANCH  21  22
ENDBRANCH  20  21
BRANCH  20  25
HETATM   25  N1  UNL     1       3.502  -1.056   1.597  1.00  0.00    -0.359 N 
ATOM     26  H1  UNL     1       3.785  -1.908   2.081  1.00  0.00     0.162 HD
BRANCH  25  27
HETATM   27  C6  UNL     1       4.444  -0.047   1.546  1.00  0.00     0.152 C 
BRANCH  27  28
HETATM   28  O1  UNL     1       4.195   1.060   2.391  1.00  0.00    -0.348 OA
ATOM     29  H1  UNL     1       4.843   1.754   2.356  1.00  0.00     0.219 HD
ENDBRANCH  27  28
BRANCH  27  30
HETATM   30  C7  UNL     1       4.998   0.446   0.259  1.00  0.00     0.348 C 
BRANCH  30  31
HETATM   31  N2  UNL     1       6.237   1.191   0.648  1.00  0.00    -0.059 N 
ATOM     32  H23 UNL     1       6.083   1.922   1.343  1.00  0.00     0.275 HD
ATOM     33  H22 UNL     1       6.895   0.644   1.203  1.00  0.00     0.275 HD
ATOM     34  H21 UNL     1       6.617   1.530  -0.236  1.00  0.00     0.275 HD
ENDBRANCH  30  31
BRANCH  30  35
HETATM   35  C8  UNL     1       5.507  -0.601  -0.660  1.00  0.00     0.258 C 
HETATM   36  O2  UNL     1       4.682  -1.060  -1.518  1.00  0.00    -0.271 OA
HETATM   37  N3  UNL     1       6.817  -1.114  -0.654  1.00  0.00    -0.350 N 
HETATM   38  C9  UNL     1       7.930  -0.854   0.230  1.00  0.00     0.126 C 
HETATM   39  C12 UNL     1       7.276  -2.058  -1.693  1.00  0.00     0.126 C 
HETATM   40  C10 UNL     1       8.763  -2.149   0.199  1.00  0.00     0.021 C 
HETATM   41  C11 UNL     1       8.571  -2.633  -1.211  1.00  0.00     0.021 C 
ENDBRANCH  30  35
ENDBRANCH  27  30
ENDBRANCH  25  27
ENDBRANCH  20  25
ENDBRANCH  17  20
ENDBRANCH  15  16
BRANCH  15  42
HETATM   42  O4  UNL     1      -0.616   1.790   3.185  1.00  0.00    -0.371 OA
ATOM     43  H4  UNL     1      -1.084   2.612   3.277  1.00  0.00     0.212 HD
ENDBRANCH  15  42
ENDBRANCH  14  15
BRANCH  14  44
HETATM   44  C16 UNL     1      -2.887   2.601   1.743  1.00  0.00     0.065 C 
BRANCH  44  45
HETATM   45  C17 UNL     1      -2.413   3.935   1.349  1.00  0.00     0.013 C 
HETATM   46  C18 UNL     1      -3.404   4.928   1.945  1.00  0.00    -0.026 C 
HETATM   47  C19 UNL     1      -3.902   6.056   1.519  1.00  0.00    -0.030 C 
HETATM   48  C20 UNL     1      -3.639   6.764   0.240  1.00  0.00     0.027 C 
HETATM   49  C21 UNL     1      -2.176   6.757  -0.035  1.00  0.00     0.004 C 
HETATM   50  C22 UNL     1      -1.598   5.455  -0.454  1.00  0.00     0.001 C 
HETATM   51  C23 UNL     1      -2.461   4.247  -0.129  1.00  0.00     0.009 C 
ENDBRANCH  44  45
ENDBRANCH  14  44
ENDBRANCH  12  14
ENDBRANCH  11  12
BRANCH  11  52
HETATM   52  O5  UNL     1      -4.094  -0.231   0.521  1.00  0.00    -0.348 OA
ATOM     53  H5  UNL     1      -4.794  -0.807   0.236  1.00  0.00     0.219 HD
ENDBRANCH  11  52
ENDBRANCH  10  11
BRANCH  10  54
HETATM   54  C31 UNL     1      -3.558   0.463  -2.919  1.00  0.00     0.008 C 
HETATM   55  C32 UNL     1      -2.321   1.233  -3.237  1.00  0.00     0.012 C 
HETATM   56  C33 UNL     1      -3.980  -0.261  -4.195  1.00  0.00     0.012 C 
ENDBRANCH  10  54
ENDBRANCH   7  10
ENDBRANCH   1   6
TORSDOF 21
