REMARK  22 active torsions:
REMARK  status: ('A' for Active; 'I' for Inactive)
REMARK    1  A    between atoms: C2_2  and  C4_4 
REMARK    2  A    between atoms: C4_4  and  C5_5 
REMARK    3  A    between atoms: C5_5  and  O1_6 
REMARK    4  A    between atoms: C5_5  and  C6_8 
REMARK    5  A    between atoms: C6_8  and  O2_9 
REMARK    6  A    between atoms: C6_8  and  N1_11 
REMARK    7  A    between atoms: N1_11  and  C7_13 
REMARK    8  A    between atoms: C7_13  and  C8_14 
REMARK    9  A    between atoms: C7_13  and  C11_17 
REMARK   10  A    between atoms: C12_18  and  O3_19 
REMARK   11  A    between atoms: N2_22  and  C14_23 
REMARK   12  A    between atoms: C14_23  and  O4_24 
REMARK   13  A    between atoms: C15_26  and  N3_27 
REMARK   14  A    between atoms: C15_26  and  C31_52 
REMARK       I    between atoms: N3_27  and  C16_29 
REMARK   15  A    between atoms: C16_29  and  C17_31 
REMARK   16  A    between atoms: C17_31  and  N4_32 
REMARK   17  A    between atoms: C17_31  and  C28_49 
REMARK       I    between atoms: N4_32  and  C18_34 
REMARK   18  A    between atoms: C18_34  and  C19_36 
REMARK   19  A    between atoms: C19_36  and  N5_37 
REMARK   20  A    between atoms: C19_36  and  C25_46 
REMARK       I    between atoms: N5_37  and  C20_39 
REMARK   21  A    between atoms: C20_39  and  O8_41 
REMARK   22  A    between atoms: O8_41  and  C21_42 
ROOT
HETATM    1  C14 UNL     1       1.774  -1.796   0.127  1.00  0.00     0.162 C 
HETATM    2  C15 UNL     1       0.526  -2.345  -0.292  1.00  0.00     0.066 C 
ENDROOT
BRANCH   2   3
HETATM    3  N3  UNL     1      -0.199  -1.457  -1.228  1.00  0.00    -0.325 N 
HETATM    4  C16 UNL     1      -1.570  -1.178  -1.061  1.00  0.00     0.245 C 
HETATM    5  O5  UNL     1      -2.178  -1.689  -0.114  1.00  0.00    -0.271 OA
ATOM      6  H3  UNL     1       0.304  -1.038  -2.010  1.00  0.00     0.169 HD
BRANCH   4   7
HETATM    7  C17 UNL     1      -2.322  -0.296  -1.980  1.00  0.00     0.180 C 
BRANCH   7   8
HETATM    8  N4  UNL     1      -3.698  -0.226  -1.682  1.00  0.00    -0.346 N 
HETATM    9  C18 UNL     1      -4.366   0.303  -0.566  1.00  0.00     0.241 C 
HETATM   10  O6  UNL     1      -3.741   0.834   0.379  1.00  0.00    -0.271 OA
ATOM     11  H4  UNL     1      -4.309  -0.625  -2.394  1.00  0.00     0.163 HD
BRANCH   9  12
HETATM   12  C19 UNL     1      -5.844   0.259  -0.456  1.00  0.00     0.182 C 
BRANCH  12  13
HETATM   13  N5  UNL     1      -6.298   1.089   0.658  1.00  0.00    -0.323 N 
HETATM   14  C20 UNL     1      -7.400   1.963   0.519  1.00  0.00     0.362 C 
HETATM   15  O7  UNL     1      -7.997   2.023  -0.572  1.00  0.00    -0.238 OA
ATOM     16  H5  UNL     1      -5.810   1.037   1.552  1.00  0.00     0.165 HD
BRANCH  14  17
HETATM   17  O8  UNL     1      -7.807   2.737   1.573  1.00  0.00    -0.294 OA
BRANCH  17  18
HETATM   18  C21 UNL     1      -8.901   3.631   1.524  1.00  0.00     0.061 C 
HETATM   19  C22 UNL     1     -10.199   2.911   1.220  1.00  0.00     0.046 C 
HETATM   20  C23 UNL     1      -8.997   4.325   2.856  1.00  0.00     0.046 C 
HETATM   21  C24 UNL     1      -8.648   4.655   0.443  1.00  0.00     0.046 C 
ENDBRANCH  17  18
ENDBRANCH  14  17
ENDBRANCH  12  13
BRANCH  12  22
HETATM   22  C25 UNL     1      -6.353  -1.140  -0.091  1.00  0.00     0.009 C 
HETATM   23  C26 UNL     1      -5.815  -1.629   1.215  1.00  0.00     0.012 C 
HETATM   24  C27 UNL     1      -6.230  -2.095  -1.228  1.00  0.00     0.012 C 
ENDBRANCH  12  22
ENDBRANCH   9  12
ENDBRANCH   7   8
BRANCH   7  25
HETATM   25  C28 UNL     1      -1.616   0.993  -2.269  1.00  0.00     0.009 C 
HETATM   26  C29 UNL     1      -2.488   1.804  -3.207  1.00  0.00     0.012 C 
HETATM   27  C30 UNL     1      -1.235   1.824  -1.105  1.00  0.00     0.012 C 
ENDBRANCH   7  25
ENDBRANCH   4   7
ENDBRANCH   2   3
BRANCH   2  28
HETATM   28  C31 UNL     1       0.358  -3.757  -0.703  1.00  0.00     0.032 C 
HETATM   29  C32 UNL     1       0.633  -4.733   0.372  1.00  0.00     0.016 C 
HETATM   30  C33 UNL     1       1.195  -4.148  -1.904  1.00  0.00     0.016 C 
ENDBRANCH   2  28
BRANCH   1  31
HETATM   31  N2  UNL     1       2.824  -2.163   0.966  1.00  0.00    -0.345 N 
HETATM   32  C11 UNL     1       4.083  -1.502   1.331  1.00  0.00     0.162 C 
HETATM   33  C12 UNL     1       4.372  -2.464   2.405  1.00  0.00     0.164 C 
HETATM   34  C13 UNL     1       3.205  -3.223   1.847  1.00  0.00     0.160 C 
BRANCH  32  35
HETATM   35  C7  UNL     1       5.098  -1.311   0.262  1.00  0.00     0.013 C 
BRANCH  35  36
HETATM   36  N1  UNL     1       6.309  -0.881   0.817  1.00  0.00    -0.366 N 
ATOM     37  H1  UNL     1       6.502  -1.146   1.783  1.00  0.00     0.161 HD
BRANCH  36  38
HETATM   38  C6  UNL     1       7.270  -0.123   0.159  1.00  0.00     0.246 C 
BRANCH  38  39
HETATM   39  C5  UNL     1       6.825   1.309  -0.221  1.00  0.00     0.167 C 
BRANCH  39  40
HETATM   40  C4  UNL     1       6.558   2.042   1.049  1.00  0.00     0.040 C 
BRANCH  40  41
HETATM   41  C2  UNL     1       6.252   3.496   0.915  1.00  0.00    -0.020 C 
HETATM   42  C1  UNL     1       7.380   4.298   0.282  1.00  0.00     0.009 C 
HETATM   43  C3  UNL     1       4.950   3.797   0.219  1.00  0.00     0.009 C 
ENDBRANCH  40  41
ENDBRANCH  39  40
BRANCH  39  44
HETATM   44  O1  UNL     1       7.926   1.876  -0.886  1.00  0.00    -0.391 OA
ATOM     45  H1  UNL     1       8.096   1.409  -1.695  1.00  0.00     0.210 HD
ENDBRANCH  39  44
ENDBRANCH  38  39
BRANCH  38  46
HETATM   46  O2  UNL     1       8.367   0.072   1.066  1.00  0.00    -0.374 OA
ATOM     47  H2  UNL     1       8.640  -0.807   1.299  1.00  0.00     0.212 HD
ENDBRANCH  38  46
ENDBRANCH  36  38
ENDBRANCH  35  36
BRANCH  35  48
HETATM   48  C8  UNL     1       5.110  -2.285  -0.856  1.00  0.00     0.025 C 
HETATM   49  C9  UNL     1       5.785  -1.809  -2.119  1.00  0.00     0.016 C 
HETATM   50  C10 UNL     1       5.825  -3.587  -0.490  1.00  0.00     0.016 C 
ENDBRANCH  35  48
ENDBRANCH  32  35
BRANCH  33  51
HETATM   51  O3  UNL     1       4.108  -1.966   3.713  1.00  0.00    -0.391 OA
ATOM     52  H3  UNL     1       4.295  -2.587   4.407  1.00  0.00     0.210 HD
ENDBRANCH  33  51
ENDBRANCH   1  31
BRANCH   1  53
HETATM   53  O4  UNL     1       2.011  -0.599  -0.429  1.00  0.00    -0.345 OA
ATOM     54  H4  UNL     1       1.295  -0.349  -1.001  1.00  0.00     0.219 HD
ENDBRANCH   1  53
TORSDOF 22
