REMARK  3 active torsions:
REMARK  status: ('A' for Active; 'I' for Inactive)
REMARK    1  A    between atoms: C3_3  and  N1_4 
REMARK       I    between atoms: N1_4  and  C4_6 
REMARK    2  A    between atoms: C4_6  and  C5_8 
REMARK    3  A    between atoms: C5_8  and  N2_9 
REMARK       I    between atoms: N3_12  and  C8_13 
ROOT
HETATM    1  C1  UNL     1       6.156   2.072  -0.941  1.00  0.00     0.014 C 
HETATM    2  C2  UNL     1       5.698   1.011  -0.642  1.00  0.00    -0.098 C 
HETATM    3  C3  UNL     1       5.137  -0.294  -0.299  1.00  0.00     0.216 C 
ENDROOT
BRANCH   3   4
HETATM    4  N1  UNL     1       3.706  -0.172  -0.008  1.00  0.00    -0.346 N 
HETATM    5  C4  UNL     1       3.219   0.638   1.022  1.00  0.00     0.258 C 
HETATM    6  O1  UNL     1       4.113   1.287   1.684  1.00  0.00    -0.267 OA
ATOM      7  H1  UNL     1       3.042  -0.697  -0.577  1.00  0.00     0.163 HD
BRANCH   5   8
HETATM    8  C5  UNL     1       1.860   0.839   1.417  1.00  0.00     0.171 C 
BRANCH   8   9
HETATM    9  N2  UNL     1       0.790   0.101   0.876  1.00  0.00    -0.315 N 
HETATM   10  C6  UNL     1      -0.476   0.625   0.661  1.00  0.00     0.091 C 
HETATM   11  C7  UNL     1      -1.260   1.784   0.639  1.00  0.00     0.175 C 
HETATM   12  N3  UNL     1      -2.574   1.279   0.094  1.00  0.00    -0.329 N 
HETATM   13  C8  UNL     1      -3.403   2.330  -0.418  1.00  0.00     0.188 C 
HETATM   14  C9  UNL     1      -2.968  -0.087   0.096  1.00  0.00     0.086 C 
HETATM   15  N4  UNL     1      -3.155   3.565  -0.408  1.00  0.00    -0.373 N 
HETATM   16  N5  UNL     1      -4.645   1.938  -0.993  1.00  0.00    -0.064 NA
ATOM     17  H42 UNL     1      -2.265   3.846   0.004  1.00  0.00     0.158 HD
ATOM     18  H41 UNL     1      -3.745   4.313  -0.772  1.00  0.00     0.158 HD
HETATM   19  C10 UNL     1      -2.379  -1.118  -0.787  1.00  0.00     0.166 C 
HETATM   20  N6  UNL     1      -1.392  -2.004  -0.253  1.00  0.00    -0.386 N 
HETATM   21  C11 UNL     1      -1.869  -3.270   0.198  1.00  0.00     0.149 C 
HETATM   22  C12 UNL     1      -0.029  -1.887  -0.525  1.00  0.00     0.134 C 
HETATM   23  C13 UNL     1       0.841  -1.331   0.566  1.00  0.00     0.120 C 
HETATM   24  N7  UNL     1       1.646  -2.084   1.290  1.00  0.00    -0.384 N 
ATOM     25  H72 UNL     1       2.237  -1.706   2.031  1.00  0.00     0.157 HD
ATOM     26  H71 UNL     1       1.681  -3.080   1.074  1.00  0.00     0.157 HD
ENDBRANCH   8   9
ENDBRANCH   5   8
ENDBRANCH   3   4
TORSDOF 3
