REMARK  3 active torsions:
REMARK  status: ('A' for Active; 'I' for Inactive)
REMARK       I    between atoms: N1_2  and  C3_4 
REMARK       I    between atoms: C3_4  and  N2_6 
REMARK    1  A    between atoms: N2_6  and  S1_8 
REMARK    2  A    between atoms: S1_8  and  N3_11 
REMARK    3  A    between atoms: N3_11  and  N4_13 
REMARK       I    between atoms: N5_16  and  C6_17 
ROOT
HETATM    1  N3  UNL     1       0.071  -0.555   1.354  1.00  0.00    -0.212 N 
ATOM      2  H3  UNL     1       0.283  -1.415   1.861  1.00  0.00     0.201 HD
ENDROOT
BRANCH   1   3
HETATM    3  S1  UNL     1      -1.350   0.407   1.530  1.00  0.00     0.340 S 
HETATM    4  O2  UNL     1      -1.854   0.265   2.947  1.00  0.00    -0.181 OA
HETATM    5  O3  UNL     1      -0.959   1.840   1.320  1.00  0.00    -0.181 OA
BRANCH   3   6
HETATM    6  N2  UNL     1      -2.611  -0.091   0.475  1.00  0.00    -0.218 N 
HETATM    7  C3  UNL     1      -3.577   0.852   0.055  1.00  0.00     0.332 C 
HETATM    8  N1  UNL     1      -4.612   0.433  -0.814  1.00  0.00    -0.342 N 
HETATM    9  O1  UNL     1      -3.496   2.042   0.461  1.00  0.00    -0.246 OA
HETATM   10  C1  UNL     1      -4.687  -0.922  -1.258  1.00  0.00     0.154 C 
HETATM   11  C2  UNL     1      -5.605   1.398  -1.255  1.00  0.00     0.154 C 
ATOM     12  H2  UNL     1      -2.662  -1.058   0.155  1.00  0.00     0.185 HD
ENDBRANCH   3   6
ENDBRANCH   1   3
BRANCH   1  13
HETATM   13  N4  UNL     1       0.872   0.050   0.401  1.00  0.00    -0.314 N 
HETATM   14  C4  UNL     1       1.234  -0.738  -0.717  1.00  0.00     0.163 C 
HETATM   15  C5  UNL     1       2.525  -1.519  -0.540  1.00  0.00     0.147 C 
HETATM   16  N5  UNL     1       3.510  -0.586  -0.042  1.00  0.00    -0.353 N 
HETATM   17  C6  UNL     1       4.708  -0.407  -0.777  1.00  0.00     0.184 C 
HETATM   18  C7  UNL     1       3.200   0.108   1.188  1.00  0.00     0.147 C 
HETATM   19  N6  UNL     1       5.099  -1.364  -1.547  1.00  0.00    -0.374 N 
HETATM   20  N7  UNL     1       5.456   0.804  -0.661  1.00  0.00    -0.064 NA
ATOM     21  H62 UNL     1       4.565  -2.229  -1.630  1.00  0.00     0.158 HD
ATOM     22  H61 UNL     1       5.961  -1.235  -2.076  1.00  0.00     0.158 HD
HETATM   23  C8  UNL     1       1.914   0.868   0.952  1.00  0.00     0.163 C 
ENDBRANCH   1  13
TORSDOF 3
