REMARK  7 active torsions:
REMARK  status: ('A' for Active; 'I' for Inactive)
REMARK    1  A    between atoms: C1_4  and  C2_5 
REMARK    2  A    between atoms: C1_4  and  N4_22 
REMARK    3  A    between atoms: C2_5  and  C3_6 
REMARK    4  A    between atoms: C2_5  and  C9_12 
REMARK    5  A    between atoms: C3_6  and  C4_7 
REMARK    6  A    between atoms: C9_12  and  N2_13 
REMARK    7  A    between atoms: C12_16  and  N3_17 
ROOT
HETATM    1  C2  UNL     1      -0.166  -0.076  -0.416  1.00  0.00     0.081 C 
ENDROOT
BRANCH   1   2
HETATM    2  C1  UNL     1      -0.829  -1.362  -0.898  1.00  0.00     0.078 C 
HETATM    3  N1  UNL     1      -0.205  -2.173  -1.664  1.00  0.00    -0.389 N 
ATOM      4  H12 UNL     1       0.747  -1.938  -1.944  1.00  0.00     0.157 HD
ATOM      5  H11 UNL     1      -0.648  -3.033  -1.986  1.00  0.00     0.157 HD
BRANCH   2   6
HETATM    6  N4  UNL     1      -2.145  -1.687  -0.511  1.00  0.00    -0.371 N 
HETATM    7  C14 UNL     1      -2.640  -1.705   0.844  1.00  0.00     0.124 C 
HETATM    8  C15 UNL     1      -3.950  -2.445   0.826  1.00  0.00     0.021 C 
HETATM    9  C16 UNL     1      -4.422  -2.316  -0.595  1.00  0.00     0.021 C 
HETATM   10  C17 UNL     1      -3.193  -2.055  -1.437  1.00  0.00     0.124 C 
ENDBRANCH   2   6
ENDBRANCH   1   2
BRANCH   1  11
HETATM   11  C3  UNL     1      -1.029   1.008  -0.921  1.00  0.00     0.018 C 
BRANCH  11  12
HETATM   12  C4  UNL     1      -0.782   2.400  -0.669  1.00  0.00    -0.014 C 
HETATM   13  C5  UNL     1       0.454   3.087  -1.095  1.00  0.00     0.005 C 
HETATM   14  C6  UNL     1       0.020   4.551  -0.775  1.00  0.00     0.000 C 
HETATM   15  C7  UNL     1      -0.715   4.389   0.557  1.00  0.00     0.000 C 
HETATM   16  C8  UNL     1      -0.863   2.877   0.780  1.00  0.00     0.005 C 
ENDBRANCH  11  12
ENDBRANCH   1  11
BRANCH   1  17
HETATM   17  C9  UNL     1       1.244  -0.060  -0.982  1.00  0.00     0.284 C 
BRANCH  17  18
HETATM   18  N2  UNL     1       1.993  -1.237  -0.516  1.00  0.00     0.091 N 
HETATM   19  C10 UNL     1       3.323  -1.100  -1.130  1.00  0.00     0.274 C 
HETATM   20  C11 UNL     1       4.240  -1.938  -0.270  1.00  0.00     0.064 C 
HETATM   21  C12 UNL     1       3.597  -1.895   1.094  1.00  0.00     0.213 C 
HETATM   22  C13 UNL     1       2.335  -1.086   0.887  1.00  0.00     0.305 C 
BRANCH  21  23
HETATM   23  N3  UNL     1       4.461  -1.268   2.059  1.00  0.00    -0.073 N 
ATOM     24  H33 UNL     1       5.376  -1.718   2.090  1.00  0.00     0.274 HD
ATOM     25  H32 UNL     1       4.753  -0.340   1.753  1.00  0.00     0.274 HD
ATOM     26  H31 UNL     1       4.026  -1.239   2.981  1.00  0.00     0.274 HD
ENDBRANCH  21  23
ENDBRANCH  17  18
ENDBRANCH   1  17
TORSDOF 7
