REMARK  8 active torsions:
REMARK  status: ('A' for Active; 'I' for Inactive)
REMARK    1  A    between atoms: C3_3  and  C5_5 
REMARK    2  A    between atoms: C5_5  and  N1_6 
REMARK    3  A    between atoms: C6_8  and  N2_10 
REMARK       I    between atoms: N3_13  and  C10_14 
REMARK    4  A    between atoms: C10_14  and  C11_16 
REMARK    5  A    between atoms: C11_16  and  C12_17 
REMARK    6  A    between atoms: C12_17  and  C13_18 
REMARK    7  A    between atoms: C13_18  and  O2_19 
REMARK    8  A    between atoms: N4_21  and  O3_23 
ROOT
HETATM    1  C1  UNL     1       7.099   2.391   0.763  1.00  0.00     0.012 C 
HETATM    2  C2  UNL     1       5.930   2.048   0.758  1.00  0.00    -0.111 C 
HETATM    3  C3  UNL     1       4.523   1.651   0.735  1.00  0.00     0.078 C 
HETATM    4  C4  UNL     1       4.369   0.335   1.508  1.00  0.00     0.025 C 
ENDROOT
BRANCH   3   5
HETATM    5  C5  UNL     1       4.098   1.385  -0.711  1.00  0.00     0.137 C 
BRANCH   5   6
HETATM    6  N1  UNL     1       2.721   1.000  -0.694  1.00  0.00    -0.379 N 
HETATM    7  C6  UNL     1       2.241  -0.129  -1.022  1.00  0.00     0.071 C 
HETATM    8  C7  UNL     1       3.075  -1.259  -1.490  1.00  0.00     0.088 C 
ATOM      9  H1  UNL     1       2.054   1.707  -0.386  1.00  0.00     0.160 HD
BRANCH   7  10
HETATM   10  N2  UNL     1       0.819  -0.288  -0.924  1.00  0.00    -0.368 N 
HETATM   11  C8  UNL     1       0.302  -1.374  -0.143  1.00  0.00     0.144 C 
HETATM   12  C9  UNL     1      -0.827  -0.879   0.772  1.00  0.00     0.145 C 
HETATM   13  N3  UNL     1      -1.664  -0.032  -0.034  1.00  0.00    -0.349 N 
HETATM   14  C10 UNL     1      -3.038  -0.363  -0.182  1.00  0.00     0.220 C 
HETATM   15  C14 UNL     1      -1.074   1.126  -0.663  1.00  0.00     0.145 C 
HETATM   16  O1  UNL     1      -3.795   0.364  -0.888  1.00  0.00    -0.273 OA
HETATM   17  C15 UNL     1      -0.011   0.653  -1.619  1.00  0.00     0.144 C 
BRANCH  14  18
HETATM   18  C11 UNL     1      -3.582  -1.565   0.494  1.00  0.00     0.111 C 
BRANCH  18  19
HETATM   19  C12 UNL     1      -5.044  -1.671   0.223  1.00  0.00     0.095 C 
BRANCH  19  20
HETATM   20  C13 UNL     1      -5.856  -0.539   0.696  1.00  0.00     0.135 C 
HETATM   21  N4  UNL     1      -6.631   0.171  -0.017  1.00  0.00    -0.251 N 
ATOM     22  H4  UNL     1      -6.696  -0.066  -1.007  1.00  0.00     0.196 HD
BRANCH  20  23
HETATM   23  O2  UNL     1      -5.773  -0.209   2.057  1.00  0.00    -0.348 OA
ATOM     24  H2  UNL     1      -6.297   0.522   2.362  1.00  0.00     0.219 HD
ENDBRANCH  20  23
BRANCH  21  25
HETATM   25  O3  UNL     1      -7.378   1.211   0.415  1.00  0.00    -0.288 OA
ATOM     26  H3  UNL     1      -7.958   1.742  -0.118  1.00  0.00     0.244 HD
ENDBRANCH  21  25
ENDBRANCH  19  20
ENDBRANCH  18  19
ENDBRANCH  14  18
ENDBRANCH   7  10
ENDBRANCH   5   6
ENDBRANCH   3   5
TORSDOF 8
