REMARK  5 active torsions:
REMARK  status: ('A' for Active; 'I' for Inactive)
REMARK       I    between atoms: N1_2  and  C3_4 
REMARK    1  A    between atoms: C3_4  and  C4_6 
REMARK    2  A    between atoms: C4_6  and  N2_7 
REMARK    3  A    between atoms: C4_6  and  C8_12 
REMARK    4  A    between atoms: N2_7  and  C5_9 
REMARK       I    between atoms: C8_12  and  N3_14 
REMARK    5  A    between atoms: N3_14  and  C9_16 
ROOT
HETATM    1  C8  UNL     1      -0.691  -0.416  -0.438  1.00  0.00     0.250 C 
HETATM    2  O2  UNL     1      -0.266  -0.937  -1.529  1.00  0.00    -0.271 OA
HETATM    3  N3  UNL     1       0.197   0.056   0.544  1.00  0.00    -0.350 N 
ATOM      4  H3  UNL     1      -0.213   0.451   1.390  1.00  0.00     0.163 HD
ENDROOT
BRANCH   1   5
HETATM    5  C4  UNL     1      -2.165  -0.355  -0.292  1.00  0.00     0.263 C 
BRANCH   5   6
HETATM    6  C3  UNL     1      -2.749   0.888  -0.838  1.00  0.00     0.251 C 
HETATM    7  N1  UNL     1      -3.036   2.040  -0.123  1.00  0.00    -0.359 N 
HETATM    8  C1  UNL     1      -2.771   2.146   1.286  1.00  0.00     0.152 C 
HETATM    9  C2  UNL     1      -3.656   3.197  -0.760  1.00  0.00     0.152 C 
HETATM   10  O1  UNL     1      -3.016   0.885  -2.092  1.00  0.00    -0.271 OA
ENDBRANCH   5   6
BRANCH   5  11
HETATM   11  N2  UNL     1      -2.678  -1.499  -1.034  1.00  0.00    -0.398 N 
ATOM     12  H2  UNL     1      -2.066  -2.116  -1.568  1.00  0.00     0.154 HD
BRANCH  11  13
HETATM   13  C5  UNL     1      -4.064  -1.701  -0.970  1.00  0.00     0.077 A 
HETATM   14  C6  UNL     1      -4.487  -3.162  -1.080  1.00  0.00     0.027 A 
HETATM   15  C7  UNL     1      -4.600  -2.470   0.231  1.00  0.00     0.027 A 
ENDBRANCH  11  13
ENDBRANCH   5  11
ENDBRANCH   1   5
BRANCH   3  16
HETATM   16  C9  UNL     1       1.626   0.032   0.462  1.00  0.00     0.034 C 
HETATM   17  C10 UNL     1       2.125  -1.376   0.338  1.00  0.00     0.035 C 
HETATM   18  C11 UNL     1       3.641  -1.427   0.411  1.00  0.00    -0.012 C 
HETATM   19  C12 UNL     1       4.173  -0.659  -0.772  1.00  0.00     0.009 C 
HETATM   20  C16 UNL     1       4.080  -0.837   1.711  1.00  0.00     0.009 C 
HETATM   21  C13 UNL     1       3.668   0.750  -0.683  1.00  0.00    -0.012 C 
HETATM   22  C14 UNL     1       4.244   1.395   0.547  1.00  0.00     0.009 C 
HETATM   23  C18 UNL     1       2.159   0.806  -0.728  1.00  0.00     0.035 C 
HETATM   24  C15 UNL     1       3.700   0.621   1.747  1.00  0.00    -0.012 C 
HETATM   25  C17 UNL     1       2.202   0.717   1.690  1.00  0.00     0.035 C 
ENDBRANCH   3  16
TORSDOF 5
