REMARK  1 active torsions:
REMARK  status: ('A' for Active; 'I' for Inactive)
REMARK    1  A    between atoms: C11_11  and  N1_12 
REMARK       I    between atoms: N1_12  and  C12_14 
REMARK       I    between atoms: C12_14  and  N2_16 
ROOT
HETATM    1  C1  UNL     1       0.049  -1.979   1.401  1.00  0.00     0.012 C 
HETATM    2  C2  UNL     1      -0.516  -0.923   0.476  1.00  0.00     0.004 C 
HETATM    3  C3  UNL     1      -1.699  -1.564  -0.226  1.00  0.00     0.006 C 
HETATM    4  C4  UNL     1      -2.966  -1.475   0.568  1.00  0.00     0.000 C 
HETATM    5  C5  UNL     1      -3.496  -0.092   0.776  1.00  0.00     0.000 C 
HETATM    6  C6  UNL     1      -3.909   0.645  -0.423  1.00  0.00     0.000 C 
HETATM    7  C7  UNL     1      -2.953   1.478  -1.163  1.00  0.00     0.000 C 
HETATM    8  C8  UNL     1      -1.820   2.098  -0.488  1.00  0.00     0.000 C 
HETATM    9  C9  UNL     1      -0.437   1.858  -0.987  1.00  0.00     0.002 C 
HETATM   10  C10 UNL     1      -0.075   0.543  -1.528  1.00  0.00     0.026 C 
HETATM   11  C11 UNL     1       0.448  -0.488  -0.556  1.00  0.00     0.089 C 
ENDROOT
BRANCH  11  12
HETATM   12  N1  UNL     1       1.743  -0.073  -0.135  1.00  0.00    -0.338 N 
HETATM   13  C12 UNL     1       2.986  -0.629  -0.426  1.00  0.00     0.317 C 
HETATM   14  O1  UNL     1       3.166  -1.658  -1.160  1.00  0.00    -0.247 OA
HETATM   15  N2  UNL     1       4.195  -0.086   0.081  1.00  0.00    -0.343 N 
HETATM   16  C13 UNL     1       5.509  -0.614  -0.183  1.00  0.00     0.154 C 
HETATM   17  C14 UNL     1       4.072   1.102   0.936  1.00  0.00     0.154 C 
ATOM     18  H1  UNL     1       1.763   0.750   0.467  1.00  0.00     0.164 HD
ENDBRANCH  11  12
TORSDOF 1
