REMARK  2 active torsions:
REMARK  status: ('A' for Active; 'I' for Inactive)
REMARK    1  A    between atoms: C2_2  and  C4_5 
REMARK       I    between atoms: C4_5  and  N1_7 
REMARK    2  A    between atoms: N1_7  and  C5_9 
ROOT
HETATM    1  C5  UNL     1      -0.439  -0.007  -0.406  1.00  0.00     0.100 C 
HETATM    2  C6  UNL     1      -1.033  -1.374  -0.318  1.00  0.00    -0.026 C 
HETATM    3  C7  UNL     1       0.051  -2.388   0.085  1.00  0.00     0.017 C 
HETATM    4  C8  UNL     1      -1.549  -1.864  -1.668  1.00  0.00     0.017 C 
HETATM    5  C9  UNL     1      -2.149  -1.529   0.649  1.00  0.00     0.011 C 
HETATM    6  C10 UNL     1      -3.121  -0.372   0.659  1.00  0.00     0.002 C 
HETATM    7  C11 UNL     1      -2.295   0.817   1.091  1.00  0.00     0.011 C 
HETATM    8  C12 UNL     1      -1.286   1.118   0.054  1.00  0.00    -0.026 C 
HETATM    9  C13 UNL     1      -0.392   2.231   0.626  1.00  0.00     0.017 C 
HETATM   10  C14 UNL     1      -2.028   1.783  -1.111  1.00  0.00     0.017 C 
ENDROOT
BRANCH   1  11
HETATM   11  N1  UNL     1       0.846   0.086   0.261  1.00  0.00    -0.353 N 
HETATM   12  C4  UNL     1       2.066   0.353  -0.414  1.00  0.00     0.241 C 
HETATM   13  O1  UNL     1       1.987   0.511  -1.657  1.00  0.00    -0.271 OA
ATOM     14  H1  UNL     1       0.874  -0.048   1.272  1.00  0.00     0.163 HD
BRANCH  12  15
HETATM   15  C2  UNL     1       3.369   0.452   0.225  1.00  0.00     0.110 C 
HETATM   16  C1  UNL     1       3.664  -0.871   0.911  1.00  0.00     0.042 C 
HETATM   17  C3  UNL     1       3.470   1.561   1.240  1.00  0.00     0.042 C 
HETATM   18 CL1  UNL     1       4.639   0.698  -0.991  1.00  0.00    -0.110 Cl
ENDBRANCH  12  15
ENDBRANCH   1  11
TORSDOF 2
