REMARK  2 active torsions:
REMARK  status: ('A' for Active; 'I' for Inactive)
REMARK    1  A    between atoms: C2_2  and  C3_3 
REMARK    2  A    between atoms: C12_13  and  O1_14 
ROOT
HETATM    1  C3  UNL     1      -1.386   0.053  -0.079  1.00  0.00    -0.023 C 
HETATM    2  C4  UNL     1      -1.909  -0.426   1.271  1.00  0.00     0.020 C 
HETATM    3  C5  UNL     1      -1.726   1.470  -0.357  1.00  0.00     0.015 C 
HETATM    4  C6  UNL     1      -0.695   2.484  -0.079  1.00  0.00     0.022 C 
HETATM    5  C7  UNL     1       0.719   2.059  -0.300  1.00  0.00     0.090 C 
HETATM    6 CL1  UNL     1       1.793   3.308   0.385  1.00  0.00    -0.124 Cl
HETATM    7  C8  UNL     1       1.006   0.709   0.352  1.00  0.00    -0.022 C 
HETATM    8  C9  UNL     1       0.823   0.884   1.826  1.00  0.00     0.017 C 
HETATM    9  C10 UNL     1       2.417   0.297   0.088  1.00  0.00     0.013 C 
HETATM   10  C11 UNL     1       2.597  -0.831  -0.861  1.00  0.00     0.032 C 
HETATM   11  C12 UNL     1       1.681  -1.993  -0.662  1.00  0.00     0.118 C 
HETATM   12  C13 UNL     1       0.442  -1.640   0.136  1.00  0.00     0.038 C 
HETATM   13  C14 UNL     1       0.053  -0.254  -0.278  1.00  0.00     0.009 C 
ENDROOT
BRANCH   1  14
HETATM   14  C2  UNL     1      -2.136  -0.774  -1.109  1.00  0.00    -0.027 C 
HETATM   15  C1  UNL     1      -3.452  -0.911  -1.025  1.00  0.00     0.007 C 
ENDBRANCH   1  14
BRANCH  11  16
HETATM   16  O1  UNL     1       2.322  -3.125  -0.170  1.00  0.00    -0.396 OA
ATOM     17  H1  UNL     1       1.739  -3.864  -0.043  1.00  0.00     0.210 HD
ENDBRANCH  11  16
TORSDOF 2
