REMARK  2 active torsions:
REMARK  status: ('A' for Active; 'I' for Inactive)
REMARK    1  A    between atoms: C2_2  and  C4_4 
REMARK    2  A    between atoms: C10_13  and  O1_14 
ROOT
HETATM    1  C4  UNL     1       1.207   0.013   0.614  1.00  0.00     0.094 C 
HETATM    2  N1  UNL     1       1.522  -1.243   1.309  1.00  0.00    -0.378 N 
ATOM      3  H1  UNL     1       2.486  -1.570   1.380  1.00  0.00     0.160 HD
HETATM    4  C5  UNL     1       0.563  -1.921   1.825  1.00  0.00     0.076 C 
HETATM    5 CL1  UNL     1       0.828  -3.430   2.673  1.00  0.00    -0.070 Cl
HETATM    6  C6  UNL     1      -0.792  -1.336   1.658  1.00  0.00     0.075 C 
HETATM    7  C7  UNL     1      -1.028  -0.804   0.293  1.00  0.00     0.008 C 
HETATM    8  C8  UNL     1      -1.901   0.449   0.466  1.00  0.00     0.015 C 
HETATM    9  C9  UNL     1      -2.874   0.259   1.615  1.00  0.00     0.013 C 
HETATM   10  C10 UNL     1      -2.637   0.602  -0.852  1.00  0.00     0.122 C 
HETATM   11  C11 UNL     1      -1.603   0.449  -1.930  1.00  0.00     0.033 C 
HETATM   12  C12 UNL     1      -0.189   0.712  -1.378  1.00  0.00     0.014 C 
HETATM   13  C13 UNL     1       0.246  -0.347  -0.424  1.00  0.00    -0.019 C 
HETATM   14  C14 UNL     1       0.737  -1.521  -1.289  1.00  0.00     0.018 C 
ENDROOT
BRANCH   1  15
HETATM   15  C2  UNL     1       2.497   0.602   0.299  1.00  0.00     0.001 C 
HETATM   16  C1  UNL     1       2.522   1.913  -0.426  1.00  0.00     0.011 C 
HETATM   17  C3  UNL     1       3.462  -0.327  -0.415  1.00  0.00     0.011 C 
ENDBRANCH   1  15
BRANCH  10  18
HETATM   18  O1  UNL     1      -3.321   1.806  -0.923  1.00  0.00    -0.395 OA
ATOM     19  H1  UNL     1      -3.782   1.902  -1.748  1.00  0.00     0.210 HD
ENDBRANCH  10  18
TORSDOF 2
