REMARK  4 active torsions:
REMARK  status: ('A' for Active; 'I' for Inactive)
REMARK    1  A    between atoms: O1_2  and  C2_3 
REMARK    2  A    between atoms: C2_3  and  N2_7 
REMARK       I    between atoms: C3_9  and  N4_11 
REMARK    3  A    between atoms: N4_11  and  C4_13 
REMARK    4  A    between atoms: C5_19  and  N7_20 
ROOT
HETATM    1  N2  UNL     1      -1.214  -1.145  -0.944  1.00  0.00    -0.296 N 
ATOM      2  H2  UNL     1      -1.910  -1.447  -1.626  1.00  0.00     0.172 HD
HETATM    3  C3  UNL     1       0.023  -1.337  -1.223  1.00  0.00     0.197 C 
HETATM    4  N3  UNL     1       0.330  -1.957  -2.465  1.00  0.00    -0.063 NA
HETATM    5  N4  UNL     1       1.087  -0.966  -0.364  1.00  0.00    -0.312 N 
ATOM      6  H4  UNL     1       1.545  -1.680   0.203  1.00  0.00     0.170 HD
ENDROOT
BRANCH   5   7
HETATM    7  C4  UNL     1       1.493   0.274  -0.284  1.00  0.00     0.175 A 
HETATM    8  N5  UNL     1       1.009   1.329  -0.952  1.00  0.00    -0.222 N 
HETATM    9  O2  UNL     1       1.676   2.377  -0.597  1.00  0.00    -0.153 OA
ATOM     10  H5  UNL     1       0.244   1.309  -1.626  1.00  0.00     0.198 HD
HETATM   11  N6  UNL     1       2.581   2.058   0.277  1.00  0.00    -0.222 N 
HETATM   12  C5  UNL     1       2.501   0.736   0.505  1.00  0.00     0.167 A 
ATOM     13  H6  UNL     1       3.240   2.701   0.716  1.00  0.00     0.198 HD
BRANCH  12  14
HETATM   14  N7  UNL     1       3.265   0.090   1.328  1.00  0.00    -0.381 N 
ATOM     15  H72 UNL     1       3.204  -0.913   1.501  1.00  0.00     0.157 HD
ATOM     16  H71 UNL     1       4.021   0.436   1.919  1.00  0.00     0.157 HD
ENDBRANCH  12  14
ENDBRANCH   5   7
BRANCH   1  17
HETATM   17  C2  UNL     1      -1.674  -0.543   0.245  1.00  0.00     0.218 C 
HETATM   18  N1  UNL     1      -1.261  -0.987   1.385  1.00  0.00    -0.365 N 
ATOM     19  H12 UNL     1      -1.594  -0.551   2.245  1.00  0.00     0.159 HD
ATOM     20  H11 UNL     1      -0.607  -1.770   1.362  1.00  0.00     0.159 HD
BRANCH  17  21
HETATM   21  O1  UNL     1      -2.564   0.523   0.277  1.00  0.00    -0.327 OA
HETATM   22  C1  UNL     1      -3.394   0.639   1.411  1.00  0.00     0.213 C 
ENDBRANCH  17  21
ENDBRANCH   1  17
TORSDOF 4
