REMARK  2 active torsions:
REMARK  status: ('A' for Active; 'I' for Inactive)
REMARK    1  A    between atoms: C3_5  and  N2_6 
REMARK       I    between atoms: N2_6  and  C4_8 
REMARK       I    between atoms: C4_8  and  N3_9 
REMARK       I    between atoms: C4_8  and  N4_13 
REMARK    2  A    between atoms: C5_19  and  N6_20 
ROOT
HETATM    1  C1  UNL     1      -3.057  -1.740  -0.039  1.00  0.00     0.070 C 
HETATM    2  C2  UNL     1      -1.926  -0.783   0.035  1.00  0.00     0.047 A 
HETATM    3  N1  UNL     1      -0.657  -1.214  -0.055  1.00  0.00    -0.194 N 
ATOM      4  H1  UNL     1      -0.455  -2.206  -0.176  1.00  0.00     0.184 HD
HETATM    5  C3  UNL     1       0.344  -0.316   0.017  1.00  0.00     0.683 A 
HETATM    6  N5  UNL     1       0.162   0.997   0.175  1.00  0.00    -0.176 N 
ATOM      7  H5  UNL     1       0.958   1.633   0.223  1.00  0.00     0.186 HD
HETATM    8  C5  UNL     1      -1.098   1.460   0.269  1.00  0.00     0.137 A 
HETATM    9  C6  UNL     1      -2.164   0.566   0.199  1.00  0.00     0.111 A 
HETATM   10  C7  UNL     1      -3.526   1.028   0.296  1.00  0.00     0.105 C 
HETATM   11  N7  UNL     1      -4.620   1.388   0.377  1.00  0.00    -0.191 NA
ENDROOT
BRANCH   8  12
HETATM   12  N6  UNL     1      -1.377   2.700   0.421  1.00  0.00    -0.384 N 
ATOM     13  H62 UNL     1      -0.596   3.355   0.472  1.00  0.00     0.157 HD
ATOM     14  H61 UNL     1      -2.332   3.051   0.492  1.00  0.00     0.157 HD
ENDBRANCH   8  12
BRANCH   5  15
HETATM   15  N2  UNL     1       1.544  -0.781  -0.075  1.00  0.00    -0.173 N 
HETATM   16  C4  UNL     1       2.737   0.005  -0.022  1.00  0.00     0.494 C 
HETATM   17  N3  UNL     1       2.817   0.760  -1.274  1.00  0.00    -0.032 N 
HETATM   18  N4  UNL     1       3.875  -0.899  -0.010  1.00  0.00    -0.032 N 
ATOM     19  H33 UNL     1       2.767   0.166  -2.102  1.00  0.00     0.278 HD
ATOM     20  H32 UNL     1       1.982   1.315  -1.459  1.00  0.00     0.278 HD
ATOM     21  H31 UNL     1       3.668   1.321  -1.236  1.00  0.00     0.278 HD
ATOM     22  H43 UNL     1       3.823  -1.587   0.741  1.00  0.00     0.278 HD
ATOM     23  H42 UNL     1       3.868  -1.551  -0.794  1.00  0.00     0.278 HD
ATOM     24  H41 UNL     1       4.726  -0.338   0.028  1.00  0.00     0.278 HD
ATOM     25  H2  UNL     1       1.650  -1.788  -0.195  1.00  0.00     0.181 HD
ENDBRANCH   5  15
TORSDOF 2
