REMARK  2 active torsions:
REMARK  status: ('A' for Active; 'I' for Inactive)
REMARK    1  A    between atoms: N2_6  and  C4_7 
REMARK    2  A    between atoms: C7_19  and  N6_20 
ROOT
HETATM    1  C1  UNL     1      -3.734   2.205  -1.686  1.00  0.00     0.021 C 
HETATM    2  C2  UNL     1      -2.961   1.402  -1.209  1.00  0.00    -0.039 C 
HETATM    3  C3  UNL     1      -2.040   0.437  -0.661  1.00  0.00     0.190 A 
HETATM    4  N1  UNL     1      -0.902   0.665   0.016  1.00  0.00    -0.258 N 
ATOM      5  H1  UNL     1      -0.524   1.585   0.240  1.00  0.00     0.190 HD
HETATM    6  N2  UNL     1      -0.350  -0.487   0.346  1.00  0.00    -0.084 N 
HETATM    7  C7  UNL     1      -1.120  -1.502  -0.111  1.00  0.00     0.697 A 
HETATM    8  N7  UNL     1      -2.153  -0.914  -0.726  1.00  0.00    -0.166 N 
ATOM      9  H7  UNL     1      -2.919  -1.412  -1.180  1.00  0.00     0.186 HD
ENDROOT
BRANCH   6  10
HETATM   10  C4  UNL     1       0.892  -0.657   1.085  1.00  0.00     0.340 C 
HETATM   11  O1  UNL     1       1.077   0.532   1.867  1.00  0.00    -0.286 OA
HETATM   12  C5  UNL     1       1.842   1.431   1.115  1.00  0.00     0.220 C 
HETATM   13  N3  UNL     1       1.936   2.680   1.369  1.00  0.00    -0.365 N 
HETATM   14  N4  UNL     1       2.465   0.688   0.052  1.00  0.00    -0.309 N 
ATOM     15  H32 UNL     1       1.494   3.207   2.123  1.00  0.00     0.159 HD
ATOM     16  H31 UNL     1       2.494   3.335   0.821  1.00  0.00     0.159 HD
HETATM   17  C6  UNL     1       2.070  -0.675   0.167  1.00  0.00     0.131 C 
ATOM     18  H4  UNL     1       3.084   1.072  -0.662  1.00  0.00     0.170 HD
HETATM   19  N5  UNL     1       2.634  -1.681  -0.413  1.00  0.00    -0.385 N 
ATOM     20  H52 UNL     1       2.351  -2.657  -0.331  1.00  0.00     0.157 HD
ATOM     21  H51 UNL     1       3.438  -1.693  -1.040  1.00  0.00     0.157 HD
ENDBRANCH   6  10
BRANCH   7  22
HETATM   22  N6  UNL     1      -0.919  -2.772   0.011  1.00  0.00    -0.233 N 
ATOM     23  H62 UNL     1      -0.132  -3.220   0.480  1.00  0.00     0.174 HD
ATOM     24  H61 UNL     1      -1.499  -3.537  -0.333  1.00  0.00     0.174 HD
ENDBRANCH   7  22
TORSDOF 2
