REMARK  4 active torsions:
REMARK  status: ('A' for Active; 'I' for Inactive)
REMARK    1  A    between atoms: C3_5  and  N2_6 
REMARK       I    between atoms: N2_6  and  C4_8 
REMARK       I    between atoms: C4_8  and  N3_10 
REMARK    2  A    between atoms: N3_10  and  C5_12 
REMARK    3  A    between atoms: C7_15  and  N4_16 
REMARK    4  A    between atoms: N4_16  and  O2_17 
ROOT
HETATM    1  N2  UNL     1      -0.197   1.897   1.265  1.00  0.00    -0.288 N 
ATOM      2  H2  UNL     1      -0.343   2.509   2.068  1.00  0.00     0.172 HD
HETATM    3  C4  UNL     1       1.120   1.651   0.729  1.00  0.00     0.326 C 
HETATM    4  O1  UNL     1       1.768   2.657   0.420  1.00  0.00    -0.247 OA
HETATM    5  N3  UNL     1       1.604   0.353   0.581  1.00  0.00    -0.308 N 
ATOM      6  H3  UNL     1       1.001  -0.419   0.867  1.00  0.00     0.170 HD
ENDROOT
BRANCH   1   7
HETATM    7  C3  UNL     1      -1.200   1.293   0.666  1.00  0.00     0.153 A 
HETATM    8  N1  UNL     1      -2.495   1.362   0.974  1.00  0.00    -0.339 N 
HETATM    9  C2  UNL     1      -3.345   0.684   0.255  1.00  0.00     0.020 A 
ATOM     10  H1  UNL     1      -2.814   1.934   1.756  1.00  0.00     0.168 HD
HETATM   11  C1  UNL     1      -4.845   0.704   0.534  1.00  0.00     0.069 C 
HETATM   12  C9  UNL     1      -2.849  -0.065  -0.781  1.00  0.00     0.004 A 
HETATM   13  S3  UNL     1      -1.175   0.242  -0.674  1.00  0.00    -0.057 SA
HETATM   14  C10 UNL     1      -3.619  -0.926  -1.747  1.00  0.00     0.058 C 
ENDBRANCH   1   7
BRANCH   5  15
HETATM   15  C5  UNL     1       2.916   0.032   0.044  1.00  0.00     0.045 A 
HETATM   16  C6  UNL     1       3.628   0.917  -0.715  1.00  0.00     0.081 A 
HETATM   17  S1  UNL     1       5.082   0.064  -1.045  1.00  0.00    -0.079 SA
HETATM   18  C7  UNL     1       4.740  -1.376  -0.216  1.00  0.00     0.113 A 
HETATM   19  C8  UNL     1       3.498  -1.158   0.300  1.00  0.00     0.070 A 
BRANCH  18  20
HETATM   20  N4  UNL     1       5.566  -2.556  -0.085  1.00  0.00    -0.178 N 
HETATM   21  S2  UNL     1       6.996  -2.520  -0.806  1.00  0.00     0.075 SA
BRANCH  20  22
HETATM   22  O2  UNL     1       5.096  -3.598   0.623  1.00  0.00    -0.275 OA
ATOM     23  H2  UNL     1       5.639  -4.373   0.709  1.00  0.00     0.246 HD
ENDBRANCH  20  22
ENDBRANCH  18  20
ENDBRANCH   5  15
TORSDOF 4
