REMARK  4 active torsions:
REMARK  status: ('A' for Active; 'I' for Inactive)
REMARK    1  A    between atoms: C4_5  and  C5_6 
REMARK    2  A    between atoms: C6_7  and  C7_8 
REMARK    3  A    between atoms: C10_15  and  N3_16 
REMARK    4  A    between atoms: N3_16  and  C11_18 
ROOT
HETATM    1  C7  UNL     1      -1.371  -1.798  -0.752  1.00  0.00     0.016 A 
HETATM    2  C8  UNL     1      -0.999  -3.005  -1.314  1.00  0.00     0.099 A 
HETATM    3  C9  UNL     1      -1.993  -3.911  -1.638  1.00  0.00     0.305 A 
HETATM    4  O1  UNL     1      -1.684  -5.007  -2.146  1.00  0.00    -0.258 OA
HETATM    5  O2  UNL     1      -3.236  -3.615  -1.411  1.00  0.00    -0.194 OA
HETATM    6  N2  UNL     1      -3.639  -2.516  -0.894  1.00  0.00    -0.240 N 
ATOM      7  H2  UNL     1      -4.635  -2.356  -0.746  1.00  0.00     0.196 HD
HETATM    8  C10 UNL     1      -2.705  -1.529  -0.530  1.00  0.00     0.136 A 
ENDROOT
BRANCH   1   9
HETATM    9  C6  UNL     1      -0.371  -0.817  -0.396  1.00  0.00     0.016 C 
HETATM   10  C5  UNL     1       0.936  -1.008  -0.580  1.00  0.00     0.012 C 
BRANCH  10  11
HETATM   11  C4  UNL     1       1.936  -0.011  -0.217  1.00  0.00    -0.036 A 
HETATM   12  C3  UNL     1       3.285  -0.303  -0.448  1.00  0.00     0.013 A 
HETATM   13  C2  UNL     1       4.304   0.549  -0.151  1.00  0.00     0.027 A 
HETATM   14  C1  UNL     1       4.043   1.771   0.406  1.00  0.00     0.046 A 
HETATM   15  N1  UNL     1       5.098   2.659   0.717  1.00  0.00    -0.102 NA
HETATM   16  C16 UNL     1       2.730   2.090   0.647  1.00  0.00     0.027 A 
HETATM   17  C15 UNL     1       1.685   1.204   0.337  1.00  0.00     0.013 A 
ENDBRANCH  10  11
ENDBRANCH   1   9
BRANCH   8  18
HETATM   18  N3  UNL     1      -3.166  -0.538  -0.054  1.00  0.00    -0.340 N 
ATOM     19  H3  UNL     1      -4.169  -0.723  -0.057  1.00  0.00     0.167 HD
BRANCH  18  20
HETATM   20  C11 UNL     1      -3.079   0.724   0.499  1.00  0.00     0.040 A 
HETATM   21  C12 UNL     1      -2.959   0.971   1.831  1.00  0.00     0.037 A 
HETATM   22  C13 UNL     1      -2.898   2.253   2.256  1.00  0.00     0.052 A 
HETATM   23  S1  UNL     1      -3.006   3.143   0.812  1.00  0.00    -0.111 SA
HETATM   24  C14 UNL     1      -3.126   1.882  -0.301  1.00  0.00     0.079 A 
ENDBRANCH  18  20
ENDBRANCH   8  18
TORSDOF 4
