REMARK  4 active torsions:
REMARK  status: ('A' for Active; 'I' for Inactive)
REMARK    1  A    between atoms: C3_5  and  C4_6 
REMARK    2  A    between atoms: C7_9  and  O3_10 
REMARK    3  A    between atoms: C12_17  and  C13_18 
REMARK    4  A    between atoms: C16_21  and  O5_22 
ROOT
HETATM    1  O1  UNL     1       2.061  -2.006  -1.550  1.00  0.00    -0.259 OA
HETATM    2  C1  UNL     1       0.978  -1.481  -1.128  1.00  0.00     0.302 A 
HETATM    3  O2  UNL     1      -0.294  -1.883  -1.441  1.00  0.00    -0.271 OA
HETATM    4  C2  UNL     1      -1.272  -1.101  -0.821  1.00  0.00     0.131 A 
HETATM    5  C3  UNL     1      -2.576  -1.267  -0.953  1.00  0.00     0.053 C 
HETATM    6  C10 UNL     1      -0.584  -0.121  -0.052  1.00  0.00     0.222 A 
HETATM    7  O4  UNL     1      -1.048   0.800   0.671  1.00  0.00    -0.284 OA
HETATM    8  C11 UNL     1       0.875  -0.343  -0.231  1.00  0.00     0.093 A 
HETATM    9  C12 UNL     1       1.768   0.396   0.373  1.00  0.00     0.033 C 
ENDROOT
BRANCH   5  10
HETATM   10  C4  UNL     1      -3.598  -0.480  -0.321  1.00  0.00    -0.033 A 
HETATM   11  C5  UNL     1      -4.557   0.213  -1.076  1.00  0.00     0.014 A 
HETATM   12  C6  UNL     1      -5.559   0.912  -0.459  1.00  0.00     0.037 A 
HETATM   13  C7  UNL     1      -5.700   0.987   0.907  1.00  0.00     0.065 A 
HETATM   14  C8  UNL     1      -4.765   0.310   1.656  1.00  0.00     0.037 A 
HETATM   15  C9  UNL     1      -3.748  -0.401   1.056  1.00  0.00     0.014 A 
BRANCH  13  16
HETATM   16  O3  UNL     1      -6.720   1.699   1.520  1.00  0.00    -0.361 OA
ATOM     17  H3  UNL     1      -6.817   1.751   2.464  1.00  0.00     0.217 HD
ENDBRANCH  13  16
ENDBRANCH   5  10
BRANCH   9  18
HETATM   18  C13 UNL     1       3.203   0.213   0.269  1.00  0.00    -0.035 A 
HETATM   19  C14 UNL     1       3.892  -0.928   0.551  1.00  0.00     0.014 A 
HETATM   20  C15 UNL     1       5.273  -1.064   0.410  1.00  0.00     0.037 A 
HETATM   21  C16 UNL     1       5.990   0.024  -0.043  1.00  0.00     0.065 A 
HETATM   22  C17 UNL     1       5.344   1.207  -0.343  1.00  0.00     0.037 A 
HETATM   23  C18 UNL     1       3.978   1.294  -0.188  1.00  0.00     0.014 A 
BRANCH  21  24
HETATM   24  O5  UNL     1       7.363  -0.002  -0.218  1.00  0.00    -0.361 OA
ATOM     25  H5  UNL     1       7.857   0.747  -0.530  1.00  0.00     0.217 HD
ENDBRANCH  21  24
ENDBRANCH   9  18
TORSDOF 4
