REMARK  3 active torsions:
REMARK  status: ('A' for Active; 'I' for Inactive)
REMARK    1  A    between atoms: C4_4  and  N1_5 
REMARK    2  A    between atoms: N1_5  and  C5_7 
REMARK    3  A    between atoms: N4_13  and  C7_15 
ROOT
HETATM    1  C5  UNL     1       1.704   0.293  -0.245  1.00  0.00     0.167 A 
HETATM    2  N2  UNL     1       1.749  -0.681  -1.157  1.00  0.00    -0.278 N 
ATOM      3  H2  UNL     1       2.624  -0.908  -1.629  1.00  0.00     0.189 HD
HETATM    4  N3  UNL     1       0.682  -1.323  -1.430  1.00  0.00    -0.277 N 
ATOM      5  H3  UNL     1       0.692  -2.071  -2.123  1.00  0.00     0.189 HD
HETATM    6  C6  UNL     1      -0.444  -1.004  -0.798  1.00  0.00     0.168 A 
HETATM    7  N4  UNL     1      -1.635  -1.547  -0.942  1.00  0.00    -0.316 N 
ATOM      8  H4  UNL     1      -1.770  -2.310  -1.606  1.00  0.00     0.170 HD
HETATM    9  S1  UNL     1       0.063   0.268   0.224  1.00  0.00    -0.015 SA
ENDROOT
BRANCH   7  10
HETATM   10  C7  UNL     1      -2.731  -1.072  -0.174  1.00  0.00     0.150 A 
HETATM   11  C8  UNL     1      -3.319  -1.682   0.929  1.00  0.00     0.070 A 
HETATM   12  C9  UNL     1      -4.331  -0.831   1.309  1.00  0.00     0.002 A 
HETATM   13  C10 UNL     1      -5.262  -0.889   2.330  1.00  0.00     0.014 A 
HETATM   14  C14 UNL     1      -4.320   0.241   0.439  1.00  0.00     0.088 A 
HETATM   15  C11 UNL     1      -6.176   0.142   2.462  1.00  0.00     0.001 A 
HETATM   16  C12 UNL     1      -6.197   1.232   1.612  1.00  0.00     0.003 A 
HETATM   17  C13 UNL     1      -5.248   1.250   0.604  1.00  0.00     0.038 A 
HETATM   18  O1  UNL     1      -3.354   0.055  -0.423  1.00  0.00    -0.293 OA
ENDBRANCH   7  10
BRANCH   1  19
HETATM   19  N1  UNL     1       2.676   1.069   0.180  1.00  0.00    -0.335 N 
ATOM     20  H1  UNL     1       2.502   1.781   0.890  1.00  0.00     0.168 HD
BRANCH  19  21
HETATM   21  C4  UNL     1       3.967   0.895  -0.368  1.00  0.00     0.034 A 
HETATM   22  C3  UNL     1       4.818  -0.097   0.080  1.00  0.00     0.029 A 
HETATM   23  C2  UNL     1       6.074  -0.265  -0.454  1.00  0.00     0.002 A 
HETATM   24  C1  UNL     1       6.549   0.549  -1.464  1.00  0.00     0.000 A 
HETATM   25  C16 UNL     1       5.702   1.540  -1.913  1.00  0.00     0.002 A 
HETATM   26  C15 UNL     1       4.441   1.715  -1.382  1.00  0.00     0.029 A 
ENDBRANCH  19  21
ENDBRANCH   1  19
TORSDOF 3
