REMARK  3 active torsions:
REMARK  status: ('A' for Active; 'I' for Inactive)
REMARK       I    between atoms: C1_2  and  N2_4 
REMARK    1  A    between atoms: N3_6  and  C2_8 
REMARK    2  A    between atoms: C5_11  and  O2_12 
REMARK    3  A    between atoms: C9_18  and  C10_19 
ROOT
HETATM    1  C2  UNL     1       2.775  -0.953  -0.742  1.00  0.00     0.083 A 
HETATM    2  C3  UNL     1       3.480  -1.676   0.194  1.00  0.00     0.036 A 
HETATM    3  C4  UNL     1       2.826  -2.086   1.331  1.00  0.00     0.040 A 
HETATM    4  C5  UNL     1       1.475  -1.778   1.540  1.00  0.00     0.083 A 
HETATM    5  C6  UNL     1       0.813  -1.060   0.588  1.00  0.00     0.086 A 
HETATM    6  C7  UNL     1       1.427  -0.622  -0.578  1.00  0.00     0.121 A 
HETATM    7  O3  UNL     1       0.519   0.076  -1.352  1.00  0.00    -0.303 OA
HETATM    8  C8  UNL     1      -0.724   0.124  -0.725  1.00  0.00     0.128 A 
HETATM    9  C9  UNL     1      -1.761   0.722  -1.233  1.00  0.00     0.053 C 
HETATM   10  C16 UNL     1      -0.570  -0.589   0.512  1.00  0.00     0.221 A 
HETATM   11  O4  UNL     1      -1.442  -0.795   1.405  1.00  0.00    -0.284 OA
ENDROOT
BRANCH   1  12
HETATM   12  N3  UNL     1       3.426  -0.529  -1.908  1.00  0.00    -0.294 N 
HETATM   13  N2  UNL     1       4.514   0.054  -2.034  1.00  0.00    -0.254 N 
HETATM   14  C1  UNL     1       5.418   0.464  -1.053  1.00  0.00     0.347 C 
ATOM     15  H2  UNL     1       4.787   0.264  -2.994  1.00  0.00     0.191 HD
HETATM   16  N1  UNL     1       5.103   1.460  -0.098  1.00  0.00    -0.038 NA
HETATM   17  O1  UNL     1       6.554  -0.068  -1.011  1.00  0.00    -0.249 OA
ATOM     18  H3  UNL     1       2.934  -0.728  -2.779  1.00  0.00     0.187 HD
ENDBRANCH   1  12
BRANCH   4  19
HETATM   19  O2  UNL     1       0.872  -2.209   2.686  1.00  0.00    -0.360 OA
ATOM     20  H2  UNL     1      -0.044  -2.000   2.828  1.00  0.00     0.217 HD
ENDBRANCH   4  19
BRANCH   9  21
HETATM   21  C10 UNL     1      -3.085   0.835  -0.689  1.00  0.00    -0.034 A 
HETATM   22  C11 UNL     1      -3.664   2.088  -0.551  1.00  0.00     0.011 A 
HETATM   23  C12 UNL     1      -4.946   2.244  -0.080  1.00  0.00     0.001 A 
HETATM   24  C13 UNL     1      -5.715   1.148   0.276  1.00  0.00     0.000 A 
HETATM   25  C14 UNL     1      -5.156  -0.110   0.145  1.00  0.00     0.001 A 
HETATM   26  C15 UNL     1      -3.868  -0.238  -0.330  1.00  0.00     0.011 A 
ENDBRANCH   9  21
TORSDOF 3
