REMARK  6 active torsions:
REMARK  status: ('A' for Active; 'I' for Inactive)
REMARK    1  A    between atoms: C1_4  and  N2_5 
REMARK    2  A    between atoms: C1_4  and  C8_17 
REMARK    3  A    between atoms: N2_5  and  O1_7 
REMARK    4  A    between atoms: O1_7  and  C2_8 
REMARK    5  A    between atoms: C2_8  and  C3_10 
REMARK    6  A    between atoms: C11_20  and  C12_21 
ROOT
HETATM    1  N1  UNL     1      -0.929  -1.062  -1.700  1.00  0.00    -0.383 N 
ATOM      2  H11 UNL     1      -0.192  -1.574  -2.185  1.00  0.00     0.157 HD
ATOM      3  H12 UNL     1      -1.900  -1.212  -1.974  1.00  0.00     0.157 HD
HETATM    4  C1  UNL     1      -0.653  -0.246  -0.764  1.00  0.00     0.136 C 
ENDROOT
BRANCH   4   5
HETATM    5  N2  UNL     1      -1.662   0.455  -0.100  1.00  0.00    -0.240 N 
ATOM      6  H2  UNL     1      -1.409   1.334   0.352  1.00  0.00     0.196 HD
BRANCH   5   7
HETATM    7  O1  UNL     1      -2.971   0.047  -0.011  1.00  0.00    -0.193 OA
BRANCH   7   8
HETATM    8  C2  UNL     1      -4.037   0.892   0.160  1.00  0.00     0.316 C 
HETATM    9  O2  UNL     1      -3.795   2.125   0.240  1.00  0.00    -0.257 OA
BRANCH   8  10
HETATM   10  C3  UNL     1      -5.422   0.449   0.253  1.00  0.00     0.056 A 
HETATM   11  C4  UNL     1      -5.732  -0.892   0.170  1.00  0.00     0.020 A 
HETATM   12  C5  UNL     1      -7.056  -1.339   0.258  1.00  0.00     0.018 A 
HETATM   13  C6  UNL     1      -8.055  -0.404   0.429  1.00  0.00     0.087 A 
HETATM   14  N3  UNL     1      -7.744   0.894   0.508  1.00  0.00    -0.374 N 
HETATM   15  C7  UNL     1      -6.456   1.339   0.424  1.00  0.00     0.105 A 
ATOM     16  H3  UNL     1      -8.494   1.574   0.635  1.00  0.00     0.164 HD
ENDBRANCH   8  10
ENDBRANCH   7   8
ENDBRANCH   5   7
ENDBRANCH   4   5
BRANCH   4  17
HETATM   17  C8  UNL     1       0.735  -0.031  -0.372  1.00  0.00     0.051 A 
HETATM   18  C9  UNL     1       1.227   0.794   0.598  1.00  0.00     0.024 A 
HETATM   19  C10 UNL     1       2.553   0.831   0.786  1.00  0.00     0.021 A 
HETATM   20  C11 UNL     1       3.323   0.030  -0.015  1.00  0.00     0.016 A 
HETATM   21  S1  UNL     1       2.174  -0.744  -1.002  1.00  0.00    -0.086 SA
BRANCH  20  22
HETATM   22  C12 UNL     1       4.779  -0.123  -0.024  1.00  0.00    -0.019 A 
HETATM   23  C13 UNL     1       5.560   0.590   0.854  1.00  0.00     0.013 A 
HETATM   24  C14 UNL     1       6.945   0.422   0.822  1.00  0.00     0.001 A 
HETATM   25  C15 UNL     1       7.533  -0.440  -0.068  1.00  0.00     0.000 A 
HETATM   26  C16 UNL     1       6.747  -1.150  -0.943  1.00  0.00     0.001 A 
HETATM   27  C17 UNL     1       5.384  -0.976  -0.902  1.00  0.00     0.013 A 
ENDBRANCH  20  22
ENDBRANCH   4  17
TORSDOF 6
