REMARK  5 active torsions:
REMARK  status: ('A' for Active; 'I' for Inactive)
REMARK       I    between atoms: C1_2  and  N1_3 
REMARK    1  A    between atoms: C1_2  and  C8_13 
REMARK    2  A    between atoms: N1_3  and  C2_5 
REMARK    3  A    between atoms: C5_8  and  O2_9 
REMARK    4  A    between atoms: C10_15  and  N2_16 
REMARK    5  A    between atoms: C11_19  and  C12_20 
ROOT
HETATM    1  C8  UNL     1      -0.044   0.249  -0.098  1.00  0.00     0.076 A 
HETATM    2  C9  UNL     1      -0.440  -0.905   0.484  1.00  0.00     0.062 A 
HETATM    3  C10 UNL     1      -1.771  -1.106   0.691  1.00  0.00     0.122 A 
HETATM    4  C11 UNL     1      -2.614  -0.132   0.305  1.00  0.00     0.049 A 
HETATM    5  S1  UNL     1      -1.519   1.055  -0.357  1.00  0.00    -0.081 SA
ENDROOT
BRANCH   1   6
HETATM    6  C1  UNL     1       1.322   0.715  -0.437  1.00  0.00     0.263 C 
HETATM    7  O1  UNL     1       1.394   1.815  -0.970  1.00  0.00    -0.267 OA
HETATM    8  N1  UNL     1       2.402  -0.105  -0.136  1.00  0.00    -0.323 N 
ATOM      9  H1  UNL     1       2.182  -0.995   0.311  1.00  0.00     0.169 HD
BRANCH   8  10
HETATM   10  C2  UNL     1       3.756   0.150  -0.375  1.00  0.00     0.035 A 
HETATM   11  C3  UNL     1       4.229   1.280  -0.972  1.00  0.00     0.032 A 
HETATM   12  C4  UNL     1       5.611   1.498  -1.194  1.00  0.00     0.039 A 
HETATM   13  C5  UNL     1       6.532   0.553  -0.805  1.00  0.00     0.065 A 
HETATM   14  C6  UNL     1       6.058  -0.588  -0.203  1.00  0.00     0.039 A 
HETATM   15  C7  UNL     1       4.717  -0.802   0.014  1.00  0.00     0.032 A 
BRANCH  13  16
HETATM   16  O2  UNL     1       7.889   0.750  -1.014  1.00  0.00    -0.361 OA
ATOM     17  H2  UNL     1       8.525   0.097  -0.745  1.00  0.00     0.217 HD
ENDBRANCH  13  16
ENDBRANCH   8  10
ENDBRANCH   1   6
BRANCH   3  18
HETATM   18  N2  UNL     1      -2.202  -2.365   1.276  1.00  0.00    -0.114 N 
HETATM   19  O3  UNL     1      -3.205  -2.908   0.810  1.00  0.00    -0.532 OA
HETATM   20  O4  UNL     1      -1.453  -2.968   2.239  1.00  0.00    -0.532 OA
ENDBRANCH   3  18
BRANCH   4  21
HETATM   21  C12 UNL     1      -4.042   0.092   0.317  1.00  0.00    -0.017 A 
HETATM   22  C13 UNL     1      -4.917  -0.484   1.187  1.00  0.00     0.013 A 
HETATM   23  C14 UNL     1      -6.305  -0.271   1.096  1.00  0.00     0.001 A 
HETATM   24  C15 UNL     1      -6.803   0.541   0.107  1.00  0.00     0.000 A 
HETATM   25  C16 UNL     1      -5.928   1.123  -0.767  1.00  0.00     0.001 A 
HETATM   26  C17 UNL     1      -4.591   0.903  -0.662  1.00  0.00     0.013 A 
ENDBRANCH   4  21
TORSDOF 5
