REMARK  7 active torsions:
REMARK  status: ('A' for Active; 'I' for Inactive)
REMARK    1  A    between atoms: C3_3  and  C4_4 
REMARK    2  A    between atoms: C4_4  and  C5_5 
REMARK    3  A    between atoms: C6_8  and  S1_9 
REMARK    4  A    between atoms: S1_9  and  C7_10 
REMARK    5  A    between atoms: C7_10  and  N2_11 
REMARK    6  A    between atoms: N2_11  and  O1_13 
REMARK    7  A    between atoms: C10_17  and  O2_18 
ROOT
HETATM    1  C5  UNL     1       0.345  -0.198  -0.023  1.00  0.00     0.086 A 
HETATM    2  N1  UNL     1       1.190  -0.573   0.964  1.00  0.00    -0.333 N 
ATOM      3  H1  UNL     1       1.148  -1.463   1.461  1.00  0.00     0.168 HD
HETATM    4  C6  UNL     1       2.089   0.392   1.194  1.00  0.00     0.154 A 
HETATM    5  N3  UNL     1       1.819   1.399   0.345  1.00  0.00    -0.310 N 
HETATM    6  C9  UNL     1       2.532   2.649   0.236  1.00  0.00     0.160 C 
HETATM    7  C10 UNL     1       0.750   1.069  -0.420  1.00  0.00     0.171 A 
ENDROOT
BRANCH   1   8
HETATM    8  C4  UNL     1      -0.777  -0.936  -0.589  1.00  0.00     0.048 C 
BRANCH   8   9
HETATM    9  C3  UNL     1      -2.027  -0.588  -0.447  1.00  0.00    -0.006 A 
HETATM   10  C2  UNL     1      -3.126  -1.244  -0.957  1.00  0.00     0.035 A 
HETATM   11  C1  UNL     1      -3.077  -2.367  -1.694  1.00  0.00     0.044 C 
HETATM   12  N4  UNL     1      -4.219  -0.575  -0.593  1.00  0.00    -0.355 N 
HETATM   13  C12 UNL     1      -3.906   0.509   0.144  1.00  0.00     0.008 A 
HETATM   14  C14 UNL     1      -5.562  -0.972  -0.949  1.00  0.00     0.156 C 
HETATM   15  C11 UNL     1      -2.527   0.499   0.234  1.00  0.00     0.038 A 
HETATM   16  C13 UNL     1      -4.857   1.506   0.734  1.00  0.00     0.068 C 
ENDBRANCH   8   9
ENDBRANCH   1   8
BRANCH   7  17
HETATM   17  O2  UNL     1       0.162   1.851  -1.419  1.00  0.00    -0.344 OA
ATOM     18  H2  UNL     1       0.439   2.718  -1.691  1.00  0.00     0.219 HD
ENDBRANCH   7  17
BRANCH   4  19
HETATM   19  S1  UNL     1       3.434   0.405   2.397  1.00  0.00    -0.046 SA
BRANCH  19  20
HETATM   20  C7  UNL     1       4.898  -0.288   1.648  1.00  0.00     0.166 C 
BRANCH  20  21
HETATM   21  N2  UNL     1       4.824  -1.336   0.892  1.00  0.00    -0.272 N 
ATOM     22  H2  UNL     1       3.910  -1.760   0.732  1.00  0.00     0.194 HD
BRANCH  21  23
HETATM   23  O1  UNL     1       5.914  -1.896   0.302  1.00  0.00    -0.285 OA
HETATM   24  C8  UNL     1       7.219  -1.458   0.629  1.00  0.00     0.237 C 
ENDBRANCH  21  23
ENDBRANCH  20  21
ENDBRANCH  19  20
ENDBRANCH   4  19
TORSDOF 7
