REMARK  6 active torsions:
REMARK  status: ('A' for Active; 'I' for Inactive)
REMARK    1  A    between atoms: O1_2  and  C2_3 
REMARK    2  A    between atoms: C2_3  and  C3_4 
REMARK    3  A    between atoms: C5_6  and  O2_8 
REMARK    4  A    between atoms: C8_11  and  N1_12 
REMARK    5  A    between atoms: C10_16  and  O5_17 
REMARK    6  A    between atoms: C12_19  and  O6_20 
ROOT
HETATM    1  C3  UNL     1       1.831  -0.612  -0.626  1.00  0.00     0.111 C 
HETATM    2  C4  UNL     1       1.403  -1.605   0.366  1.00  0.00     0.070 C 
HETATM    3  C5  UNL     1      -0.057  -2.021   0.317  1.00  0.00     0.088 C 
HETATM    4  C6  UNL     1      -0.332  -3.015  -0.747  1.00  0.00     0.051 C 
HETATM    5  C7  UNL     1      -0.952  -0.849   0.320  1.00  0.00     0.038 A 
HETATM    6  C8  UNL     1      -2.189  -0.842   0.926  1.00  0.00     0.117 A 
HETATM    7  C9  UNL     1      -2.927   0.375   0.942  1.00  0.00     0.076 A 
HETATM    8  C10 UNL     1      -2.415   1.499   0.365  1.00  0.00     0.106 A 
HETATM    9  C12 UNL     1      -1.175   1.455  -0.237  1.00  0.00     0.126 A 
HETATM   10  C13 UNL     1      -0.420   0.301  -0.279  1.00  0.00     0.078 A 
HETATM   11  N2  UNL     1       0.819   0.351  -0.970  1.00  0.00    -0.375 N 
HETATM   12  C14 UNL     1       1.080   1.336  -2.009  1.00  0.00     0.150 C 
ENDROOT
BRANCH   1  13
HETATM   13  C2  UNL     1       3.105   0.044  -0.126  1.00  0.00     0.192 C 
BRANCH  13  14
HETATM   14  O1  UNL     1       3.690   0.892  -1.055  1.00  0.00    -0.394 OA
HETATM   15  C1  UNL     1       4.846   1.400  -0.419  1.00  0.00     0.201 C 
ENDBRANCH  13  14
ENDBRANCH   1  13
BRANCH   3  16
HETATM   16  O2  UNL     1      -0.220  -2.660   1.580  1.00  0.00    -0.385 OA
ATOM     17  H2  UNL     1      -1.133  -2.920   1.549  1.00  0.00     0.211 HD
ENDBRANCH   3  16
BRANCH   9  18
HETATM   18  O6  UNL     1      -0.715   2.621  -0.801  1.00  0.00    -0.356 OA
ATOM     19  H6  UNL     1       0.139   2.591  -1.216  1.00  0.00     0.218 HD
ENDBRANCH   9  18
BRANCH   6  20
HETATM   20  N1  UNL     1      -2.796  -1.958   1.515  1.00  0.00    -0.115 N 
HETATM   21  O3  UNL     1      -3.564  -1.717   2.504  1.00  0.00    -0.532 OA
HETATM   22  O4  UNL     1      -2.663  -3.241   1.168  1.00  0.00    -0.532 OA
ENDBRANCH   6  20
BRANCH   8  23
HETATM   23  O5  UNL     1      -3.177   2.658   0.411  1.00  0.00    -0.353 OA
HETATM   24  C11 UNL     1      -4.430   2.757   1.004  1.00  0.00     0.210 C 
ENDBRANCH   8  23
TORSDOF 6
