REMARK  8 active torsions:
REMARK  status: ('A' for Active; 'I' for Inactive)
REMARK    1  A    between atoms: N1_2  and  N2_3 
REMARK    2  A    between atoms: N1_2  and  C2_6 
REMARK    3  A    between atoms: C2_6  and  C3_7 
REMARK    4  A    between atoms: C5_9  and  C6_10 
REMARK    5  A    between atoms: C6_10  and  O1_11 
REMARK    6  A    between atoms: C6_10  and  C7_13 
REMARK    7  A    between atoms: C8_16  and  O4_17 
REMARK    8  A    between atoms: C12_24  and  N3_25 
ROOT
HETATM    1  C3  UNL     1      -0.812  -0.560  -0.848  1.00  0.00     0.044 C 
HETATM    2  C4  UNL     1      -2.077   0.242  -0.642  1.00  0.00     0.019 C 
HETATM    3  C5  UNL     1      -1.492   1.635  -0.904  1.00  0.00     0.057 C 
HETATM    4  C8  UNL     1      -0.349   1.679   0.002  1.00  0.00     0.166 C 
HETATM    5  C9  UNL     1       0.159   0.217   0.013  1.00  0.00     0.153 C 
HETATM    6  O5  UNL     1       0.168  -0.222   1.315  1.00  0.00    -0.224 OA
HETATM    7  O6  UNL     1       1.198  -0.930   1.660  1.00  0.00    -0.239 OA
HETATM    8  C10 UNL     1       2.410  -0.266   1.598  1.00  0.00     0.219 C 
HETATM    9  C11 UNL     1       2.558   0.615   0.391  1.00  0.00     0.077 C 
HETATM   10  C12 UNL     1       3.820   0.203  -0.342  1.00  0.00     0.216 C 
HETATM   11  C13 UNL     1       3.321  -0.969  -1.153  1.00  0.00     0.201 C 
HETATM   12  O7  UNL     1       1.959  -1.037  -1.008  1.00  0.00    -0.380 OA
HETATM   13  C14 UNL     1       1.498   0.199  -0.635  1.00  0.00     0.170 C 
ENDROOT
BRANCH   1  14
HETATM   14  C2  UNL     1      -0.896  -2.003  -0.579  1.00  0.00     0.120 C 
BRANCH  14  15
HETATM   15  N1  UNL     1      -1.259  -2.427   0.729  1.00  0.00    -0.242 NA
HETATM   16  C1  UNL     1      -1.161  -3.908   0.710  1.00  0.00     0.135 C 
BRANCH  15  17
HETATM   17  N2  UNL     1      -2.663  -2.219   0.874  1.00  0.00    -0.364 NA
ATOM     18  H22 UNL     1      -2.923  -2.523   1.812  1.00  0.00     0.171 HD
ATOM     19  H21 UNL     1      -2.730  -1.201   0.887  1.00  0.00     0.171 HD
ENDBRANCH  15  17
ENDBRANCH  14  15
ENDBRANCH   1  14
BRANCH   4  20
HETATM   20  O4  UNL     1      -0.514   2.108   1.282  1.00  0.00    -0.392 OA
ATOM     21  H4  UNL     1       0.230   2.137   1.872  1.00  0.00     0.210 HD
ENDBRANCH   4  20
BRANCH   3  22
HETATM   22  C6  UNL     1      -2.461   2.718  -1.011  1.00  0.00     0.225 C 
BRANCH  22  23
HETATM   23  O1  UNL     1      -3.303   2.379  -2.127  1.00  0.00    -0.384 OA
ATOM     24  H1  UNL     1      -3.935   3.085  -2.197  1.00  0.00     0.210 HD
ENDBRANCH  22  23
BRANCH  22  25
HETATM   25  C7  UNL     1      -3.381   2.981   0.083  1.00  0.00     0.203 C 
HETATM   26  O2  UNL     1      -4.636   2.805  -0.008  1.00  0.00    -0.646 OA
HETATM   27  O3  UNL     1      -2.954   3.449   1.316  1.00  0.00    -0.646 OA
ENDBRANCH  22  25
ENDBRANCH   3  22
BRANCH  10  28
HETATM   28  N3  UNL     1       4.827  -0.144   0.613  1.00  0.00    -0.072 N 
ATOM     29  H33 UNL     1       4.997   0.604   1.286  1.00  0.00     0.274 HD
ATOM     30  H32 UNL     1       4.509  -0.858   1.268  1.00  0.00     0.274 HD
ATOM     31  H31 UNL     1       5.676  -0.421   0.120  1.00  0.00     0.274 HD
ENDBRANCH  10  28
TORSDOF 8
