REMARK  6 active torsions:
REMARK  status: ('A' for Active; 'I' for Inactive)
REMARK    1  A    between atoms: S1_2  and  C2_5 
REMARK    2  A    between atoms: C2_5  and  C3_6 
REMARK    3  A    between atoms: C4_11  and  N3_12 
REMARK    4  A    between atoms: N4_15  and  C5_16 
REMARK    5  A    between atoms: C6_19  and  N6_20 
REMARK    6  A    between atoms: C12_28  and  N8_29 
ROOT
HETATM    1  C5  UNL     1       0.838   0.835   1.102  1.00  0.00     0.708 A 
HETATM    2  N5  UNL     1      -0.174   0.507   0.273  1.00  0.00    -0.175 N 
ATOM      3  H5  UNL     1      -0.216   0.966  -0.637  1.00  0.00     0.186 HD
HETATM    4  C6  UNL     1      -1.127  -0.385   0.573  1.00  0.00     0.122 A 
HETATM    5  C11 UNL     1      -1.091  -1.024   1.805  1.00  0.00     0.097 A 
HETATM    6  C12 UNL     1      -0.068  -0.709   2.675  1.00  0.00     0.118 A 
HETATM    7  N9  UNL     1       0.852   0.196   2.302  1.00  0.00    -0.176 N 
ATOM      8  H9  UNL     1       1.603   0.416   2.956  1.00  0.00     0.186 HD
ENDROOT
BRANCH   1   9
HETATM    9  N4  UNL     1       1.825   1.783   0.753  1.00  0.00     0.037 N 
HETATM   10  C3  UNL     1       2.572   1.780  -0.352  1.00  0.00     0.152 A 
HETATM   11  N1  UNL     1       3.403   2.850  -0.332  1.00  0.00    -0.272 N 
HETATM   12  N2  UNL     1       3.171   3.510   0.774  1.00  0.00    -0.130 N 
ATOM     13  H1  UNL     1       4.086   3.096  -1.049  1.00  0.00     0.189 HD
HETATM   14  C4  UNL     1       2.192   2.858   1.460  1.00  0.00     0.713 A 
ATOM     15  H2  UNL     1       3.642   4.365   1.071  1.00  0.00     0.205 HD
BRANCH  10  16
HETATM   16  C2  UNL     1       2.558   0.803  -1.469  1.00  0.00     0.219 C 
BRANCH  16  17
HETATM   17  S1  UNL     1       3.757  -0.452  -1.087  1.00  0.00     0.147 S 
HETATM   18  C1  UNL     1       3.830  -1.685  -2.363  1.00  0.00     0.161 C 
HETATM   19  O1  UNL     1       5.116   0.166  -0.949  1.00  0.00    -0.228 OA
HETATM   20  O2  UNL     1       3.400  -1.102   0.216  1.00  0.00    -0.228 OA
ENDBRANCH  16  17
ENDBRANCH  10  16
BRANCH  14  21
HETATM   21  N3  UNL     1       1.749   3.273   2.595  1.00  0.00    -0.232 N 
ATOM     22  H32 UNL     1       2.029   4.093   3.134  1.00  0.00     0.174 HD
ATOM     23  H31 UNL     1       1.016   2.785   3.109  1.00  0.00     0.174 HD
ENDBRANCH  14  21
ENDBRANCH   1   9
BRANCH   4  24
HETATM   24  N6  UNL     1      -2.184  -0.716  -0.312  1.00  0.00    -0.364 N 
HETATM   25  C7  UNL     1      -2.314  -0.106  -1.623  1.00  0.00     0.143 C 
HETATM   26  C8  UNL     1      -3.685   0.485  -1.714  1.00  0.00     0.133 C 
HETATM   27  N7  UNL     1      -4.717  -0.455  -1.429  1.00  0.00    -0.418 N 
HETATM   28  C9  UNL     1      -4.292  -1.735  -0.975  1.00  0.00     0.133 C 
ATOM     29  H7  UNL     1      -5.704  -0.224  -1.544  1.00  0.00     0.153 HD
HETATM   30  C10 UNL     1      -3.194  -1.688   0.053  1.00  0.00     0.143 C 
ENDBRANCH   4  24
BRANCH   6  31
HETATM   31  N8  UNL     1      -0.007  -1.295   3.844  1.00  0.00    -0.385 N 
ATOM     32  H82 UNL     1      -0.706  -1.982   4.127  1.00  0.00     0.157 HD
ATOM     33  H81 UNL     1       0.749  -1.062   4.487  1.00  0.00     0.157 HD
ENDBRANCH   6  31
TORSDOF 6
