REMARK  8 active torsions:
REMARK  status: ('A' for Active; 'I' for Inactive)
REMARK    1  A    between atoms: C3_5  and  N2_6 
REMARK    2  A    between atoms: N2_6  and  N3_8 
REMARK    3  A    between atoms: N3_8  and  C4_10 
REMARK    4  A    between atoms: C4_10  and  N4_12 
REMARK    5  A    between atoms: N4_12  and  N5_14 
REMARK    6  A    between atoms: C5_16  and  C6_17 
REMARK    7  A    between atoms: C6_17  and  N6_18 
REMARK    8  A    between atoms: N7_24  and  O2_25 
ROOT
HETATM    1  N3  UNL     1      -1.219   0.232  -1.963  1.00  0.00    -0.261 N 
ATOM      2  H3  UNL     1      -1.855   0.176  -2.759  1.00  0.00     0.190 HD
ENDROOT
BRANCH   1   3
HETATM    3  N2  UNL     1      -1.508  -0.549  -0.826  1.00  0.00    -0.128 N 
ATOM      4  H2  UNL     1      -0.826  -1.192  -0.423  1.00  0.00     0.205 HD
BRANCH   3   5
HETATM    5  C3  UNL     1      -2.697  -0.399  -0.322  1.00  0.00     0.726 A 
HETATM    6  N1  UNL     1      -3.610   0.430  -0.824  1.00  0.00    -0.190 N 
HETATM    7  C2  UNL     1      -4.851   0.601  -0.317  1.00  0.00     0.052 A 
ATOM      8  H1  UNL     1      -3.355   0.974  -1.648  1.00  0.00     0.184 HD
HETATM    9  C1  UNL     1      -5.841   1.539  -0.908  1.00  0.00     0.071 C 
HETATM   10  C12 UNL     1      -5.152  -0.153   0.793  1.00  0.00     0.139 A 
HETATM   11  C11 UNL     1      -4.236  -1.022   1.342  1.00  0.00     0.314 A 
HETATM   12  N8  UNL     1      -6.427  -0.045   1.399  1.00  0.00    -0.094 NA
HETATM   13  N7  UNL     1      -3.021  -1.131   0.774  1.00  0.00    -0.010 N 
HETATM   14  O3  UNL     1      -4.520  -1.719   2.373  1.00  0.00    -0.263 OA
BRANCH  13  15
HETATM   15  O2  UNL     1      -2.086  -1.995   1.305  1.00  0.00    -0.266 OA
ATOM     16  H2  UNL     1      -2.313  -2.507   2.072  1.00  0.00     0.246 HD
ENDBRANCH  13  15
ENDBRANCH   3   5
ENDBRANCH   1   3
BRANCH   1  17
HETATM   17  C4  UNL     1      -0.097   1.089  -2.064  1.00  0.00     0.205 C 
HETATM   18  S1  UNL     1       0.148   1.957  -3.437  1.00  0.00    -0.038 SA
BRANCH  17  19
HETATM   19  N4  UNL     1       0.802   1.191  -0.986  1.00  0.00    -0.276 N 
ATOM     20  H4  UNL     1       1.610   1.809  -1.062  1.00  0.00     0.189 HD
BRANCH  19  21
HETATM   21  N5  UNL     1       0.607   0.467   0.172  1.00  0.00    -0.312 N 
HETATM   22  C5  UNL     1       1.423  -0.464   0.530  1.00  0.00     0.110 C 
ATOM     23  H5  UNL     1      -0.202   0.673   0.758  1.00  0.00     0.185 HD
BRANCH  22  24
HETATM   24  C6  UNL     1       2.623  -0.855  -0.229  1.00  0.00     0.318 C 
BRANCH  24  25
HETATM   25  N6  UNL     1       3.798  -0.780   0.619  1.00  0.00     0.097 N 
HETATM   26  C7  UNL     1       4.933  -1.170  -0.171  1.00  0.00     0.299 C 
HETATM   27  C8  UNL     1       6.231  -0.586   0.312  1.00  0.00     0.198 C 
HETATM   28  O1  UNL     1       6.138   0.774   0.580  1.00  0.00    -0.388 OA
HETATM   29  C9  UNL     1       5.257   0.907   1.655  1.00  0.00     0.198 C 
HETATM   30  C10 UNL     1       3.881   0.543   1.158  1.00  0.00     0.299 C 
ENDBRANCH  24  25
ENDBRANCH  22  24
ENDBRANCH  19  21
ENDBRANCH  17  19
ENDBRANCH   1  17
TORSDOF 8
