REMARK  8 active torsions:
REMARK  status: ('A' for Active; 'I' for Inactive)
REMARK    1  A    between atoms: N1_1  and  C1_4 
REMARK    2  A    between atoms: C2_7  and  N3_8 
REMARK    3  A    between atoms: N3_8  and  C3_10 
REMARK    4  A    between atoms: C12_21  and  C13_22 
REMARK    5  A    between atoms: C16_25  and  C17_26 
REMARK    6  A    between atoms: C20_32  and  N6_33 
REMARK    7  A    between atoms: N6_33  and  C21_35 
REMARK    8  A    between atoms: C21_35  and  C22_36 
ROOT
HETATM    1  C1  UNL     1       1.764  -2.123  -0.005  1.00  0.00     0.134 A 
HETATM    2  N2  UNL     1       0.428  -2.133  -0.028  1.00  0.00    -0.326 N 
ATOM      3  H2  UNL     1      -0.015  -3.003   0.266  1.00  0.00     0.169 HD
HETATM    4  C2  UNL     1      -0.409  -1.141  -0.390  1.00  0.00     0.125 A 
HETATM    5  C12 UNL     1      -0.068   0.104  -0.819  1.00  0.00     0.061 A 
HETATM    6  S1  UNL     1       1.656   0.322  -0.859  1.00  0.00    -0.064 SA
HETATM    7  C20 UNL     1       2.538  -1.040  -0.367  1.00  0.00     0.115 A 
ENDROOT
BRANCH   4   8
HETATM    8  N3  UNL     1      -1.801  -1.453  -0.251  1.00  0.00    -0.341 N 
ATOM      9  H3  UNL     1      -2.348  -1.561  -1.105  1.00  0.00     0.167 HD
BRANCH   8  10
HETATM   10  C3  UNL     1      -2.401  -1.604   0.853  1.00  0.00     0.047 A 
HETATM   11  C4  UNL     1      -1.762  -1.477   2.057  1.00  0.00     0.047 A 
HETATM   12  C5  UNL     1      -2.442  -1.663   3.252  1.00  0.00     0.090 A 
HETATM   13  N4  UNL     1      -3.761  -1.974   3.230  1.00  0.00    -0.365 N 
HETATM   14  C6  UNL     1      -4.421  -2.106   2.055  1.00  0.00     0.044 A 
ATOM     15  H4  UNL     1      -4.262  -2.110   4.108  1.00  0.00     0.165 HD
HETATM   16  C7  UNL     1      -5.755  -2.424   2.023  1.00  0.00     0.030 A 
HETATM   17  C11 UNL     1      -3.743  -1.921   0.843  1.00  0.00     0.017 A 
HETATM   18  C8  UNL     1      -6.481  -2.576   0.862  1.00  0.00     0.002 A 
HETATM   19  C9  UNL     1      -5.798  -2.390  -0.343  1.00  0.00     0.001 A 
HETATM   20  C10 UNL     1      -4.462  -2.072  -0.319  1.00  0.00     0.016 A 
ENDBRANCH   8  10
ENDBRANCH   4   8
BRANCH   5  21
HETATM   21  C13 UNL     1      -0.940   1.205  -1.197  1.00  0.00    -0.015 A 
HETATM   22  C14 UNL     1      -0.304   2.451  -1.285  1.00  0.00     0.014 A 
HETATM   23  C15 UNL     1      -0.937   3.608  -1.661  1.00  0.00     0.017 A 
HETATM   24  C16 UNL     1      -2.266   3.518  -1.964  1.00  0.00     0.029 A 
HETATM   25  C18 UNL     1      -2.928   2.318  -1.892  1.00  0.00     0.017 A 
HETATM   26  C19 UNL     1      -2.246   1.193  -1.511  1.00  0.00     0.014 A 
BRANCH  24  27
HETATM   27  C17 UNL     1      -2.997   4.710  -2.370  1.00  0.00     0.264 C 
HETATM   28  N5  UNL     1      -2.360   5.975  -2.464  1.00  0.00    -0.057 NA
HETATM   29  O1  UNL     1      -4.217   4.639  -2.645  1.00  0.00    -0.271 OA
ENDBRANCH  24  27
ENDBRANCH   5  21
BRANCH   1  30
HETATM   30  N1  UNL     1       2.424  -3.197   0.382  1.00  0.00    -0.383 N 
ATOM     31  H12 UNL     1       1.852  -3.998   0.650  1.00  0.00     0.157 HD
ATOM     32  H11 UNL     1       3.444  -3.189   0.400  1.00  0.00     0.157 HD
ENDBRANCH   1  30
BRANCH   7  33
HETATM   33  N6  UNL     1       3.829  -1.116  -0.314  1.00  0.00    -0.377 N 
ATOM     34  H6  UNL     1       4.236  -1.997   0.002  1.00  0.00     0.160 HD
BRANCH  33  35
HETATM   35  C21 UNL     1       4.724  -0.069  -0.661  1.00  0.00     0.160 C 
BRANCH  35  36
HETATM   36  C22 UNL     1       6.018  -0.142   0.085  1.00  0.00    -0.025 A 
HETATM   37  C23 UNL     1       6.982   0.814  -0.160  1.00  0.00     0.011 A 
HETATM   38  C24 UNL     1       8.189   0.786   0.505  1.00  0.00     0.018 A 
HETATM   39  C25 UNL     1       8.428  -0.211   1.423  1.00  0.00     0.087 A 
HETATM   40  N7  UNL     1       7.470  -1.142   1.652  1.00  0.00    -0.375 N 
HETATM   41  C26 UNL     1       6.295  -1.115   1.005  1.00  0.00     0.096 A 
ATOM     42  H7  UNL     1       7.647  -1.881   2.333  1.00  0.00     0.164 HD
ENDBRANCH  35  36
ENDBRANCH  33  35
ENDBRANCH   7  33
TORSDOF 8
