REMARK  9 active torsions:
REMARK  status: ('A' for Active; 'I' for Inactive)
REMARK    1  A    between atoms: C2_2  and  C3_3 
REMARK    2  A    between atoms: C3_3  and  N2_7 
REMARK    3  A    between atoms: N2_7  and  C4_9 
REMARK    4  A    between atoms: C7_14  and  N4_15 
REMARK    5  A    between atoms: N4_15  and  C8_17 
REMARK    6  A    between atoms: C15_26  and  N6_27 
REMARK    7  A    between atoms: N6_27  and  C16_28 
REMARK    8  A    between atoms: C16_28  and  C17_29 
REMARK    9  A    between atoms: C19_32  and  C20_33 
ROOT
HETATM    1  C8  UNL     1       1.590   1.963   0.572  1.00  0.00     0.686 A 
HETATM    2  N5  UNL     1       1.643   3.291   0.387  1.00  0.00    -0.191 N 
ATOM      3  H5  UNL     1       2.467   3.800   0.709  1.00  0.00     0.184 HD
HETATM    4  C9  UNL     1       0.653   3.973  -0.205  1.00  0.00     0.064 A 
HETATM    5  C10 UNL     1       0.747   5.332  -0.373  1.00  0.00     0.031 A 
HETATM    6  C11 UNL     1      -0.256   6.044  -0.975  1.00  0.00     0.002 A 
HETATM    7  C12 UNL     1      -1.368   5.374  -1.411  1.00  0.00     0.001 A 
HETATM    8  C13 UNL     1      -1.471   3.989  -1.243  1.00  0.00     0.018 A 
HETATM    9  C14 UNL     1      -0.453   3.312  -0.640  1.00  0.00     0.050 A 
HETATM   10  C15 UNL     1      -0.541   1.928  -0.463  1.00  0.00     0.200 A 
HETATM   11  N8  UNL     1       0.516   1.299   0.153  1.00  0.00    -0.163 N 
ATOM     12  H8  UNL     1       0.475   0.290   0.293  1.00  0.00     0.187 HD
ENDROOT
BRANCH   1  13
HETATM   13  N4  UNL     1       2.678   1.324   1.207  1.00  0.00    -0.176 N 
ATOM     14  H4  UNL     1       2.851   1.541   2.189  1.00  0.00     0.186 HD
BRANCH  13  15
HETATM   15  C7  UNL     1       3.463   0.488   0.629  1.00  0.00     0.138 A 
HETATM   16  C6  UNL     1       3.297   0.144  -0.692  1.00  0.00     0.067 A 
HETATM   17  C5  UNL     1       4.157  -0.770  -1.310  1.00  0.00     0.110 A 
HETATM   18  N3  UNL     1       5.157  -1.315  -0.601  1.00  0.00    -0.202 N 
HETATM   19  C4  UNL     1       5.317  -0.977   0.689  1.00  0.00     0.684 A 
ATOM     20  H3  UNL     1       5.792  -1.982  -1.039  1.00  0.00     0.183 HD
HETATM   21  N9  UNL     1       4.481  -0.092   1.283  1.00  0.00    -0.176 N 
ATOM     22  H9  UNL     1       4.631   0.142   2.264  1.00  0.00     0.186 HD
BRANCH  19  23
HETATM   23  N2  UNL     1       6.266  -1.470   1.422  1.00  0.00    -0.181 N 
ATOM     24  H2  UNL     1       6.313  -1.158   2.392  1.00  0.00     0.185 HD
BRANCH  23  25
HETATM   25  C3  UNL     1       7.230  -2.390   1.004  1.00  0.00     0.090 C 
HETATM   26  N1  UNL     1       8.120  -2.055   0.129  1.00  0.00    -0.388 N 
ATOM     27  H12 UNL     1       8.824  -2.727  -0.176  1.00  0.00     0.157 HD
ATOM     28  H11 UNL     1       8.108  -1.109  -0.253  1.00  0.00     0.157 HD
BRANCH  25  29
HETATM   29  C2  UNL     1       7.248  -3.757   1.556  1.00  0.00     0.072 C 
HETATM   30  C1  UNL     1       5.979  -4.492   1.271  1.00  0.00     0.013 C 
ENDBRANCH  25  29
ENDBRANCH  23  25
ENDBRANCH  19  23
ENDBRANCH  13  15
ENDBRANCH   1  13
BRANCH  10  31
HETATM   31  N6  UNL     1      -1.478   1.272  -0.821  1.00  0.00    -0.425 NA
BRANCH  31  32
HETATM   32  C16 UNL     1      -2.598   0.724  -1.286  1.00  0.00     0.259 C 
BRANCH  32  33
HETATM   33  C17 UNL     1      -3.576   0.248  -0.207  1.00  0.00    -0.020 A 
HETATM   34  C18 UNL     1      -3.269   0.453   1.109  1.00  0.00     0.060 A 
HETATM   35  S1  UNL     1      -4.606  -0.228   1.918  1.00  0.00    -0.101 SA
HETATM   36  C19 UNL     1      -5.513  -0.750   0.571  1.00  0.00     0.015 A 
HETATM   37  C25 UNL     1      -4.725  -0.367  -0.492  1.00  0.00     0.030 A 
BRANCH  36  38
HETATM   38  C20 UNL     1      -6.809  -1.439   0.519  1.00  0.00    -0.017 A 
HETATM   39  C21 UNL     1      -7.445  -1.743   1.695  1.00  0.00     0.030 A 
HETATM   40  C22 UNL     1      -8.685  -2.404   1.661  1.00  0.00     0.088 A 
HETATM   41  N7  UNL     1      -9.243  -2.736   0.479  1.00  0.00    -0.375 N 
HETATM   42  C23 UNL     1      -8.645  -2.452  -0.679  1.00  0.00     0.088 A 
ATOM     43  H7  UNL     1     -10.143  -3.215   0.470  1.00  0.00     0.164 HD
HETATM   44  C24 UNL     1      -7.410  -1.794  -0.657  1.00  0.00     0.030 A 
ENDBRANCH  36  38
ENDBRANCH  32  33
ENDBRANCH  31  32
ENDBRANCH  10  31
TORSDOF 9
