REMARK  8 active torsions:
REMARK  status: ('A' for Active; 'I' for Inactive)
REMARK    1  A    between atoms: C4_7  and  N3_8 
REMARK    2  A    between atoms: C5_11  and  N4_12 
REMARK       I    between atoms: N4_12  and  C6_14 
REMARK    3  A    between atoms: C6_14  and  C7_16 
REMARK    4  A    between atoms: C10_19  and  C11_20 
REMARK    5  A    between atoms: C12_21  and  C13_22 
REMARK    6  A    between atoms: C20_29  and  O2_30 
REMARK    7  A    between atoms: O2_30  and  C21_31 
REMARK    8  A    between atoms: C24_34  and  C25_35 
ROOT
HETATM    1  N1  UNL     1      -7.164  -4.601   2.594  1.00  0.00    -0.191 NA
HETATM    2  C1  UNL     1      -6.671  -3.979   1.772  1.00  0.00     0.101 C 
HETATM    3  C2  UNL     1      -6.068  -3.190   0.722  1.00  0.00     0.062 A 
HETATM    4  C3  UNL     1      -6.765  -2.768  -0.373  1.00  0.00     0.112 A 
HETATM    5  N2  UNL     1      -6.205  -2.042  -1.337  1.00  0.00    -0.349 N 
ATOM      6  H2  UNL     1      -6.773  -1.755  -2.134  1.00  0.00     0.167 HD
HETATM    7  C4  UNL     1      -4.918  -1.678  -1.291  1.00  0.00     0.126 A 
HETATM    8  C5  UNL     1      -4.156  -2.085  -0.189  1.00  0.00     0.080 A 
HETATM    9  C27 UNL     1      -4.712  -2.826   0.803  1.00  0.00     0.057 A 
ENDROOT
BRANCH   8  10
HETATM   10  N4  UNL     1      -2.799  -1.678  -0.178  1.00  0.00    -0.320 N 
HETATM   11  C6  UNL     1      -1.801  -1.925   0.750  1.00  0.00     0.259 C 
HETATM   12  O1  UNL     1      -2.098  -2.632   1.747  1.00  0.00    -0.267 OA
ATOM     13  H4  UNL     1      -2.512  -1.115  -0.979  1.00  0.00     0.169 HD
BRANCH  11  14
HETATM   14  C7  UNL     1      -0.437  -1.437   0.693  1.00  0.00     0.066 A 
HETATM   15  C8  UNL     1       0.482  -2.200   1.447  1.00  0.00     0.021 A 
HETATM   16  C9  UNL     1       1.815  -2.037   1.276  1.00  0.00     0.022 A 
HETATM   17  C10 UNL     1       2.358  -1.140   0.378  1.00  0.00     0.020 A 
HETATM   18  C19 UNL     1       1.461  -0.404  -0.342  1.00  0.00     0.059 A 
HETATM   19  C20 UNL     1       0.060  -0.544  -0.185  1.00  0.00     0.095 A 
BRANCH  17  20
HETATM   20  C11 UNL     1       3.771  -0.966   0.187  1.00  0.00    -0.061 C 
HETATM   21  C12 UNL     1       4.955  -0.804   0.020  1.00  0.00    -0.061 C 
BRANCH  21  22
HETATM   22  C13 UNL     1       6.377  -0.590  -0.192  1.00  0.00     0.018 A 
HETATM   23  C14 UNL     1       6.872   0.660   0.009  1.00  0.00     0.020 A 
HETATM   24  C15 UNL     1       8.223   0.879  -0.188  1.00  0.00     0.001 A 
HETATM   25  C16 UNL     1       9.078  -0.129  -0.582  1.00  0.00     0.000 A 
HETATM   26  C17 UNL     1       8.563  -1.390  -0.782  1.00  0.00     0.001 A 
HETATM   27  C18 UNL     1       7.220  -1.600  -0.584  1.00  0.00     0.020 A 
ENDBRANCH  21  22
ENDBRANCH  17  20
BRANCH  19  28
HETATM   28  O2  UNL     1      -0.707   0.310  -0.996  1.00  0.00    -0.293 OA
BRANCH  28  29
HETATM   29  C21 UNL     1      -1.127   1.553  -0.514  1.00  0.00     0.147 A 
HETATM   30  C22 UNL     1      -2.192   1.850   0.230  1.00  0.00     0.057 A 
HETATM   31  C23 UNL     1      -2.497   3.147   0.646  1.00  0.00     0.022 A 
HETATM   32  C24 UNL     1      -1.647   4.149   0.260  1.00  0.00     0.044 A 
HETATM   33  C26 UNL     1      -0.544   3.837  -0.512  1.00  0.00     0.106 A 
HETATM   34  N6  UNL     1      -0.307   2.594  -0.874  1.00  0.00    -0.346 N 
ATOM     35  H6  UNL     1       0.516   2.397  -1.443  1.00  0.00     0.167 HD
BRANCH  32  36
HETATM   36  C25 UNL     1      -1.880   5.536   0.645  1.00  0.00     0.266 C 
HETATM   37  N5  UNL     1      -0.986   6.558   0.235  1.00  0.00    -0.057 NA
HETATM   38  O3  UNL     1      -2.863   5.878   1.341  1.00  0.00    -0.271 OA
ENDBRANCH  32  36
ENDBRANCH  28  29
ENDBRANCH  19  28
ENDBRANCH  11  14
ENDBRANCH   8  10
BRANCH   7  39
HETATM   39  N3  UNL     1      -4.429  -0.978  -2.247  1.00  0.00    -0.384 N 
ATOM     40  H32 UNL     1      -4.984  -0.682  -3.050  1.00  0.00     0.157 HD
ATOM     41  H31 UNL     1      -3.448  -0.701  -2.212  1.00  0.00     0.157 HD
ENDBRANCH   7  39
TORSDOF 8
