REMARK  7 active torsions:
REMARK  status: ('A' for Active; 'I' for Inactive)
REMARK    1  A    between atoms: C3_4  and  N2_5 
REMARK       I    between atoms: N2_5  and  C4_7 
REMARK       I    between atoms: C4_7  and  N3_9 
REMARK    2  A    between atoms: N3_9  and  N4_11 
REMARK    3  A    between atoms: C5_13  and  C6_14 
REMARK    4  A    between atoms: C18_28  and  N6_29 
REMARK    5  A    between atoms: N6_29  and  C19_30 
REMARK    6  A    between atoms: C22_33  and  S1_34 
REMARK    7  A    between atoms: S1_34  and  N7_35 
ROOT
HETATM    1  N1  UNL     1      -1.543   0.713  -2.307  1.00  0.00    -0.191 NA
HETATM    2  C1  UNL     1      -1.217   0.415  -1.236  1.00  0.00     0.107 C 
HETATM    3  C2  UNL     1      -0.833   0.044   0.115  1.00  0.00     0.130 A 
HETATM    4  C3  UNL     1       0.529  -0.094   0.372  1.00  0.00     0.134 A 
HETATM    5  N5  UNL     1       0.872  -0.435   1.620  1.00  0.00    -0.340 N 
ATOM      6  H5  UNL     1       1.861  -0.545   1.844  1.00  0.00     0.167 HD
HETATM    7  C12 UNL     1      -0.050  -0.641   2.604  1.00  0.00     0.047 A 
HETATM    8  C13 UNL     1       0.401  -0.998   3.847  1.00  0.00     0.030 A 
HETATM    9  C14 UNL     1      -0.502  -1.225   4.866  1.00  0.00     0.002 A 
HETATM   10  C15 UNL     1      -1.847  -1.098   4.646  1.00  0.00     0.001 A 
HETATM   11  C16 UNL     1      -2.287  -0.737   3.386  1.00  0.00     0.017 A 
HETATM   12  C17 UNL     1      -1.385  -0.509   2.363  1.00  0.00     0.033 A 
HETATM   13  C18 UNL     1      -1.825  -0.153   1.075  1.00  0.00     0.144 A 
ENDROOT
BRANCH   4  14
HETATM   14  N2  UNL     1       1.430   0.109  -0.695  1.00  0.00    -0.292 N 
HETATM   15  C4  UNL     1       2.814   0.012  -0.615  1.00  0.00     0.340 C 
HETATM   16  O1  UNL     1       3.509  -0.254   0.412  1.00  0.00    -0.245 OA
HETATM   17  N3  UNL     1       3.612   0.224  -1.798  1.00  0.00    -0.252 N 
ATOM     18  H3  UNL     1       3.167   0.445  -2.689  1.00  0.00     0.191 HD
ATOM     19  H2  UNL     1       1.031   0.347  -1.603  1.00  0.00     0.172 HD
BRANCH  17  20
HETATM   20  N4  UNL     1       4.991   0.123  -1.708  1.00  0.00    -0.307 N 
HETATM   21  C5  UNL     1       5.729   0.391  -2.715  1.00  0.00     0.118 C 
ATOM     22  H4  UNL     1       5.420  -0.168  -0.830  1.00  0.00     0.186 HD
BRANCH  21  23
HETATM   23  C6  UNL     1       7.168   0.267  -2.562  1.00  0.00    -0.019 A 
HETATM   24  C7  UNL     1       7.749  -0.130  -1.383  1.00  0.00     0.013 A 
HETATM   25  C8  UNL     1       9.109  -0.242  -1.262  1.00  0.00     0.001 A 
HETATM   26  C9  UNL     1       9.935   0.044  -2.335  1.00  0.00     0.000 A 
HETATM   27  C10 UNL     1       9.350   0.444  -3.521  1.00  0.00     0.001 A 
HETATM   28  C11 UNL     1       7.994   0.551  -3.628  1.00  0.00     0.013 A 
ENDBRANCH  21  23
ENDBRANCH  17  20
ENDBRANCH   4  14
BRANCH  13  29
HETATM   29  N6  UNL     1      -2.960  -0.044   0.840  1.00  0.00    -0.403 NA
BRANCH  29  30
HETATM   30  C19 UNL     1      -4.261   0.079   0.576  1.00  0.00     0.107 A 
HETATM   31  C20 UNL     1      -4.866   1.291   0.199  1.00  0.00     0.046 A 
HETATM   32  C21 UNL     1      -6.202   1.402  -0.071  1.00  0.00     0.028 A 
HETATM   33  C22 UNL     1      -7.028   0.308   0.016  1.00  0.00     0.079 A 
HETATM   34  C23 UNL     1      -6.473  -0.901   0.383  1.00  0.00     0.028 A 
HETATM   35  C24 UNL     1      -5.139  -1.025   0.656  1.00  0.00     0.046 A 
BRANCH  33  36
HETATM   36  S1  UNL     1      -8.737   0.394  -0.316  1.00  0.00     0.256 S 
HETATM   37  O2  UNL     1      -9.231  -0.929  -0.831  1.00  0.00    -0.201 OA
HETATM   38  O3  UNL     1      -9.015   1.453  -1.346  1.00  0.00    -0.201 OA
BRANCH  36  39
HETATM   39  N7  UNL     1      -9.604   0.803   1.112  1.00  0.00    -0.324 N 
ATOM     40  H72 UNL     1      -9.165   0.969   2.018  1.00  0.00     0.169 HD
ATOM     41  H71 UNL     1     -10.604   0.853   0.918  1.00  0.00     0.169 HD
ENDBRANCH  36  39
ENDBRANCH  33  36
ENDBRANCH  29  30
ENDBRANCH  13  29
TORSDOF 7
