REMARK  4 active torsions:
REMARK  status: ('A' for Active; 'I' for Inactive)
REMARK       I    between atoms: C1_2  and  N2_4 
REMARK    1  A    between atoms: N2_4  and  C2_6 
REMARK    2  A    between atoms: C6_12  and  C7_13 
REMARK       I    between atoms: C7_13  and  N4_15 
REMARK    3  A    between atoms: N4_15  and  C8_17 
REMARK    4  A    between atoms: C12_23  and  C13_24 
ROOT
HETATM    1  C8  UNL     1      -1.718  -1.624  -1.009  1.00  0.00     0.050 A 
HETATM    2  C9  UNL     1      -2.035  -2.955  -0.963  1.00  0.00     0.047 A 
HETATM    3  C10 UNL     1      -3.317  -3.402  -1.291  1.00  0.00     0.090 A 
HETATM    4  N5  UNL     1      -4.282  -2.538  -1.663  1.00  0.00    -0.374 N 
ATOM      5  H5  UNL     1      -5.212  -2.883  -1.898  1.00  0.00     0.164 HD
HETATM    6  C11 UNL     1      -4.020  -1.226  -1.724  1.00  0.00     0.103 A 
HETATM    7  C12 UNL     1      -2.758  -0.774  -1.402  1.00  0.00     0.034 A 
ENDROOT
BRANCH   1   8
HETATM    8  N4  UNL     1      -0.445  -1.108  -0.653  1.00  0.00    -0.322 N 
HETATM    9  C7  UNL     1       0.716  -1.790  -0.319  1.00  0.00     0.256 C 
HETATM   10  O2  UNL     1       0.777  -3.033  -0.298  1.00  0.00    -0.267 OA
ATOM     11  H4  UNL     1      -0.373  -0.091  -0.641  1.00  0.00     0.169 HD
BRANCH   9  12
HETATM   12  C6  UNL     1       1.930  -1.081   0.024  1.00  0.00     0.034 A 
HETATM   13  C5  UNL     1       1.962   0.227   0.431  1.00  0.00     0.019 A 
HETATM   14  C4  UNL     1       3.151   0.873   0.743  1.00  0.00     0.033 A 
HETATM   15  C3  UNL     1       4.348   0.203   0.649  1.00  0.00     0.076 A 
HETATM   16  N3  UNL     1       5.637   0.569   0.885  1.00  0.00    -0.189 N 
HETATM   17  C25 UNL     1       4.329  -1.116   0.240  1.00  0.00     0.077 A 
HETATM   18  C2  UNL     1       6.399  -0.489   0.632  1.00  0.00     0.687 A 
ATOM     19  H3  UNL     1       5.958   1.485   1.198  1.00  0.00     0.184 HD
HETATM   20  N10 UNL     1       5.621  -1.516   0.240  1.00  0.00    -0.189 N 
ATOM     21  H10 UNL     1       5.953  -2.446  -0.016  1.00  0.00     0.184 HD
HETATM   22  C24 UNL     1       3.137  -1.742  -0.066  1.00  0.00     0.049 A 
BRANCH  18  23
HETATM   23  N2  UNL     1       7.699  -0.538   0.744  1.00  0.00    -0.143 N 
HETATM   24  C1  UNL     1       8.460   0.575   1.164  1.00  0.00     0.346 C 
HETATM   25  N1  UNL     1       9.331   0.474   2.265  1.00  0.00    -0.039 NA
HETATM   26  O1  UNL     1       8.349   1.654   0.543  1.00  0.00    -0.250 OA
ATOM     27  H2  UNL     1       8.181  -1.409   0.521  1.00  0.00     0.188 HD
ENDBRANCH  18  23
ENDBRANCH   9  12
ENDBRANCH   1   8
BRANCH   7  28
HETATM   28  C13 UNL     1      -2.420   0.637  -1.612  1.00  0.00     0.061 A 
HETATM   29  N6  UNL     1      -1.563   0.926  -2.624  1.00  0.00    -0.364 N 
HETATM   30  C14 UNL     1      -1.255   2.184  -2.906  1.00  0.00     0.090 A 
ATOM     31  H6  UNL     1      -1.153   0.169  -3.172  1.00  0.00     0.165 HD
HETATM   32  C15 UNL     1      -1.783   3.238  -2.194  1.00  0.00     0.049 A 
HETATM   33  C16 UNL     1      -2.647   2.974  -1.168  1.00  0.00     0.064 A 
HETATM   34  N7  UNL     1      -3.315   3.761  -0.303  1.00  0.00    -0.299 N 
HETATM   35  C23 UNL     1      -2.975   1.640  -0.864  1.00  0.00     0.049 A 
HETATM   36  N8  UNL     1      -3.997   3.023   0.481  1.00  0.00    -0.299 N 
ATOM     37  H7  UNL     1      -3.281   4.780  -0.279  1.00  0.00     0.187 HD
HETATM   38  C17 UNL     1      -3.838   1.677   0.199  1.00  0.00     0.073 A 
ATOM     39  H8  UNL     1      -4.591   3.382   1.229  1.00  0.00     0.187 HD
HETATM   40  C18 UNL     1      -4.495   0.651   0.960  1.00  0.00    -0.004 A 
HETATM   41  C19 UNL     1      -5.896   0.683   1.010  1.00  0.00     0.030 A 
HETATM   42  C22 UNL     1      -3.892  -0.299   1.748  1.00  0.00     0.030 A 
HETATM   43  C20 UNL     1      -6.638  -0.158   1.777  1.00  0.00     0.088 A 
HETATM   44  N9  UNL     1      -6.012  -1.072   2.532  1.00  0.00    -0.375 N 
HETATM   45  C21 UNL     1      -4.648  -1.154   2.527  1.00  0.00     0.088 A 
ATOM     46  H9  UNL     1      -6.557  -1.709   3.113  1.00  0.00     0.164 HD
ENDBRANCH   7  28
TORSDOF 4
