REMARK  3 active torsions:
REMARK  status: ('A' for Active; 'I' for Inactive)
REMARK    1  A    between atoms: C5_5  and  N1_6 
REMARK    2  A    between atoms: C7_10  and  C8_11 
REMARK    3  A    between atoms: C9_12  and  C10_13 
ROOT
HETATM    1  N1  UNL     1       0.862  -0.250   0.859  1.00  0.00    -0.268 N 
HETATM    2  N2  UNL     1       0.512  -0.981   1.919  1.00  0.00    -0.306 N 
ATOM      3  H2  UNL     1       1.151  -1.375   2.609  1.00  0.00     0.186 HD
HETATM    4  C6  UNL     1      -0.828  -1.111   1.923  1.00  0.00     0.132 A 
HETATM    5  C7  UNL     1      -1.369  -0.447   0.838  1.00  0.00     0.079 A 
HETATM    6  C14 UNL     1      -0.258   0.090   0.181  1.00  0.00     0.136 A 
HETATM    7  N3  UNL     1      -0.353   0.793  -0.901  1.00  0.00    -0.383 N 
ATOM      8  H31 UNL     1      -1.198   1.049  -1.412  1.00  0.00     0.157 HD
ATOM      9  H32 UNL     1       0.458   1.185  -1.380  1.00  0.00     0.157 HD
ENDROOT
BRANCH   1  10
HETATM   10  C5  UNL     1       2.179   0.137   0.460  1.00  0.00     0.144 C 
HETATM   11  C4  UNL     1       2.703  -0.642  -0.726  1.00  0.00     0.030 C 
HETATM   12  C3  UNL     1       3.964   0.044  -1.193  1.00  0.00     0.006 C 
HETATM   13  C2  UNL     1       5.002   0.127  -0.098  1.00  0.00    -0.016 C 
HETATM   14  C1  UNL     1       6.104   1.063  -0.549  1.00  0.00     0.010 C 
HETATM   15  C16 UNL     1       4.441   0.681   1.188  1.00  0.00     0.043 C 
HETATM   16  C15 UNL     1       3.185  -0.077   1.591  1.00  0.00     0.195 C 
HETATM   17  F1  UNL     1       3.421  -1.435   1.666  1.00  0.00    -0.247 F 
ENDBRANCH   1  10
BRANCH   5  18
HETATM   18  C8  UNL     1      -2.743  -0.317   0.443  1.00  0.00    -0.061 C 
HETATM   19  C9  UNL     1      -3.894  -0.210   0.090  1.00  0.00    -0.092 C 
BRANCH  19  20
HETATM   20  C10 UNL     1      -5.280  -0.085  -0.359  1.00  0.00     0.013 C 
HETATM   21  C11 UNL     1      -5.521   1.355  -0.759  1.00  0.00     0.028 C 
HETATM   22  C12 UNL     1      -5.536  -0.938  -1.595  1.00  0.00     0.028 C 
HETATM   23  C13 UNL     1      -6.178  -0.528   0.748  1.00  0.00     0.028 C 
ENDBRANCH  19  20
ENDBRANCH   5  18
TORSDOF 3
