REMARK  2 active torsions:
REMARK  status: ('A' for Active; 'I' for Inactive)
REMARK       I    between atoms: C1_2  and  N1_3 
REMARK    1  A    between atoms: C1_2  and  C5_12 
REMARK    2  A    between atoms: N1_3  and  C2_5 
ROOT
HETATM    1  O1  UNL     1       1.709  -2.515   1.311  1.00  0.00    -0.273 OA
HETATM    2  C1  UNL     1       1.877  -1.568   0.510  1.00  0.00     0.228 C 
HETATM    3  N1  UNL     1       3.128  -1.461  -0.148  1.00  0.00    -0.292 N 
ATOM      4  H1  UNL     1       3.391  -2.168  -0.834  1.00  0.00     0.172 HD
ENDROOT
BRANCH   2   5
HETATM    5  C5  UNL     1       0.762  -0.618   0.295  1.00  0.00     0.078 C 
HETATM    6  C6  UNL     1       0.399  -0.675  -1.170  1.00  0.00     0.015 C 
HETATM    7  C7  UNL     1      -0.830   0.110  -1.508  1.00  0.00     0.010 C 
HETATM    8  C8  UNL     1      -1.903   0.062  -0.481  1.00  0.00    -0.040 C 
HETATM    9  C9  UNL     1      -3.240  -0.066  -1.147  1.00  0.00     0.009 C 
HETATM   10  C12 UNL     1      -2.048   1.358   0.287  1.00  0.00     0.009 C 
HETATM   11  C13 UNL     1      -1.690  -1.094   0.464  1.00  0.00     0.010 C 
HETATM   12  C10 UNL     1      -4.254   0.458  -0.154  1.00  0.00     0.001 C 
HETATM   13  C11 UNL     1      -3.444   1.202   0.885  1.00  0.00     0.001 C 
HETATM   14  C14 UNL     1      -0.378  -0.928   1.198  1.00  0.00     0.015 C 
ENDBRANCH   2   5
BRANCH   3  15
HETATM   15  C2  UNL     1       3.954  -0.476   0.104  1.00  0.00     0.232 A 
HETATM   16  N2  UNL     1       5.151  -0.315  -0.480  1.00  0.00    -0.328 N 
HETATM   17  C3  UNL     1       5.730   0.796   0.013  1.00  0.00     0.142 A 
ATOM     18  H2  UNL     1       5.556  -0.933  -1.183  1.00  0.00     0.168 HD
HETATM   19  C4  UNL     1       4.848   1.313   0.921  1.00  0.00     0.164 A 
HETATM   20 CL1  UNL     1       5.104   2.780   1.871  1.00  0.00    -0.055 Cl
HETATM   21  O2  UNL     1       3.807   0.522   0.940  1.00  0.00    -0.265 OA
ENDBRANCH   3  15
TORSDOF 2
