REMARK  3 active torsions:
REMARK  status: ('A' for Active; 'I' for Inactive)
REMARK    1  A    between atoms: C2_2  and  N1_3 
REMARK    2  A    between atoms: C7_11  and  O1_12 
REMARK    3  A    between atoms: C13_19  and  C15_21 
ROOT
HETATM    1  N1  UNL     1      -1.611   0.067  -0.450  1.00  0.00    -0.360 N 
HETATM    2  C3  UNL     1      -0.433   0.096  -1.309  1.00  0.00     0.086 C 
HETATM    3  N2  UNL     1      -0.484   0.613  -2.451  1.00  0.00    -0.388 N 
ATOM      4  H21 UNL     1       0.340   0.633  -3.052  1.00  0.00     0.157 HD
ATOM      5  H22 UNL     1      -1.390   0.988  -2.731  1.00  0.00     0.157 HD
HETATM    6  C4  UNL     1       0.876  -0.446  -0.905  1.00  0.00     0.040 C 
HETATM    7  C5  UNL     1       1.106  -1.646  -1.856  1.00  0.00     0.029 C 
HETATM    8  C6  UNL     1       2.015   0.481  -1.192  1.00  0.00     0.053 C 
HETATM    9  C7  UNL     1       2.444   1.397  -0.122  1.00  0.00     0.119 C 
HETATM   10  C8  UNL     1       3.157   0.838   1.045  1.00  0.00     0.035 C 
HETATM   11  C9  UNL     1       3.234  -0.661   1.091  1.00  0.00     0.030 C 
HETATM   12  C10 UNL     1       1.818  -1.126   1.320  1.00  0.00    -0.023 C 
HETATM   13  C11 UNL     1       0.838  -1.015   0.435  1.00  0.00    -0.066 C 
HETATM   14  C12 UNL     1      -0.421  -1.578   0.952  1.00  0.00     0.067 C 
HETATM   15  C13 UNL     1      -1.591  -0.606   0.792  1.00  0.00     0.046 C 
HETATM   16  C14 UNL     1      -2.813  -1.635   0.717  1.00  0.00     0.040 C 
ENDROOT
BRANCH   1  17
HETATM   17  C2  UNL     1      -2.745   0.804  -0.940  1.00  0.00     0.120 C 
HETATM   18  C1  UNL     1      -2.884   2.198  -0.433  1.00  0.00     0.026 C 
ENDBRANCH   1  17
BRANCH  15  19
HETATM   19  C15 UNL     1      -1.800   0.045   2.087  1.00  0.00     0.145 C 
HETATM   20 CL1  UNL     1      -3.337   0.779   2.446  1.00  0.00    -0.128 Cl
ENDBRANCH  15  19
BRANCH   9  21
HETATM   21  O1  UNL     1       3.358   2.306  -0.726  1.00  0.00    -0.396 OA
ATOM     22  H1  UNL     1       3.635   2.897  -0.036  1.00  0.00     0.210 HD
ENDBRANCH   9  21
TORSDOF 3
