REMARK  6 active torsions:
REMARK  status: ('A' for Active; 'I' for Inactive)
REMARK    1  A    between atoms: C4_5  and  C5_6 
REMARK    2  A    between atoms: C5_6  and  C6_7 
REMARK    3  A    between atoms: C6_7  and  N2_9 
REMARK    4  A    between atoms: C11_13  and  C13_15 
REMARK    5  A    between atoms: C15_19  and  C16_20 
REMARK       I    between atoms: N4_23  and  C19_24 
REMARK       I    between atoms: C19_24  and  N6_28 
REMARK    6  A    between atoms: N6_28  and  N7_30 
ROOT
HETATM    1  C1  UNL     1       2.073   4.269  -0.867  1.00  0.00     0.221 C 
HETATM    2  N1  UNL     1       2.747   3.330  -0.937  1.00  0.00    -0.464 NA
HETATM    3  C2  UNL     1       3.547   2.174  -1.014  1.00  0.00     0.181 C 
HETATM    4  C3  UNL     1       2.827   1.041  -1.721  1.00  0.00     0.067 C 
HETATM    5  C4  UNL     1       2.776  -0.114  -0.758  1.00  0.00     0.107 C 
HETATM    6  N4  UNL     1       3.874   0.224   0.163  1.00  0.00    -0.209 N 
HETATM    7  C19 UNL     1       4.854  -0.626   0.727  1.00  0.00     0.693 C 
HETATM    8  N5  UNL     1       4.534  -1.373   1.716  1.00  0.00    -0.233 N 
ATOM      9  H51 UNL     1       5.241  -1.986   2.123  1.00  0.00     0.174 HD
ATOM     10  H52 UNL     1       3.578  -1.332   2.068  1.00  0.00     0.174 HD
HETATM   11  N6  UNL     1       6.185  -0.683   0.237  1.00  0.00    -0.072 N 
ATOM     12  H6  UNL     1       6.940  -0.924   0.879  1.00  0.00     0.212 HD
HETATM   13  C20 UNL     1       3.755   1.644   0.389  1.00  0.00     0.181 C 
ENDROOT
BRANCH   5  14
HETATM   14  C5  UNL     1       1.480  -0.238   0.002  1.00  0.00     0.059 C 
BRANCH  14  15
HETATM   15  C6  UNL     1       0.272  -0.443  -0.840  1.00  0.00     0.189 C 
HETATM   16  C7  UNL     1       0.413  -1.702  -1.624  1.00  0.00     0.040 C 
BRANCH  15  17
HETATM   17  N2  UNL     1      -0.966  -0.390  -0.062  1.00  0.00    -0.052 N 
HETATM   18  C8  UNL     1      -0.699  -1.237   1.112  1.00  0.00     0.274 C 
HETATM   19  C9  UNL     1      -1.157   0.958   0.370  1.00  0.00     0.240 C 
HETATM   20  C10 UNL     1      -2.473   1.044   1.119  1.00  0.00     0.046 C 
HETATM   21  C11 UNL     1      -3.530   1.071   0.025  1.00  0.00     0.039 C 
HETATM   22  C12 UNL     1      -3.601   2.510  -0.443  1.00  0.00     0.025 C 
HETATM   23  C14 UNL     1      -3.124   0.223  -1.147  1.00  0.00     0.065 C 
HETATM   24  C15 UNL     1      -2.086  -0.814  -0.823  1.00  0.00     0.269 C 
BRANCH  21  25
HETATM   25  C13 UNL     1      -4.882   0.725   0.529  1.00  0.00     0.239 C 
HETATM   26  N3  UNL     1      -5.503   1.482   1.556  1.00  0.00    -0.061 NA
HETATM   27  O1  UNL     1      -5.520  -0.249   0.062  1.00  0.00    -0.276 OA
ENDBRANCH  21  25
BRANCH  24  28
HETATM   28  C16 UNL     1      -2.694  -2.028  -0.261  1.00  0.00    -0.073 C 
HETATM   29  C17 UNL     1      -3.197  -3.052   0.188  1.00  0.00    -0.109 C 
HETATM   30  C18 UNL     1      -3.816  -4.267   0.709  1.00  0.00     0.112 C 
ENDBRANCH  24  28
ENDBRANCH  15  17
ENDBRANCH  14  15
ENDBRANCH   5  14
BRANCH  11  31
HETATM   31  N7  UNL     1       6.490  -0.416  -1.110  1.00  0.00    -0.024 N 
HETATM   32  O2  UNL     1       6.092  -1.132  -2.036  1.00  0.00    -0.516 OA
HETATM   33  O3  UNL     1       7.255   0.677  -1.392  1.00  0.00    -0.516 OA
ENDBRANCH  11  31
TORSDOF 6
