REMARK  5 active torsions:
REMARK  status: ('A' for Active; 'I' for Inactive)
REMARK    1  A    between atoms: C9_9  and  C10_10 
REMARK    2  A    between atoms: C10_10  and  N1_11 
REMARK       I    between atoms: N1_11  and  C11_13 
REMARK       I    between atoms: C11_13  and  N2_15 
REMARK    3  A    between atoms: N2_15  and  C12_17 
REMARK    4  A    between atoms: C12_17  and  C13_19 
REMARK       I    between atoms: C13_19  and  N3_21 
REMARK    5  A    between atoms: C19_27  and  C20_28 
REMARK       I    between atoms: C20_28  and  N4_30 
ROOT
HETATM    1  C1  UNL     1      -2.879  -0.803  -3.421  1.00  0.00     0.015 C 
HETATM    2  C2  UNL     1      -3.140  -0.044  -2.377  1.00  0.00    -0.080 C 
HETATM    3  C3  UNL     1      -3.744   1.334  -2.539  1.00  0.00     0.034 C 
HETATM    4  C4  UNL     1      -4.769   1.386  -1.448  1.00  0.00     0.005 C 
HETATM    5  C5  UNL     1      -4.362   0.311  -0.465  1.00  0.00     0.015 C 
HETATM    6  C6  UNL     1      -2.991  -0.185  -0.929  1.00  0.00    -0.010 C 
HETATM    7  C7  UNL     1      -1.896   0.670  -0.362  1.00  0.00     0.001 C 
HETATM    8  C8  UNL     1      -0.533  -0.002  -0.596  1.00  0.00     0.020 C 
HETATM    9  C9  UNL     1      -0.443  -1.345   0.008  1.00  0.00    -0.006 C 
HETATM   10  C16 UNL     1      -1.561  -2.237  -0.552  1.00  0.00     0.020 C 
HETATM   11  C17 UNL     1      -2.862  -1.568  -0.393  1.00  0.00     0.001 C 
HETATM   12  C18 UNL     1      -3.093  -1.436   1.127  1.00  0.00     0.025 C 
HETATM   13  C19 UNL     1      -2.041  -0.557   1.721  1.00  0.00     0.043 C 
HETATM   14  C22 UNL     1      -2.008   0.828   1.130  1.00  0.00     0.025 C 
HETATM   15  C23 UNL     1      -0.692  -1.182   1.509  1.00  0.00     0.034 C 
ENDROOT
BRANCH   9  16
HETATM   16  C10 UNL     1       0.805  -2.103  -0.232  1.00  0.00     0.075 C 
BRANCH  16  17
HETATM   17  N1  UNL     1       2.066  -1.649   0.174  1.00  0.00    -0.322 N 
HETATM   18  C11 UNL     1       2.828  -0.569  -0.274  1.00  0.00     0.322 C 
HETATM   19  O1  UNL     1       2.499   0.185  -1.195  1.00  0.00    -0.247 OA
HETATM   20  N2  UNL     1       4.108  -0.247   0.336  1.00  0.00    -0.304 N 
ATOM     21  H2  UNL     1       4.454  -0.822   1.104  1.00  0.00     0.167 HD
ATOM     22  H1  UNL     1       2.498  -2.197   0.918  1.00  0.00     0.169 HD
BRANCH  20  23
HETATM   23  C12 UNL     1       4.896   0.866  -0.122  1.00  0.00     0.366 C 
HETATM   24  F1  UNL     1       4.987   1.805   0.903  1.00  0.00    -0.216 F 
BRANCH  23  25
HETATM   25  C13 UNL     1       6.238   0.463  -0.584  1.00  0.00     0.273 C 
HETATM   26  O2  UNL     1       6.561  -0.744  -0.538  1.00  0.00    -0.268 OA
HETATM   27  N3  UNL     1       7.166   1.408  -1.076  1.00  0.00    -0.357 N 
HETATM   28  C14 UNL     1       6.820   2.809  -1.140  1.00  0.00     0.152 C 
HETATM   29  C15 UNL     1       8.476   0.987  -1.522  1.00  0.00     0.152 C 
ENDBRANCH  23  25
ENDBRANCH  20  23
ENDBRANCH  16  17
ENDBRANCH   9  16
BRANCH  13  30
HETATM   30  C20 UNL     1      -2.297  -0.417   3.177  1.00  0.00     0.226 C 
HETATM   31  O3  UNL     1      -1.425  -0.786   4.008  1.00  0.00    -0.273 OA
HETATM   32  N4  UNL     1      -3.516   0.130   3.614  1.00  0.00    -0.365 N 
HETATM   33  C21 UNL     1      -3.852   0.305   5.016  1.00  0.00     0.149 C 
ATOM     34  H4  UNL     1      -4.198   0.418   2.912  1.00  0.00     0.161 HD
ENDBRANCH  13  30
TORSDOF 5
