REMARK  3 active torsions:
REMARK  status: ('A' for Active; 'I' for Inactive)
REMARK    1  A    between atoms: C1_2  and  C2_4 
REMARK       I    between atoms: C2_4  and  N2_6 
REMARK    2  A    between atoms: N2_6  and  N3_8 
REMARK       I    between atoms: N3_8  and  C3_10 
REMARK       I    between atoms: C3_10  and  N4_12 
REMARK    3  A    between atoms: N4_12  and  C4_14 
ROOT
HETATM    1  N3  UNL     1       1.845  -1.295   0.597  1.00  0.00    -0.249 N 
ATOM      2  H3  UNL     1       1.531  -2.246   0.402  1.00  0.00     0.192 HD
HETATM    3  C3  UNL     1       0.931  -0.223   0.535  1.00  0.00     0.335 C 
HETATM    4  O3  UNL     1       1.320   0.938   0.774  1.00  0.00    -0.246 OA
HETATM    5  N4  UNL     1      -0.416  -0.463   0.204  1.00  0.00    -0.337 N 
ATOM      6  H4  UNL     1      -0.712  -1.420   0.013  1.00  0.00     0.164 HD
ENDROOT
BRANCH   1   7
HETATM    7  N2  UNL     1       3.181  -1.054   0.926  1.00  0.00    -0.258 N 
HETATM    8  C2  UNL     1       4.009  -0.420  -0.019  1.00  0.00     0.325 C 
HETATM    9  O2  UNL     1       3.538  -0.082  -1.144  1.00  0.00    -0.261 OA
ATOM     10  H2  UNL     1       3.550  -1.333   1.835  1.00  0.00     0.190 HD
BRANCH   8  11
HETATM   11  C1  UNL     1       5.403  -0.169   0.326  1.00  0.00     0.324 C 
HETATM   12  N1  UNL     1       6.302   0.468  -0.578  1.00  0.00    -0.053 NA
HETATM   13  O1  UNL     1       5.821  -0.524   1.451  1.00  0.00    -0.266 OA
ENDBRANCH   8  11
ENDBRANCH   1   7
BRANCH   5  14
HETATM   14  C4  UNL     1      -1.413   0.616   0.124  1.00  0.00     0.086 C 
HETATM   15  C5  UNL     1      -1.861   0.701  -1.278  1.00  0.00     0.025 C 
HETATM   16  C6  UNL     1      -3.101  -0.093  -1.612  1.00  0.00     0.002 C 
HETATM   17  C7  UNL     1      -4.169   0.456  -0.665  1.00  0.00     0.000 C 
HETATM   18  C8  UNL     1      -3.786  -0.018   0.703  1.00  0.00     0.002 C 
HETATM   19  C9  UNL     1      -2.441   0.388   1.159  1.00  0.00     0.025 C 
ENDBRANCH   5  14
TORSDOF 3
