REMARK  4 active torsions:
REMARK  status: ('A' for Active; 'I' for Inactive)
REMARK    1  A    between atoms: C2_2  and  N1_5 
REMARK       I    between atoms: N1_5  and  C5_7 
REMARK       I    between atoms: C5_7  and  N2_9 
REMARK    2  A    between atoms: N2_9  and  N3_11 
REMARK       I    between atoms: N3_11  and  C6_13 
REMARK    3  A    between atoms: C6_13  and  C7_15 
REMARK       I    between atoms: C7_15  and  N4_17 
REMARK    4  A    between atoms: N4_17  and  C8_19 
ROOT
HETATM    1  N3  UNL     1       0.949   0.566   0.961  1.00  0.00    -0.258 N 
ATOM      2  H3  UNL     1       1.246   0.181   1.858  1.00  0.00     0.190 HD
HETATM    3  C6  UNL     1       1.803   0.509  -0.166  1.00  0.00     0.327 C 
HETATM    4  O2  UNL     1       1.402   0.993  -1.250  1.00  0.00    -0.261 OA
ENDROOT
BRANCH   1   5
HETATM    5  N2  UNL     1      -0.302   1.156   0.823  1.00  0.00    -0.249 N 
HETATM    6  C5  UNL     1      -1.493   0.405   0.907  1.00  0.00     0.335 C 
HETATM    7  N1  UNL     1      -2.740   1.059   0.758  1.00  0.00    -0.334 N 
HETATM    8  O1  UNL     1      -1.399  -0.832   1.113  1.00  0.00    -0.246 OA
ATOM      9  H1  UNL     1      -2.773   2.065   0.592  1.00  0.00     0.165 HD
ATOM     10  H2  UNL     1      -0.360   2.161   0.656  1.00  0.00     0.192 HD
BRANCH   7  11
HETATM   11  C2  UNL     1      -3.973   0.294   0.842  1.00  0.00     0.023 C 
HETATM   12  C1  UNL     1      -4.043  -0.362   2.206  1.00  0.00     0.037 C 
HETATM   13  C3  UNL     1      -4.070  -0.764  -0.204  1.00  0.00     0.037 C 
HETATM   14  C4  UNL     1      -5.139   1.246   0.681  1.00  0.00     0.037 C 
ENDBRANCH   7  11
ENDBRANCH   1   5
BRANCH   3  15
HETATM   15  C7  UNL     1       3.117  -0.095  -0.085  1.00  0.00     0.311 C 
HETATM   16  O3  UNL     1       3.508  -0.572   0.998  1.00  0.00    -0.262 OA
HETATM   17  N4  UNL     1       3.940  -0.139  -1.221  1.00  0.00    -0.348 N 
ATOM     18  H4  UNL     1       3.626   0.250  -2.110  1.00  0.00     0.163 HD
BRANCH  17  19
HETATM   19  C8  UNL     1       5.256  -0.755  -1.098  1.00  0.00     0.085 A 
HETATM   20  C9  UNL     1       5.649  -1.630  -2.314  1.00  0.00     0.027 A 
HETATM   21  C10 UNL     1       6.366  -0.314  -1.981  1.00  0.00     0.027 A 
ENDBRANCH  17  19
ENDBRANCH   3  15
TORSDOF 4
