REMARK  3 active torsions:
REMARK  status: ('A' for Active; 'I' for Inactive)
REMARK    1  A    between atoms: O1_2  and  C2_3 
REMARK    2  A    between atoms: C2_3  and  C3_4 
REMARK    3  A    between atoms: C3_4  and  C4_5 
ROOT
HETATM    1  C4  UNL     1       1.534   0.653  -0.571  1.00  0.00     0.071 A 
HETATM    2  C5  UNL     1       1.217  -0.134  -1.571  1.00  0.00     0.121 A 
HETATM    3  N1  UNL     1      -0.109  -0.597  -1.724  1.00  0.00    -0.361 N 
ATOM      4  H1  UNL     1      -0.339  -1.209  -2.507  1.00  0.00     0.165 HD
HETATM    5  C6  UNL     1      -1.118  -0.230  -0.816  1.00  0.00     0.078 A 
HETATM    6  C7  UNL     1      -2.406  -0.676  -0.960  1.00  0.00     0.007 A 
HETATM    7  C8  UNL     1      -2.772  -1.550  -2.066  1.00  0.00     0.054 C 
HETATM    8  C9  UNL     1      -3.339  -0.279  -0.038  1.00  0.00     0.133 A 
HETATM    9  F1  UNL     1      -4.608  -0.722  -0.184  1.00  0.00    -0.205 F 
HETATM   10  C10 UNL     1      -2.998   0.552   1.016  1.00  0.00     0.019 A 
HETATM   11  C11 UNL     1      -4.018   0.970   2.000  1.00  0.00     0.055 C 
HETATM   12  C12 UNL     1      -1.707   0.989   1.145  1.00  0.00     0.161 A 
HETATM   13  F2  UNL     1      -1.324   1.803   2.158  1.00  0.00    -0.202 F 
HETATM   14  C13 UNL     1      -0.758   0.607   0.239  1.00  0.00     0.142 A 
HETATM   15  O2  UNL     1       0.557   1.032   0.341  1.00  0.00    -0.308 OA
ENDROOT
BRANCH   1  16
HETATM   16  C3  UNL     1       2.925   1.171  -0.365  1.00  0.00     0.092 C 
BRANCH  16  17
HETATM   17  C2  UNL     1       3.437   0.738   0.967  1.00  0.00     0.173 C 
BRANCH  17  18
HETATM   18  O1  UNL     1       3.523  -0.614   1.177  1.00  0.00    -0.396 OA
HETATM   19  C1  UNL     1       4.382  -1.225   0.305  1.00  0.00     0.201 C 
ENDBRANCH  17  18
ENDBRANCH  16  17
ENDBRANCH   1  16
TORSDOF 3
