REMARK  6 active torsions:
REMARK  status: ('A' for Active; 'I' for Inactive)
REMARK    1  A    between atoms: O1_1  and  C1_3 
REMARK    2  A    between atoms: C1_3  and  C2_4 
REMARK    3  A    between atoms: C1_3  and  C13_17 
REMARK    4  A    between atoms: C2_4  and  N1_5 
REMARK    5  A    between atoms: N1_5  and  C3_7 
REMARK    6  A    between atoms: C13_17  and  N2_18 
ROOT
HETATM    1  C1  UNL     1       0.552   0.128  -1.426  1.00  0.00     0.086 C 
ENDROOT
BRANCH   1   2
HETATM    2  O1  UNL     1       0.992   1.408  -1.494  1.00  0.00    -0.362 OA
ATOM      3  H1  UNL     1       1.839   1.567  -1.094  1.00  0.00     0.217 HD
ENDBRANCH   1   2
BRANCH   1   4
HETATM    4  C2  UNL     1      -0.794  -0.124  -2.061  1.00  0.00     0.117 C 
BRANCH   4   5
HETATM    5  N1  UNL     1      -1.886   0.638  -1.634  1.00  0.00    -0.391 N 
ATOM      6  H1  UNL     1      -2.310   1.314  -2.269  1.00  0.00     0.159 HD
BRANCH   5   7
HETATM    7  C3  UNL     1      -2.404   0.480  -0.337  1.00  0.00     0.089 C 
HETATM    8  C4  UNL     1      -2.941  -0.867   0.023  1.00  0.00     0.009 C 
HETATM    9  C5  UNL     1      -4.273  -1.209  -0.552  1.00  0.00     0.011 C 
HETATM   10  C9  UNL     1      -3.090  -0.883   1.553  1.00  0.00     0.011 C 
HETATM   11  C6  UNL     1      -5.314  -0.166  -0.122  1.00  0.00    -0.013 C 
HETATM   12  C7  UNL     1      -5.411  -0.088   1.365  1.00  0.00     0.009 C 
HETATM   13  C12 UNL     1      -4.819   1.142  -0.691  1.00  0.00     0.011 C 
HETATM   14  C8  UNL     1      -4.058   0.199   1.963  1.00  0.00    -0.013 C 
HETATM   15  C10 UNL     1      -3.604   1.554   1.476  1.00  0.00     0.011 C 
HETATM   16  C11 UNL     1      -3.521   1.485  -0.031  1.00  0.00     0.009 C 
ENDBRANCH   5   7
ENDBRANCH   4   5
ENDBRANCH   1   4
BRANCH   1  17
HETATM   17  C13 UNL     1       0.833  -0.640  -0.181  1.00  0.00     0.338 C 
BRANCH  17  18
HETATM   18  N2  UNL     1       2.279  -0.732   0.033  1.00  0.00     0.098 N 
HETATM   19  C14 UNL     1       2.557  -1.800   1.013  1.00  0.00     0.276 C 
HETATM   20  C15 UNL     1       4.022  -2.172   0.985  1.00  0.00     0.072 C 
HETATM   21  C16 UNL     1       4.712  -1.793  -0.311  1.00  0.00     0.205 C 
HETATM   22  F1  UNL     1       5.907  -2.485  -0.357  1.00  0.00    -0.244 F 
HETATM   23  C17 UNL     1       5.062  -0.335  -0.311  1.00  0.00    -0.017 A 
HETATM   24  C18 UNL     1       6.303  -0.034  -0.782  1.00  0.00     0.011 A 
HETATM   25  C22 UNL     1       4.181   0.644   0.141  1.00  0.00    -0.021 A 
HETATM   26  C19 UNL     1       6.696   1.295  -0.809  1.00  0.00     0.001 A 
HETATM   27  C20 UNL     1       5.864   2.302  -0.374  1.00  0.00     0.001 A 
HETATM   28  C21 UNL     1       4.610   1.952   0.097  1.00  0.00     0.009 A 
HETATM   29  C23 UNL     1       2.794   0.482   0.678  1.00  0.00     0.312 C 
ENDBRANCH  17  18
ENDBRANCH   1  17
TORSDOF 6
