REMARK  8 active torsions:
REMARK  status: ('A' for Active; 'I' for Inactive)
REMARK    1  A    between atoms: C2_2  and  O1_3 
REMARK    2  A    between atoms: O1_3  and  C3_4 
REMARK    3  A    between atoms: C3_4  and  C4_6 
REMARK    4  A    between atoms: C4_6  and  C5_7 
REMARK    5  A    between atoms: C4_6  and  N1_9 
REMARK    6  A    between atoms: N1_9  and  C7_11 
REMARK    7  A    between atoms: C7_11  and  N2_13 
REMARK    8  A    between atoms: N2_13  and  C8_15 
ROOT
HETATM    1  N2  UNL     1      -0.375  -0.678  -0.519  1.00  0.00    -0.358 N 
ATOM      2  H2  UNL     1      -0.150  -0.788  -1.508  1.00  0.00     0.162 HD
ENDROOT
BRANCH   1   3
HETATM    3  C7  UNL     1       0.692  -0.809   0.402  1.00  0.00     0.169 C 
HETATM    4  S1  UNL     1       0.544  -0.800   2.018  1.00  0.00    -0.041 SA
BRANCH   3   5
HETATM    5  N1  UNL     1       2.061  -1.024  -0.078  1.00  0.00    -0.353 N 
ATOM      6  H1  UNL     1       2.243  -1.088  -1.080  1.00  0.00     0.162 HD
BRANCH   5   7
HETATM    7  C4  UNL     1       3.138  -1.144   0.845  1.00  0.00     0.183 C 
BRANCH   7   8
HETATM    8  C3  UNL     1       4.326  -0.343   0.327  1.00  0.00     0.281 C 
HETATM    9  O2  UNL     1       5.438  -0.892   0.089  1.00  0.00    -0.263 OA
BRANCH   8  10
HETATM   10  O1  UNL     1       4.196   1.000   0.107  1.00  0.00    -0.320 OA
BRANCH  10  11
HETATM   11  C2  UNL     1       5.107   1.942  -0.340  1.00  0.00     0.174 C 
HETATM   12  C1  UNL     1       6.255   2.258   0.603  1.00  0.00     0.034 C 
ENDBRANCH  10  11
ENDBRANCH   8  10
ENDBRANCH   7   8
BRANCH   7  13
HETATM   13  C5  UNL     1       3.602  -2.626   0.703  1.00  0.00     0.031 C 
HETATM   14  C6  UNL     1       3.970  -2.817  -0.783  1.00  0.00     0.007 C 
ENDBRANCH   7  13
ENDBRANCH   5   7
ENDBRANCH   3   5
ENDBRANCH   1   3
BRANCH   1  15
HETATM   15  C8  UNL     1      -1.751  -0.403  -0.186  1.00  0.00     0.035 C 
HETATM   16  C9  UNL     1      -2.502  -0.311  -1.521  1.00  0.00     0.035 C 
HETATM   17  C10 UNL     1      -3.948   0.103  -1.343  1.00  0.00    -0.010 C 
HETATM   18  C11 UNL     1      -3.946   1.493  -0.732  1.00  0.00     0.014 C 
HETATM   19  C16 UNL     1      -4.621  -0.890  -0.438  1.00  0.00     0.030 C 
HETATM   20  C12 UNL     1      -3.227   1.460   0.559  1.00  0.00    -0.040 C 
HETATM   21  C13 UNL     1      -3.282   2.822   1.191  1.00  0.00     0.015 C 
HETATM   22  C14 UNL     1      -3.929   0.478   1.481  1.00  0.00     0.035 C 
HETATM   23  C18 UNL     1      -1.811   1.020   0.414  1.00  0.00     0.040 C 
HETATM   24  C15 UNL     1      -3.890  -0.904   0.879  1.00  0.00     0.040 C 
HETATM   25 CL1  UNL     1      -4.754  -1.992   1.988  1.00  0.00    -0.119 Cl
HETATM   26  C17 UNL     1      -2.464  -1.391   0.645  1.00  0.00     0.056 C 
ENDBRANCH   1  15
TORSDOF 8
