REMARK  9 active torsions:
REMARK  status: ('A' for Active; 'I' for Inactive)
REMARK    1  A    between atoms: C4_4  and  C5_5 
REMARK    2  A    between atoms: C5_5  and  O1_6 
REMARK    3  A    between atoms: O1_6  and  C6_7 
REMARK    4  A    between atoms: C8_9  and  O2_11 
REMARK    5  A    between atoms: C10_13  and  C11_14 
REMARK    6  A    between atoms: C17_22  and  C18_23 
REMARK    7  A    between atoms: C18_23  and  O4_26 
REMARK    8  A    between atoms: C25_32  and  C26_33 
REMARK    9  A    between atoms: C26_33  and  O5_36 
ROOT
HETATM    1  C6  UNL     1       1.583  -0.266   0.274  1.00  0.00     0.054 C 
HETATM    2  C7  UNL     1       1.451  -1.305   1.046  1.00  0.00     0.046 C 
HETATM    3  C8  UNL     1       0.540  -2.484   1.112  1.00  0.00     0.107 C 
HETATM    4  C9  UNL     1       1.321  -3.615   0.572  1.00  0.00     0.053 C 
HETATM    5  C10 UNL     1      -0.786  -2.161   0.370  1.00  0.00     0.119 C 
HETATM    6  O3  UNL     1      -1.000  -0.979   1.025  1.00  0.00    -0.359 OA
HETATM    7  C13 UNL     1      -1.319   0.209   0.721  1.00  0.00     0.082 C 
HETATM    8  C14 UNL     1      -0.749   1.115   1.844  1.00  0.00     0.051 C 
HETATM    9  C15 UNL     1      -2.778   0.613   0.694  1.00  0.00     0.043 C 
HETATM   10  C16 UNL     1      -2.971   2.002   0.213  1.00  0.00     0.015 C 
HETATM   11  C17 UNL     1      -2.243   2.402  -1.016  1.00  0.00     0.042 C 
HETATM   12  C21 UNL     1      -0.990   1.634  -1.238  1.00  0.00    -0.012 C 
HETATM   13  C22 UNL     1      -0.564   0.667  -0.491  1.00  0.00    -0.039 C 
HETATM   14  C23 UNL     1       0.716   0.011  -0.892  1.00  0.00     0.074 C 
HETATM   15  C24 UNL     1       0.319  -1.175  -1.663  1.00  0.00     0.026 C 
HETATM   16  C25 UNL     1      -0.566  -2.230  -1.047  1.00  0.00     0.060 C 
ENDROOT
BRANCH   1  17
HETATM   17  O1  UNL     1       2.571   0.669   0.504  1.00  0.00    -0.351 OA
BRANCH  17  18
HETATM   18  C5  UNL     1       3.168   0.967   1.717  1.00  0.00     0.203 C 
BRANCH  18  19
HETATM   19  C4  UNL     1       4.176   2.038   1.488  1.00  0.00     0.001 C 
HETATM   20  C2  UNL     1       5.465   1.879   1.753  1.00  0.00    -0.089 C 
HETATM   21  C1  UNL     1       5.972   0.595   2.304  1.00  0.00     0.042 C 
HETATM   22  C3  UNL     1       6.431   2.980   1.504  1.00  0.00     0.042 C 
ENDBRANCH  18  19
ENDBRANCH  17  18
ENDBRANCH   1  17
BRANCH   3  23
HETATM   23  O2  UNL     1       0.327  -2.706   2.463  1.00  0.00    -0.383 OA
ATOM     24  H2  UNL     1      -0.253  -3.457   2.505  1.00  0.00     0.211 HD
ENDBRANCH   3  23
BRANCH   5  25
HETATM   25  C11 UNL     1      -1.871  -2.933   1.062  1.00  0.00     0.116 C 
HETATM   26  C12 UNL     1      -1.854  -4.369   1.217  1.00  0.00     0.030 C 
HETATM   27 CL1  UNL     1      -2.143  -2.349   2.754  1.00  0.00    -0.122 Cl
ENDBRANCH   5  25
BRANCH  16  28
HETATM   28  C26 UNL     1      -1.552  -2.566  -2.104  1.00  0.00     0.057 C 
HETATM   29  C27 UNL     1      -2.766  -1.772  -2.321  1.00  0.00     0.045 C 
HETATM   30  C28 UNL     1      -1.964  -4.022  -2.216  1.00  0.00     0.045 C 
BRANCH  28  31
HETATM   31  O5  UNL     1      -0.852  -2.457  -3.364  1.00  0.00    -0.390 OA
ATOM     32  H5  UNL     1      -1.483  -2.672  -4.041  1.00  0.00     0.210 HD
ENDBRANCH  28  31
ENDBRANCH  16  28
BRANCH  11  33
HETATM   33  C18 UNL     1      -1.936   3.860  -1.116  1.00  0.00     0.057 C 
HETATM   34  C19 UNL     1      -3.175   4.725  -1.106  1.00  0.00     0.046 C 
HETATM   35  C20 UNL     1      -1.153   4.192  -2.368  1.00  0.00     0.046 C 
BRANCH  33  36
HETATM   36  O4  UNL     1      -1.121   4.211  -0.036  1.00  0.00    -0.390 OA
ATOM     37  H4  UNL     1      -0.926   5.139  -0.100  1.00  0.00     0.210 HD
ENDBRANCH  33  36
ENDBRANCH  11  33
TORSDOF 9
