REMARK  9 active torsions:
REMARK  status: ('A' for Active; 'I' for Inactive)
REMARK    1  A    between atoms: C2_2  and  C3_3 
REMARK    2  A    between atoms: C2_2  and  C9_14 
REMARK    3  A    between atoms: C3_3  and  C4_4 
REMARK    4  A    between atoms: C4_4  and  C5_5 
REMARK    5  A    between atoms: C5_5  and  C6_6 
REMARK    6  A    between atoms: C6_6  and  O1_9 
REMARK    7  A    between atoms: O1_9  and  S1_10 
REMARK    8  A    between atoms: C16_21  and  O4_22 
REMARK    9  A    between atoms: C24_31  and  O5_32 
ROOT
HETATM    1  C9  UNL     1       0.730   1.812   0.635  1.00  0.00     0.019 C 
HETATM    2  C10 UNL     1       0.165   2.021   2.051  1.00  0.00     0.010 C 
HETATM    3  C11 UNL     1      -1.079   1.128   2.067  1.00  0.00     0.015 C 
HETATM    4  C12 UNL     1      -1.615   1.346   0.706  1.00  0.00    -0.016 C 
HETATM    5  C13 UNL     1      -2.471   2.599   0.759  1.00  0.00     0.020 C 
HETATM    6  C14 UNL     1      -0.436   1.526  -0.175  1.00  0.00    -0.068 C 
HETATM    7  C15 UNL     1      -0.502   1.449  -1.504  1.00  0.00     0.008 C 
HETATM    8  C16 UNL     1      -1.611   1.167  -2.447  1.00  0.00     0.141 C 
HETATM    9  C17 UNL     1      -2.431  -0.033  -2.052  1.00  0.00     0.041 C 
HETATM   10  C18 UNL     1      -3.275   0.396  -0.842  1.00  0.00    -0.002 C 
HETATM   11  C19 UNL     1      -2.438   0.128   0.352  1.00  0.00     0.002 C 
HETATM   12  C20 UNL     1      -3.286  -0.294   1.541  1.00  0.00     0.007 C 
HETATM   13  C21 UNL     1      -3.923  -1.612   1.153  1.00  0.00     0.012 C 
HETATM   14  C22 UNL     1      -4.728  -1.525  -0.091  1.00  0.00    -0.014 C 
HETATM   15  C23 UNL     1      -4.513  -2.731  -1.003  1.00  0.00     0.018 C 
HETATM   16  C24 UNL     1      -6.206  -1.577   0.309  1.00  0.00     0.126 C 
HETATM   17  C25 UNL     1      -6.580  -0.126   0.554  1.00  0.00     0.033 C 
HETATM   18  C26 UNL     1      -5.743   0.649  -0.439  1.00  0.00     0.008 C 
HETATM   19  C27 UNL     1      -4.620  -0.263  -0.854  1.00  0.00     0.001 C 
ENDROOT
BRANCH   1  20
HETATM   20  C2  UNL     1       1.819   0.802   0.780  1.00  0.00    -0.011 C 
HETATM   21  C1  UNL     1       2.850   1.368   1.678  1.00  0.00     0.010 C 
BRANCH  20  22
HETATM   22  C3  UNL     1       2.329   0.157  -0.422  1.00  0.00     0.005 C 
BRANCH  22  23
HETATM   23  C4  UNL     1       3.256  -0.983  -0.219  1.00  0.00     0.003 C 
BRANCH  23  24
HETATM   24  C5  UNL     1       4.631  -0.821   0.245  1.00  0.00     0.039 C 
BRANCH  24  25
HETATM   25  C6  UNL     1       5.643  -0.225  -0.655  1.00  0.00     0.075 C 
HETATM   26  C7  UNL     1       5.472   1.133  -1.217  1.00  0.00     0.047 C 
HETATM   27  C8  UNL     1       5.919  -1.150  -1.853  1.00  0.00     0.047 C 
BRANCH  25  28
HETATM   28  O1  UNL     1       6.882  -0.196   0.029  1.00  0.00    -0.240 OA
BRANCH  28  29
HETATM   29  S1  UNL     1       7.723  -1.259   0.609  1.00  0.00     0.440 S 
HETATM   30  O2  UNL     1       9.033  -0.072   1.204  1.00  0.00    -0.164 OA
HETATM   31  O3  UNL     1       8.662  -2.511   1.122  1.00  0.00    -0.164 OA
HETATM   32  F1  UNL     1       9.798  -0.587  -1.082  1.00  0.00    -0.082 F 
ENDBRANCH  28  29
ENDBRANCH  25  28
ENDBRANCH  24  25
ENDBRANCH  23  24
ENDBRANCH  22  23
ENDBRANCH  20  22
ENDBRANCH   1  20
BRANCH   8  33
HETATM   33  O4  UNL     1      -1.124   0.904  -3.723  1.00  0.00    -0.392 OA
ATOM     34  H4  UNL     1      -1.835   0.723  -4.327  1.00  0.00     0.210 HD
ENDBRANCH   8  33
BRANCH  16  35
HETATM   35  O5  UNL     1      -6.407  -2.273   1.479  1.00  0.00    -0.395 OA
ATOM     36  H5  UNL     1      -7.323  -2.305   1.727  1.00  0.00     0.210 HD
ENDBRANCH  16  35
TORSDOF 9
