REMARK  9 active torsions:
REMARK  status: ('A' for Active; 'I' for Inactive)
REMARK    1  A    between atoms: C6_6  and  C7_7 
REMARK    2  A    between atoms: C19_20  and  N1_21 
REMARK    3  A    between atoms: N1_21  and  O1_22 
REMARK    4  A    between atoms: O1_22  and  C20_23 
REMARK    5  A    between atoms: C20_23  and  C21_24 
REMARK    6  A    between atoms: C21_24  and  N2_25 
REMARK    7  A    between atoms: N2_25  and  C22_28 
REMARK    8  A    between atoms: C22_28  and  C23_29 
REMARK    9  A    between atoms: C29_37  and  O4_38 
ROOT
HETATM    1  C1  UNL     1      -7.154   0.280  -0.523  1.00  0.00     0.011 C 
HETATM    2  C2  UNL     1      -5.950   0.769   0.310  1.00  0.00    -0.009 C 
HETATM    3  C3  UNL     1      -5.849   2.237   0.142  1.00  0.00     0.005 C 
HETATM    4  C4  UNL     1      -4.455   2.786   0.053  1.00  0.00     0.002 C 
HETATM    5  C5  UNL     1      -3.462   1.825   0.642  1.00  0.00     0.020 C 
HETATM    6  C6  UNL     1      -3.463   0.549  -0.154  1.00  0.00     0.046 C 
HETATM    7  C8  UNL     1      -4.778  -0.113   0.276  1.00  0.00    -0.024 C 
HETATM    8  C9  UNL     1      -4.717  -0.807   1.619  1.00  0.00     0.017 C 
HETATM    9  C10 UNL     1      -4.936  -1.313  -0.667  1.00  0.00     0.015 C 
HETATM   10  C11 UNL     1      -3.741  -2.162  -0.766  1.00  0.00     0.038 C 
HETATM   11  C12 UNL     1      -2.478  -1.639  -0.212  1.00  0.00    -0.048 C 
HETATM   12  C13 UNL     1      -1.476  -2.479   0.004  1.00  0.00    -0.021 C 
HETATM   13  C14 UNL     1      -0.156  -2.085   0.560  1.00  0.00     0.033 C 
HETATM   14  C15 UNL     1      -0.042  -0.636   0.878  1.00  0.00     0.001 C 
HETATM   15  C16 UNL     1       1.364  -0.115   0.973  1.00  0.00     0.000 C 
HETATM   16  C17 UNL     1       2.228  -1.209   1.476  1.00  0.00     0.007 C 
HETATM   17  C18 UNL     1       3.608  -0.794   0.920  1.00  0.00     0.025 C 
HETATM   18  C19 UNL     1       3.166  -0.254  -0.387  1.00  0.00     0.115 C 
HETATM   19  C24 UNL     1       1.906   0.442  -0.298  1.00  0.00    -0.020 C 
HETATM   20  C25 UNL     1       2.151   1.968  -0.291  1.00  0.00     0.017 C 
HETATM   21  C26 UNL     1       1.113   0.041  -1.524  1.00  0.00     0.012 C 
HETATM   22  C27 UNL     1      -0.364   0.055  -1.404  1.00  0.00     0.009 C 
HETATM   23  C28 UNL     1      -0.931   0.214  -0.052  1.00  0.00     0.030 C 
HETATM   24  C29 UNL     1      -2.274  -0.246   0.243  1.00  0.00     0.099 C 
ENDROOT
BRANCH  18  25
HETATM   25  N1  UNL     1       3.958  -0.545  -1.547  1.00  0.00    -0.095 NA
BRANCH  25  26
HETATM   26  O1  UNL     1       4.915  -1.257  -0.940  1.00  0.00    -0.284 OA
BRANCH  26  27
HETATM   27  C20 UNL     1       6.239  -1.584  -1.068  1.00  0.00     0.223 C 
BRANCH  27  28
HETATM   28  C21 UNL     1       6.990  -0.383  -0.445  1.00  0.00     0.261 C 
BRANCH  28  29
HETATM   29  N2  UNL     1       8.385  -0.715  -0.371  1.00  0.00    -0.064 N 
ATOM     30  H22 UNL     1       8.568  -1.714  -0.279  1.00  0.00     0.277 HD
ATOM     31  H21 UNL     1       8.888  -0.585  -1.249  1.00  0.00     0.277 HD
BRANCH  29  32
HETATM   32  C22 UNL     1       8.912   0.099   0.751  1.00  0.00     0.344 C 
BRANCH  32  33
HETATM   33  C23 UNL     1       9.083   1.492   0.467  1.00  0.00     0.199 C 
HETATM   34  O2  UNL     1      10.158   2.068   0.708  1.00  0.00    -0.647 OA
HETATM   35  O3  UNL     1       8.035   2.214  -0.086  1.00  0.00    -0.647 OA
ENDBRANCH  32  33
ENDBRANCH  29  32
ENDBRANCH  28  29
ENDBRANCH  27  28
ENDBRANCH  26  27
ENDBRANCH  25  26
ENDBRANCH  18  25
BRANCH  24  36
HETATM   36  O4  UNL     1      -2.311  -0.191   1.683  1.00  0.00    -0.384 OA
ATOM     37  H4  UNL     1      -1.550  -0.700   1.937  1.00  0.00     0.211 HD
ENDBRANCH  24  36
BRANCH   6  38
HETATM   38  C7  UNL     1      -3.433   0.736  -1.616  1.00  0.00     0.175 C 
HETATM   39  F1  UNL     1      -4.407   1.264  -2.350  1.00  0.00    -0.223 F 
ENDBRANCH   6  38
TORSDOF 9
