REMARK  7 active torsions:
REMARK  status: ('A' for Active; 'I' for Inactive)
REMARK    1  A    between atoms: C2_2  and  N1_4 
REMARK       I    between atoms: N1_4  and  C4_6 
REMARK       I    between atoms: C4_6  and  N2_8 
REMARK    2  A    between atoms: N2_8  and  C5_10 
REMARK    3  A    between atoms: C6_11  and  C7_12 
REMARK    4  A    between atoms: C7_12  and  N3_15 
REMARK    5  A    between atoms: N3_15  and  C10_17 
REMARK    6  A    between atoms: N5_27  and  C17_28 
REMARK    7  A    between atoms: N6_31  and  C20_32 
ROOT
HETATM    1  C5  UNL     1       0.388  -0.505   0.588  1.00  0.00     0.138 A 
HETATM    2  C6  UNL     1       1.478  -1.338   0.933  1.00  0.00     0.082 A 
HETATM    3  N4  UNL     1       0.991  -2.263   1.755  1.00  0.00    -0.350 N 
ATOM      4  H4  UNL     1       1.542  -3.011   2.177  1.00  0.00     0.166 HD
HETATM    5  C16 UNL     1      -0.305  -2.082   1.952  1.00  0.00     0.185 A 
HETATM    6  N5  UNL     1      -0.694  -0.984   1.226  1.00  0.00    -0.321 N 
ENDROOT
BRANCH   2   7
HETATM    7  C7  UNL     1       2.899  -1.304   0.539  1.00  0.00     0.069 C 
HETATM    8  C8  UNL     1       3.620  -2.454   1.207  1.00  0.00     0.045 C 
HETATM    9  C9  UNL     1       3.572  -0.022   0.942  1.00  0.00     0.045 C 
BRANCH   7  10
HETATM   10  N3  UNL     1       3.007  -1.439  -0.901  1.00  0.00    -0.376 N 
ATOM     11  H3  UNL     1       2.133  -1.539  -1.417  1.00  0.00     0.161 HD
BRANCH  10  12
HETATM   12  C10 UNL     1       4.191  -1.446  -1.659  1.00  0.00     0.029 A 
HETATM   13  C11 UNL     1       5.447  -1.360  -1.139  1.00  0.00     0.030 A 
HETATM   14  C12 UNL     1       6.596  -1.370  -1.949  1.00  0.00     0.021 A 
HETATM   15  C13 UNL     1       6.496  -1.469  -3.315  1.00  0.00     0.011 A 
HETATM   16 BR1  UNL     1       8.049  -1.486  -4.420  1.00  0.00    -0.051 Br
HETATM   17  C14 UNL     1       5.232  -1.558  -3.852  1.00  0.00     0.021 A 
HETATM   18  C15 UNL     1       4.106  -1.548  -3.055  1.00  0.00     0.030 A 
ENDBRANCH  10  12
ENDBRANCH   7  10
ENDBRANCH   2   7
BRANCH   1  19
HETATM   19  N2  UNL     1       0.581   0.572  -0.272  1.00  0.00    -0.293 N 
HETATM   20  C4  UNL     1      -0.141   1.602  -0.841  1.00  0.00     0.322 C 
HETATM   21  N1  UNL     1       0.573   2.520  -1.743  1.00  0.00    -0.339 N 
HETATM   22  O1  UNL     1      -1.317   1.890  -0.717  1.00  0.00    -0.247 OA
ATOM     23  H1  UNL     1       1.567   2.374  -1.919  1.00  0.00     0.164 HD
ATOM     24  H2  UNL     1       1.554   0.613  -0.575  1.00  0.00     0.172 HD
BRANCH  21  25
HETATM   25  C2  UNL     1      -0.095   3.608  -2.375  1.00  0.00     0.078 C 
HETATM   26  C1  UNL     1       0.485   4.960  -1.965  1.00  0.00     0.032 C 
HETATM   27  C3  UNL     1      -0.107   3.505  -3.881  1.00  0.00     0.032 C 
ENDBRANCH  21  25
ENDBRANCH   1  19
BRANCH   6  28
HETATM   28  C17 UNL     1      -2.022  -0.507   1.202  1.00  0.00     0.122 C 
HETATM   29  C18 UNL     1      -2.882  -1.088   0.061  1.00  0.00     0.057 C 
HETATM   30  C19 UNL     1      -4.240  -0.621   0.538  1.00  0.00     0.275 C 
HETATM   31  N6  UNL     1      -4.216  -0.812   1.944  1.00  0.00     0.095 N 
HETATM   32  C24 UNL     1      -2.857  -1.080   2.381  1.00  0.00     0.298 C 
BRANCH  31  33
HETATM   33  C20 UNL     1      -4.879   0.219   2.681  1.00  0.00     0.223 C 
HETATM   34  C21 UNL     1      -6.361   0.215   2.270  1.00  0.00     0.036 C 
HETATM   35  C22 UNL     1      -6.517  -0.910   3.304  1.00  0.00     0.004 C 
HETATM   36  C23 UNL     1      -5.370  -0.213   4.052  1.00  0.00     0.036 C 
ENDBRANCH  31  33
ENDBRANCH   6  28
TORSDOF 7
