REMARK  8 active torsions:
REMARK  status: ('A' for Active; 'I' for Inactive)
REMARK    1  A    between atoms: C6_8  and  O3_9 
REMARK    2  A    between atoms: C16_20  and  N1_21 
REMARK    3  A    between atoms: N1_21  and  C17_23 
REMARK    4  A    between atoms: C17_23  and  C18_24 
REMARK    5  A    between atoms: C18_24  and  C19_25 
REMARK    6  A    between atoms: C19_25  and  C20_26 
REMARK    7  A    between atoms: C20_26  and  C21_27 
REMARK    8  A    between atoms: C31_38  and  O4_39 
ROOT
HETATM    1  C1  UNL     1      -7.801   0.502   0.099  1.00  0.00     0.049 C 
HETATM    2  C2  UNL     1      -6.742  -0.527  -0.253  1.00  0.00     0.095 C 
HETATM    3  C3  UNL     1      -6.675  -0.616  -1.734  1.00  0.00     0.049 C 
HETATM    4  O1  UNL     1      -7.029  -1.790   0.362  1.00  0.00    -0.307 OA
HETATM    5  C4  UNL     1      -5.870  -2.356   0.872  1.00  0.00     0.269 C 
HETATM    6  O2  UNL     1      -5.766  -3.347   1.622  1.00  0.00    -0.265 OA
HETATM    7  C5  UNL     1      -4.773  -1.531   0.337  1.00  0.00     0.151 C 
HETATM    8  C6  UNL     1      -3.468  -1.630   1.015  1.00  0.00     0.135 C 
HETATM    9  C7  UNL     1      -2.401  -1.251   0.013  1.00  0.00     0.043 C 
HETATM   10  C8  UNL     1      -2.318   0.134  -0.413  1.00  0.00    -0.030 C 
HETATM   11  C9  UNL     1      -2.462   0.179  -1.951  1.00  0.00     0.016 C 
HETATM   12  C10 UNL     1      -3.287   1.142   0.086  1.00  0.00    -0.003 C 
HETATM   13  C11 UNL     1      -3.091   1.682   1.461  1.00  0.00     0.006 C 
HETATM   14  C12 UNL     1      -1.682   1.845   1.900  1.00  0.00     0.006 C 
HETATM   15  C13 UNL     1      -0.794   0.810   1.316  1.00  0.00    -0.005 C 
HETATM   16  C14 UNL     1       0.596   0.975   1.830  1.00  0.00     0.007 C 
HETATM   17  C15 UNL     1       1.347  -0.281   1.333  1.00  0.00     0.025 C 
HETATM   18  C16 UNL     1       1.521  -0.068  -0.121  1.00  0.00     0.081 C 
HETATM   19  C27 UNL     1       0.130  -0.133  -0.833  1.00  0.00     0.035 C 
HETATM   20  C28 UNL     1      -0.897   0.704  -0.173  1.00  0.00    -0.031 C 
HETATM   21  C29 UNL     1      -0.805   2.075  -0.828  1.00  0.00     0.016 C 
HETATM   22  C30 UNL     1      -4.711   0.892  -0.245  1.00  0.00     0.047 C 
HETATM   23  C31 UNL     1      -5.435  -0.173   0.426  1.00  0.00     0.104 C 
ENDROOT
BRANCH  18  24
HETATM   24  N1  UNL     1       2.446  -0.751  -0.860  1.00  0.00    -0.398 N 
ATOM     25  H1  UNL     1       2.069  -1.376  -1.572  1.00  0.00     0.159 HD
BRANCH  24  26
HETATM   26  C17 UNL     1       3.824  -0.707  -0.770  1.00  0.00     0.056 C 
BRANCH  26  27
HETATM   27  C18 UNL     1       4.547  -1.291   0.393  1.00  0.00     0.044 C 
BRANCH  27  28
HETATM   28  C19 UNL     1       6.059  -1.175   0.182  1.00  0.00     0.010 C 
BRANCH  28  29
HETATM   29  C20 UNL     1       6.531   0.245   0.045  1.00  0.00     0.039 C 
BRANCH  29  30
HETATM   30  C21 UNL     1       8.029   0.267  -0.145  1.00  0.00    -0.058 A 
HETATM   31  C22 UNL     1       8.909   0.341   0.907  1.00  0.00     0.010 A 
HETATM   32  C23 UNL     1      10.270   0.353   0.681  1.00  0.00     0.043 A 
HETATM   33  C24 UNL     1      10.806   0.292  -0.590  1.00  0.00     0.116 A 
HETATM   34  F1  UNL     1      12.154   0.305  -0.792  1.00  0.00    -0.206 F 
HETATM   35  C25 UNL     1       9.924   0.218  -1.646  1.00  0.00     0.043 A 
HETATM   36  C26 UNL     1       8.560   0.205  -1.423  1.00  0.00     0.010 A 
ENDBRANCH  29  30
ENDBRANCH  28  29
ENDBRANCH  27  28
ENDBRANCH  26  27
ENDBRANCH  24  26
ENDBRANCH  18  24
BRANCH   8  37
HETATM   37  O3  UNL     1      -3.247  -3.018   1.250  1.00  0.00    -0.395 OA
ATOM     38  H3  UNL     1      -2.406  -3.082   1.687  1.00  0.00     0.210 HD
ENDBRANCH   8  37
BRANCH  23  39
HETATM   39  O4  UNL     1      -5.768   0.049   1.760  1.00  0.00    -0.386 OA
ATOM     40  H4  UNL     1      -4.948   0.271   2.186  1.00  0.00     0.210 HD
ENDBRANCH  23  39
TORSDOF 8
