REMARK  5 active torsions:
REMARK  status: ('A' for Active; 'I' for Inactive)
REMARK    1  A    between atoms: C2_2  and  C3_3 
REMARK    2  A    between atoms: C3_3  and  C4_4 
REMARK       I    between atoms: N1_5  and  C5_7 
REMARK    3  A    between atoms: C5_7  and  C6_9 
REMARK    4  A    between atoms: C8_11  and  C9_12 
REMARK    5  A    between atoms: C17_22  and  C18_23 
ROOT
HETATM    1  C6  UNL     1       1.871  -0.536   1.359  1.00  0.00     0.034 A 
HETATM    2  C7  UNL     1       1.906   0.795   1.023  1.00  0.00     0.032 A 
HETATM    3  C8  UNL     1       0.779   1.503   0.560  1.00  0.00     0.006 A 
HETATM    4  C15 UNL     1      -0.399   0.797   0.451  1.00  0.00     0.100 A 
HETATM    5  O2  UNL     1      -1.488   1.369   0.030  1.00  0.00    -0.273 OA
HETATM    6  C16 UNL     1      -2.648   0.790  -0.109  1.00  0.00     0.300 A 
HETATM    7  O3  UNL     1      -3.645   1.474  -0.536  1.00  0.00    -0.259 OA
HETATM    8  C17 UNL     1      -2.752  -0.532   0.208  1.00  0.00     0.067 A 
HETATM    9  C26 UNL     1      -1.647  -1.212   0.661  1.00  0.00     0.034 A 
HETATM   10  C27 UNL     1      -0.447  -0.567   0.794  1.00  0.00     0.001 A 
HETATM   11  C28 UNL     1       0.684  -1.199   1.238  1.00  0.00     0.031 A 
ENDROOT
BRANCH   8  12
HETATM   12  C18 UNL     1      -4.006  -1.261   0.085  1.00  0.00     0.050 A 
HETATM   13  C19 UNL     1      -5.244  -0.840  -0.330  1.00  0.00     0.044 A 
HETATM   14  C20 UNL     1      -6.164  -1.897  -0.286  1.00  0.00    -0.005 A 
HETATM   15  C21 UNL     1      -7.505  -1.987  -0.594  1.00  0.00     0.040 A 
HETATM   16  C25 UNL     1      -5.439  -2.970   0.170  1.00  0.00     0.046 A 
HETATM   17  C22 UNL     1      -8.191  -3.173  -0.458  1.00  0.00     0.073 A 
HETATM   18 CL1  UNL     1      -9.890  -3.339  -0.835  1.00  0.00    -0.081 Cl
HETATM   19  C23 UNL     1      -7.454  -4.248   0.001  1.00  0.00     0.140 A 
HETATM   20  F1  UNL     1      -8.116  -5.429   0.141  1.00  0.00    -0.204 F 
HETATM   21  C24 UNL     1      -6.117  -4.178   0.313  1.00  0.00     0.074 A 
HETATM   22  N2  UNL     1      -4.172  -2.585   0.385  1.00  0.00    -0.355 N 
ATOM     23  H2  UNL     1      -3.432  -3.198   0.727  1.00  0.00     0.166 HD
ENDBRANCH   8  12
BRANCH   3  24
HETATM   24  C9  UNL     1       0.928   2.893   0.187  1.00  0.00    -0.049 C 
HETATM   25  C10 UNL     1      -0.045   3.736  -0.072  1.00  0.00    -0.019 C 
HETATM   26  C11 UNL     1       0.218   5.161  -0.452  1.00  0.00     0.028 C 
HETATM   27  C12 UNL     1       1.246   5.166  -1.561  1.00  0.00     0.004 C 
HETATM   28  C13 UNL     1       2.302   4.133  -1.370  1.00  0.00     0.005 C 
HETATM   29  C14 UNL     1       2.298   3.511   0.023  1.00  0.00     0.039 C 
ENDBRANCH   3  24
BRANCH   1  30
HETATM   30  C5  UNL     1       3.087  -1.202   1.834  1.00  0.00     0.255 C 
HETATM   31  N1  UNL     1       4.307  -0.488   1.951  1.00  0.00    -0.337 N 
HETATM   32  C4  UNL     1       5.171  -0.419   0.995  1.00  0.00     0.064 C 
ATOM     33  H1  UNL     1       4.510  -0.009   2.828  1.00  0.00     0.168 HD
HETATM   34  O1  UNL     1       3.082  -2.413   2.148  1.00  0.00    -0.267 OA
BRANCH  32  35
HETATM   35  C3  UNL     1       4.884  -1.113  -0.285  1.00  0.00     0.044 C 
BRANCH  35  36
HETATM   36  C2  UNL     1       5.678  -2.419  -0.305  1.00  0.00     0.001 C 
HETATM   37  C1  UNL     1       7.144  -2.065  -0.196  1.00  0.00     0.005 C 
ENDBRANCH  35  36
ENDBRANCH  32  35
ENDBRANCH   1  30
TORSDOF 5
