REMARK  5 active torsions:
REMARK  status: ('A' for Active; 'I' for Inactive)
REMARK    1  A    between atoms: C3_3  and  C4_4 
REMARK    2  A    between atoms: C8_11  and  C9_12 
REMARK    3  A    between atoms: N1_18  and  C15_19 
REMARK    4  A    between atoms: C15_19  and  C16_20 
REMARK    5  A    between atoms: C22_26  and  C23_27 
ROOT
HETATM    1  C1  UNL     1      -0.207   3.272   2.251  1.00  0.00     0.052 C 
HETATM    2  C2  UNL     1      -0.080   1.933   1.623  1.00  0.00    -0.013 A 
HETATM    3  C3  UNL     1      -0.812   1.495   0.498  1.00  0.00     0.031 A 
HETATM    4  C8  UNL     1      -0.397   0.206   0.218  1.00  0.00     0.030 A 
HETATM    5  N1  UNL     1       0.564  -0.156   1.122  1.00  0.00    -0.339 N 
HETATM    6  C22 UNL     1       0.742   0.918   1.979  1.00  0.00     0.119 A 
ENDROOT
BRANCH   3   7
HETATM    7  C4  UNL     1      -1.777   2.382  -0.121  1.00  0.00     0.111 A 
HETATM    8  O1  UNL     1      -1.605   3.173  -1.176  1.00  0.00    -0.301 OA
HETATM    9  C5  UNL     1      -2.676   3.832  -1.454  1.00  0.00     0.124 A 
HETATM   10 BR1  UNL     1      -2.956   5.101  -2.871  1.00  0.00    -0.023 Br
HETATM   11  C6  UNL     1      -3.651   3.493  -0.554  1.00  0.00     0.072 A 
HETATM   12  C7  UNL     1      -3.071   2.567   0.295  1.00  0.00     0.072 A 
HETATM   13 CL1  UNL     1      -3.924   1.818   1.625  1.00  0.00    -0.081 Cl
ENDBRANCH   3   7
BRANCH   4  14
HETATM   14  C9  UNL     1      -0.882  -0.614  -0.902  1.00  0.00     0.037 C 
HETATM   15  C10 UNL     1      -0.739  -2.076  -0.669  1.00  0.00     0.011 C 
HETATM   16  C11 UNL     1      -1.555  -2.990  -1.569  1.00  0.00     0.001 C 
HETATM   17  C12 UNL     1      -2.928  -2.475  -1.867  1.00  0.00     0.000 C 
HETATM   18  C13 UNL     1      -2.650  -1.173  -2.598  1.00  0.00     0.001 C 
HETATM   19  C14 UNL     1      -2.219  -0.216  -1.444  1.00  0.00     0.011 C 
ENDBRANCH   4  14
BRANCH   6  20
HETATM   20  C23 UNL     1       1.638   1.039   3.127  1.00  0.00     0.227 C 
HETATM   21  O2  UNL     1       1.612   2.158   3.807  1.00  0.00    -0.643 OA
HETATM   22  O3  UNL     1       2.534   0.157   3.636  1.00  0.00    -0.643 OA
ENDBRANCH   6  20
BRANCH   5  23
HETATM   23  C15 UNL     1       1.382  -1.305   1.284  1.00  0.00     0.168 C 
BRANCH  23  24
HETATM   24  C16 UNL     1       2.679  -1.236   0.516  1.00  0.00    -0.040 A 
HETATM   25  C17 UNL     1       3.245  -0.072   0.126  1.00  0.00     0.009 A 
HETATM   26  C18 UNL     1       4.450  -0.071  -0.534  1.00  0.00     0.001 A 
HETATM   27  C19 UNL     1       5.070  -1.278  -0.789  1.00  0.00     0.000 A 
HETATM   28  C20 UNL     1       4.510  -2.489  -0.400  1.00  0.00     0.001 A 
HETATM   29  C21 UNL     1       3.298  -2.428   0.259  1.00  0.00     0.009 A 
ENDBRANCH  23  24
ENDBRANCH   5  23
TORSDOF 5
