REMARK  9 active torsions:
REMARK  status: ('A' for Active; 'I' for Inactive)
REMARK    1  A    between atoms: C2_2  and  N1_3 
REMARK    2  A    between atoms: N1_3  and  C3_4 
REMARK    3  A    between atoms: N1_3  and  C5_6 
REMARK    4  A    between atoms: C5_6  and  O1_7 
REMARK    5  A    between atoms: C5_6  and  C6_9 
REMARK       I    between atoms: N2_10  and  C7_11 
REMARK    6  A    between atoms: C7_11  and  C8_13 
REMARK       I    between atoms: N3_15  and  C10_16 
REMARK    7  A    between atoms: C13_20  and  C14_21 
REMARK       I    between atoms: C14_21  and  N4_23 
REMARK    8  A    between atoms: N4_23  and  C15_25 
REMARK    9  A    between atoms: C29_39  and  C31_41 
ROOT
HETATM    1  C8  UNL     1      -0.641   0.048  -0.087  1.00  0.00     0.111 C 
HETATM    2  C9  UNL     1      -0.057   1.307   0.404  1.00  0.00     0.141 C 
HETATM    3  N3  UNL     1       0.666   0.858   1.612  1.00  0.00    -0.351 N 
HETATM    4  C10 UNL     1       1.348   1.692   2.532  1.00  0.00     0.215 C 
HETATM    5  C11 UNL     1       1.370   3.146   2.314  1.00  0.00     0.117 C 
HETATM    6  O3  UNL     1       1.946   1.251   3.541  1.00  0.00    -0.274 OA
HETATM    7  C12 UNL     1       0.580  -0.585   1.738  1.00  0.00     0.140 C 
HETATM    8  C13 UNL     1       0.438  -0.936   0.242  1.00  0.00     0.110 C 
ENDROOT
BRANCH   1   9
HETATM    9  C7  UNL     1      -1.192  -0.017  -1.429  1.00  0.00     0.231 C 
HETATM   10  N2  UNL     1      -2.492   0.464  -1.741  1.00  0.00    -0.316 N 
HETATM   11  C6  UNL     1      -3.390   0.961  -0.768  1.00  0.00     0.079 C 
HETATM   12  C25 UNL     1      -2.780   0.480  -3.179  1.00  0.00     0.132 C 
HETATM   13  C29 UNL     1      -4.191   2.157  -1.293  1.00  0.00     0.065 C 
HETATM   14  C27 UNL     1      -3.617   2.698  -2.568  1.00  0.00     0.003 C 
HETATM   15  C30 UNL     1      -4.168   3.297  -0.297  1.00  0.00     0.028 C 
HETATM   16  C26 UNL     1      -3.421   1.727  -3.656  1.00  0.00     0.026 C 
HETATM   17  C28 UNL     1      -2.308   3.424  -2.306  1.00  0.00     0.011 C 
HETATM   18  O2  UNL     1      -0.517  -0.514  -2.405  1.00  0.00    -0.273 OA
BRANCH  11  19
HETATM   19  C5  UNL     1      -4.210   0.096   0.068  1.00  0.00     0.162 C 
BRANCH  19  20
HETATM   20  N1  UNL     1      -4.618  -1.222   0.073  1.00  0.00    -0.361 N 
BRANCH  20  21
HETATM   21  C2  UNL     1      -5.480  -1.677   1.205  1.00  0.00     0.120 C 
HETATM   22  C1  UNL     1      -4.599  -2.189   2.324  1.00  0.00     0.026 C 
ENDBRANCH  20  21
BRANCH  20  23
HETATM   23  C3  UNL     1      -4.323  -2.248  -0.865  1.00  0.00     0.120 C 
HETATM   24  C4  UNL     1      -3.122  -3.100  -0.559  1.00  0.00     0.026 C 
ENDBRANCH  20  23
ENDBRANCH  19  20
BRANCH  19  25
HETATM   25  O1  UNL     1      -4.721   0.742   1.132  1.00  0.00    -0.345 OA
ATOM     26  H1  UNL     1      -4.440   1.650   1.129  1.00  0.00     0.219 HD
ENDBRANCH  19  25
ENDBRANCH  11  19
BRANCH  13  27
HETATM   27  C31 UNL     1      -5.649   1.838  -1.512  1.00  0.00     0.367 C 
HETATM   28  F1  UNL     1      -5.869   0.831  -2.422  1.00  0.00    -0.213 F 
HETATM   29  F2  UNL     1      -6.306   2.969  -2.029  1.00  0.00    -0.213 F 
ENDBRANCH  13  27
ENDBRANCH   1   9
BRANCH   8  30
HETATM   30  C14 UNL     1       1.752  -0.681  -0.349  1.00  0.00     0.224 C 
HETATM   31  O4  UNL     1       2.023   0.075  -1.315  1.00  0.00    -0.273 OA
HETATM   32  N4  UNL     1       2.900  -1.350   0.200  1.00  0.00    -0.355 N 
ATOM     33  H4  UNL     1       2.759  -1.977   0.993  1.00  0.00     0.162 HD
BRANCH  32  34
HETATM   34  C15 UNL     1       4.239  -1.184  -0.308  1.00  0.00     0.092 C 
HETATM   35  C16 UNL     1       4.831  -0.013   0.490  1.00  0.00     0.009 C 
HETATM   36  C17 UNL     1       6.201   0.233  -0.091  1.00  0.00     0.011 C 
HETATM   37  C21 UNL     1       4.938  -0.293   1.950  1.00  0.00     0.011 C 
HETATM   38  C18 UNL     1       7.075  -0.994   0.107  1.00  0.00    -0.013 C 
HETATM   39  C19 UNL     1       7.194  -1.267   1.596  1.00  0.00     0.009 C 
HETATM   40  C24 UNL     1       6.447  -2.150  -0.601  1.00  0.00     0.011 C 
HETATM   41  C20 UNL     1       5.807  -1.522   2.145  1.00  0.00    -0.013 C 
HETATM   42  C22 UNL     1       5.209  -2.703   1.418  1.00  0.00     0.011 C 
HETATM   43  C23 UNL     1       5.054  -2.393  -0.057  1.00  0.00     0.009 C 
ENDBRANCH  32  34
ENDBRANCH   8  30
TORSDOF 9
