REMARK  6 active torsions:
REMARK  status: ('A' for Active; 'I' for Inactive)
REMARK       I    between atoms: C2_2  and  N1_4 
REMARK    1  A    between atoms: C5_7  and  C6_8 
REMARK    2  A    between atoms: C9_11  and  C10_12 
REMARK       I    between atoms: C10_12  and  N2_14 
REMARK    3  A    between atoms: N2_14  and  C11_16 
REMARK    4  A    between atoms: C11_16  and  C12_17 
REMARK       I    between atoms: N3_24  and  C17_25 
REMARK    5  A    between atoms: C17_25  and  C18_27 
REMARK    6  A    between atoms: C21_30  and  N4_31 
ROOT
HETATM    1  C1  UNL     1       1.954  -3.455  -0.469  1.00  0.00     0.119 C 
HETATM    2  C2  UNL     1       0.535  -3.224   0.009  1.00  0.00     0.239 C 
HETATM    3  O1  UNL     1      -0.007  -4.332   0.330  1.00  0.00    -0.272 OA
HETATM    4  N1  UNL     1      -0.018  -1.962   0.044  1.00  0.00    -0.224 N 
HETATM    5  C3  UNL     1      -1.453  -1.677   0.189  1.00  0.00     0.040 C 
HETATM    6  C4  UNL     1      -2.372  -2.859   0.071  1.00  0.00     0.071 C 
HETATM    7  C5  UNL     1      -1.918  -0.472   0.340  1.00  0.00    -0.030 C 
HETATM    8  C15 UNL     1      -0.914   0.684   0.344  1.00  0.00     0.062 C 
HETATM    9  C16 UNL     1       0.211   0.321  -0.630  1.00  0.00     0.157 C 
HETATM   10  N3  UNL     1       0.812  -0.834   0.074  1.00  0.00    -0.251 N 
HETATM   11  C17 UNL     1       1.983  -0.671   0.793  1.00  0.00     0.242 C 
HETATM   12  O3  UNL     1       2.407  -1.505   1.647  1.00  0.00    -0.271 OA
ENDROOT
BRANCH   7  13
HETATM   13  C6  UNL     1      -3.310  -0.057   0.502  1.00  0.00    -0.071 C 
HETATM   14  C7  UNL     1      -3.598   1.271  -0.213  1.00  0.00     0.036 C 
HETATM   15  C8  UNL     1      -5.076   1.615  -0.197  1.00  0.00     0.018 C 
HETATM   16  C9  UNL     1      -5.898   0.577  -0.914  1.00  0.00     0.078 C 
HETATM   17  C13 UNL     1      -5.233  -0.778  -0.856  1.00  0.00     0.018 C 
HETATM   18  C14 UNL     1      -4.507  -0.862   0.492  1.00  0.00     0.036 C 
BRANCH  16  19
HETATM   19  C10 UNL     1      -7.212   0.467  -0.253  1.00  0.00     0.221 C 
HETATM   20  O2  UNL     1      -7.446   1.161   0.761  1.00  0.00    -0.273 OA
HETATM   21  N2  UNL     1      -8.232  -0.399  -0.723  1.00  0.00    -0.357 N 
ATOM     22  H2  UNL     1      -8.026  -0.959  -1.551  1.00  0.00     0.162 HD
BRANCH  21  23
HETATM   23  C11 UNL     1      -9.525  -0.552  -0.132  1.00  0.00     0.171 C 
BRANCH  23  24
HETATM   24  C12 UNL     1     -10.339   0.730  -0.099  1.00  0.00     0.259 C 
HETATM   25  F1  UNL     1     -11.581   0.463   0.496  1.00  0.00    -0.236 F 
HETATM   26 BR1  UNL     1     -10.643   1.377  -1.893  1.00  0.00    -0.054 Br
ENDBRANCH  23  24
ENDBRANCH  21  23
ENDBRANCH  16  19
ENDBRANCH   7  13
BRANCH  11  27
HETATM   27  C18 UNL     1       2.884   0.535   0.625  1.00  0.00     0.080 C 
HETATM   28  C19 UNL     1       3.461   0.592  -0.740  1.00  0.00     0.016 C 
HETATM   29  C20 UNL     1       4.891   0.138  -0.868  1.00  0.00     0.036 C 
HETATM   30  C21 UNL     1       5.694   0.975   0.133  1.00  0.00     0.223 C 
HETATM   31  C26 UNL     1       5.268   0.474   1.482  1.00  0.00     0.036 C 
HETATM   32  C27 UNL     1       3.825   0.686   1.767  1.00  0.00     0.016 C 
BRANCH  30  33
HETATM   33  N4  UNL     1       7.115   0.750  -0.047  1.00  0.00     0.093 N 
HETATM   34  C22 UNL     1       7.556   1.168  -1.365  1.00  0.00     0.273 C 
HETATM   35  C23 UNL     1       9.004   1.504  -1.175  1.00  0.00     0.032 C 
HETATM   36  C24 UNL     1       9.251   1.558   0.302  1.00  0.00     0.032 C 
HETATM   37  C25 UNL     1       7.831   1.584   0.878  1.00  0.00     0.273 C 
ENDBRANCH  30  33
ENDBRANCH  11  27
TORSDOF 6
