REMARK  12 active torsions:
REMARK  status: ('A' for Active; 'I' for Inactive)
REMARK    1  A    between atoms: C2_2  and  C5_5 
REMARK    2  A    between atoms: C5_5  and  N1_7 
REMARK    3  A    between atoms: C5_5  and  C13_17 
REMARK       I    between atoms: N1_7  and  C7_9 
REMARK    4  A    between atoms: C7_9  and  O2_11 
REMARK    5  A    between atoms: O2_11  and  C8_12 
REMARK    6  A    between atoms: C13_17  and  O3_18 
REMARK    7  A    between atoms: C13_17  and  N2_20 
REMARK    8  A    between atoms: C15_22  and  C16_23 
REMARK    9  A    between atoms: C18_26  and  C19_27 
REMARK   10  A    between atoms: C19_27  and  O4_28 
REMARK   11  A    between atoms: C19_27  and  N3_30 
REMARK   12  A    between atoms: C21_34  and  C22_35 
ROOT
HETATM    1  C13 UNL     1      -0.630   0.017   0.381  1.00  0.00     0.143 C 
ENDROOT
BRANCH   1   2
HETATM    2  C5  UNL     1       0.049  -0.374  -0.822  1.00  0.00     0.102 C 
HETATM    3  C6  UNL     1      -0.655   0.194  -2.071  1.00  0.00     0.048 C 
BRANCH   2   4
HETATM    4  C2  UNL     1       0.343  -1.812  -1.084  1.00  0.00    -0.018 C 
HETATM    5  C1  UNL     1       0.896  -2.625   0.032  1.00  0.00     0.017 C 
HETATM    6  C3  UNL     1       1.580  -1.794  -2.099  1.00  0.00     0.017 C 
HETATM    7  C4  UNL     1      -0.667  -2.591  -1.859  1.00  0.00     0.017 C 
ENDBRANCH   2   4
BRANCH   2   8
HETATM    8  N1  UNL     1       1.352   0.337  -0.921  1.00  0.00    -0.320 N 
HETATM    9  C7  UNL     1       2.441   0.284  -0.080  1.00  0.00     0.361 C 
HETATM   10  O1  UNL     1       2.619  -0.345   0.964  1.00  0.00    -0.238 OA
ATOM     11  H1  UNL     1       1.453   0.952  -1.728  1.00  0.00     0.166 HD
BRANCH   9  12
HETATM   12  O2  UNL     1       3.581   1.074  -0.435  1.00  0.00    -0.299 OA
BRANCH  12  13
HETATM   13  C8  UNL     1       4.745   1.083   0.369  1.00  0.00     0.133 C 
HETATM   14  C9  UNL     1       5.899   0.673  -0.531  1.00  0.00     0.032 C 
HETATM   15  C10 UNL     1       6.952   1.740  -0.380  1.00  0.00     0.002 C 
HETATM   16  C11 UNL     1       6.118   2.982  -0.184  1.00  0.00     0.002 C 
HETATM   17  C12 UNL     1       5.048   2.505   0.779  1.00  0.00     0.032 C 
ENDBRANCH  12  13
ENDBRANCH   9  12
ENDBRANCH   2   8
ENDBRANCH   1   2
BRANCH   1  18
HETATM   18  O3  UNL     1       0.054   0.934   1.083  1.00  0.00    -0.347 OA
ATOM     19  H3  UNL     1      -0.395   1.193   1.879  1.00  0.00     0.219 HD
ENDBRANCH   1  18
BRANCH   1  20
HETATM   20  N2  UNL     1      -1.820  -0.287   1.047  1.00  0.00    -0.351 N 
HETATM   21  C14 UNL     1      -2.136   0.403   2.331  1.00  0.00     0.131 C 
HETATM   22  C15 UNL     1      -3.392  -0.152   2.859  1.00  0.00     0.016 C 
HETATM   23  C17 UNL     1      -3.656  -1.396   2.088  1.00  0.00     0.040 C 
HETATM   24  C18 UNL     1      -2.865  -1.206   0.776  1.00  0.00     0.161 C 
BRANCH  22  25
HETATM   25  C16 UNL     1      -3.272  -0.577   4.332  1.00  0.00     0.091 C 
HETATM   26 BR1  UNL     1      -4.991  -1.279   4.876  1.00  0.00    -0.096 Br
ENDBRANCH  22  25
BRANCH  24  27
HETATM   27  C19 UNL     1      -3.829  -1.006  -0.268  1.00  0.00     0.144 C 
BRANCH  27  28
HETATM   28  O4  UNL     1      -4.444  -2.115  -0.617  1.00  0.00    -0.348 OA
ATOM     29  H4  UNL     1      -5.082  -1.983  -1.308  1.00  0.00     0.219 HD
ENDBRANCH  27  28
BRANCH  27  30
HETATM   30  N3  UNL     1      -4.292   0.088  -1.030  1.00  0.00    -0.302 N 
HETATM   31  C20 UNL     1      -5.251   0.145  -2.162  1.00  0.00     0.256 A 
HETATM   32  N4  UNL     1      -5.022   1.487  -2.139  1.00  0.00    -0.362 N 
HETATM   33  C21 UNL     1      -4.210   1.461  -1.175  1.00  0.00     0.093 A 
ATOM     34  H4  UNL     1      -5.384   2.252  -2.708  1.00  0.00     0.162 HD
BRANCH  33  35
HETATM   35  C22 UNL     1      -3.537   2.632  -0.508  1.00  0.00     0.161 C 
HETATM   36 BR2  UNL     1      -4.552   3.267   1.011  1.00  0.00    -0.088 Br
ENDBRANCH  33  35
ENDBRANCH  27  30
ENDBRANCH  24  27
ENDBRANCH   1  20
TORSDOF 12
