REMARK  4 active torsions:
REMARK  status: ('A' for Active; 'I' for Inactive)
REMARK       I    between atoms: C1_4  and  N2_5 
REMARK       I    between atoms: C1_4  and  N6_27 
REMARK    1  A    between atoms: N2_5  and  C2_7 
REMARK    2  A    between atoms: C5_16  and  C6_17 
REMARK    3  A    between atoms: C7_18  and  C8_19 
REMARK       I    between atoms: N6_27  and  C15_29 
REMARK    4  A    between atoms: C15_29  and  C16_31 
ROOT
HETATM    1  C2  UNL     1       0.664   1.284   1.358  1.00  0.00     0.166 A 
HETATM    2  N3  UNL     1       0.298   1.717   2.564  1.00  0.00    -0.320 N 
ATOM      3  H3  UNL     1       0.993   2.033   3.241  1.00  0.00     0.169 HD
HETATM    4  C3  UNL     1      -0.983   1.726   2.857  1.00  0.00     0.141 A 
HETATM    5  N4  UNL     1      -1.554   2.132   4.039  1.00  0.00    -0.285 N 
ATOM      6  H4  UNL     1      -0.954   2.468   4.792  1.00  0.00     0.188 HD
HETATM    7  N5  UNL     1      -2.833   2.098   4.220  1.00  0.00    -0.309 N 
ATOM      8  H5  UNL     1      -3.168   2.418   5.129  1.00  0.00     0.186 HD
HETATM    9  C4  UNL     1      -3.773   1.690   3.351  1.00  0.00     0.129 A 
HETATM   10  C5  UNL     1      -3.248   1.266   2.133  1.00  0.00     0.056 A 
HETATM   11  C14 UNL     1      -1.864   1.294   1.916  1.00  0.00     0.074 A 
HETATM   12  S1  UNL     1      -0.825   0.883   0.625  1.00  0.00    -0.048 SA
ENDROOT
BRANCH   1  13
HETATM   13  N2  UNL     1       1.881   1.195   0.872  1.00  0.00    -0.170 N 
HETATM   14  C1  UNL     1       2.045   0.707  -0.434  1.00  0.00     0.680 C 
HETATM   15  N1  UNL     1       1.079   0.819  -1.273  1.00  0.00    -0.234 N 
HETATM   16  N6  UNL     1       3.247   0.090  -0.865  1.00  0.00    -0.156 N 
ATOM     17  H12 UNL     1       0.214   1.263  -0.963  1.00  0.00     0.174 HD
ATOM     18  H11 UNL     1       1.198   0.464  -2.222  1.00  0.00     0.174 HD
HETATM   19  C15 UNL     1       4.330  -0.051   0.022  1.00  0.00     0.269 C 
ATOM     20  H6  UNL     1       3.327  -0.253  -1.822  1.00  0.00     0.187 HD
HETATM   21  O1  UNL     1       4.199   0.390   1.213  1.00  0.00    -0.267 OA
ATOM     22  H2  UNL     1       2.688   1.474   1.430  1.00  0.00     0.186 HD
BRANCH  19  23
HETATM   23  C16 UNL     1       5.617  -0.680  -0.339  1.00  0.00     0.032 A 
HETATM   24  C17 UNL     1       5.810  -1.285  -1.559  1.00  0.00     0.017 A 
HETATM   25  C18 UNL     1       7.040  -1.853  -1.842  1.00  0.00     0.001 A 
HETATM   26  C19 UNL     1       8.072  -1.825  -0.933  1.00  0.00     0.000 A 
HETATM   27  C20 UNL     1       7.864  -1.214   0.286  1.00  0.00     0.001 A 
HETATM   28  C21 UNL     1       6.657  -0.651   0.580  1.00  0.00     0.017 A 
ENDBRANCH  19  23
ENDBRANCH   1  13
BRANCH  10  29
HETATM   29  C6  UNL     1      -4.049   0.787   1.052  1.00  0.00    -0.059 C 
HETATM   30  C7  UNL     1      -4.743   0.379   0.153  1.00  0.00    -0.061 C 
BRANCH  30  31
HETATM   31  C8  UNL     1      -5.582  -0.115  -0.898  1.00  0.00     0.018 A 
HETATM   32  C9  UNL     1      -6.675  -0.901  -0.605  1.00  0.00     0.020 A 
HETATM   33  C10 UNL     1      -7.503  -1.394  -1.589  1.00  0.00     0.001 A 
HETATM   34  C11 UNL     1      -7.237  -1.096  -2.923  1.00  0.00     0.000 A 
HETATM   35  C12 UNL     1      -6.148  -0.310  -3.241  1.00  0.00     0.001 A 
HETATM   36  C13 UNL     1      -5.338   0.167  -2.225  1.00  0.00     0.020 A 
ENDBRANCH  30  31
ENDBRANCH  10  29
TORSDOF 4
