REMARK  4 active torsions:
REMARK  status: ('A' for Active; 'I' for Inactive)
REMARK       I    between atoms: C2_2  and  N1_4 
REMARK    1  A    between atoms: N1_4  and  C3_6 
REMARK    2  A    between atoms: C4_9  and  C5_10 
REMARK    3  A    between atoms: C9_15  and  C10_16 
REMARK    4  A    between atoms: C11_17  and  C12_18 
ROOT
HETATM    1  C12 UNL     1       2.424  -0.705   0.509  1.00  0.00     0.041 A 
HETATM    2  C13 UNL     1       2.895  -1.434   1.576  1.00  0.00     0.024 A 
HETATM    3  C14 UNL     1       4.242  -1.572   1.806  1.00  0.00     0.033 A 
HETATM    4  C15 UNL     1       5.157  -0.975   0.959  1.00  0.00     0.061 A 
HETATM    5  N3  UNL     1       6.514  -0.949   0.950  1.00  0.00    -0.350 N 
ATOM      6  H3  UNL     1       7.140  -1.400   1.617  1.00  0.00     0.166 HD
HETATM    7  C16 UNL     1       6.867  -0.210  -0.115  1.00  0.00     0.181 A 
HETATM    8  N4  UNL     1       5.759   0.210  -0.748  1.00  0.00    -0.349 N 
ATOM      9  H4  UNL     1       5.744   0.788  -1.588  1.00  0.00     0.166 HD
HETATM   10  C17 UNL     1       4.667  -0.253  -0.099  1.00  0.00     0.082 A 
HETATM   11  C18 UNL     1       3.319  -0.109  -0.337  1.00  0.00     0.092 A 
HETATM   12  C19 UNL     1       2.814   0.646  -1.444  1.00  0.00     0.103 C 
HETATM   13  N5  UNL     1       2.403   1.265  -2.334  1.00  0.00    -0.191 NA
ENDROOT
BRANCH   1  14
HETATM   14  C11 UNL     1       0.995  -0.574   0.288  1.00  0.00    -0.059 C 
HETATM   15  C10 UNL     1      -0.189  -0.444   0.107  1.00  0.00    -0.051 C 
BRANCH  15  16
HETATM   16  C9  UNL     1      -1.626  -0.317  -0.117  1.00  0.00     0.090 A 
HETATM   17  C4  UNL     1      -2.426   0.797  -0.077  1.00  0.00     0.077 A 
HETATM   18  N2  UNL     1      -3.696   0.637  -0.318  1.00  0.00    -0.334 N 
HETATM   19  C3  UNL     1      -4.152  -0.574  -0.587  1.00  0.00     0.153 A 
ATOM     20  H2  UNL     1      -4.330   1.436  -0.299  1.00  0.00     0.168 HD
HETATM   21  S2  UNL     1      -2.761  -1.549  -0.504  1.00  0.00    -0.042 SA
BRANCH  17  22
HETATM   22  C5  UNL     1      -1.804   2.123   0.239  1.00  0.00     0.033 A 
HETATM   23  C6  UNL     1      -2.430   3.339   0.324  1.00  0.00     0.021 A 
HETATM   24  C7  UNL     1      -1.675   4.404   0.621  1.00  0.00     0.008 A 
HETATM   25  C8  UNL     1      -0.332   4.183   0.814  1.00  0.00     0.050 A 
HETATM   26  S1  UNL     1      -0.187   2.500   0.573  1.00  0.00    -0.100 SA
ENDBRANCH  17  22
BRANCH  19  27
HETATM   27  N1  UNL     1      -5.387  -0.932  -0.853  1.00  0.00    -0.307 N 
HETATM   28  C2  UNL     1      -5.693  -2.293  -1.120  1.00  0.00     0.219 C 
HETATM   29  C1  UNL     1      -5.450  -3.394  -0.161  1.00  0.00     0.117 C 
HETATM   30  O1  UNL     1      -6.203  -2.546  -2.258  1.00  0.00    -0.274 OA
ATOM     31  H1  UNL     1      -6.128  -0.231  -0.868  1.00  0.00     0.171 HD
ENDBRANCH  19  27
ENDBRANCH  15  16
ENDBRANCH   1  14
TORSDOF 4
