REMARK  1 active torsions:
REMARK  status: ('A' for Active; 'I' for Inactive)
REMARK    1  A    between atoms: N2_5  and  C3_6 
ROOT
HETATM    1  C1  UNL     1      -2.183  -4.133  -0.734  1.00  0.00     0.071 C 
HETATM    2  C2  UNL     1      -1.672  -2.721  -0.694  1.00  0.00     0.040 A 
HETATM    3  N1  UNL     1      -0.515  -2.241  -1.106  1.00  0.00    -0.297 N 
ATOM      4  H1  UNL     1       0.220  -2.807  -1.529  1.00  0.00     0.187 HD
HETATM    5  N2  UNL     1      -0.420  -0.904  -0.899  1.00  0.00    -0.252 N 
HETATM    6  C13 UNL     1      -1.576  -0.551  -0.332  1.00  0.00     0.087 A 
HETATM    7  C14 UNL     1      -2.411  -1.665  -0.177  1.00  0.00     0.085 A 
HETATM    8  C15 UNL     1      -3.663  -1.581   0.382  1.00  0.00     0.260 A 
HETATM    9  O3  UNL     1      -4.371  -2.610   0.498  1.00  0.00    -0.267 OA
HETATM   10  N5  UNL     1      -4.147  -0.417   0.808  1.00  0.00    -0.322 N 
ATOM     11  H5  UNL     1      -5.076  -0.349   1.223  1.00  0.00     0.169 HD
HETATM   12  C16 UNL     1      -3.366   0.661   0.670  1.00  0.00     0.047 A 
HETATM   13  C17 UNL     1      -3.894   1.874   1.123  1.00  0.00     0.030 A 
HETATM   14  C18 UNL     1      -3.138   3.013   1.007  1.00  0.00     0.002 A 
HETATM   15  C19 UNL     1      -1.878   3.016   0.461  1.00  0.00     0.001 A 
HETATM   16  C20 UNL     1      -1.364   1.796   0.012  1.00  0.00     0.016 A 
HETATM   17  C21 UNL     1      -2.088   0.644   0.112  1.00  0.00     0.021 A 
ENDROOT
BRANCH   5  18
HETATM   18  C3  UNL     1       0.742  -0.181  -1.269  1.00  0.00     0.084 A 
HETATM   19  C4  UNL     1       0.943   0.385  -2.521  1.00  0.00     0.034 A 
HETATM   20  C5  UNL     1       2.093   1.026  -2.887  1.00  0.00     0.003 A 
HETATM   21  C6  UNL     1       3.126   1.135  -1.993  1.00  0.00     0.015 A 
HETATM   22  C7  UNL     1       2.982   0.588  -0.726  1.00  0.00     0.011 A 
HETATM   23  C8  UNL     1       3.820   0.534   0.373  1.00  0.00     0.077 A 
HETATM   24  C10 UNL     1       1.813  -0.055  -0.376  1.00  0.00     0.073 A 
HETATM   25  C9  UNL     1       3.160  -0.135   1.371  1.00  0.00     0.118 A 
HETATM   26  C12 UNL     1       5.145   0.946   0.805  1.00  0.00     0.261 A 
HETATM   27  N3  UNL     1       1.946  -0.477   0.881  1.00  0.00    -0.348 N 
HETATM   28  C11 UNL     1       4.088  -0.163   2.502  1.00  0.00     0.276 A 
ATOM     29  H3  UNL     1       1.232  -0.987   1.401  1.00  0.00     0.166 HD
HETATM   30  O1  UNL     1       3.820  -0.706   3.616  1.00  0.00    -0.266 OA
HETATM   31  N4  UNL     1       5.291   0.496   2.150  1.00  0.00    -0.288 N 
ATOM     32  H4  UNL     1       6.108   0.625   2.747  1.00  0.00     0.172 HD
HETATM   33  O2  UNL     1       6.027   1.569   0.183  1.00  0.00    -0.267 OA
ENDBRANCH   5  18
TORSDOF 1
