REMARK  3 active torsions:
REMARK  status: ('A' for Active; 'I' for Inactive)
REMARK    1  A    between atoms: C8_12  and  N4_13 
REMARK       I    between atoms: N4_13  and  C9_15 
REMARK       I    between atoms: C9_15  and  N6_19 
REMARK    2  A    between atoms: N6_19  and  C10_21 
REMARK    3  A    between atoms: C12_25  and  C13_26 
ROOT
HETATM    1  C1  UNL     1      -4.385  -3.044   0.482  1.00  0.00     0.071 C 
HETATM    2  C2  UNL     1      -4.800  -1.658   0.151  1.00  0.00     0.041 A 
HETATM    3  N1  UNL     1      -5.946  -1.182  -0.323  1.00  0.00    -0.302 N 
ATOM      4  H1  UNL     1      -6.763  -1.752  -0.542  1.00  0.00     0.187 HD
HETATM    5  N2  UNL     1      -5.884   0.153  -0.475  1.00  0.00    -0.294 N 
HETATM    6  C3  UNL     1      -6.962   0.993  -0.972  1.00  0.00     0.178 C 
HETATM    7  C4  UNL     1      -4.655   0.606  -0.093  1.00  0.00     0.090 A 
HETATM    8  C5  UNL     1      -4.073   1.862  -0.049  1.00  0.00     0.077 A 
HETATM    9  C6  UNL     1      -4.876   2.998  -0.487  1.00  0.00     0.102 C 
HETATM   10  N3  UNL     1      -5.503   3.940  -0.836  1.00  0.00    -0.191 NA
HETATM   11  C7  UNL     1      -2.802   2.142   0.371  1.00  0.00     0.063 A 
HETATM   12  C8  UNL     1      -1.858   1.275   0.823  1.00  0.00     0.092 A 
HETATM   13  S1  UNL     1      -2.371  -0.344   0.851  1.00  0.00    -0.068 SA
HETATM   14  C19 UNL     1      -3.980  -0.548   0.300  1.00  0.00     0.060 A 
ENDROOT
BRANCH  12  15
HETATM   15  N4  UNL     1      -0.697   1.662   1.189  1.00  0.00    -0.185 N 
HETATM   16  C9  UNL     1       0.205   0.659   1.644  1.00  0.00     0.691 C 
HETATM   17  N5  UNL     1       0.861   0.729   2.744  1.00  0.00    -0.234 N 
HETATM   18  N6  UNL     1       0.363  -0.477   0.801  1.00  0.00    -0.022 N 
ATOM     19  H52 UNL     1       0.748   1.543   3.348  1.00  0.00     0.174 HD
ATOM     20  H51 UNL     1       1.507   0.010   3.070  1.00  0.00     0.174 HD
ATOM     21  H6  UNL     1      -0.437  -1.071   0.581  1.00  0.00     0.203 HD
ATOM     22  H4  UNL     1      -0.428   2.645   1.157  1.00  0.00     0.185 HD
BRANCH  18  23
HETATM   23  C10 UNL     1       1.539  -0.751   0.313  1.00  0.00     0.697 A 
HETATM   24  N7  UNL     1       1.807  -1.794  -0.493  1.00  0.00    -0.199 N 
HETATM   25  C11 UNL     1       3.122  -1.791  -0.819  1.00  0.00     0.137 A 
ATOM     26  H7  UNL     1       1.124  -2.482  -0.810  1.00  0.00     0.183 HD
HETATM   27  C12 UNL     1       3.696  -0.704  -0.194  1.00  0.00     0.075 A 
HETATM   28  N8  UNL     1       2.699  -0.104   0.480  1.00  0.00    -0.189 N 
ATOM     29  H8  UNL     1       2.812   0.737   1.046  1.00  0.00     0.184 HD
BRANCH  27  30
HETATM   30  C13 UNL     1       5.095  -0.292  -0.253  1.00  0.00    -0.007 A 
HETATM   31  C14 UNL     1       5.571   0.816   0.412  1.00  0.00     0.014 A 
HETATM   32  C15 UNL     1       6.912   1.194   0.344  1.00  0.00     0.001 A 
HETATM   33  C16 UNL     1       7.790   0.456  -0.398  1.00  0.00     0.000 A 
HETATM   34  C17 UNL     1       7.341  -0.651  -1.069  1.00  0.00     0.001 A 
HETATM   35  C18 UNL     1       6.005  -1.017  -0.993  1.00  0.00     0.014 A 
ENDBRANCH  27  30
ENDBRANCH  18  23
ENDBRANCH  12  15
TORSDOF 3
