REMARK  3 active torsions:
REMARK  status: ('A' for Active; 'I' for Inactive)
REMARK    1  A    between atoms: C4_5  and  C5_6 
REMARK       I    between atoms: C5_6  and  N2_8 
REMARK    2  A    between atoms: N2_8  and  C6_9 
REMARK    3  A    between atoms: C14_17  and  O2_18 
ROOT
HETATM    1  C1  UNL     1       3.212  -1.529  -3.889  1.00  0.00     0.060 C 
HETATM    2  C2  UNL     1       3.569  -0.845  -2.599  1.00  0.00     0.025 C 
HETATM    3  C3  UNL     1       4.968  -0.623  -2.359  1.00  0.00     0.095 C 
HETATM    4  N1  UNL     1       6.118  -0.452  -2.186  1.00  0.00    -0.192 NA
HETATM    5  C4  UNL     1       2.595  -0.508  -1.795  1.00  0.00     0.107 C 
ENDROOT
BRANCH   5   6
HETATM    6  C5  UNL     1       2.856   0.190  -0.464  1.00  0.00     0.312 C 
HETATM    7  O1  UNL     1       4.058   0.393  -0.245  1.00  0.00    -0.252 OA
HETATM    8  N2  UNL     1       1.774   0.477   0.265  1.00  0.00    -0.406 NA
BRANCH   8   9
HETATM    9  C6  UNL     1       0.645   0.781   1.032  1.00  0.00     0.171 C 
HETATM   10  C7  UNL     1      -0.233   1.725   0.260  1.00  0.00     0.044 C 
HETATM   11  C8  UNL     1      -1.667   1.754   0.619  1.00  0.00    -0.008 C 
HETATM   12  C9  UNL     1      -1.998   1.577   2.055  1.00  0.00     0.009 C 
HETATM   13  C16 UNL     1      -2.417   0.790  -0.289  1.00  0.00     0.042 C 
HETATM   14  C10 UNL     1      -2.119   0.173   2.542  1.00  0.00    -0.011 C 
HETATM   15  C11 UNL     1      -0.782  -0.525   2.660  1.00  0.00     0.012 C 
HETATM   16  C15 UNL     1      -2.978  -0.622   1.608  1.00  0.00     0.042 C 
HETATM   17  C12 UNL     1      -0.049  -0.535   1.349  1.00  0.00     0.025 C 
HETATM   18  C13 UNL     1      -0.902  -1.037   0.242  1.00  0.00     0.045 C 
HETATM   19  C14 UNL     1      -2.330  -0.619   0.251  1.00  0.00     0.059 C 
BRANCH  19  20
HETATM   20  O2  UNL     1      -3.028  -1.424  -0.646  1.00  0.00    -0.390 OA
ATOM     21  H2  UNL     1      -3.940  -1.157  -0.640  1.00  0.00     0.210 HD
ENDBRANCH  19  20
ENDBRANCH   8   9
ENDBRANCH   5   6
TORSDOF 3
