REMARK  3 active torsions:
REMARK  status: ('A' for Active; 'I' for Inactive)
REMARK    1  A    between atoms: O1_1  and  C1_3 
REMARK    2  A    between atoms: C1_3  and  C2_4 
REMARK    3  A    between atoms: N1_8  and  C6_9 
ROOT
HETATM    1  C1  UNL     1      -1.167  -0.360  -0.996  1.00  0.00     0.065 C 
HETATM    2  C11 UNL     1      -1.831  -1.614  -0.536  1.00  0.00     0.040 C 
HETATM    3  C12 UNL     1      -2.540  -1.448   0.815  1.00  0.00     0.036 C 
HETATM    4  C13 UNL     1      -3.839  -0.684   0.630  1.00  0.00     0.186 C 
HETATM    5  C14 UNL     1      -3.858   0.491   1.581  1.00  0.00     0.035 C 
HETATM    6  C15 UNL     1      -3.867   1.683   0.652  1.00  0.00     0.035 C 
HETATM    7  C16 UNL     1      -3.174   1.098  -0.576  1.00  0.00     0.189 C 
HETATM    8  C17 UNL     1      -1.710   0.880  -0.299  1.00  0.00     0.071 C 
HETATM    9  N2  UNL     1      -3.894  -0.160  -0.711  1.00  0.00    -0.067 N 
ATOM     10  H21 UNL     1      -4.831  -0.081  -1.105  1.00  0.00     0.278 HD
ATOM     11  H22 UNL     1      -3.538  -0.786  -1.434  1.00  0.00     0.278 HD
ENDROOT
BRANCH   1  12
HETATM   12  O1  UNL     1      -1.475  -0.161  -2.364  1.00  0.00    -0.389 OA
ATOM     13  H1  UNL     1      -2.423  -0.164  -2.423  1.00  0.00     0.210 HD
ENDBRANCH   1  12
BRANCH   1  14
HETATM   14  C2  UNL     1       0.318  -0.356  -0.903  1.00  0.00     0.038 C 
HETATM   15  C3  UNL     1       0.868  -1.479  -1.765  1.00  0.00     0.014 C 
HETATM   16  C4  UNL     1       2.361  -1.216  -1.864  1.00  0.00     0.045 C 
HETATM   17  C5  UNL     1       2.914  -1.263  -0.464  1.00  0.00     0.058 C 
HETATM   18  N1  UNL     1       2.272  -0.454   0.489  1.00  0.00    -0.388 N 
HETATM   19  C10 UNL     1       0.856  -0.416   0.502  1.00  0.00     0.130 C 
BRANCH  18  20
HETATM   20  C6  UNL     1       2.930   0.666   0.994  1.00  0.00     0.083 C 
HETATM   21  C7  UNL     1       4.223   0.410   1.780  1.00  0.00     0.025 C 
HETATM   22  C8  UNL     1       4.631   1.821   1.327  1.00  0.00     0.004 C 
HETATM   23  C9  UNL     1       3.754   1.534   0.096  1.00  0.00     0.025 C 
ENDBRANCH  18  20
ENDBRANCH   1  14
TORSDOF 3
