REMARK  3 active torsions:
REMARK  status: ('A' for Active; 'I' for Inactive)
REMARK    1  A    between atoms: C2_2  and  N1_4 
REMARK    2  A    between atoms: C6_7  and  C7_8 
REMARK    3  A    between atoms: C8_11  and  O3_12 
ROOT
HETATM    1  N1  UNL     1       1.998  -0.103  -0.573  1.00  0.00     0.092 N 
HETATM    2  C4  UNL     1       1.925  -1.302   0.195  1.00  0.00     0.274 C 
HETATM    3  C5  UNL     1       0.594  -1.977  -0.165  1.00  0.00     0.054 C 
HETATM    4  C6  UNL     1      -0.572  -1.173   0.392  1.00  0.00     0.081 C 
HETATM    5  C8  UNL     1      -1.681  -1.251  -0.624  1.00  0.00     0.138 C 
HETATM    6  C9  UNL     1      -2.760  -0.260  -0.446  1.00  0.00     0.041 C 
HETATM    7  C10 UNL     1      -2.339   1.116  -0.070  1.00  0.00    -0.045 C 
HETATM    8  C11 UNL     1      -3.545   1.752   0.642  1.00  0.00     0.015 C 
HETATM    9  C12 UNL     1      -2.080   2.003  -1.290  1.00  0.00     0.015 C 
HETATM   10  C13 UNL     1      -1.201   1.180   0.907  1.00  0.00     0.016 C 
HETATM   11  C14 UNL     1      -0.096   0.219   0.639  1.00  0.00     0.036 C 
HETATM   12  C15 UNL     1       0.800   0.698  -0.500  1.00  0.00     0.279 C 
ENDROOT
BRANCH   1  13
HETATM   13  C2  UNL     1       3.202   0.652  -0.377  1.00  0.00     0.215 C 
HETATM   14  C1  UNL     1       4.383  -0.154  -0.810  1.00  0.00     0.042 C 
HETATM   15  C3  UNL     1       3.389   1.189   1.002  1.00  0.00     0.042 C 
ENDBRANCH   1  13
BRANCH   4  16
HETATM   16  C7  UNL     1      -1.003  -1.847   1.644  1.00  0.00     0.185 C 
HETATM   17  O1  UNL     1      -0.960  -1.221   2.735  1.00  0.00    -0.647 OA
HETATM   18  O2  UNL     1      -1.455  -3.147   1.682  1.00  0.00    -0.647 OA
ENDBRANCH   4  16
BRANCH   5  19
HETATM   19  O3  UNL     1      -2.228  -2.536  -0.525  1.00  0.00    -0.394 OA
ATOM     20  H3  UNL     1      -2.928  -2.585  -1.166  1.00  0.00     0.210 HD
ENDBRANCH   5  19
TORSDOF 3
