REMARK  4 active torsions:
REMARK  status: ('A' for Active; 'I' for Inactive)
REMARK    1  A    between atoms: C2_2  and  C4_4 
REMARK    2  A    between atoms: C5_6  and  C7_8 
REMARK    3  A    between atoms: C11_12  and  O2_13 
REMARK    4  A    between atoms: C16_19  and  O3_20 
ROOT
HETATM    1  C4  UNL     1      -0.840   0.136  -0.036  1.00  0.00     0.097 C 
HETATM    2  O1  UNL     1       0.405   0.666   0.052  1.00  0.00    -0.366 OA
HETATM    3  C5  UNL     1       1.477   0.020  -0.448  1.00  0.00     0.065 C 
HETATM    4  C6  UNL     1       1.959   0.584  -1.791  1.00  0.00     0.046 C 
HETATM    5  C10 UNL     1       1.391  -1.461  -0.596  1.00  0.00     0.078 C 
HETATM    6  C11 UNL     1       0.046  -1.972  -0.971  1.00  0.00     0.089 C 
HETATM    7  C12 UNL     1      -0.463  -2.761   0.248  1.00  0.00     0.041 C 
HETATM    8  C13 UNL     1      -0.470  -1.862   1.458  1.00  0.00     0.010 C 
HETATM    9  C14 UNL     1      -1.341  -0.656   1.126  1.00  0.00     0.019 C 
HETATM   10  C15 UNL     1      -1.672   0.069   2.377  1.00  0.00     0.013 C 
HETATM   11  C16 UNL     1      -0.917  -0.872  -1.222  1.00  0.00     0.188 C 
ENDROOT
BRANCH   3  12
HETATM   12  C7  UNL     1       2.659   0.289   0.507  1.00  0.00     0.020 A 
HETATM   13  C8  UNL     1       2.987   1.779   0.634  1.00  0.00     0.008 A 
HETATM   14  C9  UNL     1       2.440   0.985   1.769  1.00  0.00     0.008 A 
ENDBRANCH   3  12
BRANCH   1  15
HETATM   15  C2  UNL     1      -1.809   1.260  -0.341  1.00  0.00     0.015 C 
HETATM   16  C1  UNL     1      -1.832   2.378   0.646  1.00  0.00     0.012 C 
HETATM   17  C3  UNL     1      -1.626   1.860  -1.717  1.00  0.00     0.012 C 
ENDBRANCH   1  15
BRANCH   6  18
HETATM   18  O2  UNL     1       0.129  -2.878  -2.006  1.00  0.00    -0.387 OA
ATOM     19  H2  UNL     1      -0.730  -3.204  -2.246  1.00  0.00     0.210 HD
ENDBRANCH   6  18
BRANCH  11  20
HETATM   20  O3  UNL     1      -2.198  -1.415  -1.215  1.00  0.00    -0.389 OA
ATOM     21  H3  UNL     1      -2.245  -2.029  -1.938  1.00  0.00     0.210 HD
ENDBRANCH  11  20
TORSDOF 4
