REMARK  3 active torsions:
REMARK  status: ('A' for Active; 'I' for Inactive)
REMARK    1  A    between atoms: C2_2  and  C3_3 
REMARK    2  A    between atoms: N2_6  and  N3_8 
REMARK       I    between atoms: N3_8  and  C5_10 
REMARK       I    between atoms: C5_10  and  N4_12 
REMARK    3  A    between atoms: N4_12  and  C6_14 
ROOT
HETATM    1  C3  UNL     1       4.547  -1.075  -0.686  1.00  0.00     0.105 C 
HETATM    2  C4  UNL     1       5.544  -2.036  -1.135  1.00  0.00     0.114 C 
HETATM    3  N1  UNL     1       6.325  -2.811  -1.484  1.00  0.00    -0.190 NA
HETATM    4  N2  UNL     1       3.547  -0.767  -1.426  1.00  0.00    -0.290 N 
ATOM      5  H2  UNL     1       3.433  -1.193  -2.346  1.00  0.00     0.187 HD
ENDROOT
BRANCH   1   6
HETATM    6  C2  UNL     1       4.680  -0.438   0.645  1.00  0.00     0.066 C 
HETATM    7  C1  UNL     1       5.991   0.324   0.682  1.00  0.00     0.012 C 
ENDBRANCH   1   6
BRANCH   4   8
HETATM    8  N3  UNL     1       2.618   0.158  -0.955  1.00  0.00    -0.251 N 
HETATM    9  C5  UNL     1       1.276  -0.257  -0.781  1.00  0.00     0.335 C 
HETATM   10  O1  UNL     1       0.976  -1.437  -1.056  1.00  0.00    -0.246 OA
HETATM   11  N4  UNL     1       0.322   0.709  -0.292  1.00  0.00    -0.333 N 
ATOM     12  H4  UNL     1       0.652   1.653  -0.092  1.00  0.00     0.165 HD
ATOM     13  H3  UNL     1       2.899   1.115  -0.740  1.00  0.00     0.191 HD
BRANCH  11  14
HETATM   14  C6  UNL     1      -1.066   0.414  -0.072  1.00  0.00     0.035 C 
HETATM   15  C7  UNL     1      -1.749   1.669   0.422  1.00  0.00     0.035 C 
HETATM   16  C8  UNL     1      -3.211   1.459   0.628  1.00  0.00    -0.012 C 
HETATM   17  C9  UNL     1      -3.869   1.058  -0.652  1.00  0.00     0.009 C 
HETATM   18  C13 UNL     1      -3.365   0.391   1.694  1.00  0.00     0.009 C 
HETATM   19  C10 UNL     1      -3.201  -0.208  -1.146  1.00  0.00    -0.012 C 
HETATM   20  C11 UNL     1      -3.433  -1.304  -0.141  1.00  0.00     0.009 C 
HETATM   21  C15 UNL     1      -1.750   0.055  -1.397  1.00  0.00     0.035 C 
HETATM   22  C12 UNL     1      -2.769  -0.868   1.155  1.00  0.00    -0.012 C 
HETATM   23  C14 UNL     1      -1.291  -0.749   0.868  1.00  0.00     0.035 C 
ENDBRANCH  11  14
ENDBRANCH   4   8
TORSDOF 3
