REMARK  14 active torsions:
REMARK  status: ('A' for Active; 'I' for Inactive)
REMARK    1  A    between atoms: O1_2  and  N1_3 
REMARK    2  A    between atoms: C2_5  and  C3_6 
REMARK    3  A    between atoms: C2_5  and  N2_20 
REMARK    4  A    between atoms: C4_7  and  C5_8 
REMARK    5  A    between atoms: C5_8  and  C6_9 
REMARK    6  A    between atoms: C6_9  and  O2_10 
REMARK    7  A    between atoms: O2_10  and  C7_11 
REMARK    8  A    between atoms: C7_11  and  C8_13 
REMARK    9  A    between atoms: C8_13  and  O4_15 
REMARK   10  A    between atoms: C8_13  and  C10_17 
REMARK   11  A    between atoms: C10_17  and  O5_18 
REMARK   12  A    between atoms: N2_20  and  N3_22 
REMARK   13  A    between atoms: C14_27  and  O6_28 
REMARK   14  A    between atoms: C14_27  and  C15_30 
ROOT
HETATM    1  N1  UNL     1       0.108   2.558  -0.214  1.00  0.00    -0.242 N 
ATOM      2  H1  UNL     1      -0.431   3.277  -0.697  1.00  0.00     0.196 HD
HETATM    3  C2  UNL     1      -0.383   1.373  -0.054  1.00  0.00     0.196 C 
ENDROOT
BRANCH   3   4
HETATM    4  C3  UNL     1       0.332   0.325   0.617  1.00  0.00    -0.027 C 
HETATM    5  C4  UNL     1       0.923  -0.568   1.166  1.00  0.00    -0.096 C 
BRANCH   5   6
HETATM    6  C5  UNL     1       1.639  -1.686   1.830  1.00  0.00     0.121 C 
BRANCH   6   7
HETATM    7  C6  UNL     1       2.472  -2.426   0.838  1.00  0.00     0.191 C 
BRANCH   7   8
HETATM    8  O2  UNL     1       3.448  -1.685   0.180  1.00  0.00    -0.318 OA
BRANCH   8   9
HETATM    9  C7  UNL     1       4.487  -1.090   0.852  1.00  0.00     0.295 C 
HETATM   10  O3  UNL     1       4.575  -1.212   2.095  1.00  0.00    -0.262 OA
BRANCH   9  11
HETATM   11  C8  UNL     1       5.532  -0.291   0.150  1.00  0.00     0.162 C 
HETATM   12  C9  UNL     1       6.248  -1.162  -0.850  1.00  0.00     0.059 C 
BRANCH  11  13
HETATM   13  O4  UNL     1       6.440   0.181   1.071  1.00  0.00    -0.378 OA
ATOM     14  H4  UNL     1       7.106   0.690   0.624  1.00  0.00     0.211 HD
ENDBRANCH  11  13
BRANCH  11  15
HETATM   15  C10 UNL     1       4.916   0.871  -0.604  1.00  0.00     0.212 C 
BRANCH  15  16
HETATM   16  O5  UNL     1       3.997   0.475  -1.543  1.00  0.00    -0.397 OA
ATOM     17  H5  UNL     1       3.611   1.203  -2.015  1.00  0.00     0.209 HD
ENDBRANCH  15  16
ENDBRANCH  11  15
ENDBRANCH   9  11
ENDBRANCH   8   9
ENDBRANCH   7   8
ENDBRANCH   6   7
ENDBRANCH   5   6
ENDBRANCH   3   4
BRANCH   3  18
HETATM   18  N2  UNL     1      -1.674   1.132  -0.571  1.00  0.00    -0.277 N 
ATOM     19  H2  UNL     1      -1.864   1.318  -1.556  1.00  0.00     0.189 HD
BRANCH  18  20
HETATM   20  N3  UNL     1      -2.689   0.645   0.241  1.00  0.00    -0.307 N 
HETATM   21  C11 UNL     1      -3.749   0.117  -0.226  1.00  0.00     0.007 C 
HETATM   22  C12 UNL     1      -4.071  -0.061  -1.670  1.00  0.00     0.057 C 
HETATM   23  C16 UNL     1      -4.876  -0.426   0.585  1.00  0.00     0.103 C 
HETATM   24  C13 UNL     1      -5.605  -0.050  -1.616  1.00  0.00     0.055 C 
HETATM   25  C14 UNL     1      -5.852  -0.978  -0.456  1.00  0.00     0.150 C 
ATOM     26  H3  UNL     1      -2.581   0.713   1.253  1.00  0.00     0.186 HD
BRANCH  25  27
HETATM   27  O6  UNL     1      -5.465  -2.255  -0.852  1.00  0.00    -0.378 OA
ATOM     28  H6  UNL     1      -5.621  -2.840  -0.120  1.00  0.00     0.211 HD
ENDBRANCH  25  27
BRANCH  25  29
HETATM   29  C15 UNL     1      -7.233  -0.992   0.015  1.00  0.00     0.209 C 
HETATM   30  O7  UNL     1      -7.894  -2.052   0.024  1.00  0.00    -0.646 OA
HETATM   31  O8  UNL     1      -7.816   0.175   0.455  1.00  0.00    -0.646 OA
ENDBRANCH  25  29
ENDBRANCH  18  20
ENDBRANCH   3  18
BRANCH   1  32
HETATM   32  O1  UNL     1       1.349   2.839   0.266  1.00  0.00    -0.283 OA
HETATM   33  C1  UNL     1       2.032   4.008  -0.187  1.00  0.00     0.237 C 
ENDBRANCH   1  32
TORSDOF 14
