REMARK  8 active torsions:
REMARK  status: ('A' for Active; 'I' for Inactive)
REMARK    1  A    between atoms: O1_2  and  C2_3 
REMARK    2  A    between atoms: C2_3  and  C3_4 
REMARK    3  A    between atoms: C2_3  and  C10_24 
REMARK    4  A    between atoms: C3_4  and  N1_5 
REMARK    5  A    between atoms: N1_5  and  C4_7 
REMARK    6  A    between atoms: C8_18  and  N5_19 
REMARK    7  A    between atoms: C10_24  and  O3_25 
REMARK    8  A    between atoms: C10_24  and  C11_27 
REMARK       I    between atoms: C11_27  and  N7_29 
ROOT
HETATM    1  C4  UNL     1      -2.833   0.244  -0.849  1.00  0.00     0.136 A 
HETATM    2  N2  UNL     1      -3.398   0.607  -1.991  1.00  0.00    -0.293 N 
ATOM      3  H2  UNL     1      -2.828   1.086  -2.688  1.00  0.00     0.172 HD
HETATM    4  C5  UNL     1      -4.691   0.370  -2.268  1.00  0.00     0.327 A 
HETATM    5  O2  UNL     1      -5.201   0.736  -3.383  1.00  0.00    -0.247 OA
HETATM    6  N3  UNL     1      -5.452  -0.258  -1.359  1.00  0.00    -0.292 N 
ATOM      7  H3  UNL     1      -6.436  -0.446  -1.550  1.00  0.00     0.172 HD
HETATM    8  C6  UNL     1      -4.901  -0.636  -0.193  1.00  0.00     0.158 A 
HETATM    9  C7  UNL     1      -3.575  -0.404   0.114  1.00  0.00     0.137 A 
HETATM   10  N4  UNL     1      -3.293  -0.889   1.349  1.00  0.00    -0.184 N 
ATOM     11  H4  UNL     1      -2.393  -0.855   1.827  1.00  0.00     0.184 HD
HETATM   12  C8  UNL     1      -4.428  -1.421   1.817  1.00  0.00     0.680 A 
HETATM   13  N6  UNL     1      -5.401  -1.277   0.904  1.00  0.00    -0.170 N 
HETATM   14  C9  UNL     1      -6.793  -1.723   1.027  1.00  0.00     0.177 C 
ENDROOT
BRANCH   1  15
HETATM   15  N1  UNL     1      -1.443   0.501  -0.559  1.00  0.00    -0.372 N 
ATOM     16  H1  UNL     1      -1.051   0.203   0.334  1.00  0.00     0.161 HD
BRANCH  15  17
HETATM   17  C3  UNL     1      -0.618   1.160  -1.497  1.00  0.00     0.156 C 
BRANCH  17  18
HETATM   18  C2  UNL     1       0.848   1.304  -1.140  1.00  0.00     0.176 C 
BRANCH  18  19
HETATM   19  O1  UNL     1       1.492   2.022  -2.167  1.00  0.00    -0.386 OA
HETATM   20  C1  UNL     1       1.979   3.240  -1.683  1.00  0.00     0.202 C 
ENDBRANCH  18  19
BRANCH  18  21
HETATM   21  C10 UNL     1       1.559  -0.022  -1.020  1.00  0.00     0.240 C 
BRANCH  21  22
HETATM   22  O3  UNL     1       1.063  -0.781   0.021  1.00  0.00    -0.383 OA
ATOM     23  H3  UNL     1       1.511  -1.616   0.097  1.00  0.00     0.210 HD
ENDBRANCH  21  22
BRANCH  21  24
HETATM   24  C11 UNL     1       3.004   0.106  -1.066  1.00  0.00     0.251 C 
HETATM   25  O4  UNL     1       3.486   0.693  -2.106  1.00  0.00    -0.270 OA
HETATM   26  N7  UNL     1       3.966  -0.326  -0.122  1.00  0.00    -0.346 N 
HETATM   27  C12 UNL     1       5.401  -0.078  -0.373  1.00  0.00     0.152 C 
HETATM   28  C15 UNL     1       3.678  -1.016   1.110  1.00  0.00     0.152 C 
HETATM   29  C13 UNL     1       5.986   0.446   0.915  1.00  0.00     0.187 C 
HETATM   30  O5  UNL     1       5.814  -0.423   1.970  1.00  0.00    -0.388 OA
HETATM   31  C14 UNL     1       5.018  -1.500   1.675  1.00  0.00     0.187 C 
ENDBRANCH  21  24
ENDBRANCH  18  21
ENDBRANCH  17  18
ENDBRANCH  15  17
ENDBRANCH   1  15
BRANCH  12  32
HETATM   32  N5  UNL     1      -4.596  -1.994   2.970  1.00  0.00    -0.234 N 
ATOM     33  H52 UNL     1      -3.856  -2.103   3.664  1.00  0.00     0.174 HD
ATOM     34  H51 UNL     1      -5.461  -2.400   3.327  1.00  0.00     0.174 HD
ENDBRANCH  12  32
TORSDOF 8
