REMARK  6 active torsions:
REMARK  status: ('A' for Active; 'I' for Inactive)
REMARK    1  A    between atoms: N1_1  and  C1_5 
REMARK    2  A    between atoms: C1_5  and  C2_6 
REMARK    3  A    between atoms: C2_6  and  N2_7 
REMARK    4  A    between atoms: N3_10  and  C5_11 
REMARK    5  A    between atoms: C9_23  and  N8_24 
REMARK    6  A    between atoms: N8_24  and  C10_26 
ROOT
HETATM    1  C5  UNL     1      -0.204   1.077   0.218  1.00  0.00     0.682 A 
HETATM    2  N4  UNL     1      -0.323   2.410  -0.046  1.00  0.00    -0.176 N 
ATOM      3  H4  UNL     1       0.522   2.978  -0.106  1.00  0.00     0.185 HD
HETATM    4  C6  UNL     1      -1.511   2.997  -0.229  1.00  0.00     0.161 A 
HETATM    5  N5  UNL     1      -1.642   4.384  -0.503  1.00  0.00    -0.080 NA
HETATM    6  C7  UNL     1      -2.649   2.210  -0.143  1.00  0.00     0.109 A 
HETATM    7  N6  UNL     1      -3.844   2.764  -0.324  1.00  0.00    -0.304 N 
ATOM      8  H6  UNL     1      -3.922   3.762  -0.520  1.00  0.00     0.171 HD
HETATM    9  C8  UNL     1      -4.941   2.009  -0.248  1.00  0.00     0.326 A 
HETATM   10  O1  UNL     1      -6.081   2.517  -0.417  1.00  0.00    -0.247 OA
HETATM   11  N7  UNL     1      -4.887   0.676   0.012  1.00  0.00    -0.292 N 
ATOM     12  H7  UNL     1      -5.749   0.133   0.062  1.00  0.00     0.172 HD
HETATM   13  C9  UNL     1      -3.707   0.074   0.202  1.00  0.00     0.155 A 
HETATM   14  C11 UNL     1      -2.548   0.869   0.122  1.00  0.00     0.124 A 
HETATM   15  N13 UNL     1      -1.332   0.328   0.297  1.00  0.00    -0.186 N 
ATOM     16  H13 UNL     1      -1.254  -0.670   0.494  1.00  0.00     0.184 HD
ENDROOT
BRANCH   1  17
HETATM   17  N3  UNL     1       1.073   0.506   0.395  1.00  0.00    -0.214 N 
HETATM   18  C4  UNL     1       1.234  -0.859   0.840  1.00  0.00     0.171 C 
HETATM   19  C3  UNL     1       2.737  -1.130   0.799  1.00  0.00     0.293 C 
HETATM   20  N2  UNL     1       3.332  -0.809  -0.457  1.00  0.00     0.093 N 
HETATM   21  C13 UNL     1       2.991   0.488  -0.985  1.00  0.00     0.293 C 
HETATM   22  C12 UNL     1       2.273   1.260   0.127  1.00  0.00     0.171 C 
BRANCH  20  23
HETATM   23  C2  UNL     1       4.781  -0.871  -0.416  1.00  0.00     0.299 C 
BRANCH  23  24
HETATM   24  C1  UNL     1       5.304  -2.272  -0.236  1.00  0.00     0.259 C 
BRANCH  24  25
HETATM   25  N1  UNL     1       6.767  -2.159  -0.216  1.00  0.00    -0.078 N 
ATOM     26  H13 UNL     1       7.149  -1.684  -1.034  1.00  0.00     0.274 HD
ATOM     27  H12 UNL     1       7.115  -1.502   0.483  1.00  0.00     0.274 HD
ATOM     28  H11 UNL     1       7.121  -3.108  -0.094  1.00  0.00     0.274 HD
ENDBRANCH  24  25
ENDBRANCH  23  24
ENDBRANCH  20  23
ENDBRANCH   1  17
BRANCH  13  29
HETATM   29  N8  UNL     1      -3.607  -1.145   0.430  1.00  0.00    -0.172 N 
ATOM     30  H8  UNL     1      -2.642  -1.453   0.553  1.00  0.00     0.186 HD
BRANCH  29  31
HETATM   31  C10 UNL     1      -4.531  -2.178   0.553  1.00  0.00     0.712 A 
HETATM   32  N9  UNL     1      -4.148  -3.492   0.688  1.00  0.00    -0.118 N 
HETATM   33  N10 UNL     1      -5.204  -4.270   0.781  1.00  0.00    -0.212 N 
ATOM     34  H9  UNL     1      -3.181  -3.817   0.713  1.00  0.00     0.207 HD
HETATM   35  N11 UNL     1      -6.271  -3.496   0.710  1.00  0.00     0.009 NA
ATOM     36  H10 UNL     1      -5.200  -5.284   0.888  1.00  0.00     0.206 HD
HETATM   37  N12 UNL     1      -5.871  -2.245   0.573  1.00  0.00    -0.113 N 
ATOM     38  H12 UNL     1      -6.494  -1.441   0.493  1.00  0.00     0.203 HD
ENDBRANCH  29  31
ENDBRANCH  13  29
TORSDOF 6
