REMARK  7 active torsions:
REMARK  status: ('A' for Active; 'I' for Inactive)
REMARK    1  A    between atoms: C3_4  and  C4_5 
REMARK    2  A    between atoms: N2_6  and  N3_8 
REMARK    3  A    between atoms: N5_17  and  C7_18 
REMARK    4  A    between atoms: C7_18  and  O3_19 
REMARK    5  A    between atoms: C7_18  and  C8_21 
REMARK    6  A    between atoms: C8_21  and  N6_22 
REMARK    7  A    between atoms: C12_31  and  N9_32 
ROOT
HETATM    1  N1  UNL     1       1.872   0.205   2.759  1.00  0.00    -0.190 NA
HETATM    2  C1  UNL     1       2.111   0.032   1.639  1.00  0.00     0.119 C 
HETATM    3  C2  UNL     1       2.390  -0.177   0.228  1.00  0.00     0.139 A 
HETATM    4  C3  UNL     1       3.667  -0.026  -0.256  1.00  0.00     0.087 A 
HETATM    5  C5  UNL     1       3.945  -0.222  -1.600  1.00  0.00     0.264 A 
HETATM    6  O1  UNL     1       5.111  -0.076  -1.996  1.00  0.00    -0.267 OA
HETATM    7  N4  UNL     1       2.908  -0.558  -2.362  1.00  0.00    -0.274 N 
ATOM      8  H4  UNL     1       3.069  -0.711  -3.357  1.00  0.00     0.173 HD
HETATM    9  C6  UNL     1       1.633  -0.709  -1.879  1.00  0.00     0.332 A 
HETATM   10  O2  UNL     1       0.811  -1.030  -2.782  1.00  0.00    -0.246 OA
HETATM   11  N5  UNL     1       1.346  -0.525  -0.592  1.00  0.00    -0.260 N 
ENDROOT
BRANCH   4  12
HETATM   12  C4  UNL     1       4.733   0.345   0.667  1.00  0.00     0.126 C 
HETATM   13  N2  UNL     1       5.943   0.493   0.236  1.00  0.00    -0.317 N 
ATOM     14  H2  UNL     1       6.135   0.346  -0.755  1.00  0.00     0.185 HD
BRANCH  13  15
HETATM   15  N3  UNL     1       6.987   0.845   1.077  1.00  0.00    -0.345 N 
ATOM     16  H32 UNL     1       6.777   0.988   2.065  1.00  0.00     0.176 HD
ATOM     17  H31 UNL     1       7.942   0.962   0.737  1.00  0.00     0.176 HD
ENDBRANCH  13  15
ENDBRANCH   4  12
BRANCH  11  18
HETATM   18  C7  UNL     1       0.040  -0.676  -0.076  1.00  0.00     0.250 C 
BRANCH  18  19
HETATM   19  O3  UNL     1      -0.464   0.461   0.548  1.00  0.00    -0.374 OA
ATOM     20  H3  UNL     1      -1.342   0.359   0.895  1.00  0.00     0.212 HD
ENDBRANCH  18  19
BRANCH  18  21
HETATM   21  C8  UNL     1      -1.029  -1.163  -1.006  1.00  0.00     0.204 C 
BRANCH  21  22
HETATM   22  N6  UNL     1      -2.264  -1.218  -0.183  1.00  0.00    -0.271 N 
HETATM   23  N7  UNL     1      -2.668  -2.231   0.556  1.00  0.00    -0.307 N 
HETATM   24  C9  UNL     1      -3.821  -1.934   1.178  1.00  0.00     0.128 A 
ATOM     25  H7  UNL     1      -2.173  -3.119   0.644  1.00  0.00     0.186 HD
HETATM   26  C10 UNL     1      -4.175  -0.662   0.817  1.00  0.00     0.095 A 
HETATM   27  C11 UNL     1      -5.249   0.156   1.140  1.00  0.00     0.275 A 
HETATM   28  C13 UNL     1      -3.165  -0.229  -0.051  1.00  0.00     0.155 A 
HETATM   29  O4  UNL     1      -6.142  -0.245   1.916  1.00  0.00    -0.267 OA
HETATM   30  N8  UNL     1      -5.317   1.379   0.609  1.00  0.00    -0.155 N 
HETATM   31  C12 UNL     1      -4.348   1.810  -0.232  1.00  0.00     0.680 A 
ATOM     32  H8  UNL     1      -6.101   1.990   0.838  1.00  0.00     0.187 HD
HETATM   33  N10 UNL     1      -3.299   1.008  -0.545  1.00  0.00    -0.174 N 
ATOM     34  H10 UNL     1      -2.585   1.362  -1.182  1.00  0.00     0.186 HD
BRANCH  31  35
HETATM   35  N9  UNL     1      -4.421   2.991  -0.740  1.00  0.00    -0.234 N 
ATOM     36  H92 UNL     1      -5.209   3.594  -0.505  1.00  0.00     0.174 HD
ATOM     37  H91 UNL     1      -3.691   3.316  -1.374  1.00  0.00     0.174 HD
ENDBRANCH  31  35
ENDBRANCH  21  22
ENDBRANCH  18  21
ENDBRANCH  11  18
TORSDOF 7
