REMARK  9 active torsions:
REMARK  status: ('A' for Active; 'I' for Inactive)
REMARK    1  A    between atoms: N1_1  and  S1_4 
REMARK    2  A    between atoms: S1_4  and  N2_5 
REMARK    3  A    between atoms: S1_4  and  C1_9 
REMARK    4  A    between atoms: C4_12  and  N3_13 
REMARK    5  A    between atoms: C5_18  and  C6_19 
REMARK    6  A    between atoms: N7_21  and  O2_23 
REMARK    7  A    between atoms: C7_25  and  O3_26 
REMARK    8  A    between atoms: C8_30  and  S2_31 
REMARK    9  A    between atoms: S2_31  and  N9_32 
ROOT
HETATM    1  C1  UNL     1      -2.446  -0.325  -0.187  1.00  0.00     0.098 A 
HETATM    2  C2  UNL     1      -1.559  -1.160  -0.832  1.00  0.00     0.030 A 
HETATM    3  C3  UNL     1      -0.208  -0.926  -0.835  1.00  0.00     0.052 A 
HETATM    4  C4  UNL     1       0.243   0.189  -0.162  1.00  0.00     0.132 A 
HETATM    5  N8  UNL     1      -0.616   0.988   0.455  1.00  0.00    -0.329 N 
ATOM      6  H8  UNL     1      -0.246   1.804   0.942  1.00  0.00     0.168 HD
HETATM    7  C8  UNL     1      -1.962   0.785   0.478  1.00  0.00     0.172 A 
ENDROOT
BRANCH   4   8
HETATM    8  N3  UNL     1       1.659   0.419  -0.175  1.00  0.00    -0.201 N 
HETATM    9  N4  UNL     1       2.174   1.585  -0.457  1.00  0.00    -0.232 N 
HETATM   10  N5  UNL     1       3.470   1.516  -0.397  1.00  0.00    -0.279 N 
ATOM     11  H4  UNL     1       1.640   2.423  -0.689  1.00  0.00     0.209 HD
HETATM   12  C5  UNL     1       3.837   0.238  -0.058  1.00  0.00     0.145 A 
ATOM     13  H5  UNL     1       4.112   2.289  -0.574  1.00  0.00     0.189 HD
HETATM   14  C7  UNL     1       2.650  -0.432   0.075  1.00  0.00     0.197 A 
BRANCH  12  15
HETATM   15  C6  UNL     1       5.199  -0.222   0.104  1.00  0.00     0.168 C 
HETATM   16  N6  UNL     1       6.222   0.799  -0.124  1.00  0.00    -0.078 NA
HETATM   17  N7  UNL     1       5.604  -1.363   0.410  1.00  0.00    -0.253 N 
ATOM     18  H7  UNL     1       6.623  -1.396   0.452  1.00  0.00     0.195 HD
BRANCH  17  19
HETATM   19  O2  UNL     1       5.074  -2.539   0.694  1.00  0.00    -0.288 OA
ATOM     20  H2  UNL     1       5.382  -3.407   0.927  1.00  0.00     0.244 HD
ENDBRANCH  17  19
ENDBRANCH  12  15
BRANCH  14  21
HETATM   21  O3  UNL     1       2.455  -1.776   0.413  1.00  0.00    -0.343 OA
ATOM     22  H3  UNL     1       3.163  -2.384   0.592  1.00  0.00     0.219 HD
ENDBRANCH  14  21
ENDBRANCH   4   8
BRANCH   7  23
HETATM   23  S2  UNL     1      -2.942   1.931   1.309  1.00  0.00     0.274 S 
HETATM   24  O4  UNL     1      -4.060   1.419   2.104  1.00  0.00    -0.199 OA
HETATM   25  O5  UNL     1      -2.045   2.678   2.302  1.00  0.00    -0.199 OA
BRANCH  23  26
HETATM   26  N9  UNL     1      -3.435   3.196   0.207  1.00  0.00    -0.323 N 
ATOM     27  H92 UNL     1      -3.173   3.235  -0.778  1.00  0.00     0.169 HD
ATOM     28  H91 UNL     1      -4.016   3.875   0.699  1.00  0.00     0.169 HD
ENDBRANCH  23  26
ENDBRANCH   7  23
BRANCH   1  29
HETATM   29  S1  UNL     1      -4.154  -0.664  -0.190  1.00  0.00     0.133 S 
HETATM   30  O1  UNL     1      -4.640  -1.165   1.167  1.00  0.00    -0.224 OA
BRANCH  29  31
HETATM   31  N1  UNL     1      -5.029   0.438  -0.780  1.00  0.00    -0.341 N 
ATOM     32  H12 UNL     1      -5.629   0.356  -1.601  1.00  0.00     0.167 HD
ATOM     33  H11 UNL     1      -4.887   1.257  -0.189  1.00  0.00     0.167 HD
ENDBRANCH  29  31
BRANCH  29  34
HETATM   34  N2  UNL     1      -4.398  -2.075  -1.207  1.00  0.00    -0.341 N 
ATOM     35  H22 UNL     1      -5.006  -2.131  -2.024  1.00  0.00     0.167 HD
ATOM     36  H21 UNL     1      -3.813  -2.812  -0.813  1.00  0.00     0.167 HD
ENDBRANCH  29  34
ENDBRANCH   1  29
TORSDOF 9
