REMARK  3 active torsions:
REMARK  status: ('A' for Active; 'I' for Inactive)
REMARK    1  A    between atoms: N5_15  and  N6_16 
REMARK    2  A    between atoms: N6_16  and  C6_18 
REMARK    3  A    between atoms: C6_18  and  C7_19 
ROOT
HETATM    1  N6  UNL     1       1.025   0.750  -0.158  1.00  0.00    -0.320 N 
ATOM      2  H6  UNL     1       0.376   1.524  -0.302  1.00  0.00     0.181 HD
ENDROOT
BRANCH   1   3
HETATM    3  N5  UNL     1       2.404   0.918  -0.356  1.00  0.00    -0.237 N 
HETATM    4  C3  UNL     1       3.370   0.002  -0.208  1.00  0.00     0.159 A 
HETATM    5  N3  UNL     1       3.342  -1.284   0.153  1.00  0.00    -0.335 N 
HETATM    6  C4  UNL     1       4.589   0.587  -0.504  1.00  0.00     0.123 A 
HETATM    7  C2  UNL     1       4.479  -1.990   0.225  1.00  0.00     0.183 A 
ATOM      8  H3  UNL     1       2.452  -1.730   0.375  1.00  0.00     0.168 HD
HETATM    9  N2  UNL     1       5.676  -1.456  -0.055  1.00  0.00    -0.337 N 
HETATM   10  C1  UNL     1       5.728  -0.172  -0.418  1.00  0.00     0.131 A 
ATOM     11  H2  UNL     1       6.526  -2.016   0.008  1.00  0.00     0.168 HD
HETATM   12  N1  UNL     1       6.858   0.389  -0.699  1.00  0.00    -0.383 N 
ATOM     13  H12 UNL     1       7.705  -0.176  -0.635  1.00  0.00     0.157 HD
ATOM     14  H11 UNL     1       6.898   1.370  -0.976  1.00  0.00     0.157 HD
HETATM   15  N4  UNL     1       4.318   1.870  -0.831  1.00  0.00    -0.345 N 
HETATM   16  C5  UNL     1       3.006   2.082  -0.746  1.00  0.00     0.209 A 
ATOM     17  H4  UNL     1       5.011   2.568  -1.101  1.00  0.00     0.167 HD
ENDBRANCH   1   3
BRANCH   1  18
HETATM   18  C6  UNL     1       0.551  -0.550   0.255  1.00  0.00     0.216 C 
BRANCH  18  19
HETATM   19  C7  UNL     1      -0.927  -0.557   0.398  1.00  0.00     0.105 A 
HETATM   20  N7  UNL     1      -1.494  -1.371   1.337  1.00  0.00    -0.310 N 
HETATM   21  C8  UNL     1      -2.822  -1.417   1.503  1.00  0.00     0.274 A 
ATOM     22  H7  UNL     1      -0.895  -1.954   1.922  1.00  0.00     0.170 HD
HETATM   23  O1  UNL     1      -3.386  -2.151   2.354  1.00  0.00    -0.266 OA
HETATM   24  C9  UNL     1      -3.630  -0.635   0.719  1.00  0.00     0.198 A 
HETATM   25  C10 UNL     1      -3.081   0.192  -0.233  1.00  0.00     0.174 A 
HETATM   26  S1  UNL     1      -5.387  -0.657   0.894  1.00  0.00     0.270 S 
HETATM   27  N8  UNL     1      -1.722   0.207  -0.368  1.00  0.00    -0.324 N 
HETATM   28  O2  UNL     1      -3.921   0.962  -1.001  1.00  0.00    -0.314 OA
ATOM     29  H8  UNL     1      -1.300   0.815  -1.070  1.00  0.00     0.169 HD
HETATM   30  C11 UNL     1      -5.116   1.564  -0.485  1.00  0.00     0.311 C 
HETATM   31  N9  UNL     1      -6.029   0.473  -0.212  1.00  0.00    -0.293 N 
ATOM     32  H9  UNL     1      -6.954   0.389  -0.634  1.00  0.00     0.174 HD
HETATM   33  O3  UNL     1      -5.779  -0.365   2.313  1.00  0.00    -0.200 OA
HETATM   34  O4  UNL     1      -5.872  -2.031   0.523  1.00  0.00    -0.200 OA
ENDBRANCH  18  19
ENDBRANCH   1  18
TORSDOF 3
