REMARK  13 active torsions:
REMARK  status: ('A' for Active; 'I' for Inactive)
REMARK    1  A    between atoms: N1_2  and  C2_3 
REMARK    2  A    between atoms: N1_2  and  C9_10 
REMARK    3  A    between atoms: C2_3  and  C3_4 
REMARK    4  A    between atoms: C11_12  and  N2_13 
REMARK    5  A    between atoms: N2_13  and  C12_15 
REMARK    6  A    between atoms: C12_15  and  C13_16 
REMARK    7  A    between atoms: C13_16  and  C14_17 
REMARK    8  A    between atoms: C14_17  and  C15_18 
REMARK    9  A    between atoms: C15_18  and  C16_19 
REMARK   10  A    between atoms: C16_19  and  N3_20 
REMARK       I    between atoms: C17_22  and  N5_24 
REMARK   11  A    between atoms: N5_24  and  C18_26 
REMARK   12  A    between atoms: C18_26  and  C19_27 
REMARK   13  A    between atoms: C19_27  and  N6_28 
ROOT
HETATM    1  N2  UNL     1       0.421  -1.913   1.341  1.00  0.00    -0.376 N 
ATOM      2  H2  UNL     1       0.453  -1.438   2.243  1.00  0.00     0.161 HD
ENDROOT
BRANCH   1   3
HETATM    3  C11 UNL     1       1.355  -1.708   0.493  1.00  0.00     0.105 A 
HETATM    4  C10 UNL     1       2.392  -0.828   0.847  1.00  0.00     0.096 A 
HETATM    5  C9  UNL     1       3.437  -0.537   0.004  1.00  0.00     0.107 A 
HETATM    6  N8  UNL     1       3.415  -1.150  -1.196  1.00  0.00    -0.339 N 
HETATM    7  C20 UNL     1       2.423  -1.997  -1.542  1.00  0.00     0.183 A 
ATOM      8  H8  UNL     1       4.168  -0.969  -1.860  1.00  0.00     0.168 HD
HETATM    9  N7  UNL     1       1.404  -2.281  -0.721  1.00  0.00    -0.339 N 
ATOM     10  H7  UNL     1       0.671  -2.927  -1.015  1.00  0.00     0.168 HD
BRANCH   5  11
HETATM   11  N1  UNL     1       4.454   0.354   0.415  1.00  0.00    -0.367 N 
HETATM   12  C1  UNL     1       4.179   1.781   0.230  1.00  0.00     0.151 C 
BRANCH  11  13
HETATM   13  C2  UNL     1       5.662  -0.168   0.966  1.00  0.00     0.162 C 
BRANCH  13  14
HETATM   14  C3  UNL     1       6.885   0.140   0.214  1.00  0.00    -0.040 A 
HETATM   15  C4  UNL     1       6.867   0.687  -1.048  1.00  0.00     0.009 A 
HETATM   16  C5  UNL     1       8.054   0.969  -1.721  1.00  0.00     0.001 A 
HETATM   17  C6  UNL     1       9.278   0.714  -1.158  1.00  0.00     0.000 A 
HETATM   18  C7  UNL     1       9.305   0.166   0.107  1.00  0.00     0.001 A 
HETATM   19  C8  UNL     1       8.117  -0.114   0.776  1.00  0.00     0.009 A 
ENDBRANCH  13  14
ENDBRANCH  11  13
ENDBRANCH   5  11
ENDBRANCH   1   3
BRANCH   1  20
HETATM   20  C12 UNL     1      -0.673  -2.799   1.051  1.00  0.00     0.121 C 
BRANCH  20  21
HETATM   21  C13 UNL     1      -1.555  -2.363  -0.073  1.00  0.00     0.020 C 
BRANCH  21  22
HETATM   22  C14 UNL     1      -2.156  -1.016   0.197  1.00  0.00     0.003 C 
BRANCH  22  23
HETATM   23  C15 UNL     1      -3.000  -1.071   1.444  1.00  0.00     0.020 C 
BRANCH  23  24
HETATM   24  C16 UNL     1      -3.621   0.297   1.719  1.00  0.00     0.122 C 
BRANCH  24  25
HETATM   25  N3  UNL     1      -4.436   0.713   0.623  1.00  0.00    -0.365 N 
HETATM   26  C17 UNL     1      -5.694   0.875   0.594  1.00  0.00     0.184 C 
HETATM   27  N4  UNL     1      -6.495   0.639   1.744  1.00  0.00    -0.064 NA
HETATM   28  N5  UNL     1      -6.297   1.306  -0.629  1.00  0.00    -0.363 N 
ATOM     29  H5  UNL     1      -5.722   1.685  -1.382  1.00  0.00     0.162 HD
ATOM     30  H3  UNL     1      -3.943   0.905  -0.249  1.00  0.00     0.162 HD
BRANCH  28  31
HETATM   31  C18 UNL     1      -7.722   1.200  -0.787  1.00  0.00     0.149 C 
BRANCH  31  32
HETATM   32  C19 UNL     1      -8.135   1.718  -2.148  1.00  0.00     0.249 C 
BRANCH  32  33
HETATM   33  N6  UNL     1      -9.577   1.591  -2.259  1.00  0.00    -0.078 N 
ATOM     34  H63 UNL     1      -9.904   0.641  -2.083  1.00  0.00     0.274 HD
ATOM     35  H62 UNL     1     -10.073   2.050  -1.495  1.00  0.00     0.274 HD
ATOM     36  H61 UNL     1      -9.855   1.940  -3.176  1.00  0.00     0.274 HD
ENDBRANCH  32  33
ENDBRANCH  31  32
ENDBRANCH  28  31
ENDBRANCH  24  25
ENDBRANCH  23  24
ENDBRANCH  22  23
ENDBRANCH  21  22
ENDBRANCH  20  21
ENDBRANCH   1  20
TORSDOF 13
