REMARK  12 active torsions:
REMARK  status: ('A' for Active; 'I' for Inactive)
REMARK    1  A    between atoms: O1_2  and  C2_3 
REMARK    2  A    between atoms: C2_3  and  C3_4 
REMARK    3  A    between atoms: C3_4  and  O2_5 
REMARK    4  A    between atoms: O2_5  and  C4_6 
REMARK    5  A    between atoms: C4_6  and  C5_7 
REMARK    6  A    between atoms: C5_7  and  C6_8 
REMARK    7  A    between atoms: C6_8  and  O3_9 
REMARK    8  A    between atoms: O3_9  and  C7_10 
REMARK    9  A    between atoms: C9_12  and  N1_13 
REMARK   10  A    between atoms: C12_18  and  C13_19 
REMARK   11  A    between atoms: C13_19  and  C14_20 
REMARK   12  A    between atoms: C14_20  and  N2_21 
REMARK       I    between atoms: N2_21  and  C16_23 
ROOT
HETATM    1  C7  UNL     1       1.339   1.153  -1.193  1.00  0.00     0.144 A 
HETATM    2  C8  UNL     1       1.203   0.041  -0.423  1.00  0.00     0.086 A 
HETATM    3  C9  UNL     1      -0.046  -0.393   0.059  1.00  0.00     0.042 A 
HETATM    4  C10 UNL     1      -1.158   0.324  -0.258  1.00  0.00     0.018 A 
HETATM    5  C11 UNL     1      -2.403  -0.050   0.183  1.00  0.00     0.023 A 
HETATM    6  C12 UNL     1      -3.530   0.663  -0.129  1.00  0.00    -0.056 A 
HETATM    7  C17 UNL     1      -3.385   1.786  -0.910  1.00  0.00     0.009 A 
HETATM    8  C18 UNL     1      -2.145   2.179  -1.363  1.00  0.00     0.031 A 
HETATM    9  C19 UNL     1      -0.984   1.463  -1.055  1.00  0.00     0.046 A 
HETATM   10  N5  UNL     1       0.207   1.863  -1.503  1.00  0.00    -0.336 N 
ATOM     11  H5  UNL     1       0.276   2.702  -2.079  1.00  0.00     0.168 HD
ENDROOT
BRANCH   1  12
HETATM   12  O3  UNL     1       2.546   1.622  -1.684  1.00  0.00    -0.336 OA
BRANCH  12  13
HETATM   13  C6  UNL     1       3.762   1.060  -1.439  1.00  0.00     0.179 C 
BRANCH  13  14
HETATM   14  C5  UNL     1       4.150   1.176   0.012  1.00  0.00     0.053 C 
BRANCH  14  15
HETATM   15  C4  UNL     1       5.514   0.481   0.139  1.00  0.00     0.169 C 
BRANCH  15  16
HETATM   16  O2  UNL     1       5.459  -0.818  -0.222  1.00  0.00    -0.389 OA
BRANCH  16  17
HETATM   17  C3  UNL     1       6.560  -1.599  -0.191  1.00  0.00     0.193 C 
BRANCH  17  18
HETATM   18  C2  UNL     1       7.266  -1.777   1.104  1.00  0.00     0.193 C 
BRANCH  18  19
HETATM   19  O1  UNL     1       7.792  -0.673   1.701  1.00  0.00    -0.394 OA
HETATM   20  C1  UNL     1       8.840  -0.079   1.017  1.00  0.00     0.201 C 
ENDBRANCH  18  19
ENDBRANCH  17  18
ENDBRANCH  16  17
ENDBRANCH  15  16
ENDBRANCH  14  15
ENDBRANCH  13  14
ENDBRANCH  12  13
ENDBRANCH   1  12
BRANCH   3  21
HETATM   21  N1  UNL     1      -0.116  -1.436   0.774  1.00  0.00    -0.398 N 
ATOM     22  H12 UNL     1       0.718  -1.974   1.012  1.00  0.00     0.156 HD
ATOM     23  H11 UNL     1      -1.021  -1.751   1.123  1.00  0.00     0.156 HD
ENDBRANCH   3  21
BRANCH   6  24
HETATM   24  C13 UNL     1      -4.843   0.276   0.334  1.00  0.00     0.058 C 
BRANCH  24  25
HETATM   25  C14 UNL     1      -5.612  -0.653  -0.548  1.00  0.00     0.129 C 
BRANCH  25  26
HETATM   26  N2  UNL     1      -6.888  -0.917   0.088  1.00  0.00    -0.360 N 
HETATM   27  C15 UNL     1      -6.889  -1.687   1.316  1.00  0.00     0.152 C 
HETATM   28  C16 UNL     1      -8.084  -0.437  -0.476  1.00  0.00     0.183 C 
HETATM   29  N3  UNL     1      -8.822  -1.237  -1.167  1.00  0.00    -0.374 N 
HETATM   30  N4  UNL     1      -8.501   0.907  -0.306  1.00  0.00    -0.064 NA
ATOM     31  H32 UNL     1      -8.522  -2.204  -1.289  1.00  0.00     0.158 HD
ATOM     32  H31 UNL     1      -9.689  -0.889  -1.576  1.00  0.00     0.158 HD
ENDBRANCH  25  26
ENDBRANCH  24  25
ENDBRANCH   6  24
TORSDOF 12
