REMARK  11 active torsions:
REMARK  status: ('A' for Active; 'I' for Inactive)
REMARK    1  A    between atoms: C2_2  and  O1_3 
REMARK    2  A    between atoms: O1_3  and  N1_4 
REMARK       I    between atoms: N1_4  and  C4_6 
REMARK    3  A    between atoms: C4_6  and  C5_8 
REMARK    4  A    between atoms: C5_8  and  C6_9 
REMARK       I    between atoms: N2_11  and  C8_12 
REMARK    5  A    between atoms: C8_12  and  O4_14 
REMARK    6  A    between atoms: O4_14  and  C9_15 
REMARK       I    between atoms: N3_21  and  C15_22 
REMARK    7  A    between atoms: C15_22  and  C16_24 
REMARK    8  A    between atoms: C16_24  and  S1_25 
REMARK    9  A    between atoms: S1_25  and  C17_26 
REMARK   10  A    between atoms: C19_31  and  C20_32 
REMARK   11  A    between atoms: C22_34  and  C23_35 
ROOT
HETATM    1  C6  UNL     1      -2.106  -0.256   1.150  1.00  0.00     0.114 C 
HETATM    2  C7  UNL     1      -3.521  -0.686   1.228  1.00  0.00     0.153 C 
HETATM    3  N2  UNL     1      -3.909  -1.469   0.088  1.00  0.00    -0.325 N 
HETATM    4  C8  UNL     1      -4.979  -2.434   0.306  1.00  0.00     0.363 C 
HETATM    5  O3  UNL     1      -5.529  -2.563   1.435  1.00  0.00    -0.238 OA
HETATM    6  C13 UNL     1      -3.365  -1.398  -1.238  1.00  0.00     0.148 C 
HETATM    7  C14 UNL     1      -2.329  -0.300  -1.297  1.00  0.00     0.146 C 
HETATM    8  N3  UNL     1      -1.493  -0.501  -0.137  1.00  0.00    -0.343 N 
HETATM    9  C15 UNL     1      -0.153  -0.930  -0.233  1.00  0.00     0.230 C 
HETATM   10  O5  UNL     1       0.577  -1.127   0.768  1.00  0.00    -0.273 OA
ENDROOT
BRANCH   1  11
HETATM   11  C5  UNL     1      -1.804   1.142   1.591  1.00  0.00     0.132 C 
BRANCH  11  12
HETATM   12  C4  UNL     1      -2.461   2.229   0.870  1.00  0.00     0.244 C 
HETATM   13  N1  UNL     1      -1.712   3.128   0.087  1.00  0.00    -0.231 N 
HETATM   14  C3  UNL     1      -0.284   3.015  -0.036  1.00  0.00     0.189 C 
HETATM   15  O2  UNL     1      -3.699   2.380   0.935  1.00  0.00    -0.271 OA
BRANCH  13  16
HETATM   16  O1  UNL     1      -2.341   4.122  -0.567  1.00  0.00    -0.276 OA
BRANCH  16  17
HETATM   17  C2  UNL     1      -2.088   5.375  -0.059  1.00  0.00     0.197 C 
HETATM   18  C1  UNL     1      -2.849   6.396  -0.877  1.00  0.00     0.036 C 
ENDBRANCH  16  17
ENDBRANCH  13  16
ENDBRANCH  11  12
ENDBRANCH   1  11
BRANCH   9  19
HETATM   19  C16 UNL     1       0.495  -1.182  -1.565  1.00  0.00     0.185 C 
BRANCH  19  20
HETATM   20  S1  UNL     1       2.177  -1.767  -1.430  1.00  0.00    -0.085 SA
BRANCH  20  21
HETATM   21  C17 UNL     1       3.270  -0.519  -0.735  1.00  0.00     0.147 A 
HETATM   22  N4  UNL     1       2.820   0.690  -0.371  1.00  0.00    -0.303 N 
HETATM   23  C18 UNL     1       3.659   1.599   0.145  1.00  0.00     0.255 A 
ATOM     24  H4  UNL     1       1.833   0.920  -0.487  1.00  0.00     0.171 HD
HETATM   25  O6  UNL     1       3.295   2.764   0.510  1.00  0.00    -0.268 OA
HETATM   26  C19 UNL     1       5.031   1.354   0.334  1.00  0.00     0.033 A 
HETATM   27  C22 UNL     1       5.476   0.114  -0.044  1.00  0.00     0.030 A 
HETATM   28  N5  UNL     1       4.577  -0.775  -0.564  1.00  0.00    -0.339 N 
ATOM     29  H5  UNL     1       4.922  -1.694  -0.841  1.00  0.00     0.168 HD
BRANCH  26  30
HETATM   30  C20 UNL     1       5.916   2.347   0.910  1.00  0.00     0.042 C 
HETATM   31  C21 UNL     1       5.766   2.516   2.412  1.00  0.00     0.010 C 
ENDBRANCH  26  30
BRANCH  27  32
HETATM   32  C23 UNL     1       6.874  -0.268   0.065  1.00  0.00    -0.008 C 
HETATM   33  C24 UNL     1       6.983  -1.712  -0.425  1.00  0.00     0.021 C 
HETATM   34  C25 UNL     1       7.845   0.469  -0.805  1.00  0.00     0.021 C 
HETATM   35  C26 UNL     1       7.402  -0.334   1.498  1.00  0.00     0.021 C 
ENDBRANCH  27  32
ENDBRANCH  20  21
ENDBRANCH  19  20
ENDBRANCH   9  19
BRANCH   4  36
HETATM   36  O4  UNL     1      -5.425  -3.238  -0.715  1.00  0.00    -0.294 OA
BRANCH  36  37
HETATM   37  C9  UNL     1      -6.447  -4.201  -0.640  1.00  0.00     0.061 C 
HETATM   38  C10 UNL     1      -6.164  -5.273   0.385  1.00  0.00     0.046 C 
HETATM   39  C11 UNL     1      -7.748  -3.512  -0.324  1.00  0.00     0.046 C 
HETATM   40  C12 UNL     1      -6.565  -4.821  -2.037  1.00  0.00     0.046 C 
ENDBRANCH  36  37
ENDBRANCH   4  36
TORSDOF 11
