REMARK  10 active torsions:
REMARK  status: ('A' for Active; 'I' for Inactive)
REMARK    1  A    between atoms: C2_2  and  C3_3 
REMARK    2  A    between atoms: C3_3  and  C4_4 
REMARK    3  A    between atoms: C5_6  and  C6_7 
REMARK    4  A    between atoms: C6_7  and  C8_9 
REMARK    5  A    between atoms: C21_24  and  N2_25 
REMARK    6  A    between atoms: C25_30  and  O4_32 
REMARK    7  A    between atoms: O4_32  and  C27_33 
REMARK       I    between atoms: C27_33  and  N3_35 
REMARK    8  A    between atoms: N3_35  and  C29_37 
REMARK    9  A    between atoms: C29_37  and  C30_38 
REMARK   10  A    between atoms: C30_38  and  O6_39 
ROOT
HETATM    1  C4  UNL     1       1.481  -0.241   0.238  1.00  0.00     0.198 C 
HETATM    2  O1  UNL     1       0.382   0.619   0.534  1.00  0.00    -0.365 OA
HETATM    3  C5  UNL     1      -0.821  -0.081   0.605  1.00  0.00     0.200 C 
HETATM    4  C20 UNL     1      -0.787  -1.167  -0.385  1.00  0.00     0.185 C 
HETATM    5  O2  UNL     1      -1.351  -1.155  -1.414  1.00  0.00    -0.292 OA
HETATM    6  C21 UNL     1       0.058  -2.337   0.028  1.00  0.00     0.224 C 
HETATM    7  C24 UNL     1       1.183  -1.573   0.766  1.00  0.00     0.185 C 
HETATM    8  O3  UNL     1       1.674  -2.141   1.671  1.00  0.00    -0.292 OA
ENDROOT
BRANCH   3   9
HETATM    9  C6  UNL     1      -1.954   0.884   0.464  1.00  0.00     0.055 C 
HETATM   10  C7  UNL     1      -2.000   1.635  -0.821  1.00  0.00     0.015 C 
BRANCH   9  11
HETATM   11  C8  UNL     1      -3.293   0.375   0.918  1.00  0.00     0.252 C 
HETATM   12  C9  UNL     1      -4.287   1.477   0.698  1.00  0.00     0.013 C 
HETATM   13  C10 UNL     1      -5.559   1.240   0.432  1.00  0.00    -0.067 C 
HETATM   14  C11 UNL     1      -5.972  -0.192   0.359  1.00  0.00     0.047 C 
HETATM   15  C17 UNL     1      -6.733   2.095   0.172  1.00  0.00    -0.024 C 
HETATM   16  C12 UNL     1      -4.876  -0.875  -0.431  1.00  0.00     0.282 C 
HETATM   17  C14 UNL     1      -7.310  -0.215  -0.310  1.00  0.00    -0.008 C 
HETATM   18  N1  UNL     1      -3.686  -0.867   0.353  1.00  0.00     0.093 N 
HETATM   19  C13 UNL     1      -3.708  -1.965   1.276  1.00  0.00     0.310 C 
HETATM   20  C15 UNL     1      -7.324  -0.984  -1.608  1.00  0.00     0.011 C 
HETATM   21  C16 UNL     1      -7.791   1.194  -0.436  1.00  0.00     0.018 C 
HETATM   22  C18 UNL     1      -6.438   3.174  -0.855  1.00  0.00     0.019 C 
HETATM   23  C19 UNL     1      -7.222   2.703   1.471  1.00  0.00     0.019 C 
ENDBRANCH   9  11
ENDBRANCH   3   9
BRANCH   1  24
HETATM   24  C3  UNL     1       2.683   0.438   0.772  1.00  0.00     0.076 C 
BRANCH  24  25
HETATM   25  C2  UNL     1       4.000  -0.150   0.562  1.00  0.00    -0.051 C 
HETATM   26  C1  UNL     1       4.540  -1.406   1.103  1.00  0.00     0.046 C 
HETATM   27  C25 UNL     1       4.859   0.561  -0.212  1.00  0.00     0.056 C 
HETATM   28  C26 UNL     1       4.408   1.852  -0.814  1.00  0.00     0.077 C 
BRANCH  27  29
HETATM   29  O4  UNL     1       6.151   0.159  -0.481  1.00  0.00    -0.266 OA
BRANCH  29  30
HETATM   30  C27 UNL     1       7.176   0.615   0.340  1.00  0.00     0.367 C 
HETATM   31  O5  UNL     1       6.873   1.376   1.292  1.00  0.00    -0.238 OA
HETATM   32  N3  UNL     1       8.531   0.260   0.147  1.00  0.00    -0.330 N 
HETATM   33  C28 UNL     1       8.893  -0.613  -0.947  1.00  0.00     0.155 C 
BRANCH  32  34
HETATM   34  C29 UNL     1       9.568   0.755   1.028  1.00  0.00     0.153 C 
BRANCH  34  35
HETATM   35  C30 UNL     1      10.148   2.068   0.543  1.00  0.00     0.184 C 
BRANCH  35  36
HETATM   36  O6  UNL     1      11.127   2.453   1.452  1.00  0.00    -0.399 OA
ATOM     37  H6  UNL     1      11.491   3.276   1.148  1.00  0.00     0.209 HD
ENDBRANCH  35  36
ENDBRANCH  34  35
ENDBRANCH  32  34
ENDBRANCH  29  30
ENDBRANCH  27  29
ENDBRANCH  24  25
ENDBRANCH   1  24
BRANCH   6  38
HETATM   38  N2  UNL     1       0.528  -3.162  -0.973  1.00  0.00    -0.404 N 
HETATM   39  C22 UNL     1       1.396  -2.675  -1.953  1.00  0.00     0.144 C 
HETATM   40  C23 UNL     1       0.159  -4.518  -1.005  1.00  0.00     0.144 C 
ENDBRANCH   6  38
TORSDOF 10
