REMARK  12 active torsions:
REMARK  status: ('A' for Active; 'I' for Inactive)
REMARK    1  A    between atoms: C2_2  and  C3_3 
REMARK    2  A    between atoms: C3_3  and  C4_4 
REMARK    3  A    between atoms: C4_4  and  O2_6 
REMARK    4  A    between atoms: C10_13  and  O4_14 
REMARK    5  A    between atoms: O4_14  and  C11_15 
REMARK    6  A    between atoms: C13_18  and  C14_19 
REMARK    7  A    between atoms: C14_19  and  C15_20 
REMARK    8  A    between atoms: C14_19  and  C27_34 
REMARK    9  A    between atoms: C14_19  and  C28_37 
REMARK   10  A    between atoms: C16_21  and  C17_22 
REMARK   11  A    between atoms: C27_34  and  O8_35 
REMARK   12  A    between atoms: C29_38  and  O9_39 
ROOT
HETATM    1  C14 UNL     1      -0.519   1.268   0.338  1.00  0.00     0.027 C 
ENDROOT
BRANCH   1   2
HETATM    2  C13 UNL     1      -1.594   0.301   0.421  1.00  0.00     0.078 C 
HETATM    3  C3  UNL     1      -2.903   0.488   1.092  1.00  0.00     0.156 C 
HETATM    4  O3  UNL     1      -3.925  -0.336   0.641  1.00  0.00    -0.359 OA
HETATM    5  C6  UNL     1      -4.145  -0.689  -0.595  1.00  0.00     0.058 C 
HETATM    6  C7  UNL     1      -4.165  -2.233  -0.623  1.00  0.00     0.045 C 
HETATM    7  C8  UNL     1      -5.519  -0.314  -1.076  1.00  0.00     0.045 C 
HETATM    8  C9  UNL     1      -3.067  -0.273  -1.569  1.00  0.00     0.070 C 
HETATM    9  C10 UNL     1      -1.699  -0.463  -0.889  1.00  0.00     0.143 C 
BRANCH   3  10
HETATM   10  C2  UNL     1      -2.910   0.046   2.581  1.00  0.00     0.045 C 
HETATM   11  C1  UNL     1      -2.374  -1.295   2.844  1.00  0.00     0.009 C 
ENDBRANCH   3  10
BRANCH   3  12
HETATM   12  C4  UNL     1      -3.539   1.811   1.164  1.00  0.00     0.294 C 
HETATM   13  O1  UNL     1      -4.662   2.061   0.559  1.00  0.00    -0.262 OA
BRANCH  12  14
HETATM   14  O2  UNL     1      -3.143   2.949   1.820  1.00  0.00    -0.324 OA
HETATM   15  C5  UNL     1      -3.808   4.184   1.852  1.00  0.00     0.213 C 
ENDBRANCH  12  14
ENDBRANCH   3  12
BRANCH   9  16
HETATM   16  O4  UNL     1      -1.456  -1.847  -0.817  1.00  0.00    -0.316 OA
BRANCH  16  17
HETATM   17  C11 UNL     1      -0.698  -2.617  -1.639  1.00  0.00     0.255 C 
HETATM   18  C12 UNL     1      -0.503  -4.091  -1.444  1.00  0.00     0.126 C 
HETATM   19  O5  UNL     1      -0.169  -1.996  -2.584  1.00  0.00    -0.266 OA
ENDBRANCH  16  17
ENDBRANCH   9  16
ENDBRANCH   1   2
BRANCH   1  20
HETATM   20  C15 UNL     1       0.668   0.708  -0.372  1.00  0.00    -0.014 C 
HETATM   21  C16 UNL     1       1.614  -0.087   0.079  1.00  0.00    -0.024 C 
BRANCH  21  22
HETATM   22  C17 UNL     1       2.718  -0.504  -0.836  1.00  0.00     0.017 C 
HETATM   23  C18 UNL     1       3.018  -1.962  -0.849  1.00  0.00     0.010 C 
HETATM   24  C19 UNL     1       4.478  -2.024  -1.339  1.00  0.00     0.013 C 
HETATM   25  C20 UNL     1       5.011  -0.609  -1.249  1.00  0.00     0.065 C 
HETATM   26  C21 UNL     1       6.416  -0.553  -0.831  1.00  0.00     0.138 C 
HETATM   27  C25 UNL     1       4.062   0.022  -0.257  1.00  0.00    -0.020 C 
HETATM   28  O6  UNL     1       7.294  -0.153  -1.581  1.00  0.00    -0.297 OA
HETATM   29  C22 UNL     1       6.756  -1.002   0.545  1.00  0.00     0.156 C 
HETATM   30  C23 UNL     1       5.572  -1.058   1.399  1.00  0.00     0.134 C 
HETATM   31  O7  UNL     1       5.665  -1.685   2.466  1.00  0.00    -0.298 OA
HETATM   32  C24 UNL     1       4.248  -0.445   1.134  1.00  0.00     0.089 C 
HETATM   33  C26 UNL     1       4.159   1.521  -0.397  1.00  0.00     0.017 C 
ENDBRANCH  21  22
ENDBRANCH   1  20
BRANCH   1  34
HETATM   34  C27 UNL     1       0.052   1.684   1.726  1.00  0.00     0.182 C 
BRANCH  34  35
HETATM   35  O8  UNL     1       0.539   0.701   2.494  1.00  0.00    -0.399 OA
ATOM     36  H8  UNL     1       0.887   0.955   3.341  1.00  0.00     0.209 HD
ENDBRANCH  34  35
ENDBRANCH   1  34
BRANCH   1  37
HETATM   37  C28 UNL     1      -0.687   2.630  -0.237  1.00  0.00     0.013 C 
HETATM   38  C29 UNL     1      -1.132   2.945  -1.577  1.00  0.00     0.128 C 
BRANCH  38  39
HETATM   39  O9  UNL     1      -0.397   2.506  -2.667  1.00  0.00    -0.373 OA
ATOM     40  H9  UNL     1      -0.689   2.713  -3.547  1.00  0.00     0.216 HD
ENDBRANCH  38  39
ENDBRANCH   1  37
TORSDOF 12
