REMARK  11 active torsions:
REMARK  status: ('A' for Active; 'I' for Inactive)
REMARK    1  A    between atoms: C2_2  and  C4_4 
REMARK    2  A    between atoms: C7_7  and  N1_8 
REMARK    3  A    between atoms: N1_8  and  C9_10 
REMARK    4  A    between atoms: C9_10  and  S2_12 
REMARK    5  A    between atoms: S2_12  and  C10_13 
REMARK    6  A    between atoms: C11_14  and  C12_15 
REMARK    7  A    between atoms: C12_15  and  O1_16 
REMARK    8  A    between atoms: O1_16  and  C13_17 
REMARK    9  A    between atoms: C13_17  and  C14_19 
REMARK   10  A    between atoms: C14_19  and  N2_20 
REMARK   11  A    between atoms: N2_20  and  S3_22 
ROOT
HETATM    1  C10 UNL     1      -1.130  -0.995   0.027  1.00  0.00     0.119 C 
HETATM    2  C11 UNL     1      -2.393  -0.222   0.485  1.00  0.00     0.166 C 
HETATM    3  O4  UNL     1      -3.297  -1.215   0.733  1.00  0.00    -0.350 OA
HETATM    4  C16 UNL     1      -3.075  -2.300  -0.058  1.00  0.00     0.294 C 
HETATM    5  O5  UNL     1      -3.164  -3.537   0.577  1.00  0.00    -0.324 OA
HETATM    6  C17 UNL     1      -2.122  -4.280   0.005  1.00  0.00     0.160 C 
HETATM    7  C18 UNL     1      -2.276  -4.524  -1.459  1.00  0.00     0.078 C 
HETATM    8  C19 UNL     1      -1.760  -5.508   0.778  1.00  0.00     0.078 C 
HETATM    9  O6  UNL     1      -1.080  -3.329   0.131  1.00  0.00    -0.344 OA
HETATM   10  C20 UNL     1      -1.670  -2.257  -0.536  1.00  0.00     0.197 C 
ENDROOT
BRANCH   1  11
HETATM   11  S2  UNL     1      -0.208  -0.112  -1.168  1.00  0.00    -0.090 SA
BRANCH  11  12
HETATM   12  C9  UNL     1       1.457   0.242  -0.887  1.00  0.00     0.141 C 
HETATM   13  S1  UNL     1       2.179   1.360  -1.962  1.00  0.00    -0.052 SA
BRANCH  12  14
HETATM   14  N1  UNL     1       2.360  -0.214   0.085  1.00  0.00    -0.337 N 
HETATM   15  C8  UNL     1       2.012  -1.145   1.111  1.00  0.00     0.158 C 
BRANCH  14  16
HETATM   16  C7  UNL     1       3.709   0.271   0.001  1.00  0.00     0.035 A 
HETATM   17  C6  UNL     1       4.243   1.171   0.857  1.00  0.00     0.030 A 
HETATM   18  C5  UNL     1       5.571   1.610   0.693  1.00  0.00     0.010 A 
HETATM   19  C4  UNL     1       6.316   1.116  -0.345  1.00  0.00    -0.055 A 
HETATM   20  C22 UNL     1       5.782   0.191  -1.231  1.00  0.00     0.010 A 
HETATM   21  C21 UNL     1       4.491  -0.213  -1.042  1.00  0.00     0.030 A 
BRANCH  19  22
HETATM   22  C2  UNL     1       7.705   1.551  -0.565  1.00  0.00     0.010 C 
HETATM   23  C1  UNL     1       7.833   3.056  -0.625  1.00  0.00     0.015 C 
HETATM   24  C3  UNL     1       8.569   1.006   0.554  1.00  0.00     0.015 C 
ENDBRANCH  19  22
ENDBRANCH  14  16
ENDBRANCH  12  14
ENDBRANCH  11  12
ENDBRANCH   1  11
BRANCH   2  25
HETATM   25  C12 UNL     1      -2.728   0.797  -0.544  1.00  0.00     0.212 C 
BRANCH  25  26
HETATM   26  O1  UNL     1      -3.823   1.585  -0.351  1.00  0.00    -0.318 OA
BRANCH  26  27
HETATM   27  C13 UNL     1      -5.132   1.315  -0.248  1.00  0.00     0.277 C 
HETATM   28  O2  UNL     1      -5.541   0.154  -0.319  1.00  0.00    -0.263 OA
BRANCH  27  29
HETATM   29  C14 UNL     1      -6.178   2.396  -0.050  1.00  0.00     0.240 C 
BRANCH  29  30
HETATM   30  N2  UNL     1      -7.481   1.806   0.013  1.00  0.00    -0.332 N 
ATOM     31  H2  UNL     1      -7.679   0.806  -0.034  1.00  0.00     0.170 HD
BRANCH  30  32
HETATM   32  S3  UNL     1      -8.681   3.067   0.184  1.00  0.00     0.106 S 
HETATM   33  C15 UNL     1      -7.900   4.689   0.182  1.00  0.00     0.152 C 
HETATM   34  O3  UNL     1      -9.450   2.835   1.454  1.00  0.00    -0.236 OA
ENDBRANCH  30  32
ENDBRANCH  29  30
ENDBRANCH  27  29
ENDBRANCH  26  27
ENDBRANCH  25  26
ENDBRANCH   2  25
TORSDOF 11
