REMARK  10 active torsions:
REMARK  status: ('A' for Active; 'I' for Inactive)
REMARK    1  A    between atoms: N1_2  and  O1_3 
REMARK    2  A    between atoms: N1_2  and  C2_5 
REMARK    3  A    between atoms: C2_5  and  C3_6 
REMARK    4  A    between atoms: C3_6  and  C4_7 
REMARK    5  A    between atoms: C5_8  and  C7_10 
REMARK    6  A    between atoms: C7_10  and  C8_11 
REMARK    7  A    between atoms: C8_11  and  C9_12 
REMARK    8  A    between atoms: C10_13  and  C12_15 
REMARK    9  A    between atoms: C12_15  and  C13_16 
REMARK   10  A    between atoms: C22_31  and  O7_32 
ROOT
HETATM    1  C2  UNL     1      -0.810  -2.833  -1.196  1.00  0.00     0.225 C 
HETATM    2  O3  UNL     1      -0.678  -2.765   0.173  1.00  0.00    -0.320 OA
HETATM    3  C14 UNL     1      -1.767  -2.162   0.731  1.00  0.00     0.278 C 
HETATM    4  O4  UNL     1      -1.512  -0.857   1.171  1.00  0.00    -0.344 OA
HETATM    5  C15 UNL     1      -2.776  -0.350   1.294  1.00  0.00     0.116 C 
HETATM    6  C16 UNL     1      -3.617  -0.992   2.353  1.00  0.00     0.052 C 
HETATM    7  C17 UNL     1      -2.857   1.137   1.417  1.00  0.00     0.196 C 
HETATM    8  O5  UNL     1      -1.829   1.722   0.707  1.00  0.00    -0.345 OA
HETATM    9  C18 UNL     1      -2.318   2.877   0.133  1.00  0.00     0.158 C 
HETATM   10  C19 UNL     1      -1.549   3.113  -1.156  1.00  0.00     0.078 C 
HETATM   11  C20 UNL     1      -2.172   4.096   0.988  1.00  0.00     0.078 C 
HETATM   12  O6  UNL     1      -3.668   2.671  -0.118  1.00  0.00    -0.343 OA
HETATM   13  C21 UNL     1      -4.084   1.710   0.834  1.00  0.00     0.212 C 
HETATM   14  C22 UNL     1      -5.061   0.818   0.175  1.00  0.00     0.291 C 
HETATM   15  O8  UNL     1      -4.695  -0.505   0.033  1.00  0.00    -0.349 OA
HETATM   16  C24 UNL     1      -3.346  -0.639  -0.107  1.00  0.00     0.177 C 
HETATM   17  C25 UNL     1      -2.843  -2.014  -0.333  1.00  0.00     0.148 C 
HETATM   18  C26 UNL     1      -2.027  -2.063  -1.555  1.00  0.00     0.196 C 
HETATM   19  O9  UNL     1      -2.244  -1.596  -2.652  1.00  0.00    -0.292 OA
ENDROOT
BRANCH   1  20
HETATM   20  N1  UNL     1      -0.996  -4.174  -1.684  1.00  0.00    -0.238 N 
HETATM   21  C1  UNL     1      -1.006  -5.149  -0.864  1.00  0.00     0.153 C 
BRANCH  20  22
HETATM   22  O1  UNL     1      -1.162  -4.391  -3.013  1.00  0.00    -0.285 OA
ATOM     23  H1  UNL     1      -1.155  -3.664  -3.624  1.00  0.00     0.245 HD
ENDBRANCH  20  22
ENDBRANCH   1  20
BRANCH   1  24
HETATM   24  C3  UNL     1       0.429  -2.184  -1.793  1.00  0.00     0.099 C 
BRANCH  24  25
HETATM   25  C4  UNL     1       1.632  -2.951  -1.455  1.00  0.00    -0.019 C 
HETATM   26  C5  UNL     1       2.680  -2.567  -0.784  1.00  0.00    -0.087 C 
HETATM   27  C6  UNL     1       3.816  -3.509  -0.543  1.00  0.00     0.043 C 
BRANCH  26  28
HETATM   28  C7  UNL     1       2.831  -1.209  -0.217  1.00  0.00     0.037 C 
BRANCH  28  29
HETATM   29  C8  UNL     1       4.041  -0.490  -0.776  1.00  0.00     0.031 C 
BRANCH  29  30
HETATM   30  C9  UNL     1       4.153   0.881  -0.171  1.00  0.00    -0.024 C 
HETATM   31  C10 UNL     1       5.235   1.196   0.522  1.00  0.00    -0.079 C 
HETATM   32  C11 UNL     1       6.341   0.222   0.716  1.00  0.00     0.043 C 
BRANCH  31  33
HETATM   33  C12 UNL     1       5.355   2.544   1.124  1.00  0.00     0.133 C 
BRANCH  33  34
HETATM   34  C13 UNL     1       6.547   3.265   0.597  1.00  0.00     0.235 C 
HETATM   35  N2  UNL     1       6.819   4.559   1.052  1.00  0.00    -0.062 NA
HETATM   36  O2  UNL     1       7.333   2.748  -0.255  1.00  0.00    -0.277 OA
ENDBRANCH  33  34
ENDBRANCH  31  33
ENDBRANCH  29  30
ENDBRANCH  28  29
ENDBRANCH  26  28
ENDBRANCH  24  25
ENDBRANCH   1  24
BRANCH  14  37
HETATM   37  O7  UNL     1      -5.405   1.266  -1.095  1.00  0.00    -0.363 OA
HETATM   38  C23 UNL     1      -6.769   1.528  -1.105  1.00  0.00     0.204 C 
ENDBRANCH  14  37
TORSDOF 10
