REMARK  11 active torsions:
REMARK  status: ('A' for Active; 'I' for Inactive)
REMARK    1  A    between atoms: C2_2  and  O2_4 
REMARK    2  A    between atoms: O2_4  and  C3_5 
REMARK    3  A    between atoms: C9_11  and  C10_12 
REMARK    4  A    between atoms: C10_12  and  S1_13 
REMARK    5  A    between atoms: S1_13  and  C11_14 
REMARK    6  A    between atoms: C15_19  and  O4_20 
REMARK    7  A    between atoms: C16_23  and  C17_24 
REMARK    8  A    between atoms: C17_24  and  C18_25 
REMARK    9  A    between atoms: C18_25  and  C20_27 
REMARK   10  A    between atoms: C20_27  and  C21_29 
REMARK   11  A    between atoms: C21_29  and  C22_30 
REMARK       I    between atoms: C22_30  and  N1_32 
ROOT
HETATM    1  C3  UNL     1      -0.864   0.951   1.230  1.00  0.00     0.192 C 
HETATM    2  C4  UNL     1      -1.786   0.597   0.165  1.00  0.00    -0.014 C 
HETATM    3  C5  UNL     1      -2.897  -0.055   0.419  1.00  0.00     0.056 C 
HETATM    4  C6  UNL     1      -3.288  -0.474   1.789  1.00  0.00     0.091 C 
HETATM    5  C7  UNL     1      -4.169  -1.685   1.789  1.00  0.00    -0.022 C 
HETATM    6  C8  UNL     1      -4.995  -1.964   0.813  1.00  0.00     0.002 C 
HETATM    7  C9  UNL     1      -5.044  -1.021  -0.340  1.00  0.00     0.160 C 
HETATM    8  O3  UNL     1      -3.806  -0.411  -0.582  1.00  0.00    -0.345 OA
HETATM    9  C14 UNL     1      -1.541   0.936  -1.284  1.00  0.00     0.100 C 
HETATM   10  C15 UNL     1      -0.074   0.863  -1.613  1.00  0.00     0.261 C 
HETATM   11  O5  UNL     1       0.715   0.505  -0.550  1.00  0.00    -0.353 OA
HETATM   12  C16 UNL     1       0.535   1.173   0.606  1.00  0.00     0.159 C 
ENDROOT
BRANCH  12  13
HETATM   13  C17 UNL     1       1.564   1.085   1.662  1.00  0.00     0.046 C 
BRANCH  13  14
HETATM   14  C18 UNL     1       2.982   1.259   1.262  1.00  0.00     0.054 C 
HETATM   15  C19 UNL     1       3.295   2.578   0.606  1.00  0.00     0.018 C 
BRANCH  14  16
HETATM   16  C20 UNL     1       3.594   0.103   0.566  1.00  0.00     0.139 C 
HETATM   17  O6  UNL     1       2.942  -0.904   0.424  1.00  0.00    -0.297 OA
BRANCH  16  18
HETATM   18  C21 UNL     1       4.974   0.186   0.061  1.00  0.00     0.181 C 
BRANCH  18  19
HETATM   19  C22 UNL     1       5.445  -1.032  -0.636  1.00  0.00     0.226 C 
HETATM   20  O7  UNL     1       4.641  -2.000  -0.717  1.00  0.00    -0.273 OA
HETATM   21  N1  UNL     1       6.741  -1.130  -1.198  1.00  0.00    -0.348 N 
HETATM   22  C23 UNL     1       7.137  -2.338  -1.866  1.00  0.00     0.152 C 
HETATM   23  C26 UNL     1       7.687  -0.051  -1.122  1.00  0.00     0.152 C 
HETATM   24  C24 UNL     1       8.575  -2.623  -1.491  1.00  0.00     0.187 C 
HETATM   25  O8  UNL     1       8.904  -1.956  -0.306  1.00  0.00    -0.388 OA
HETATM   26  C25 UNL     1       8.978  -0.576  -0.577  1.00  0.00     0.187 C 
ENDBRANCH  18  19
ENDBRANCH  16  18
ENDBRANCH  14  16
ENDBRANCH  13  14
ENDBRANCH  12  13
BRANCH   1  27
HETATM   27  O2  UNL     1      -1.173   2.082   1.963  1.00  0.00    -0.309 OA
BRANCH  27  28
HETATM   28  C2  UNL     1      -1.203   2.184   3.328  1.00  0.00     0.255 C 
HETATM   29  C1  UNL     1      -1.542   3.416   4.076  1.00  0.00     0.126 C 
HETATM   30  O1  UNL     1      -0.923   1.160   3.987  1.00  0.00    -0.266 OA
ENDBRANCH  27  28
ENDBRANCH   1  27
BRANCH  10  31
HETATM   31  O4  UNL     1       0.184   0.028  -2.696  1.00  0.00    -0.371 OA
ATOM     32  H4  UNL     1       1.110  -0.018  -2.904  1.00  0.00     0.212 HD
ENDBRANCH  10  31
BRANCH   7  33
HETATM   33  C10 UNL     1      -6.056   0.059  -0.099  1.00  0.00     0.110 C 
BRANCH  33  34
HETATM   34  S1  UNL     1      -7.727  -0.533   0.127  1.00  0.00    -0.162 SA
BRANCH  34  35
HETATM   35  C11 UNL     1      -8.466  -1.261  -1.328  1.00  0.00     0.039 C 
HETATM   36  C12 UNL     1      -7.794  -2.543  -1.734  1.00  0.00     0.021 C 
HETATM   37  C13 UNL     1      -8.565  -0.287  -2.484  1.00  0.00     0.021 C 
ENDBRANCH  34  35
ENDBRANCH  33  34
ENDBRANCH   7  33
TORSDOF 11
