REMARK  2 active torsions:
REMARK  status: ('A' for Active; 'I' for Inactive)
REMARK       I    between atoms: C2_2  and  N1_4 
REMARK    1  A    between atoms: N1_4  and  C3_6 
REMARK    2  A    between atoms: C3_6  and  C4_7 
REMARK       I    between atoms: C4_7  and  N2_9 
ROOT
HETATM    1  C3  UNL     1      -0.371  -0.457   0.346  1.00  0.00     0.123 C 
HETATM    2  C6  UNL     1      -0.456  -1.624  -0.581  1.00  0.00     0.052 C 
HETATM    3  C7  UNL     1      -1.260  -2.708   0.064  1.00  0.00     0.077 C 
HETATM    4  S1  UNL     1      -0.840  -2.508   1.839  1.00  0.00    -0.166 SA
HETATM    5  C8  UNL     1       0.142  -0.964   1.677  1.00  0.00     0.115 C 
ENDROOT
BRANCH   1   6
HETATM    6  N1  UNL     1      -1.584   0.259   0.540  1.00  0.00    -0.343 N 
HETATM    7  C2  UNL     1      -2.355   0.923  -0.442  1.00  0.00     0.214 C 
HETATM    8  C1  UNL     1      -3.611   1.651  -0.142  1.00  0.00     0.117 C 
HETATM    9  O1  UNL     1      -1.966   0.901  -1.631  1.00  0.00    -0.274 OA
ATOM     10  H1  UNL     1      -1.938   0.298   1.496  1.00  0.00     0.163 HD
ENDBRANCH   1   6
BRANCH   1  11
HETATM   11  C4  UNL     1       0.674   0.456  -0.163  1.00  0.00     0.253 C 
HETATM   12  O2  UNL     1       0.423   1.662  -0.323  1.00  0.00    -0.270 OA
HETATM   13  N2  UNL     1       1.961  -0.055  -0.466  1.00  0.00    -0.301 N 
HETATM   14  C5  UNL     1       3.016   0.687  -0.498  1.00  0.00     0.203 C 
ATOM     15  H2  UNL     1       2.057  -1.050  -0.667  1.00  0.00     0.171 HD
HETATM   16  N3  UNL     1       4.282   0.119  -0.808  1.00  0.00    -0.066 NA
HETATM   17  N4  UNL     1       2.956   2.081  -0.229  1.00  0.00    -0.066 NA
ENDBRANCH   1  11
TORSDOF 2
