REMARK  3 active torsions:
REMARK  status: ('A' for Active; 'I' for Inactive)
REMARK    1  A    between atoms: C3_5  and  N2_6 
REMARK    2  A    between atoms: C3_5  and  C6_16 
REMARK    3  A    between atoms: N2_6  and  N3_8 
REMARK       I    between atoms: N3_8  and  C4_10 
ROOT
HETATM    1  C1  UNL     1       1.445   3.912  -0.429  1.00  0.00     0.123 C 
HETATM    2  C2  UNL     1       0.540   3.086  -0.482  1.00  0.00    -0.074 C 
HETATM    3  N1  UNL     1      -0.506   2.164  -0.546  1.00  0.00    -0.314 N 
ATOM      4  H1  UNL     1      -1.463   2.498  -0.655  1.00  0.00     0.176 HD
HETATM    5  C3  UNL     1      -0.284   0.912  -0.470  1.00  0.00     0.107 C 
ENDROOT
BRANCH   5   6
HETATM    6  N2  UNL     1      -1.380   0.022  -0.540  1.00  0.00    -0.286 N 
ATOM      7  H2  UNL     1      -1.199  -0.958  -0.758  1.00  0.00     0.188 HD
BRANCH   6   8
HETATM    8  N3  UNL     1      -2.705   0.428  -0.323  1.00  0.00    -0.272 N 
HETATM    9  C4  UNL     1      -3.718  -0.427   0.165  1.00  0.00     0.216 C 
HETATM   10  N4  UNL     1      -4.829   0.079   0.888  1.00  0.00    -0.061 NA
HETATM   11  N5  UNL     1      -3.636  -1.682  -0.046  1.00  0.00    -0.266 N 
HETATM   12  C5  UNL     1      -4.613  -2.576   0.415  1.00  0.00     0.184 C 
ATOM     13  H5  UNL     1      -2.837  -2.046  -0.565  1.00  0.00     0.180 HD
HETATM   14  N6  UNL     1      -5.421  -3.311   0.813  1.00  0.00    -0.172 NA
ATOM     15  H3  UNL     1      -2.951   1.396  -0.529  1.00  0.00     0.189 HD
ENDBRANCH   6   8
ENDBRANCH   5   6
BRANCH   5  16
HETATM   16  C6  UNL     1       1.095   0.437  -0.312  1.00  0.00     0.055 C 
HETATM   17  C7  UNL     1       1.549  -0.460  -1.439  1.00  0.00     0.012 C 
HETATM   18  C8  UNL     1       2.708  -1.284  -0.906  1.00  0.00     0.001 C 
HETATM   19  C9  UNL     1       3.426  -0.517   0.184  1.00  0.00     0.000 C 
HETATM   20  C10 UNL     1       2.596  -0.363   1.429  1.00  0.00     0.001 C 
HETATM   21  C11 UNL     1       1.129  -0.393   0.980  1.00  0.00     0.012 C 
ENDBRANCH   5  16
TORSDOF 3
