REMARK  2 active torsions:
REMARK  status: ('A' for Active; 'I' for Inactive)
REMARK    1  A    between atoms: N1_1  and  C1_5 
REMARK    2  A    between atoms: C1_5  and  C2_6 
REMARK       I    between atoms: C2_6  and  N2_8 
ROOT
HETATM    1  C2  UNL     1      -2.577  -0.058   0.100  1.00  0.00     0.249 C 
HETATM    2  O1  UNL     1      -3.472  -0.754   0.666  1.00  0.00    -0.271 OA
HETATM    3  N2  UNL     1      -1.399  -0.627  -0.447  1.00  0.00    -0.327 N 
HETATM    4  C3  UNL     1      -1.344  -2.032  -0.292  1.00  0.00     0.068 C 
HETATM    5  C4  UNL     1      -0.615  -2.705   0.824  1.00  0.00     0.056 C 
HETATM    6  C5  UNL     1       0.842  -2.162   1.021  1.00  0.00     0.088 C 
HETATM    7  C6  UNL     1       0.894  -0.934   0.340  1.00  0.00    -0.140 C 
HETATM    8  C7  UNL     1       0.916   0.280  -0.380  1.00  0.00     0.180 C 
HETATM    9  C8  UNL     1      -0.513   0.391  -1.047  1.00  0.00     0.184 C 
HETATM   10  N3  UNL     1       1.058   1.506   0.398  1.00  0.00    -0.373 N 
ATOM     11  H3  UNL     1       0.262   1.934   0.872  1.00  0.00     0.160 HD
HETATM   12  C9  UNL     1       2.345   2.070   0.463  1.00  0.00     0.077 C 
HETATM   13  C10 UNL     1       3.459   1.091   0.224  1.00  0.00     0.166 C 
HETATM   14  N4  UNL     1       3.255   0.602  -1.128  1.00  0.00    -0.353 N 
ATOM     15  H4  UNL     1       4.026   0.454  -1.780  1.00  0.00     0.162 HD
HETATM   16  C11 UNL     1       1.915   0.348  -1.471  1.00  0.00     0.259 C 
HETATM   17  O2  UNL     1       1.568   0.185  -2.649  1.00  0.00    -0.270 OA
ENDROOT
BRANCH   1  18
HETATM   18  C1  UNL     1      -2.801   1.398   0.024  1.00  0.00     0.332 C 
BRANCH  18  19
HETATM   19  N1  UNL     1      -4.066   1.783   0.642  1.00  0.00    -0.071 N 
ATOM     20  H13 UNL     1      -4.848   1.265   0.242  1.00  0.00     0.274 HD
ATOM     21  H12 UNL     1      -4.128   1.447   1.603  1.00  0.00     0.274 HD
ATOM     22  H11 UNL     1      -4.221   2.790   0.589  1.00  0.00     0.274 HD
ENDBRANCH  18  19
ENDBRANCH   1  18
TORSDOF 2
