REMARK  3 active torsions:
REMARK  status: ('A' for Active; 'I' for Inactive)
REMARK    1  A    between atoms: C2_2  and  C4_4 
REMARK    2  A    between atoms: C4_4  and  N1_5 
REMARK       I    between atoms: N1_5  and  C5_7 
REMARK       I    between atoms: C5_7  and  N2_9 
REMARK       I    between atoms: N3_12  and  C8_13 
REMARK       I    between atoms: C8_13  and  N4_15 
REMARK    3  A    between atoms: N4_15  and  N5_17 
ROOT
HETATM    1  N1  UNL     1      -2.368   0.629   0.717  1.00  0.00    -0.339 N 
ATOM      2  H1  UNL     1      -1.968   0.743   1.648  1.00  0.00     0.164 HD
HETATM    3  C5  UNL     1      -1.529   0.698  -0.415  1.00  0.00     0.318 C 
HETATM    4  O1  UNL     1      -1.958   0.566  -1.581  1.00  0.00    -0.247 OA
HETATM    5  N2  UNL     1      -0.149   0.924  -0.240  1.00  0.00    -0.331 N 
HETATM    6  C6  UNL     1       0.386   1.084   1.097  1.00  0.00     0.147 C 
HETATM    7  C7  UNL     1       1.803   1.592   0.948  1.00  0.00     0.147 C 
HETATM    8  N3  UNL     1       2.520   0.599   0.139  1.00  0.00    -0.330 N 
HETATM    9  C8  UNL     1       3.791   0.164   0.563  1.00  0.00     0.336 C 
HETATM   10  O2  UNL     1       4.299   0.621   1.617  1.00  0.00    -0.245 OA
HETATM   11  N4  UNL     1       4.479  -0.796  -0.224  1.00  0.00    -0.258 N 
ATOM     12  H4  UNL     1       4.065  -1.166  -1.080  1.00  0.00     0.191 HD
HETATM   13  C9  UNL     1       1.914   0.083  -1.077  1.00  0.00     0.147 C 
HETATM   14  C10 UNL     1       0.740   0.995  -1.397  1.00  0.00     0.147 C 
ENDROOT
BRANCH   1  15
HETATM   15  C4  UNL     1      -3.800   0.396   0.571  1.00  0.00     0.157 C 
BRANCH  15  16
HETATM   16  C2  UNL     1      -3.965  -0.913  -0.107  1.00  0.00    -0.075 C 
HETATM   17  C1  UNL     1      -4.579  -1.049  -1.262  1.00  0.00     0.015 C 
HETATM   18  C3  UNL     1      -3.388  -2.107   0.597  1.00  0.00     0.044 C 
ENDBRANCH  15  16
ENDBRANCH   1  15
BRANCH  11  19
HETATM   19  N5  UNL     1       5.737  -1.220   0.206  1.00  0.00    -0.341 N 
ATOM     20  H52 UNL     1       6.137  -0.841   1.064  1.00  0.00     0.177 HD
ATOM     21  H51 UNL     1       6.231  -1.910  -0.360  1.00  0.00     0.177 HD
ENDBRANCH  11  19
TORSDOF 3
