REMARK  4 active torsions:
REMARK  status: ('A' for Active; 'I' for Inactive)
REMARK    1  A    between atoms: C1_2  and  C2_3 
REMARK       I    between atoms: C1_2  and  N2_21 
REMARK    2  A    between atoms: C2_3  and  N1_4 
REMARK       I    between atoms: N1_4  and  C3_6 
REMARK    3  A    between atoms: C3_6  and  C4_8 
REMARK    4  A    between atoms: C10_15  and  C11_16 
ROOT
HETATM    1  C4  UNL     1      -1.639   0.400  -0.355  1.00  0.00     0.045 C 
HETATM    2  C5  UNL     1      -2.381   1.693  -0.251  1.00  0.00     0.024 C 
HETATM    3  C6  UNL     1      -3.849   1.448  -0.184  1.00  0.00    -0.009 C 
HETATM    4  C7  UNL     1      -4.341   0.654  -1.372  1.00  0.00     0.048 C 
HETATM    5  C8  UNL     1      -3.630  -0.675  -1.365  1.00  0.00     0.105 C 
HETATM    6  F1  UNL     1      -4.055  -1.420  -2.462  1.00  0.00    -0.243 F 
HETATM    7  C9  UNL     1      -3.893  -1.458  -0.104  1.00  0.00     0.054 C 
HETATM    8  C10 UNL     1      -3.381  -0.630   1.057  1.00  0.00    -0.027 C 
HETATM    9  C12 UNL     1      -4.152   0.664   1.068  1.00  0.00     0.015 C 
HETATM   10  C13 UNL     1      -1.899  -0.420   0.876  1.00  0.00     0.029 C 
HETATM   11  C14 UNL     1      -2.169  -0.411  -1.542  1.00  0.00     0.062 C 
ENDROOT
BRANCH   1  12
HETATM   12  C3  UNL     1      -0.182   0.601  -0.544  1.00  0.00     0.227 C 
HETATM   13  N1  UNL     1       0.692  -0.508  -0.664  1.00  0.00    -0.352 N 
ATOM     14  H1  UNL     1       0.277  -1.439  -0.615  1.00  0.00     0.162 HD
HETATM   15  O2  UNL     1       0.233   1.788  -0.592  1.00  0.00    -0.273 OA
BRANCH  13  16
HETATM   16  C2  UNL     1       2.098  -0.429  -0.847  1.00  0.00     0.225 C 
BRANCH  16  17
HETATM   17  C1  UNL     1       2.817   0.270   0.239  1.00  0.00     0.237 C 
HETATM   18  O1  UNL     1       2.210   0.752   1.244  1.00  0.00    -0.272 OA
HETATM   19  N2  UNL     1       4.212   0.399   0.146  1.00  0.00    -0.347 N 
HETATM   20  C15 UNL     1       4.929  -0.133  -0.977  1.00  0.00     0.152 C 
HETATM   21  C18 UNL     1       4.940   1.072   1.185  1.00  0.00     0.152 C 
HETATM   22  C16 UNL     1       6.115  -0.973  -0.574  1.00  0.00     0.187 C 
HETATM   23  O3  UNL     1       6.586  -0.598   0.667  1.00  0.00    -0.388 OA
HETATM   24  C17 UNL     1       6.415   0.733   0.958  1.00  0.00     0.187 C 
ENDBRANCH  16  17
ENDBRANCH  13  16
ENDBRANCH   1  12
BRANCH   8  25
HETATM   25  C11 UNL     1      -3.649  -1.323   2.383  1.00  0.00     0.095 C 
HETATM   26 BR1  UNL     1      -2.777  -3.046   2.457  1.00  0.00    -0.096 Br
ENDBRANCH   8  25
TORSDOF 4
