REMARK  4 active torsions:
REMARK  status: ('A' for Active; 'I' for Inactive)
REMARK    1  A    between atoms: C2_2  and  C3_3 
REMARK       I    between atoms: C3_3  and  N1_5 
REMARK    2  A    between atoms: N1_5  and  C4_7 
REMARK    3  A    between atoms: N2_17  and  S1_18 
REMARK    4  A    between atoms: S1_18  and  N3_21 
ROOT
HETATM    1  C1  UNL     1       1.100   0.548  -0.759  1.00  0.00     0.044 C 
HETATM    2  C2  UNL     1       0.538  -0.829  -1.015  1.00  0.00     0.107 C 
HETATM    3  C12 UNL     1       0.550  -1.033  -2.552  1.00  0.00     0.051 C 
HETATM    4  C13 UNL     1       1.901  -1.661  -2.238  1.00  0.00     0.113 C 
HETATM    5  N2  UNL     1       1.373  -1.949  -0.930  1.00  0.00    -0.175 NA
ENDROOT
BRANCH   2   6
HETATM    6  C3  UNL     1      -0.841  -0.956  -0.511  1.00  0.00     0.241 C 
HETATM    7  O1  UNL     1      -1.222  -2.035  -0.023  1.00  0.00    -0.271 OA
HETATM    8  N1  UNL     1      -1.725   0.135  -0.578  1.00  0.00    -0.354 N 
ATOM      9  H1  UNL     1      -1.381   1.006  -0.983  1.00  0.00     0.162 HD
BRANCH   8  10
HETATM   10  C4  UNL     1      -3.094   0.099  -0.107  1.00  0.00     0.088 C 
HETATM   11  C5  UNL     1      -4.095   0.405  -1.185  1.00  0.00     0.030 C 
HETATM   12  C6  UNL     1      -4.890   1.587  -0.709  1.00  0.00    -0.012 C 
HETATM   13  C7  UNL     1      -6.071   1.127   0.121  1.00  0.00     0.005 C 
HETATM   14  C11 UNL     1      -3.939   2.292   0.262  1.00  0.00     0.011 C 
HETATM   15  C8  UNL     1      -5.635   0.125   1.164  1.00  0.00     0.001 C 
HETATM   16  C9  UNL     1      -4.423   0.580   1.931  1.00  0.00     0.007 C 
HETATM   17  C10 UNL     1      -3.352   1.096   0.993  1.00  0.00     0.009 C 
ENDBRANCH   8  10
ENDBRANCH   2   6
BRANCH   5  18
HETATM   18  S1  UNL     1       2.478  -2.224   0.295  1.00  0.00     0.302 S 
HETATM   19  O2  UNL     1       1.842  -2.510   1.633  1.00  0.00    -0.188 OA
HETATM   20  O3  UNL     1       3.214  -3.525  -0.043  1.00  0.00    -0.188 OA
BRANCH  18  21
HETATM   21  N3  UNL     1       3.664  -1.024   0.368  1.00  0.00    -0.298 N 
HETATM   22  C14 UNL     1       3.722  -0.220   1.535  1.00  0.00     0.142 C 
HETATM   23  C15 UNL     1       4.424   1.082   1.173  1.00  0.00     0.099 C 
HETATM   24  C16 UNL     1       5.796   0.804   0.643  1.00  0.00     0.246 C 
HETATM   25  F1  UNL     1       6.758   1.317   1.515  1.00  0.00    -0.206 F 
HETATM   26  F2  UNL     1       6.012   1.459  -0.574  1.00  0.00    -0.206 F 
HETATM   27  C17 UNL     1       6.088  -0.644   0.418  1.00  0.00     0.099 C 
HETATM   28  C18 UNL     1       4.916  -1.348  -0.221  1.00  0.00     0.142 C 
ENDBRANCH  18  21
ENDBRANCH   5  18
TORSDOF 4
