REMARK  7 active torsions:
REMARK  status: ('A' for Active; 'I' for Inactive)
REMARK    1  A    between atoms: O1_1  and  C1_3 
REMARK    2  A    between atoms: C1_3  and  N1_4 
REMARK    3  A    between atoms: C1_3  and  C9_20 
REMARK    4  A    between atoms: C4_7  and  N2_8 
REMARK    5  A    between atoms: N2_8  and  S1_10 
REMARK    6  A    between atoms: S1_10  and  N3_13 
REMARK    7  A    between atoms: C9_20  and  C10_21 
ROOT
HETATM    1  N1  UNL     1       0.043  -0.549   1.595  1.00  0.00    -0.363 N 
HETATM    2  C2  UNL     1       0.354  -0.615   3.050  1.00  0.00     0.127 C 
HETATM    3  C3  UNL     1       1.688   0.100   3.127  1.00  0.00     0.047 C 
HETATM    4  C4  UNL     1       2.184   0.181   1.719  1.00  0.00     0.113 C 
HETATM    5  C8  UNL     1       1.301  -0.834   1.009  1.00  0.00     0.150 C 
ENDROOT
BRANCH   1   6
HETATM    6  C1  UNL     1      -1.220  -0.264   1.114  1.00  0.00     0.122 C 
BRANCH   6   7
HETATM    7  O1  UNL     1      -2.135  -0.044   2.031  1.00  0.00    -0.349 OA
ATOM      8  H1  UNL     1      -3.004   0.152   1.700  1.00  0.00     0.219 HD
ENDBRANCH   6   7
BRANCH   6   9
HETATM    9  C9  UNL     1      -1.734  -0.160  -0.266  1.00  0.00     0.028 C 
HETATM   10  C16 UNL     1      -1.288  -1.301  -1.108  1.00  0.00     0.018 C 
HETATM   11  C17 UNL     1      -0.725  -0.348  -2.172  1.00  0.00     0.002 C 
HETATM   12  C18 UNL     1      -0.885   0.734  -1.092  1.00  0.00     0.018 C 
BRANCH   9  13
HETATM   13  C10 UNL     1      -3.232   0.135  -0.322  1.00  0.00     0.002 C 
HETATM   14  C11 UNL     1      -3.718   0.284  -1.738  1.00  0.00     0.006 C 
HETATM   15  C12 UNL     1      -5.179   0.567  -1.859  1.00  0.00     0.000 C 
HETATM   16  C13 UNL     1      -5.990   0.036  -0.697  1.00  0.00     0.000 C 
HETATM   17  C14 UNL     1      -5.319  -1.263  -0.292  1.00  0.00     0.000 C 
HETATM   18  C15 UNL     1      -4.068  -0.814   0.460  1.00  0.00     0.006 C 
ENDBRANCH   9  13
ENDBRANCH   6   9
ENDBRANCH   1   6
BRANCH   4  19
HETATM   19  N2  UNL     1       3.565  -0.013   1.545  1.00  0.00    -0.300 N 
ATOM     20  H2  UNL     1       4.020  -0.872   1.854  1.00  0.00     0.173 HD
BRANCH  19  21
HETATM   21  S1  UNL     1       4.444   1.221   0.808  1.00  0.00     0.299 S 
HETATM   22  O2  UNL     1       3.974   2.603   1.149  1.00  0.00    -0.188 OA
HETATM   23  O3  UNL     1       5.881   1.137   1.266  1.00  0.00    -0.188 OA
BRANCH  21  24
HETATM   24  N3  UNL     1       4.485   0.993  -0.921  1.00  0.00    -0.182 NA
HETATM   25  C5  UNL     1       5.143  -0.260  -1.220  1.00  0.00     0.189 C 
HETATM   26  C6  UNL     1       6.360   0.424  -1.759  1.00  0.00     0.268 C 
HETATM   27  F1  UNL     1       6.574   0.064  -3.079  1.00  0.00    -0.204 F 
HETATM   28  F2  UNL     1       7.499   0.293  -1.008  1.00  0.00    -0.204 F 
HETATM   29  C7  UNL     1       5.579   1.690  -1.565  1.00  0.00     0.189 C 
ENDBRANCH  21  24
ENDBRANCH  19  21
ENDBRANCH   4  19
TORSDOF 7
