REMARK  4 active torsions:
REMARK  status: ('A' for Active; 'I' for Inactive)
REMARK       I    between atoms: C1_2  and  N1_3 
REMARK    1  A    between atoms: C1_2  and  C6_15 
REMARK    2  A    between atoms: N1_3  and  S1_5 
REMARK    3  A    between atoms: S1_5  and  N2_8 
REMARK    4  A    between atoms: C3_10  and  C4_12 
ROOT
HETATM    1  O1  UNL     1       0.842  -1.383  -0.004  1.00  0.00    -0.272 OA
HETATM    2  C1  UNL     1       0.165  -0.393   0.345  1.00  0.00     0.241 C 
HETATM    3  N1  UNL     1       0.656   0.734   1.028  1.00  0.00    -0.237 N 
ATOM      4  H1  UNL     1       0.011   1.487   1.267  1.00  0.00     0.183 HD
ENDROOT
BRANCH   2   5
HETATM    5  C6  UNL     1      -1.298  -0.399   0.011  1.00  0.00     0.043 C 
HETATM    6  C7  UNL     1      -1.595   0.833  -0.797  1.00  0.00     0.024 C 
HETATM    7  C8  UNL     1      -3.100   0.899  -0.997  1.00  0.00    -0.013 C 
HETATM    8  C9  UNL     1      -3.794   0.946   0.345  1.00  0.00     0.009 C 
HETATM    9  C13 UNL     1      -3.495  -0.325  -1.797  1.00  0.00     0.009 C 
HETATM   10  C10 UNL     1      -3.504  -0.297   1.117  1.00  0.00    -0.013 C 
HETATM   11  C11 UNL     1      -3.931  -1.517   0.331  1.00  0.00     0.009 C 
HETATM   12  C15 UNL     1      -2.013  -0.389   1.336  1.00  0.00     0.024 C 
HETATM   13  C12 UNL     1      -3.201  -1.550  -0.986  1.00  0.00    -0.013 C 
HETATM   14  C14 UNL     1      -1.714  -1.637  -0.733  1.00  0.00     0.024 C 
ENDBRANCH   2   5
BRANCH   3  15
HETATM   15  S1  UNL     1       2.301   0.882   1.471  1.00  0.00     0.323 S 
HETATM   16  O2  UNL     1       2.375   2.064   2.457  1.00  0.00    -0.182 OA
HETATM   17  O3  UNL     1       2.630  -0.372   2.275  1.00  0.00    -0.182 OA
BRANCH  15  18
HETATM   18  N2  UNL     1       3.288   1.107   0.181  1.00  0.00    -0.287 N 
HETATM   19  C2  UNL     1       3.564   0.312  -0.903  1.00  0.00     0.182 C 
HETATM   20  C3  UNL     1       5.068   0.606  -0.658  1.00  0.00     0.145 C 
HETATM   21  F1  UNL     1       5.639   1.221  -1.719  1.00  0.00    -0.239 F 
HETATM   22  C5  UNL     1       4.581   1.646   0.386  1.00  0.00     0.182 C 
BRANCH  20  23
HETATM   23  C4  UNL     1       5.818  -0.495   0.014  1.00  0.00     0.132 C 
HETATM   24 BR1  UNL     1       5.838  -2.156  -0.930  1.00  0.00    -0.093 Br
ENDBRANCH  20  23
ENDBRANCH  15  18
ENDBRANCH   3  15
TORSDOF 4
