REMARK  5 active torsions:
REMARK  status: ('A' for Active; 'I' for Inactive)
REMARK       I    between atoms: C1_2  and  N1_3 
REMARK    1  A    between atoms: C1_2  and  C8_13 
REMARK    2  A    between atoms: N1_3  and  C2_5 
REMARK    3  A    between atoms: C2_5  and  C3_6 
REMARK       I    between atoms: C3_6  and  N2_8 
REMARK       I    between atoms: C8_13  and  N3_15 
REMARK    4  A    between atoms: C12_19  and  C13_20 
REMARK    5  A    between atoms: C13_20  and  C14_21 
ROOT
HETATM    1  C8  UNL     1       0.897  -1.847  -2.011  1.00  0.00     0.311 C 
HETATM    2  O3  UNL     1       1.239  -2.461  -3.097  1.00  0.00    -0.262 OA
HETATM    3  N3  UNL     1      -0.273  -2.199  -1.336  1.00  0.00    -0.344 N 
HETATM    4  C9  UNL     1      -1.085  -3.300  -1.887  1.00  0.00     0.126 C 
HETATM    5  C10 UNL     1      -1.319  -4.214  -0.704  1.00  0.00     0.020 C 
HETATM    6  C11 UNL     1      -2.229  -3.500   0.259  1.00  0.00     0.008 C 
HETATM    7  C12 UNL     1      -1.984  -2.051   0.446  1.00  0.00     0.004 C 
HETATM    8  C21 UNL     1      -0.712  -1.552  -0.152  1.00  0.00     0.130 C 
ENDROOT
BRANCH   1   9
HETATM    9  C1  UNL     1       1.765  -0.782  -1.513  1.00  0.00     0.309 C 
HETATM   10  O1  UNL     1       1.570  -0.117  -0.479  1.00  0.00    -0.262 OA
HETATM   11  N1  UNL     1       2.964  -0.434  -2.248  1.00  0.00    -0.344 N 
ATOM     12  H1  UNL     1       3.175  -0.942  -3.107  1.00  0.00     0.163 HD
BRANCH  11  13
HETATM   13  C2  UNL     1       3.858   0.585  -1.824  1.00  0.00     0.226 C 
BRANCH  13  14
HETATM   14  C3  UNL     1       4.496   0.366  -0.507  1.00  0.00     0.237 C 
HETATM   15  O2  UNL     1       4.277  -0.656   0.195  1.00  0.00    -0.272 OA
HETATM   16  N2  UNL     1       5.391   1.341  -0.008  1.00  0.00    -0.351 N 
HETATM   17  C4  UNL     1       6.089   1.270   1.254  1.00  0.00     0.126 C 
HETATM   18  C7  UNL     1       5.758   2.565  -0.670  1.00  0.00     0.126 C 
HETATM   19  C5  UNL     1       7.249   2.241   1.147  1.00  0.00     0.021 C 
HETATM   20  C6  UNL     1       7.240   2.672  -0.296  1.00  0.00     0.021 C 
ENDBRANCH  13  14
ENDBRANCH  11  13
ENDBRANCH   1   9
BRANCH   7  21
HETATM   21  C13 UNL     1      -3.222  -1.302   0.028  1.00  0.00     0.011 C 
BRANCH  21  22
HETATM   22  C14 UNL     1      -3.165   0.174   0.148  1.00  0.00    -0.014 C 
HETATM   23  C15 UNL     1      -4.532   0.696  -0.328  1.00  0.00     0.005 C 
HETATM   24  C16 UNL     1      -4.712   2.136  -0.007  1.00  0.00     0.006 C 
HETATM   25  C17 UNL     1      -5.038   2.482   1.377  1.00  0.00     0.079 C 
HETATM   26  C18 UNL     1      -5.269   1.354   2.325  1.00  0.00     0.243 C 
HETATM   27  F1  UNL     1      -6.489   0.703   2.098  1.00  0.00    -0.206 F 
HETATM   28  F2  UNL     1      -5.442   1.944   3.590  1.00  0.00    -0.206 F 
HETATM   29  C19 UNL     1      -4.129   0.404   2.444  1.00  0.00     0.079 C 
HETATM   30  C20 UNL     1      -2.976   0.684   1.542  1.00  0.00     0.010 C 
ENDBRANCH  21  22
ENDBRANCH   7  21
TORSDOF 5
