REMARK  7 active torsions:
REMARK  status: ('A' for Active; 'I' for Inactive)
REMARK    1  A    between atoms: C2_2  and  C3_3 
REMARK    2  A    between atoms: C3_3  and  C4_4 
REMARK    3  A    between atoms: C4_4  and  C5_5 
REMARK       I    between atoms: N1_15  and  C15_16 
REMARK    4  A    between atoms: C15_16  and  C16_18 
REMARK    5  A    between atoms: C16_18  and  C17_19 
REMARK    6  A    between atoms: C17_19  and  C18_20 
REMARK    7  A    between atoms: C20_23  and  C21_24 
ROOT
HETATM    1  C5  UNL     1      -2.876  -0.248  -0.042  1.00  0.00     0.043 C 
HETATM    2  C6  UNL     1      -4.122  -0.991  -0.141  1.00  0.00    -0.021 C 
HETATM    3  C7  UNL     1      -4.332  -2.318  -0.710  1.00  0.00    -0.029 C 
HETATM    4  C8  UNL     1      -3.687  -3.553  -0.191  1.00  0.00     0.038 C 
HETATM    5  C9  UNL     1      -2.221  -3.789  -0.700  1.00  0.00     0.084 C 
HETATM    6  C10 UNL     1      -1.703  -2.496  -0.861  1.00  0.00    -0.173 C 
HETATM    7  C11 UNL     1      -0.851  -1.408  -1.123  1.00  0.00     0.087 C 
HETATM    8  C12 UNL     1       0.281  -1.263  -0.146  1.00  0.00     0.030 C 
HETATM    9  C13 UNL     1       1.329  -0.375  -0.684  1.00  0.00     0.046 C 
HETATM   10  C14 UNL     1       2.736  -0.772  -0.411  1.00  0.00     0.134 C 
HETATM   11  N1  UNL     1       3.423   0.497  -0.363  1.00  0.00    -0.345 N 
HETATM   12  C15 UNL     1       4.876   0.663  -0.405  1.00  0.00     0.243 C 
HETATM   13  O1  UNL     1       5.310   1.830  -0.354  1.00  0.00    -0.268 OA
HETATM   14  C19 UNL     1       2.507   1.602  -0.267  1.00  0.00     0.169 C 
HETATM   15  C20 UNL     1       1.137   0.992  -0.053  1.00  0.00     0.143 C 
HETATM   16  N3  UNL     1       0.096   1.652  -0.768  1.00  0.00    -0.336 N 
ATOM     17  H3  UNL     1       0.233   2.648  -0.943  1.00  0.00     0.164 HD
HETATM   18  C22 UNL     1      -1.131   1.079  -1.275  1.00  0.00     0.246 C 
HETATM   19  O4  UNL     1      -1.673   1.921  -2.081  1.00  0.00    -0.268 OA
HETATM   20  C23 UNL     1      -1.819  -0.176  -1.062  1.00  0.00     0.010 C 
ENDROOT
BRANCH  12  21
HETATM   21  C16 UNL     1       5.720  -0.482  -0.499  1.00  0.00     0.075 C 
BRANCH  21  22
HETATM   22  C17 UNL     1       6.969  -0.702  -0.555  1.00  0.00     0.020 C 
BRANCH  22  23
HETATM   23  C18 UNL     1       8.132   0.158  -0.547  1.00  0.00     0.100 C 
HETATM   24  N2  UNL     1       7.951   1.537  -0.463  1.00  0.00    -0.115 NA
ENDBRANCH  22  23
ENDBRANCH  21  22
ENDBRANCH  12  21
BRANCH  15  25
HETATM   25  C21 UNL     1       0.907   0.913   1.404  1.00  0.00     0.204 C 
HETATM   26  O2  UNL     1      -0.106   1.379   1.975  1.00  0.00    -0.646 OA
HETATM   27  O3  UNL     1       1.859   0.293   2.181  1.00  0.00    -0.646 OA
ENDBRANCH  15  25
BRANCH   1  28
HETATM   28  C4  UNL     1      -3.291   1.241   0.142  1.00  0.00     0.013 C 
BRANCH  28  29
HETATM   29  C3  UNL     1      -4.121   1.419   1.382  1.00  0.00     0.001 C 
BRANCH  29  30
HETATM   30  C2  UNL     1      -4.512   2.874   1.539  1.00  0.00    -0.005 C 
HETATM   31  C1  UNL     1      -3.318   3.783   1.656  1.00  0.00     0.005 C 
ENDBRANCH  29  30
ENDBRANCH  28  29
ENDBRANCH   1  28
TORSDOF 7
