REMARK  7 active torsions:
REMARK  status: ('A' for Active; 'I' for Inactive)
REMARK    1  A    between atoms: C2_2  and  C4_4 
REMARK    2  A    between atoms: C2_2  and  C16_29 
REMARK    3  A    between atoms: C5_5  and  C6_6 
REMARK    4  A    between atoms: C10_13  and  O4_14 
REMARK    5  A    between atoms: C12_17  and  O5_18 
REMARK    6  A    between atoms: C14_21  and  N1_22 
REMARK    7  A    between atoms: C15_26  and  O6_27 
ROOT
HETATM    1  C6  UNL     1       0.371  -0.666   0.639  1.00  0.00     0.175 C 
HETATM    2  O1  UNL     1      -0.465   0.113   1.343  1.00  0.00    -0.371 OA
HETATM    3  C7  UNL     1      -1.807   0.096   1.069  1.00  0.00     0.160 C 
HETATM    4  C8  UNL     1      -2.185   0.968  -0.067  1.00  0.00     0.166 C 
HETATM    5  O2  UNL     1      -2.728   2.220   0.311  1.00  0.00    -0.347 OA
HETATM    6  C9  UNL     1      -4.025   1.888   0.575  1.00  0.00     0.327 A 
HETATM    7  O3  UNL     1      -5.155   1.915  -0.079  1.00  0.00    -0.314 OA
HETATM    8  C10 UNL     1      -4.288   1.350  -0.866  1.00  0.00     0.224 A 
HETATM    9  C11 UNL     1      -3.340   0.248  -0.782  1.00  0.00     0.114 C 
HETATM   10  C12 UNL     1      -3.634  -0.977  -0.077  1.00  0.00     0.139 C 
HETATM   11  C13 UNL     1      -2.372  -1.252   0.723  1.00  0.00     0.080 C 
HETATM   12  C14 UNL     1      -1.465  -2.096  -0.119  1.00  0.00     0.224 C 
HETATM   13  C15 UNL     1      -0.202  -1.414  -0.523  1.00  0.00     0.181 C 
ENDROOT
BRANCH   1  14
HETATM   14  C5  UNL     1       1.504   0.158   0.129  1.00  0.00     0.005 C 
HETATM   15  C4  UNL     1       2.751  -0.057   0.501  1.00  0.00    -0.008 C 
BRANCH  15  16
HETATM   16  C2  UNL     1       3.862   0.781  -0.025  1.00  0.00     0.059 C 
HETATM   17  C1  UNL     1       3.489   2.250  -0.010  1.00  0.00     0.031 C 
HETATM   18  C3  UNL     1       4.227   0.417  -1.445  1.00  0.00     0.031 C 
BRANCH  16  19
HETATM   19  C16 UNL     1       5.057   0.538   0.847  1.00  0.00     0.185 C 
HETATM   20  O7  UNL     1       5.011  -0.239   1.833  1.00  0.00    -0.647 OA
HETATM   21  O8  UNL     1       6.272   1.166   0.599  1.00  0.00    -0.647 OA
ENDBRANCH  16  19
ENDBRANCH  15  16
ENDBRANCH   1  14
BRANCH  13  22
HETATM   22  O6  UNL     1       0.726  -2.436  -0.838  1.00  0.00    -0.391 OA
ATOM     23  H6  UNL     1       0.362  -2.911  -1.576  1.00  0.00     0.210 HD
ENDBRANCH  13  22
BRANCH  12  24
HETATM   24  N1  UNL     1      -1.145  -3.347   0.578  1.00  0.00    -0.072 N 
ATOM     25  H13 UNL     1      -0.756  -3.178   1.505  1.00  0.00     0.274 HD
ATOM     26  H12 UNL     1      -1.985  -3.853   0.858  1.00  0.00     0.274 HD
ATOM     27  H11 UNL     1      -0.527  -3.922   0.005  1.00  0.00     0.274 HD
ENDBRANCH  12  24
BRANCH  10  28
HETATM   28  O5  UNL     1      -4.781  -1.045   0.688  1.00  0.00    -0.394 OA
ATOM     29  H5  UNL     1      -4.974  -1.851   1.152  1.00  0.00     0.210 HD
ENDBRANCH  10  28
BRANCH   8  30
HETATM   30  O4  UNL     1      -3.871   2.294  -1.859  1.00  0.00    -0.361 OA
ATOM     31  H4  UNL     1      -4.031   1.966  -2.736  1.00  0.00     0.213 HD
ENDBRANCH   8  30
TORSDOF 7
