REMARK  8 active torsions:
REMARK  status: ('A' for Active; 'I' for Inactive)
REMARK    1  A    between atoms: C5_6  and  O1_7 
REMARK    2  A    between atoms: C9_12  and  O2_13 
REMARK    3  A    between atoms: O2_13  and  C10_14 
REMARK    4  A    between atoms: C11_16  and  C12_17 
REMARK    5  A    between atoms: C12_17  and  O4_18 
REMARK    6  A    between atoms: C13_20  and  O5_21 
REMARK    7  A    between atoms: C14_23  and  O6_24 
REMARK    8  A    between atoms: C15_26  and  O7_27 
ROOT
HETATM    1  C10 UNL     1       1.716   0.447   0.213  1.00  0.00     0.292 C 
HETATM    2  O3  UNL     1       2.425   1.222   1.099  1.00  0.00    -0.348 OA
HETATM    3  C11 UNL     1       3.766   0.936   1.171  1.00  0.00     0.179 C 
HETATM    4  C13 UNL     1       4.452   0.966  -0.175  1.00  0.00     0.180 C 
HETATM    5  C14 UNL     1       3.643   0.341  -1.266  1.00  0.00     0.183 C 
HETATM    6  C15 UNL     1       2.195   0.802  -1.194  1.00  0.00     0.204 C 
ENDROOT
BRANCH   1   7
HETATM    7  O2  UNL     1       0.376   0.688   0.279  1.00  0.00    -0.353 OA
BRANCH   7   8
HETATM    8  C9  UNL     1      -0.420  -0.390   0.537  1.00  0.00     0.132 C 
HETATM    9  C8  UNL     1      -1.323  -0.236   1.726  1.00  0.00     0.039 C 
HETATM   10  C7  UNL     1      -2.617  -0.942   1.367  1.00  0.00     0.029 C 
HETATM   11  C6  UNL     1      -2.217  -1.741   0.119  1.00  0.00     0.030 C 
HETATM   12  C17 UNL     1      -3.629   0.020   0.753  1.00  0.00     0.234 C 
HETATM   13  C5  UNL     1      -3.528  -2.041  -0.515  1.00  0.00     0.129 C 
HETATM   14  C16 UNL     1      -1.417  -0.672  -0.597  1.00  0.00     0.055 C 
HETATM   15  C4  UNL     1      -4.183  -0.653  -0.467  1.00  0.00     0.050 C 
HETATM   16  C3  UNL     1      -3.524   0.107  -1.626  1.00  0.00     0.045 C 
HETATM   17  C2  UNL     1      -2.236   0.533  -0.927  1.00  0.00     0.230 C 
HETATM   18  N1  UNL     1      -2.814   1.149   0.270  1.00  0.00     0.094 N 
HETATM   19  C1  UNL     1      -3.719   2.194  -0.081  1.00  0.00     0.310 C 
BRANCH  13  20
HETATM   20  O1  UNL     1      -4.209  -2.950   0.254  1.00  0.00    -0.395 OA
ATOM     21  H1  UNL     1      -3.804  -3.809   0.224  1.00  0.00     0.210 HD
ENDBRANCH  13  20
ENDBRANCH   7   8
ENDBRANCH   1   7
BRANCH   6  22
HETATM   22  O7  UNL     1       2.129   2.150  -1.445  1.00  0.00    -0.388 OA
ATOM     23  H7  UNL     1       2.427   2.371  -2.320  1.00  0.00     0.210 HD
ENDBRANCH   6  22
BRANCH   3  24
HETATM   24  C12 UNL     1       4.048  -0.334   1.947  1.00  0.00     0.198 C 
BRANCH  24  25
HETATM   25  O4  UNL     1       5.400  -0.585   2.000  1.00  0.00    -0.398 OA
ATOM     26  H4  UNL     1       5.577  -1.381   2.487  1.00  0.00     0.209 HD
ENDBRANCH  24  25
ENDBRANCH   3  24
BRANCH   5  27
HETATM   27  O6  UNL     1       3.733  -1.047  -1.231  1.00  0.00    -0.390 OA
ATOM     28  H6  UNL     1       3.219  -1.444  -1.924  1.00  0.00     0.210 HD
ENDBRANCH   5  27
BRANCH   4  29
HETATM   29  O5  UNL     1       5.701   0.371  -0.149  1.00  0.00    -0.390 OA
ATOM     30  H5  UNL     1       6.132   0.390  -0.995  1.00  0.00     0.210 HD
ENDBRANCH   4  29
TORSDOF 8
