REMARK  6 active torsions:
REMARK  status: ('A' for Active; 'I' for Inactive)
REMARK    1  A    between atoms: C5_8  and  C6_9 
REMARK    2  A    between atoms: C7_10  and  C8_11 
REMARK    3  A    between atoms: N3_12  and  N4_14 
REMARK    4  A    between atoms: N4_14  and  C9_16 
REMARK    5  A    between atoms: C9_16  and  N5_18 
REMARK    6  A    between atoms: N5_18  and  C10_20 
ROOT
HETATM    1  C8  UNL     1      -1.450  -1.126  -2.307  1.00  0.00     0.107 C 
HETATM    2  N3  UNL     1      -0.722  -2.034  -1.987  1.00  0.00    -0.310 N 
ATOM      3  H3  UNL     1      -0.294  -2.449  -2.815  1.00  0.00     0.186 HD
ENDROOT
BRANCH   2   4
HETATM    4  N4  UNL     1      -0.303  -2.663  -0.892  1.00  0.00    -0.277 N 
ATOM      5  H4  UNL     1      -0.931  -3.281  -0.378  1.00  0.00     0.189 HD
BRANCH   4   6
HETATM    6  C9  UNL     1       1.040  -2.461  -0.446  1.00  0.00     0.186 C 
HETATM    7  S1  UNL     1       1.543  -3.235   0.881  1.00  0.00    -0.040 SA
BRANCH   6   8
HETATM    8  N5  UNL     1       1.901  -1.612  -1.155  1.00  0.00    -0.361 N 
ATOM      9  H5  UNL     1       1.567  -1.139  -1.995  1.00  0.00     0.162 HD
BRANCH   8  10
HETATM   10  C10 UNL     1       3.255  -1.403  -0.706  1.00  0.00     0.083 C 
HETATM   11  C11 UNL     1       4.041  -0.519  -1.634  1.00  0.00     0.025 C 
HETATM   12  C12 UNL     1       3.706   0.940  -1.501  1.00  0.00     0.002 C 
HETATM   13  C13 UNL     1       3.478   1.363  -0.074  1.00  0.00     0.000 C 
HETATM   14  C14 UNL     1       4.082   0.342   0.873  1.00  0.00     0.002 C 
HETATM   15  C15 UNL     1       3.237  -0.919   0.708  1.00  0.00     0.025 C 
ENDBRANCH   8  10
ENDBRANCH   6   8
ENDBRANCH   4   6
ENDBRANCH   2   4
BRANCH   1  16
HETATM   16  C7  UNL     1      -2.263  -0.258  -1.467  1.00  0.00     0.019 C 
HETATM   17  C6  UNL     1      -2.305  -0.365  -0.195  1.00  0.00     0.016 C 
BRANCH  17  18
HETATM   18  C5  UNL     1      -3.066   0.431   0.747  1.00  0.00     0.005 A 
HETATM   19  C2  UNL     1      -3.884   1.491   0.512  1.00  0.00     0.033 A 
HETATM   20  C1  UNL     1      -4.241   2.175  -0.751  1.00  0.00     0.070 C 
HETATM   21  N1  UNL     1      -4.372   1.882   1.733  1.00  0.00    -0.303 N 
HETATM   22  N2  UNL     1      -3.886   1.110   2.669  1.00  0.00    -0.307 N 
ATOM     23  H1  UNL     1      -5.016   2.658   1.887  1.00  0.00     0.186 HD
HETATM   24  C3  UNL     1      -4.151   1.184   4.106  1.00  0.00     0.177 C 
HETATM   25  C4  UNL     1      -3.077   0.196   2.145  1.00  0.00     0.123 A 
ENDBRANCH  17  18
ENDBRANCH   1  16
TORSDOF 6
