REMARK  6 active torsions:
REMARK  status: ('A' for Active; 'I' for Inactive)
REMARK    1  A    between atoms: N1_2  and  C1_4 
REMARK    2  A    between atoms: C4_7  and  C5_8 
REMARK    3  A    between atoms: C5_8  and  N2_9 
REMARK    4  A    between atoms: N2_9  and  C6_11 
REMARK    5  A    between atoms: C6_11  and  N3_13 
REMARK    6  A    between atoms: N3_13  and  C7_15 
ROOT
HETATM    1  C6  UNL     1       0.560   1.294   0.060  1.00  0.00     0.168 C 
HETATM    2  S1  UNL     1       0.133   2.736  -0.621  1.00  0.00    -0.041 SA
ENDROOT
BRANCH   1   3
HETATM    3  N2  UNL     1       1.926   0.950   0.066  1.00  0.00    -0.361 N 
ATOM      4  H2  UNL     1       2.614   1.583  -0.341  1.00  0.00     0.162 HD
BRANCH   3   5
HETATM    5  C5  UNL     1       2.348  -0.298   0.649  1.00  0.00     0.187 C 
BRANCH   5   6
HETATM    6  C4  UNL     1       3.830  -0.455   0.545  1.00  0.00     0.073 A 
HETATM    7  C3  UNL     1       4.797  -0.066   1.427  1.00  0.00     0.039 A 
HETATM    8  C2  UNL     1       6.009  -0.429   0.889  1.00  0.00     0.065 A 
HETATM    9  C1  UNL     1       5.715  -1.032  -0.314  1.00  0.00     0.215 A 
HETATM   10  O3  UNL     1       4.417  -1.025  -0.476  1.00  0.00    -0.291 OA
BRANCH   9  11
HETATM   11  N1  UNL     1       6.692  -1.571  -1.223  1.00  0.00    -0.090 N 
HETATM   12  O1  UNL     1       6.314  -2.087  -2.270  1.00  0.00    -0.530 OA
HETATM   13  O2  UNL     1       8.025  -1.508  -0.921  1.00  0.00    -0.530 OA
ENDBRANCH   9  11
ENDBRANCH   5   6
ENDBRANCH   3   5
ENDBRANCH   1   3
BRANCH   1  14
HETATM   14  N3  UNL     1      -0.457   0.475   0.604  1.00  0.00    -0.362 N 
ATOM     15  H3  UNL     1      -0.220  -0.421   1.031  1.00  0.00     0.162 HD
BRANCH  14  16
HETATM   16  C7  UNL     1      -1.819   0.908   0.553  1.00  0.00     0.088 C 
HETATM   17  C8  UNL     1      -2.219   1.097  -0.895  1.00  0.00     0.030 C 
HETATM   18  C9  UNL     1      -3.477   0.286  -1.158  1.00  0.00    -0.013 C 
HETATM   19  C10 UNL     1      -4.557   0.796  -0.205  1.00  0.00     0.005 C 
HETATM   20  C14 UNL     1      -3.195  -1.175  -0.920  1.00  0.00     0.005 C 
HETATM   21  C11 UNL     1      -4.133   0.647   1.231  1.00  0.00     0.007 C 
HETATM   22  C12 UNL     1      -2.771  -0.018   1.246  1.00  0.00     0.008 C 
HETATM   23  C13 UNL     1      -2.862  -1.356   0.540  1.00  0.00     0.007 C 
ENDBRANCH  14  16
ENDBRANCH   1  14
TORSDOF 6
