REMARK  4 active torsions:
REMARK  status: ('A' for Active; 'I' for Inactive)
REMARK    1  A    between atoms: C4_5  and  C5_6 
REMARK    2  A    between atoms: C5_6  and  C6_7 
REMARK    3  A    between atoms: C9_13  and  N1_14 
REMARK    4  A    between atoms: N1_14  and  C10_17 
ROOT
HETATM    1  C1  UNL     1       0.454  -2.790  -1.080  1.00  0.00     0.029 C 
HETATM    2  C2  UNL     1       1.097  -1.984   0.030  1.00  0.00     0.030 C 
HETATM    3  C3  UNL     1       1.302  -2.969   1.190  1.00  0.00     0.029 C 
HETATM    4  S1  UNL     1       2.739  -1.510  -0.535  1.00  0.00    -0.145 SA
HETATM    5  C4  UNL     1       3.261   0.088   0.141  1.00  0.00     0.127 C 
HETATM    6  C7  UNL     1       1.996   0.898   0.250  1.00  0.00     0.143 C 
HETATM    7  O3  UNL     1       1.927   1.931  -0.344  1.00  0.00    -0.297 OA
HETATM    8  C8  UNL     1       0.947   0.293   1.113  1.00  0.00     0.114 C 
HETATM    9  C9  UNL     1       0.224  -0.853   0.453  1.00  0.00     0.211 C 
ENDROOT
BRANCH   9  10
HETATM   10  N1  UNL     1      -0.611  -0.454  -0.645  1.00  0.00    -0.065 N 
ATOM     11  H12 UNL     1      -0.038  -0.168  -1.439  1.00  0.00     0.278 HD
ATOM     12  H11 UNL     1      -1.078  -1.266  -1.048  1.00  0.00     0.278 HD
BRANCH  10  13
HETATM   13  C10 UNL     1      -1.573   0.569  -0.329  1.00  0.00     0.186 C 
HETATM   14  C11 UNL     1      -2.303   0.915  -1.618  1.00  0.00     0.033 C 
HETATM   15  C12 UNL     1      -3.788   0.767  -1.511  1.00  0.00     0.002 C 
HETATM   16  C13 UNL     1      -4.373   1.499  -0.323  1.00  0.00     0.000 C 
HETATM   17  C14 UNL     1      -3.571   1.232   0.915  1.00  0.00     0.002 C 
HETATM   18  C15 UNL     1      -2.636   0.071   0.632  1.00  0.00     0.033 C 
ENDBRANCH  10  13
ENDBRANCH   9  10
BRANCH   5  19
HETATM   19  C5  UNL     1       4.286   0.717  -0.743  1.00  0.00     0.135 C 
BRANCH  19  20
HETATM   20  C6  UNL     1       4.767   2.020  -0.236  1.00  0.00     0.174 C 
HETATM   21  O1  UNL     1       5.560   2.743  -0.902  1.00  0.00    -0.648 OA
HETATM   22  O2  UNL     1       4.369   2.508   0.997  1.00  0.00    -0.648 OA
ENDBRANCH  19  20
ENDBRANCH   5  19
TORSDOF 4
