REMARK  11 active torsions:
REMARK  status: ('A' for Active; 'I' for Inactive)
REMARK    1  A    between atoms: C6_6  and  O1_7 
REMARK    2  A    between atoms: O1_7  and  C7_8 
REMARK    3  A    between atoms: C9_10  and  C10_11 
REMARK    4  A    between atoms: C17_18  and  C18_19 
REMARK    5  A    between atoms: C18_19  and  C20_21 
REMARK    6  A    between atoms: C20_21  and  C21_22 
REMARK    7  A    between atoms: C21_22  and  C22_23 
REMARK    8  A    between atoms: C22_23  and  C23_24 
REMARK    9  A    between atoms: C32_33  and  O2_34 
REMARK   10  A    between atoms: C33_37  and  O4_38 
REMARK   11  A    between atoms: C34_40  and  O5_41 
ROOT
HETATM    1  C10 UNL     1      -1.137   0.281   0.344  1.00  0.00     0.003 C 
HETATM    2  C11 UNL     1      -0.862   1.749   0.608  1.00  0.00     0.006 C 
HETATM    3  C12 UNL     1       0.687   1.698   0.694  1.00  0.00     0.006 C 
HETATM    4  C13 UNL     1       0.802   0.542   1.650  1.00  0.00    -0.001 C 
HETATM    5  C14 UNL     1       2.135   0.146   2.095  1.00  0.00    -0.001 C 
HETATM    6  C15 UNL     1       3.002   1.380   2.238  1.00  0.00     0.006 C 
HETATM    7  C16 UNL     1       3.864   1.278   1.003  1.00  0.00     0.006 C 
HETATM    8  C17 UNL     1       4.203  -0.200   1.050  1.00  0.00    -0.002 C 
HETATM    9  C26 UNL     1       2.890  -0.869   1.310  1.00  0.00    -0.036 C 
HETATM   10  C27 UNL     1       3.231  -2.017   2.292  1.00  0.00     0.016 C 
HETATM   11  C28 UNL     1       2.242  -1.466   0.135  1.00  0.00     0.011 C 
HETATM   12  C29 UNL     1       0.838  -1.134  -0.183  1.00  0.00     0.011 C 
HETATM   13  C30 UNL     1       0.012  -0.513   0.902  1.00  0.00    -0.036 C 
HETATM   14  C31 UNL     1      -0.374  -1.560   1.913  1.00  0.00     0.016 C 
ENDROOT
BRANCH   1  15
HETATM   15  C9  UNL     1      -2.490  -0.191   0.609  1.00  0.00     0.050 C 
HETATM   16  C8  UNL     1      -3.556   0.481  -0.292  1.00  0.00     0.070 C 
HETATM   17  C7  UNL     1      -4.783   0.205   0.528  1.00  0.00     0.264 C 
HETATM   18  O3  UNL     1      -4.375  -0.427   1.724  1.00  0.00    -0.331 OA
HETATM   19  C32 UNL     1      -3.118   0.216   1.940  1.00  0.00     0.264 C 
BRANCH  17  20
HETATM   20  O1  UNL     1      -5.737  -0.555  -0.131  1.00  0.00    -0.353 OA
BRANCH  20  21
HETATM   21  C6  UNL     1      -6.987   0.015  -0.145  1.00  0.00     0.156 C 
HETATM   22  C5  UNL     1      -7.529   0.156  -1.553  1.00  0.00     0.035 C 
HETATM   23  C4  UNL     1      -8.212   1.478  -1.756  1.00  0.00     0.007 C 
HETATM   24  C3  UNL     1      -9.539   1.562  -1.053  1.00  0.00     0.036 C 
HETATM   25  C2  UNL     1      -9.867   0.259  -0.415  1.00  0.00    -0.058 C 
HETATM   26  C1  UNL     1     -10.795  -0.495  -1.027  1.00  0.00     0.017 C 
HETATM   27  C34 UNL     1      -9.275  -0.289   0.826  1.00  0.00     0.177 C 
HETATM   28  C33 UNL     1      -7.922  -0.925   0.611  1.00  0.00     0.180 C 
BRANCH  27  29
HETATM   29  O5  UNL     1     -10.119  -1.293   1.312  1.00  0.00    -0.389 OA
ATOM     30  H5  UNL     1      -9.739  -1.645   2.109  1.00  0.00     0.210 HD
ENDBRANCH  27  29
BRANCH  28  31
HETATM   31  O4  UNL     1      -7.415  -1.288   1.850  1.00  0.00    -0.390 OA
ATOM     32  H4  UNL     1      -7.997  -1.873   2.321  1.00  0.00     0.210 HD
ENDBRANCH  28  31
ENDBRANCH  20  21
ENDBRANCH  17  20
BRANCH  19  33
HETATM   33  O2  UNL     1      -3.471   1.574   1.960  1.00  0.00    -0.371 OA
ATOM     34  H2  UNL     1      -3.862   1.827   2.788  1.00  0.00     0.212 HD
ENDBRANCH  19  33
ENDBRANCH   1  15
BRANCH   8  35
HETATM   35  C18 UNL     1       5.002  -0.571  -0.101  1.00  0.00    -0.014 C 
HETATM   36  C19 UNL     1       5.432  -2.010  -0.220  1.00  0.00     0.010 C 
BRANCH  35  37
HETATM   37  C20 UNL     1       6.339   0.194  -0.028  1.00  0.00     0.005 C 
BRANCH  37  38
HETATM   38  C21 UNL     1       7.203  -0.183  -1.217  1.00  0.00     0.001 C 
BRANCH  38  39
HETATM   39  C22 UNL     1       8.509   0.609  -1.085  1.00  0.00     0.004 C 
BRANCH  39  40
HETATM   40  C23 UNL     1       9.350   0.209  -2.267  1.00  0.00    -0.023 C 
HETATM   41  C24 UNL     1      10.698   0.900  -2.305  1.00  0.00     0.009 C 
HETATM   42  C25 UNL     1       8.565   0.512  -3.525  1.00  0.00     0.009 C 
ENDBRANCH  39  40
ENDBRANCH  38  39
ENDBRANCH  37  38
ENDBRANCH  35  37
ENDBRANCH   8  35
TORSDOF 11
