REMARK  11 active torsions:
REMARK  status: ('A' for Active; 'I' for Inactive)
REMARK    1  A    between atoms: C2_2  and  C3_3 
REMARK    2  A    between atoms: C2_2  and  C4_6 
REMARK    3  A    between atoms: C3_3  and  O1_4 
REMARK    4  A    between atoms: C4_6  and  O2_7 
REMARK    5  A    between atoms: C4_6  and  C5_9 
REMARK    6  A    between atoms: C5_9  and  C6_10 
REMARK    7  A    between atoms: C6_10  and  C7_11 
REMARK    8  A    between atoms: C7_11  and  C9_13 
REMARK    9  A    between atoms: C12_16  and  C13_17 
REMARK   10  A    between atoms: C13_17  and  C15_19 
REMARK   11  A    between atoms: C15_19  and  C16_20 
ROOT
HETATM    1  C16 UNL     1      -1.266  -0.798   1.024  1.00  0.00    -0.036 C 
HETATM    2  C17 UNL     1      -0.637  -0.724   2.428  1.00  0.00     0.016 C 
HETATM    3  C18 UNL     1      -1.730  -2.210   0.898  1.00  0.00     0.010 C 
HETATM    4  C19 UNL     1      -3.233  -2.100   1.285  1.00  0.00     0.007 C 
HETATM    5  C20 UNL     1      -3.512  -0.911   0.474  1.00  0.00     0.005 C 
HETATM    6  C21 UNL     1      -4.931  -0.510   0.251  1.00  0.00    -0.013 C 
HETATM    7  C22 UNL     1      -5.660  -0.304   1.501  1.00  0.00     0.018 C 
HETATM    8  C23 UNL     1      -5.516  -1.589  -0.631  1.00  0.00     0.019 C 
HETATM    9  C24 UNL     1      -6.989  -1.677  -0.688  1.00  0.00     0.080 C 
HETATM   10  C25 UNL     1      -7.663  -0.577  -1.388  1.00  0.00     0.137 C 
HETATM   11  O3  UNL     1      -7.848  -0.846  -2.561  1.00  0.00    -0.297 OA
HETATM   12  C26 UNL     1      -8.203   0.794  -1.110  1.00  0.00     0.035 C 
HETATM   13  C27 UNL     1      -8.838   1.380  -2.329  1.00  0.00     0.025 C 
HETATM   14  C28 UNL     1      -9.235   0.772   0.005  1.00  0.00     0.025 C 
HETATM   15  C29 UNL     1      -6.982   1.617  -0.658  1.00  0.00     0.184 C 
HETATM   16  O4  UNL     1      -5.905   1.128  -1.274  1.00  0.00    -0.384 OA
HETATM   17  C30 UNL     1      -4.803   0.711  -0.658  1.00  0.00     0.130 C 
HETATM   18  C31 UNL     1      -3.915   1.780  -0.071  1.00  0.00     0.033 C 
HETATM   19  C32 UNL     1      -2.489   1.246   0.111  1.00  0.00     0.013 C 
HETATM   20  C33 UNL     1      -2.554   0.067   1.015  1.00  0.00    -0.032 C 
HETATM   21  C34 UNL     1      -2.807   0.594   2.389  1.00  0.00     0.016 C 
ENDROOT
BRANCH   1  22
HETATM   22  C15 UNL     1      -0.344  -0.261   0.000  1.00  0.00     0.014 C 
BRANCH  22  23
HETATM   23  C13 UNL     1       1.001  -0.862  -0.145  1.00  0.00    -0.014 C 
HETATM   24  C14 UNL     1       0.914  -2.327  -0.589  1.00  0.00     0.010 C 
BRANCH  23  25
HETATM   25  C12 UNL     1       1.819  -0.154  -1.238  1.00  0.00    -0.010 C 
HETATM   26  C11 UNL     1       1.993   1.330  -0.952  1.00  0.00     0.005 C 
HETATM   27  C10 UNL     1       2.986   1.357   0.216  1.00  0.00     0.005 C 
HETATM   28  C9  UNL     1       3.784   0.101   0.107  1.00  0.00    -0.007 C 
HETATM   29  C35 UNL     1       3.298  -0.567  -1.156  1.00  0.00     0.010 C 
BRANCH  28  30
HETATM   30  C7  UNL     1       5.300   0.348   0.084  1.00  0.00     0.008 C 
HETATM   31  C8  UNL     1       5.654   1.467  -0.826  1.00  0.00     0.014 C 
BRANCH  30  32
HETATM   32  C6  UNL     1       6.050  -0.898  -0.016  1.00  0.00    -0.020 C 
BRANCH  32  33
HETATM   33  C5  UNL     1       7.452  -1.124   0.248  1.00  0.00     0.029 C 
BRANCH  33  34
HETATM   34  C4  UNL     1       8.637  -0.574  -0.357  1.00  0.00     0.049 C 
BRANCH  34  35
HETATM   35  C2  UNL     1       9.032   0.839  -0.330  1.00  0.00     0.062 C 
HETATM   36  C1  UNL     1      10.553   0.866  -0.713  1.00  0.00     0.019 C 
BRANCH  35  37
HETATM   37  C3  UNL     1       8.987   1.441   1.055  1.00  0.00     0.175 C 
BRANCH  37  38
HETATM   38  O1  UNL     1       9.766   0.664   1.939  1.00  0.00    -0.400 OA
ATOM     39  H1  UNL     1       9.738   1.043   2.810  1.00  0.00     0.209 HD
ENDBRANCH  37  38
ENDBRANCH  35  37
ENDBRANCH  34  35
BRANCH  34  40
HETATM   40  O2  UNL     1       8.839  -1.083  -1.677  1.00  0.00    -0.365 OA
ATOM     41  H2  UNL     1       8.583  -1.998  -1.694  1.00  0.00     0.217 HD
ENDBRANCH  34  40
ENDBRANCH  33  34
ENDBRANCH  32  33
ENDBRANCH  30  32
ENDBRANCH  28  30
ENDBRANCH  23  25
ENDBRANCH  22  23
ENDBRANCH   1  22
TORSDOF 11
