REMARK  13 active torsions:
REMARK  status: ('A' for Active; 'I' for Inactive)
REMARK    1  A    between atoms: C2_2  and  N2_6 
REMARK    2  A    between atoms: N2_6  and  C3_8 
REMARK    3  A    between atoms: C3_8  and  C4_9 
REMARK    4  A    between atoms: C4_9  and  C5_10 
REMARK    5  A    between atoms: C5_10  and  C6_11 
REMARK    6  A    between atoms: C6_11  and  C8_13 
REMARK    7  A    between atoms: C6_11  and  C13_18 
REMARK    8  A    between atoms: C9_14  and  C10_15 
REMARK    9  A    between atoms: C17_24  and  C19_26 
REMARK   10  A    between atoms: C19_26  and  C20_27 
REMARK   11  A    between atoms: C20_27  and  C21_28 
REMARK   12  A    between atoms: C31_38  and  O3_39 
REMARK   13  A    between atoms: O3_39  and  C32_40 
ROOT
HETATM    1  C13 UNL     1       1.223  -0.729   0.171  1.00  0.00     0.177 C 
HETATM    2  O1  UNL     1       1.174  -1.922   0.859  1.00  0.00    -0.346 OA
HETATM    3  C14 UNL     1       0.269  -2.787   0.314  1.00  0.00     0.158 C 
HETATM    4  C15 UNL     1       0.270  -4.086   1.140  1.00  0.00     0.078 C 
HETATM    5  C16 UNL     1       0.827  -3.215  -1.052  1.00  0.00     0.078 C 
HETATM    6  O2  UNL     1      -0.985  -2.298   0.132  1.00  0.00    -0.343 OA
HETATM    7  C17 UNL     1      -1.192  -0.997   0.664  1.00  0.00     0.090 C 
HETATM    8  C18 UNL     1      -1.159  -1.054   2.134  1.00  0.00     0.049 C 
HETATM    9  C31 UNL     1      -0.120  -0.140  -0.004  1.00  0.00     0.196 C 
ENDROOT
BRANCH   1  10
HETATM   10  C6  UNL     1       2.323   0.113   0.788  1.00  0.00     0.049 C 
HETATM   11  C7  UNL     1       2.031   0.312   2.286  1.00  0.00     0.032 C 
BRANCH  10  12
HETATM   12  C5  UNL     1       2.489   1.425   0.172  1.00  0.00     0.026 C 
BRANCH  12  13
HETATM   13  C4  UNL     1       3.513   2.377   0.616  1.00  0.00     0.021 C 
BRANCH  13  14
HETATM   14  C3  UNL     1       4.952   2.065   0.504  1.00  0.00     0.121 C 
BRANCH  14  15
HETATM   15  N2  UNL     1       5.383   1.824  -0.872  1.00  0.00    -0.380 N 
ATOM     16  H2  UNL     1       4.727   1.871  -1.652  1.00  0.00     0.160 HD
BRANCH  15  17
HETATM   17  C2  UNL     1       6.753   1.522  -1.073  1.00  0.00     0.066 C 
HETATM   18  C1  UNL     1       7.361   1.659  -2.440  1.00  0.00     0.088 C 
HETATM   19  N1  UNL     1       7.509   1.127  -0.106  1.00  0.00    -0.389 N 
ATOM     20  H12 UNL     1       8.495   0.910  -0.251  1.00  0.00     0.157 HD
ATOM     21  H11 UNL     1       7.096   1.034   0.822  1.00  0.00     0.157 HD
ENDBRANCH  15  17
ENDBRANCH  14  15
ENDBRANCH  13  14
ENDBRANCH  12  13
ENDBRANCH  10  12
BRANCH  10  22
HETATM   22  C8  UNL     1       3.540  -0.698   0.734  1.00  0.00    -0.094 C 
HETATM   23  C9  UNL     1       4.534  -1.424   0.693  1.00  0.00    -0.102 C 
BRANCH  23  24
HETATM   24  C10 UNL     1       5.721  -2.291   0.664  1.00  0.00     0.057 C 
HETATM   25  C11 UNL     1       5.293  -3.744   0.622  1.00  0.00     0.023 C 
HETATM   26  C12 UNL     1       6.531  -1.964   1.872  1.00  0.00     0.023 C 
ENDBRANCH  23  24
ENDBRANCH  10  22
ENDBRANCH   1  10
BRANCH   9  27
HETATM   27  O3  UNL     1      -0.436   0.061  -1.366  1.00  0.00    -0.310 OA
BRANCH  27  28
HETATM   28  C32 UNL     1      -0.710   1.175  -2.059  1.00  0.00     0.255 C 
HETATM   29  C33 UNL     1      -1.015   1.040  -3.524  1.00  0.00     0.126 C 
HETATM   30  O4  UNL     1      -0.704   2.264  -1.480  1.00  0.00    -0.266 OA
ENDBRANCH  27  28
ENDBRANCH   9  27
BRANCH   7  31
HETATM   31  C19 UNL     1      -2.597  -0.664   0.248  1.00  0.00     0.041 C 
BRANCH  31  32
HETATM   32  C20 UNL     1      -3.143   0.634   0.694  1.00  0.00     0.012 C 
BRANCH  32  33
HETATM   33  C21 UNL     1      -4.557   0.863   0.208  1.00  0.00    -0.039 C 
HETATM   34  C22 UNL     1      -5.530  -0.165   0.679  1.00  0.00     0.014 C 
HETATM   35  C23 UNL     1      -6.895   0.174   0.169  1.00  0.00    -0.013 C 
HETATM   36  C24 UNL     1      -7.374   1.488   0.738  1.00  0.00     0.009 C 
HETATM   37  C28 UNL     1      -6.903   0.183  -1.343  1.00  0.00     0.009 C 
HETATM   38  C25 UNL     1      -6.410   2.555   0.295  1.00  0.00    -0.013 C 
HETATM   39  C26 UNL     1      -6.478   2.642  -1.218  1.00  0.00     0.009 C 
HETATM   40  C30 UNL     1      -5.018   2.231   0.732  1.00  0.00     0.014 C 
HETATM   41  C27 UNL     1      -5.994   1.341  -1.766  1.00  0.00    -0.013 C 
HETATM   42  C29 UNL     1      -4.606   0.975  -1.300  1.00  0.00     0.014 C 
ENDBRANCH  32  33
ENDBRANCH  31  32
ENDBRANCH   7  31
TORSDOF 13
