REMARK  12 active torsions:
REMARK  status: ('A' for Active; 'I' for Inactive)
REMARK    1  A    between atoms: C2_2  and  O2_4 
REMARK    2  A    between atoms: O2_4  and  C3_5 
REMARK    3  A    between atoms: C14_16  and  C16_18 
REMARK    4  A    between atoms: C16_18  and  C17_19 
REMARK    5  A    between atoms: C17_19  and  C18_20 
REMARK    6  A    between atoms: C18_20  and  C19_21 
REMARK    7  A    between atoms: C18_20  and  C24_28 
REMARK    8  A    between atoms: C19_21  and  C20_22 
REMARK    9  A    between atoms: C21_23  and  C23_25 
REMARK   10  A    between atoms: C23_25  and  O3_26 
REMARK   11  A    between atoms: C25_30  and  C26_31 
REMARK   12  A    between atoms: C26_31  and  O5_34 
ROOT
HETATM    1  C3  UNL     1       0.832  -0.092  -2.799  1.00  0.00     0.144 C 
HETATM    2  C4  UNL     1       2.098   0.668  -2.843  1.00  0.00     0.035 C 
HETATM    3  C5  UNL     1       3.171  -0.226  -2.337  1.00  0.00     0.016 C 
HETATM    4  C6  UNL     1       2.978  -0.310  -0.801  1.00  0.00    -0.019 C 
HETATM    5  C7  UNL     1       3.643  -1.621  -0.489  1.00  0.00     0.020 C 
HETATM    6  C8  UNL     1       3.819   0.855  -0.334  1.00  0.00     0.023 C 
HETATM    7  C9  UNL     1       4.029   1.094   1.086  1.00  0.00     0.023 C 
HETATM    8  C10 UNL     1       3.405   0.228   2.050  1.00  0.00    -0.075 C 
HETATM    9  C11 UNL     1       2.257  -0.449   2.011  1.00  0.00     0.003 C 
HETATM   10  C12 UNL     1       1.247  -0.533   0.972  1.00  0.00     0.005 C 
HETATM   11  C13 UNL     1       1.521  -0.206  -0.420  1.00  0.00    -0.061 C 
HETATM   12  C14 UNL     1       0.569  -0.780  -1.405  1.00  0.00     0.007 C 
HETATM   13  C15 UNL     1       0.666  -2.244  -1.672  1.00  0.00     0.023 C 
HETATM   14  C29 UNL     1       3.994  -0.016   3.380  1.00  0.00     0.034 C 
HETATM   15  C30 UNL     1       5.315   0.572   3.676  1.00  0.00     0.005 C 
HETATM   16  C31 UNL     1       5.691   1.738   2.805  1.00  0.00     0.010 C 
HETATM   17  C32 UNL     1       5.497   1.215   1.370  1.00  0.00    -0.040 C 
HETATM   18  C33 UNL     1       6.163   2.244   0.469  1.00  0.00     0.015 C 
HETATM   19  C34 UNL     1       6.266  -0.073   1.281  1.00  0.00     0.015 C 
ENDROOT
BRANCH  12  20
HETATM   20  C16 UNL     1      -0.875  -0.406  -1.174  1.00  0.00     0.017 C 
BRANCH  20  21
HETATM   21  C17 UNL     1      -1.647  -0.896  -0.052  1.00  0.00     0.009 C 
BRANCH  21  22
HETATM   22  C18 UNL     1      -3.152  -0.511  -0.062  1.00  0.00     0.021 C 
BRANCH  22  23
HETATM   23  C19 UNL     1      -3.679  -1.242   1.220  1.00  0.00     0.034 C 
BRANCH  23  24
HETATM   24  C20 UNL     1      -5.117  -0.993   1.376  1.00  0.00    -0.022 C 
HETATM   25  C21 UNL     1      -5.959  -2.008   1.350  1.00  0.00    -0.064 C 
HETATM   26  C22 UNL     1      -5.460  -3.381   1.166  1.00  0.00     0.045 C 
BRANCH  25  27
HETATM   27  C23 UNL     1      -7.406  -1.759   1.506  1.00  0.00     0.197 C 
BRANCH  27  28
HETATM   28  O3  UNL     1      -8.170  -2.173   0.435  1.00  0.00    -0.397 OA
ATOM     29  H3  UNL     1      -9.101  -2.013   0.535  1.00  0.00     0.209 HD
ENDBRANCH  27  28
ENDBRANCH  25  27
ENDBRANCH  23  24
ENDBRANCH  22  23
BRANCH  22  30
HETATM   30  C24 UNL     1      -3.398   0.912   0.229  1.00  0.00     0.158 A 
HETATM   31  O4  UNL     1      -2.801   1.844  -0.741  1.00  0.00    -0.372 OA
HETATM   32  C25 UNL     1      -4.223   1.850  -0.454  1.00  0.00     0.184 A 
BRANCH  32  33
HETATM   33  C26 UNL     1      -4.681   3.076   0.303  1.00  0.00     0.079 C 
HETATM   34  C27 UNL     1      -6.179   2.963   0.555  1.00  0.00     0.048 C 
HETATM   35  C28 UNL     1      -4.024   3.210   1.654  1.00  0.00     0.048 C 
BRANCH  33  36
HETATM   36  O5  UNL     1      -4.400   4.252  -0.411  1.00  0.00    -0.388 OA
ATOM     37  H5  UNL     1      -4.688   5.022   0.065  1.00  0.00     0.210 HD
ENDBRANCH  33  36
ENDBRANCH  32  33
ENDBRANCH  22  30
ENDBRANCH  21  22
ENDBRANCH  20  21
ENDBRANCH  12  20
BRANCH   1  38
HETATM   38  O2  UNL     1       0.871  -1.067  -3.818  1.00  0.00    -0.315 OA
BRANCH  38  39
HETATM   39  C2  UNL     1      -0.022  -1.012  -4.851  1.00  0.00     0.255 C 
HETATM   40  C1  UNL     1      -0.057  -1.991  -5.967  1.00  0.00     0.126 C 
HETATM   41  O1  UNL     1      -0.899  -0.087  -4.908  1.00  0.00    -0.266 OA
ENDBRANCH  38  39
ENDBRANCH   1  38
TORSDOF 12
