REMARK  13 active torsions:
REMARK  status: ('A' for Active; 'I' for Inactive)
REMARK    1  A    between atoms: C3_3  and  C4_4 
REMARK    2  A    between atoms: C4_4  and  C5_5 
REMARK    3  A    between atoms: C5_5  and  C6_6 
REMARK    4  A    between atoms: C6_6  and  N1_7 
REMARK    5  A    between atoms: C6_6  and  C17_24 
REMARK       I    between atoms: N1_7  and  C7_9 
REMARK    6  A    between atoms: C7_9  and  C8_11 
REMARK    7  A    between atoms: C8_11  and  N2_12 
REMARK    8  A    between atoms: C8_11  and  C14_21 
REMARK       I    between atoms: N2_12  and  C9_14 
REMARK    9  A    between atoms: C9_14  and  O3_16 
REMARK   10  A    between atoms: O3_16  and  C10_17 
REMARK       I    between atoms: C17_24  and  N3_26 
REMARK   11  A    between atoms: N3_26  and  S1_28 
REMARK   12  A    between atoms: S1_28  and  N4_31 
REMARK   13  A    between atoms: N4_31  and  C18_33 
ROOT
HETATM    1  C1  UNL     1       4.560   5.940  -1.275  1.00  0.00     0.112 C 
HETATM    2  C2  UNL     1       3.489   4.938  -1.341  1.00  0.00    -0.111 C 
HETATM    3  C3  UNL     1       2.612   4.103  -1.374  1.00  0.00    -0.107 C 
ENDROOT
BRANCH   3   4
HETATM    4  C4  UNL     1       1.530   3.088  -1.381  1.00  0.00     0.096 C 
BRANCH   4   5
HETATM    5  C5  UNL     1       1.905   2.004  -0.434  1.00  0.00     0.047 C 
BRANCH   5   6
HETATM    6  C6  UNL     1       0.944   0.887  -0.284  1.00  0.00     0.178 C 
BRANCH   6   7
HETATM    7  N1  UNL     1      -0.360   1.325   0.180  1.00  0.00    -0.343 N 
HETATM    8  C7  UNL     1      -1.540   0.653  -0.237  1.00  0.00     0.265 C 
HETATM    9  O1  UNL     1      -1.411  -0.350  -1.000  1.00  0.00    -0.266 OA
ATOM     10  H1  UNL     1      -0.430   2.123   0.812  1.00  0.00     0.163 HD
BRANCH   8  11
HETATM   11  C8  UNL     1      -2.927   1.003   0.131  1.00  0.00     0.085 C 
BRANCH  11  12
HETATM   12  N2  UNL     1      -3.739  -0.122   0.505  1.00  0.00    -0.301 N 
HETATM   13  C9  UNL     1      -4.495  -0.921  -0.408  1.00  0.00     0.365 C 
HETATM   14  O2  UNL     1      -4.477  -0.681  -1.640  1.00  0.00    -0.238 OA
ATOM     15  H2  UNL     1      -3.779  -0.368   1.494  1.00  0.00     0.171 HD
BRANCH  13  16
HETATM   16  O3  UNL     1      -5.268  -1.982   0.030  1.00  0.00    -0.294 OA
BRANCH  16  17
HETATM   17  C10 UNL     1      -6.022  -2.836  -0.780  1.00  0.00     0.061 C 
HETATM   18  C11 UNL     1      -7.043  -2.137  -1.633  1.00  0.00     0.046 C 
HETATM   19  C12 UNL     1      -6.788  -3.753   0.201  1.00  0.00     0.046 C 
HETATM   20  C13 UNL     1      -5.112  -3.738  -1.595  1.00  0.00     0.046 C 
ENDBRANCH  16  17
ENDBRANCH  13  16
ENDBRANCH  11  12
BRANCH  11  21
HETATM   21  C14 UNL     1      -3.110   2.251   0.902  1.00  0.00     0.033 C 
HETATM   22  C15 UNL     1      -2.624   3.453   0.100  1.00  0.00     0.016 C 
HETATM   23  C16 UNL     1      -4.558   2.511   1.277  1.00  0.00     0.016 C 
ENDBRANCH  11  21
ENDBRANCH   8  11
ENDBRANCH   6   7
BRANCH   6  24
HETATM   24  C17 UNL     1       1.527  -0.033   0.764  1.00  0.00     0.255 C 
HETATM   25  O4  UNL     1       0.863  -0.229   1.796  1.00  0.00    -0.270 OA
HETATM   26  N3  UNL     1       2.776  -0.644   0.563  1.00  0.00    -0.236 N 
ATOM     27  H3  UNL     1       3.296  -0.456  -0.294  1.00  0.00     0.183 HD
BRANCH  26  28
HETATM   28  S1  UNL     1       3.435  -1.698   1.735  1.00  0.00     0.322 S 
HETATM   29  O5  UNL     1       2.671  -1.508   3.045  1.00  0.00    -0.182 OA
HETATM   30  O6  UNL     1       3.211  -3.144   1.340  1.00  0.00    -0.182 OA
BRANCH  28  31
HETATM   31  N4  UNL     1       5.075  -1.370   2.060  1.00  0.00    -0.294 N 
ATOM     32  H4  UNL     1       5.368  -0.785   2.842  1.00  0.00     0.174 HD
BRANCH  31  33
HETATM   33  C18 UNL     1       6.012  -1.969   1.164  1.00  0.00     0.031 C 
HETATM   34  C19 UNL     1       5.890  -1.439  -0.256  1.00  0.00     0.038 C 
HETATM   35  C20 UNL     1       5.911  -3.482   1.085  1.00  0.00     0.038 C 
HETATM   36  C21 UNL     1       7.413  -1.636   1.617  1.00  0.00     0.038 C 
ENDBRANCH  31  33
ENDBRANCH  28  31
ENDBRANCH  26  28
ENDBRANCH   6  24
ENDBRANCH   5   6
ENDBRANCH   4   5
ENDBRANCH   3   4
TORSDOF 13
