REMARK  9 active torsions:
REMARK  status: ('A' for Active; 'I' for Inactive)
REMARK    1  A    between atoms: C2_2  and  C4_4 
REMARK    2  A    between atoms: C4_4  and  C5_6 
REMARK    3  A    between atoms: C5_6  and  N1_7 
REMARK    4  A    between atoms: C5_6  and  C11_18 
REMARK       I    between atoms: N1_7  and  C6_9 
REMARK    5  A    between atoms: C6_9  and  C7_11 
REMARK    6  A    between atoms: C11_18  and  C12_20 
REMARK    7  A    between atoms: C12_20  and  C13_21 
REMARK       I    between atoms: C13_21  and  N3_23 
REMARK    8  A    between atoms: C17_27  and  C18_28 
REMARK       I    between atoms: C18_28  and  N4_30 
REMARK    9  A    between atoms: N4_30  and  C19_32 
ROOT
HETATM    1  C11 UNL     1      -1.595   1.012  -0.091  1.00  0.00     0.097 C 
HETATM    2  S1  UNL     1      -1.691   2.052   1.405  1.00  0.00    -0.089 SA
ENDROOT
BRANCH   1   3
HETATM    3  C5  UNL     1      -2.446  -0.226   0.090  1.00  0.00     0.169 C 
BRANCH   3   4
HETATM    4  C4  UNL     1      -2.415  -1.136  -1.069  1.00  0.00     0.154 C 
HETATM    5  O1  UNL     1      -2.918  -0.688  -2.108  1.00  0.00    -0.295 OA
BRANCH   4   6
HETATM    6  C2  UNL     1      -1.860  -2.497  -1.088  1.00  0.00     0.049 C 
HETATM    7  C1  UNL     1      -1.971  -3.076  -2.498  1.00  0.00     0.017 C 
HETATM    8  C3  UNL     1      -0.429  -2.621  -0.659  1.00  0.00     0.017 C 
ENDBRANCH   4   6
ENDBRANCH   3   4
BRANCH   3   9
HETATM    9  N1  UNL     1      -3.822   0.361   0.166  1.00  0.00    -0.347 N 
HETATM   10  C6  UNL     1      -4.698   0.092   1.226  1.00  0.00     0.249 C 
HETATM   11  O2  UNL     1      -4.396  -0.660   2.191  1.00  0.00    -0.271 OA
ATOM     12  H1  UNL     1      -4.133   0.980  -0.582  1.00  0.00     0.163 HD
BRANCH  10  13
HETATM   13  C7  UNL     1      -6.042   0.710   1.229  1.00  0.00     0.277 C 
HETATM   14  C8  UNL     1      -6.909   0.234   0.068  1.00  0.00     0.044 C 
HETATM   15  C9  UNL     1      -8.273   0.731   0.562  1.00  0.00     0.030 C 
HETATM   16  C10 UNL     1      -8.151   0.847   2.053  1.00  0.00     0.233 C 
HETATM   17  N2  UNL     1      -6.847   0.320   2.349  1.00  0.00    -0.062 N 
ATOM     18  H22 UNL     1      -6.836  -0.682   2.542  1.00  0.00     0.278 HD
ATOM     19  H21 UNL     1      -6.474   0.613   3.252  1.00  0.00     0.278 HD
ENDBRANCH  10  13
ENDBRANCH   3   9
ENDBRANCH   1   3
BRANCH   1  20
HETATM   20  C12 UNL     1      -0.161   0.790  -0.423  1.00  0.00     0.121 C 
BRANCH  20  21
HETATM   21  C13 UNL     1       0.508   2.137  -0.552  1.00  0.00     0.221 C 
HETATM   22  O3  UNL     1      -0.209   3.147  -0.380  1.00  0.00    -0.273 OA
HETATM   23  N3  UNL     1       1.886   2.186  -0.856  1.00  0.00    -0.339 N 
HETATM   24  C14 UNL     1       2.689   3.358  -1.031  1.00  0.00     0.127 C 
HETATM   25  C17 UNL     1       2.740   1.052  -1.048  1.00  0.00     0.179 C 
HETATM   26  C15 UNL     1       3.519   2.970  -2.261  1.00  0.00     0.022 C 
HETATM   27  C16 UNL     1       3.588   1.463  -2.229  1.00  0.00     0.037 C 
BRANCH  25  28
HETATM   28  C18 UNL     1       3.661   0.793   0.078  1.00  0.00     0.241 C 
HETATM   29  O4  UNL     1       3.592   1.491   1.112  1.00  0.00    -0.271 OA
HETATM   30  N4  UNL     1       4.619  -0.227   0.009  1.00  0.00    -0.355 N 
ATOM     31  H4  UNL     1       4.654  -0.784  -0.845  1.00  0.00     0.162 HD
BRANCH  30  32
HETATM   32  C19 UNL     1       5.559  -0.548   1.054  1.00  0.00     0.084 C 
HETATM   33  C20 UNL     1       5.246  -1.898   1.682  1.00  0.00     0.025 C 
HETATM   34  C21 UNL     1       6.525  -2.174   2.450  1.00  0.00     0.002 C 
HETATM   35  C22 UNL     1       7.578  -1.829   1.401  1.00  0.00     0.002 C 
HETATM   36  C23 UNL     1       6.976  -0.658   0.629  1.00  0.00     0.025 C 
ENDBRANCH  30  32
ENDBRANCH  25  28
ENDBRANCH  20  21
ENDBRANCH   1  20
TORSDOF 9
