REMARK  2 active torsions:
REMARK  status: ('A' for Active; 'I' for Inactive)
REMARK    1  A    between atoms: C2_2  and  C4_4 
REMARK    2  A    between atoms: C4_4  and  O1_5 
ROOT
HETATM    1  C4  UNL     1       0.611  -0.395  -0.217  1.00  0.00     0.106 C 
HETATM    2  C5  UNL     1      -0.128  -1.445   0.580  1.00  0.00     0.046 C 
HETATM    3  C6  UNL     1      -1.464  -1.657  -0.129  1.00  0.00     0.033 C 
HETATM    4  C7  UNL     1      -2.235  -0.378  -0.115  1.00  0.00     0.272 C 
HETATM    5  N1  UNL     1      -1.520   0.753  -0.606  1.00  0.00     0.087 N 
HETATM    6  C8  UNL     1      -2.252   1.966  -0.309  1.00  0.00     0.310 C 
HETATM    7  C9  UNL     1      -0.196   0.900  -0.057  1.00  0.00     0.314 C 
ENDROOT
BRANCH   1   8
HETATM    8  C2  UNL     1       1.964  -0.137   0.275  1.00  0.00    -0.058 C 
HETATM    9  C1  UNL     1       2.418  -0.804   1.322  1.00  0.00     0.017 C 
HETATM   10  C3  UNL     1       2.826   0.861  -0.390  1.00  0.00     0.046 C 
ENDBRANCH   1   8
BRANCH   1  11
HETATM   11  O1  UNL     1       0.574  -0.694  -1.577  1.00  0.00    -0.384 OA
ATOM     12  H1  UNL     1      -0.305  -0.862  -1.897  1.00  0.00     0.211 HD
ENDBRANCH   1  11
TORSDOF 2
