REMARK  1 active torsions:
REMARK  status: ('A' for Active; 'I' for Inactive)
REMARK    1  A    between atoms: C2_2  and  N1_3 
ROOT
HETATM    1  N1  UNL     1       1.062  -0.139   0.448  1.00  0.00    -0.370 N 
HETATM    2  C3  UNL     1       0.514  -1.406   0.202  1.00  0.00     0.096 C 
HETATM    3  C4  UNL     1      -0.993  -1.455   0.246  1.00  0.00     0.225 C 
HETATM    4  C5  UNL     1      -1.662  -1.163  -1.050  1.00  0.00     0.041 C 
HETATM    5  C6  UNL     1      -1.721   0.343  -1.132  1.00  0.00     0.042 C 
HETATM    6  C7  UNL     1      -1.188   0.779   0.190  1.00  0.00     0.139 C 
HETATM    7  C8  UNL     1      -1.852   2.013   0.750  1.00  0.00     0.048 C 
HETATM    8  C9  UNL     1       0.305   0.994   0.066  1.00  0.00     0.165 C 
HETATM    9  N2  UNL     1      -1.434  -0.356   1.088  1.00  0.00    -0.056 N 
ATOM     10  H21 UNL     1      -0.993  -0.298   2.006  1.00  0.00     0.279 HD
ATOM     11  H22 UNL     1      -2.383  -0.433   1.455  1.00  0.00     0.279 HD
ENDROOT
BRANCH   1  12
HETATM   12  C2  UNL     1       2.411   0.007   0.778  1.00  0.00     0.059 C 
HETATM   13  C1  UNL     1       3.275  -0.330  -0.429  1.00  0.00     0.055 C 
ENDBRANCH   1  12
TORSDOF 1
