REMARK  10 active torsions:
REMARK  status: ('A' for Active; 'I' for Inactive)
REMARK    1  A    between atoms: C2_2  and  C3_3 
REMARK    2  A    between atoms: N1_4  and  N2_6 
REMARK    3  A    between atoms: N2_6  and  C4_8 
REMARK    4  A    between atoms: C4_8  and  C5_9 
REMARK    5  A    between atoms: C5_9  and  O1_10 
REMARK    6  A    between atoms: C5_9  and  C6_12 
REMARK    7  A    between atoms: C5_9  and  C12_18 
REMARK    8  A    between atoms: C15_21  and  O2_22 
REMARK    9  A    between atoms: O2_22  and  C16_23 
REMARK   10  A    between atoms: C23_31  and  O4_32 
ROOT
HETATM    1  C12 UNL     1       0.137  -0.190   0.964  1.00  0.00     0.061 C 
HETATM    2  C13 UNL     1      -1.256  -0.731   0.837  1.00  0.00     0.031 C 
HETATM    3  C14 UNL     1      -1.534   0.231  -0.343  1.00  0.00     0.076 C 
HETATM    4  C15 UNL     1      -2.289   1.392   0.181  1.00  0.00     0.166 C 
HETATM    5  C18 UNL     1      -3.591   1.626  -0.508  1.00  0.00    -0.057 C 
HETATM    6  C19 UNL     1      -3.817   2.855  -0.890  1.00  0.00     0.017 C 
HETATM    7  C20 UNL     1      -4.688   0.683  -0.839  1.00  0.00     0.070 C 
HETATM    8  C21 UNL     1      -4.394   0.371  -2.263  1.00  0.00     0.160 A 
HETATM    9  O3  UNL     1      -4.090  -0.793  -2.833  1.00  0.00    -0.369 OA
HETATM   10  C22 UNL     1      -2.999   0.202  -2.464  1.00  0.00     0.214 A 
HETATM   11  C23 UNL     1      -2.100  -0.477  -1.517  1.00  0.00     0.207 C 
HETATM   12  O5  UNL     1      -1.104  -1.028  -2.366  1.00  0.00    -0.316 OA
HETATM   13  C24 UNL     1      -0.010  -0.301  -2.580  1.00  0.00     0.161 C 
HETATM   14  C25 UNL     1      -0.080   0.908  -3.465  1.00  0.00     0.078 C 
HETATM   15  C26 UNL     1       0.950  -1.250  -3.343  1.00  0.00     0.078 C 
HETATM   16  O6  UNL     1       0.620   0.024  -1.444  1.00  0.00    -0.349 OA
HETATM   17  C27 UNL     1      -0.036   0.458  -0.357  1.00  0.00     0.149 C 
ENDROOT
BRANCH   1  18
HETATM   18  C5  UNL     1       1.218  -1.001   1.456  1.00  0.00     0.124 C 
BRANCH  18  19
HETATM   19  C4  UNL     1       2.499  -0.208   1.519  1.00  0.00     0.123 C 
BRANCH  19  20
HETATM   20  N2  UNL     1       3.226  -0.013   0.331  1.00  0.00    -0.313 N 
ATOM     21  H2  UNL     1       2.967  -0.498  -0.528  1.00  0.00     0.185 HD
BRANCH  20  22
HETATM   22  N1  UNL     1       4.327   0.875   0.363  1.00  0.00    -0.312 N 
HETATM   23  C3  UNL     1       4.339   1.989   0.993  1.00  0.00     0.106 C 
ATOM     24  H1  UNL     1       5.167   0.610  -0.150  1.00  0.00     0.186 HD
BRANCH  23  25
HETATM   25  C2  UNL     1       5.536   2.801   0.941  1.00  0.00     0.008 C 
HETATM   26  C1  UNL     1       6.590   2.405   0.260  1.00  0.00     0.013 C 
ENDBRANCH  23  25
ENDBRANCH  20  22
ENDBRANCH  19  20
ENDBRANCH  18  19
BRANCH  18  27
HETATM   27  O1  UNL     1       0.860  -1.090   2.881  1.00  0.00    -0.379 OA
ATOM     28  H1  UNL     1       0.053  -1.590   2.841  1.00  0.00     0.211 HD
ENDBRANCH  18  27
BRANCH  18  29
HETATM   29  C6  UNL     1       1.525  -2.351   1.135  1.00  0.00    -0.018 A 
HETATM   30  C7  UNL     1       2.403  -3.013   2.022  1.00  0.00     0.010 A 
HETATM   31  C8  UNL     1       2.800  -4.301   1.862  1.00  0.00     0.001 A 
HETATM   32  C9  UNL     1       2.349  -5.036   0.793  1.00  0.00     0.000 A 
HETATM   33  C10 UNL     1       1.503  -4.456  -0.095  1.00  0.00     0.001 A 
HETATM   34  C11 UNL     1       1.114  -3.135   0.096  1.00  0.00     0.010 A 
ENDBRANCH  18  29
ENDBRANCH   1  18
BRANCH   4  35
HETATM   35  O2  UNL     1      -2.685   1.296   1.522  1.00  0.00    -0.381 OA
BRANCH  35  36
HETATM   36  C16 UNL     1      -2.348   2.338   2.332  1.00  0.00     0.164 C 
HETATM   37  C17 UNL     1      -2.906   1.993   3.723  1.00  0.00     0.033 C 
ENDBRANCH  35  36
ENDBRANCH   4  35
BRANCH  11  38
HETATM   38  O4  UNL     1      -2.654  -1.687  -0.986  1.00  0.00    -0.362 OA
ATOM     39  H4  UNL     1      -3.017  -2.140  -1.738  1.00  0.00     0.213 HD
ENDBRANCH  11  38
TORSDOF 10
