REMARK  11 active torsions:
REMARK  status: ('A' for Active; 'I' for Inactive)
REMARK    1  A    between atoms: O1_2  and  C2_3 
REMARK    2  A    between atoms: C4_5  and  C5_6 
REMARK    3  A    between atoms: C6_8  and  C7_9 
REMARK    4  A    between atoms: C7_9  and  C8_10 
REMARK    5  A    between atoms: C8_10  and  O3_11 
REMARK    6  A    between atoms: C8_10  and  C9_13 
REMARK    7  A    between atoms: C9_13  and  N1_14 
REMARK    8  A    between atoms: N1_14  and  C10_17 
REMARK    9  A    between atoms: C21_29  and  O5_30 
REMARK   10  A    between atoms: C24_34  and  O6_35 
REMARK   11  A    between atoms: C26_37  and  O7_38 
ROOT
HETATM    1  C5  UNL     1       1.222  -0.237   0.955  1.00  0.00     0.176 C 
HETATM    2  O2  UNL     1       0.218  -0.594  -0.022  1.00  0.00    -0.345 OA
HETATM    3  C6  UNL     1      -0.789  -1.426   0.422  1.00  0.00     0.048 C 
HETATM    4  C14 UNL     1      -0.525  -2.209   1.453  1.00  0.00     0.038 C 
HETATM    5  C15 UNL     1       0.767  -2.266   2.171  1.00  0.00     0.162 C 
HETATM    6  O4  UNL     1       1.172  -3.590   2.152  1.00  0.00    -0.370 OA
HETATM    7  C16 UNL     1       1.819  -3.809   0.952  1.00  0.00     0.059 C 
HETATM    8  C17 UNL     1       2.914  -4.823   1.212  1.00  0.00     0.046 C 
HETATM    9  C18 UNL     1       0.849  -4.457  -0.010  1.00  0.00     0.046 C 
HETATM   10  C19 UNL     1       2.331  -2.490   0.451  1.00  0.00     0.039 C 
HETATM   11  C20 UNL     1       3.758  -2.242   0.887  1.00  0.00     0.041 C 
HETATM   12  C21 UNL     1       3.173  -1.496   2.084  1.00  0.00     0.133 C 
HETATM   13  C22 UNL     1       1.843  -1.479   1.444  1.00  0.00     0.052 C 
ENDROOT
BRANCH   1  14
HETATM   14  C4  UNL     1       2.092   0.818   0.420  1.00  0.00    -0.022 A 
HETATM   15  C3  UNL     1       2.369   1.968   1.129  1.00  0.00     0.049 A 
HETATM   16  C2  UNL     1       3.166   2.977   0.668  1.00  0.00     0.104 A 
HETATM   17  C26 UNL     1       3.724   2.830  -0.585  1.00  0.00     0.135 A 
HETATM   18  C24 UNL     1       3.480   1.700  -1.338  1.00  0.00     0.104 A 
HETATM   19  C23 UNL     1       2.668   0.708  -0.828  1.00  0.00     0.049 A 
BRANCH  16  20
HETATM   20  O1  UNL     1       3.420   4.134   1.431  1.00  0.00    -0.353 OA
HETATM   21  C1  UNL     1       2.879   4.330   2.700  1.00  0.00     0.210 C 
ENDBRANCH  16  20
BRANCH  17  22
HETATM   22  O7  UNL     1       4.547   3.829  -1.109  1.00  0.00    -0.351 OA
HETATM   23  C27 UNL     1       3.903   4.840  -1.861  1.00  0.00     0.210 C 
ENDBRANCH  17  22
BRANCH  18  24
HETATM   24  O6  UNL     1       4.061   1.591  -2.594  1.00  0.00    -0.353 OA
HETATM   25  C25 UNL     1       3.798   0.419  -3.355  1.00  0.00     0.210 C 
ENDBRANCH  18  24
ENDBRANCH   1  14
BRANCH   3  26
HETATM   26  C7  UNL     1      -2.146  -1.448  -0.240  1.00  0.00     0.097 C 
BRANCH  26  27
HETATM   27  C8  UNL     1      -2.780  -0.068  -0.148  1.00  0.00     0.149 C 
BRANCH  27  28
HETATM   28  O3  UNL     1      -2.890   0.214   1.216  1.00  0.00    -0.394 OA
ATOM     29  H3  UNL     1      -3.286   1.076   1.273  1.00  0.00     0.210 HD
ENDBRANCH  27  28
BRANCH  27  30
HETATM   30  C9  UNL     1      -4.165  -0.072  -0.740  1.00  0.00     0.265 C 
BRANCH  30  31
HETATM   31  N1  UNL     1      -4.786   1.215  -0.554  1.00  0.00    -0.065 N 
ATOM     32  H12 UNL     1      -4.787   1.487   0.429  1.00  0.00     0.278 HD
ATOM     33  H11 UNL     1      -4.204   1.965  -0.928  1.00  0.00     0.278 HD
BRANCH  31  34
HETATM   34  C10 UNL     1      -6.114   1.257  -1.110  1.00  0.00     0.115 C 
HETATM   35  C11 UNL     1      -7.063   0.289  -0.454  1.00  0.00     0.045 C 
HETATM   36  C12 UNL     1      -6.109   0.964  -2.599  1.00  0.00     0.045 C 
HETATM   37  C13 UNL     1      -6.698   2.641  -0.942  1.00  0.00     0.045 C 
ENDBRANCH  31  34
ENDBRANCH  30  31
ENDBRANCH  27  30
ENDBRANCH  26  27
ENDBRANCH   3  26
BRANCH  12  38
HETATM   38  O5  UNL     1       3.841  -0.347   2.371  1.00  0.00    -0.395 OA
ATOM     39  H5  UNL     1       3.477   0.117   3.116  1.00  0.00     0.210 HD
ENDBRANCH  12  38
TORSDOF 11
