REMARK  1 active torsions:
REMARK  status: ('A' for Active; 'I' for Inactive)
REMARK    1  A    between atoms: N1_2  and  C2_4 
ROOT
HETATM    1  C2  UNL     1       0.774  -0.215   0.027  1.00  0.00     0.129 A 
HETATM    2  N2  UNL     1       1.066   0.864   0.776  1.00  0.00    -0.245 N 
ATOM      3  H2  UNL     1       1.995   1.111   1.118  1.00  0.00     0.196 HD
HETATM    4  O1  UNL     1      -0.030   1.547   0.997  1.00  0.00    -0.240 OA
HETATM    5  C3  UNL     1      -1.056   0.979   0.430  1.00  0.00     0.082 A 
HETATM    6  C4  UNL     1      -2.465   1.480   0.473  1.00  0.00     0.079 C 
HETATM    7  C5  UNL     1      -0.583  -0.155  -0.203  1.00  0.00     0.015 A 
HETATM    8  C6  UNL     1      -1.363  -1.125  -0.978  1.00  0.00     0.055 C 
ENDROOT
BRANCH   1   9
HETATM    9  N1  UNL     1       1.606  -1.135  -0.398  1.00  0.00    -0.379 N 
HETATM   10  C1  UNL     1       3.004  -1.044  -0.064  1.00  0.00     0.147 C 
ATOM     11  H1  UNL     1       1.264  -1.912  -0.963  1.00  0.00     0.160 HD
ENDBRANCH   1   9
TORSDOF 1
