REMARK  2 active torsions:
REMARK  status: ('A' for Active; 'I' for Inactive)
REMARK       I    between atoms: C2_2  and  N1_4 
REMARK    1  A    between atoms: N1_4  and  O2_6 
REMARK    2  A    between atoms: O2_6  and  C3_7 
ROOT
HETATM    1  C1  UNL     1       3.454   0.989   0.064  1.00  0.00     0.119 C 
HETATM    2  C2  UNL     1       1.961   1.256   0.134  1.00  0.00     0.237 C 
HETATM    3  O1  UNL     1       1.651   2.214   0.892  1.00  0.00    -0.272 OA
HETATM    4  N1  UNL     1       1.115   0.449  -0.621  1.00  0.00    -0.234 N 
ATOM      5  H1  UNL     1       1.648  -0.246  -1.143  1.00  0.00     0.197 HD
ENDROOT
BRANCH   4   6
HETATM    6  O2  UNL     1      -0.142   0.326  -0.851  1.00  0.00    -0.268 OA
BRANCH   6   7
HETATM    7  C3  UNL     1      -1.071  -0.286  -0.135  1.00  0.00     0.078 C 
HETATM    8  C4  UNL     1      -0.808  -1.748   0.193  1.00  0.00     0.048 C 
HETATM    9  C5  UNL     1      -1.538   0.472   1.056  1.00  0.00     0.048 C 
HETATM   10  C6  UNL     1      -2.383  -0.406  -1.028  1.00  0.00     0.048 C 
ENDBRANCH   6   7
ENDBRANCH   4   6
TORSDOF 2
