REMARK  1 active torsions:
REMARK  status: ('A' for Active; 'I' for Inactive)
REMARK    1  A    between atoms: N1_2  and  C2_4 
ROOT
HETATM    1  C2  UNL     1       0.998  -0.873   0.174  1.00  0.00     0.224 A 
HETATM    2  N2  UNL     1       0.671   0.426   0.294  1.00  0.00    -0.324 N 
ATOM      3  H2  UNL     1       1.337   1.185   0.438  1.00  0.00     0.169 HD
HETATM    4  C3  UNL     1      -0.665   0.578   0.196  1.00  0.00     0.038 A 
HETATM    5  C4  UNL     1      -1.473   1.810   0.267  1.00  0.00     0.071 C 
HETATM    6  C5  UNL     1      -1.136  -0.722   0.007  1.00  0.00     0.075 A 
HETATM    7  C6  UNL     1      -2.542  -1.158  -0.163  1.00  0.00     0.079 C 
HETATM    8  O1  UNL     1      -0.108  -1.545   0.002  1.00  0.00    -0.282 OA
ENDROOT
BRANCH   1   9
HETATM    9  N1  UNL     1       2.220  -1.321   0.228  1.00  0.00    -0.360 N 
HETATM   10  C1  UNL     1       3.334  -0.442   0.424  1.00  0.00     0.150 C 
ATOM     11  H1  UNL     1       2.388  -2.322   0.128  1.00  0.00     0.162 HD
ENDBRANCH   1   9
TORSDOF 1
