REMARK  2 active torsions:
REMARK  status: ('A' for Active; 'I' for Inactive)
REMARK    1  A    between atoms: C2_2  and  O1_3 
REMARK    2  A    between atoms: C2_2  and  C3_5 
ROOT
HETATM    1  C3  UNL     1      -0.558   0.021  -0.525  1.00  0.00     0.289 C 
HETATM    2  C4  UNL     1       0.265   1.222  -0.140  1.00  0.00     0.100 C 
HETATM    3  N1  UNL     1       1.649   1.086  -0.333  1.00  0.00    -0.374 N 
HETATM    4  C5  UNL     1       2.399   2.003   0.515  1.00  0.00     0.154 C 
HETATM    5  C6  UNL     1       2.198  -0.203  -0.409  1.00  0.00     0.092 C 
HETATM    6  C7  UNL     1       1.307  -1.363  -0.344  1.00  0.00     0.317 C 
HETATM    7  N2  UNL     1      -0.029  -1.123   0.120  1.00  0.00     0.101 N 
HETATM    8  C8  UNL     1      -0.773  -2.335  -0.054  1.00  0.00     0.311 C 
ENDROOT
BRANCH   1   9
HETATM    9  C2  UNL     1      -1.987   0.335  -0.219  1.00  0.00     0.152 C 
HETATM   10  C1  UNL     1      -2.240   0.704   1.207  1.00  0.00     0.042 C 
BRANCH   9  11
HETATM   11  O1  UNL     1      -2.867  -0.680  -0.568  1.00  0.00    -0.393 OA
ATOM     12  H1  UNL     1      -2.706  -0.915  -1.474  1.00  0.00     0.210 HD
ENDBRANCH   9  11
ENDBRANCH   1   9
TORSDOF 2
