REMARK  1 active torsions:
REMARK  status: ('A' for Active; 'I' for Inactive)
REMARK    1  A    between atoms: N1_3  and  C3_4 
ROOT
HETATM    1  C1  UNL     1       1.011  -1.863   0.165  1.00  0.00     0.038 C 
HETATM    2  C2  UNL     1      -0.296  -1.351   0.711  1.00  0.00     0.274 C 
HETATM    3  N1  UNL     1      -0.559  -0.087   0.122  1.00  0.00     0.099 N 
HETATM    4  C6  UNL     1       0.537   0.338  -0.670  1.00  0.00     0.254 C 
HETATM    5  C7  UNL     1       1.032   1.713  -0.211  1.00  0.00     0.268 C 
HETATM    6  N2  UNL     1       2.340   1.497   0.352  1.00  0.00    -0.073 N 
ATOM      7  H21 UNL     1       2.530   2.104   1.150  1.00  0.00     0.277 HD
ATOM      8  H22 UNL     1       3.089   1.829  -0.255  1.00  0.00     0.277 HD
HETATM    9  C8  UNL     1       2.464   0.109   0.673  1.00  0.00     0.239 C 
HETATM   10  C9  UNL     1       1.657  -0.616  -0.369  1.00  0.00     0.048 C 
ENDROOT
BRANCH   3  11
HETATM   11  C3  UNL     1      -1.852  -0.023  -0.495  1.00  0.00     0.223 A 
HETATM   12  C4  UNL     1      -2.997  -0.191   0.446  1.00  0.00     0.038 A 
HETATM   13  C5  UNL     1      -2.722   1.155  -0.269  1.00  0.00     0.038 A 
ENDBRANCH   3  11
TORSDOF 1
