REMARK  1 active torsions:
REMARK  status: ('A' for Active; 'I' for Inactive)
REMARK    1  A    between atoms: C7_9  and  N2_10 
ROOT
HETATM    1  C1  UNL     1       3.259   0.981  -0.251  1.00  0.00     0.031 C 
HETATM    2  C2  UNL     1       1.849   0.508   0.090  1.00  0.00     0.072 C 
HETATM    3  C3  UNL     1       1.229   0.073  -1.200  1.00  0.00     0.031 C 
HETATM    4  C4  UNL     1      -0.120  -0.556  -1.026  1.00  0.00     0.029 A 
HETATM    5  C5  UNL     1      -0.223  -1.414   0.161  1.00  0.00     0.043 A 
HETATM    6  C6  UNL     1       1.056  -1.629   0.907  1.00  0.00     0.121 C 
HETATM    7  N1  UNL     1       1.835  -0.459   1.135  1.00  0.00    -0.417 N 
ATOM      8  H1  UNL     1       2.356  -0.321   2.001  1.00  0.00     0.153 HD
HETATM    9  C7  UNL     1      -0.936  -0.127   0.188  1.00  0.00     0.232 A 
ENDROOT
BRANCH   9  10
HETATM   10  N2  UNL     1      -2.344  -0.037  -0.093  1.00  0.00     0.085 N 
HETATM   11  C8  UNL     1      -2.533   1.048  -1.023  1.00  0.00     0.309 C 
HETATM   12  C9  UNL     1      -3.168   0.059   1.084  1.00  0.00     0.309 C 
ENDBRANCH   9  10
TORSDOF 1
