REMARK  1 active torsions:
REMARK  status: ('A' for Active; 'I' for Inactive)
REMARK    1  A    between atoms: C2_2  and  N1_3 
ROOT
HETATM    1  N1  UNL     1       1.134  -0.340  -1.014  1.00  0.00     0.089 N 
HETATM    2  C3  UNL     1       0.244  -1.400  -0.585  1.00  0.00     0.279 C 
HETATM    3  C4  UNL     1      -0.626  -0.819   0.508  1.00  0.00     0.051 C 
HETATM    4  C5  UNL     1      -1.961  -1.535   0.409  1.00  0.00     0.239 C 
HETATM    5  N2  UNL     1      -2.885  -0.442   0.213  1.00  0.00    -0.074 N 
ATOM      6  H21 UNL     1      -3.213  -0.008   1.076  1.00  0.00     0.277 HD
ATOM      7  H22 UNL     1      -3.806  -0.725  -0.123  1.00  0.00     0.277 HD
HETATM    8  C6  UNL     1      -2.166   0.468  -0.686  1.00  0.00     0.243 C 
HETATM    9  C7  UNL     1      -0.828   0.579   0.011  1.00  0.00     0.013 C 
HETATM   10  C8  UNL     1      -0.917   1.613   1.091  1.00  0.00     0.019 C 
HETATM   11  C9  UNL     1       0.320   0.867  -0.901  1.00  0.00     0.283 C 
ENDROOT
BRANCH   1  12
HETATM   12  C2  UNL     1       2.232  -0.364  -0.069  1.00  0.00     0.268 C 
HETATM   13  C1  UNL     1       3.460   0.357  -0.512  1.00  0.00     0.037 C 
ENDBRANCH   1  12
TORSDOF 1
