REMARK  3 active torsions:
REMARK  status: ('A' for Active; 'I' for Inactive)
REMARK    1  A    between atoms: N1_2  and  C4_5 
REMARK    2  A    between atoms: C4_5  and  C5_6 
REMARK    3  A    between atoms: C5_6  and  O1_7 
ROOT
HETATM    1  C5  UNL     1       0.845  -0.114   0.262  1.00  0.00     0.185 C 
HETATM    2  C6  UNL     1       2.022  -1.058  -0.009  1.00  0.00     0.072 C 
HETATM    3  C7  UNL     1       3.142  -0.161  -0.517  1.00  0.00     0.032 C 
HETATM    4  C8  UNL     1       2.575   1.213  -0.227  1.00  0.00     0.171 C 
HETATM    5  O2  UNL     1       1.208   1.032  -0.400  1.00  0.00    -0.353 OA
ENDROOT
BRANCH   1   6
HETATM    6  C4  UNL     1      -0.375  -0.787  -0.253  1.00  0.00     0.303 C 
BRANCH   6   7
HETATM    7  N1  UNL     1      -1.604  -0.103  -0.024  1.00  0.00    -0.073 N 
HETATM    8  C1  UNL     1      -2.086  -0.210   1.337  1.00  0.00     0.271 C 
HETATM    9  C2  UNL     1      -2.603  -0.711  -0.920  1.00  0.00     0.271 C 
HETATM   10  C3  UNL     1      -1.575   1.297  -0.365  1.00  0.00     0.271 C 
ENDBRANCH   6   7
ENDBRANCH   1   6
BRANCH   1  11
HETATM   11  O1  UNL     1       0.783   0.065   1.637  1.00  0.00    -0.364 OA
ATOM     12  H1  UNL     1       1.563   0.495   1.966  1.00  0.00     0.213 HD
ENDBRANCH   1  11
TORSDOF 3
