REMARK  2 active torsions:
REMARK  status: ('A' for Active; 'I' for Inactive)
REMARK    1  A    between atoms: C2_4  and  N2_5 
REMARK    2  A    between atoms: C6_9  and  O1_11 
ROOT
HETATM    1  N2  UNL     1       0.560  -0.228   0.128  1.00  0.00    -0.374 N 
HETATM    2  C3  UNL     1       0.041  -1.529   0.343  1.00  0.00     0.123 C 
HETATM    3  C4  UNL     1      -1.275  -1.594   1.036  1.00  0.00     0.023 C 
HETATM    4  C5  UNL     1      -2.237  -0.523   0.757  1.00  0.00     0.041 C 
HETATM    5  C6  UNL     1      -1.697   0.751   0.204  1.00  0.00     0.070 C 
HETATM    6  C7  UNL     1      -1.989   0.819  -1.283  1.00  0.00     0.047 C 
HETATM    7  C8  UNL     1      -0.220   0.930   0.391  1.00  0.00     0.161 C 
ENDROOT
BRANCH   1   8
HETATM    8  C2  UNL     1       1.874  -0.065  -0.356  1.00  0.00     0.173 C 
HETATM    9  N1  UNL     1       2.821   0.032   0.518  1.00  0.00    -0.391 N 
HETATM   10  C1  UNL     1       4.212   0.202   0.154  1.00  0.00     0.147 C 
ATOM     11  H1  UNL     1       2.578  -0.013   1.508  1.00  0.00     0.159 HD
ENDBRANCH   1   8
BRANCH   5  12
HETATM   12  O1  UNL     1      -2.309   1.885   0.777  1.00  0.00    -0.389 OA
ATOM     13  H1  UNL     1      -1.965   2.697   0.424  1.00  0.00     0.210 HD
ENDBRANCH   5  12
TORSDOF 2
