REMARK  6 active torsions:
REMARK  status: ('A' for Active; 'I' for Inactive)
REMARK    1  A    between atoms: C2_3  and  N2_4 
REMARK    2  A    between atoms: N2_4  and  N3_6 
REMARK    3  A    between atoms: C3_13  and  N6_14 
REMARK    4  A    between atoms: N6_14  and  C4_16 
REMARK    5  A    between atoms: C4_16  and  C5_17 
REMARK    6  A    between atoms: C5_17  and  N7_18 
ROOT
HETATM    1  C1  UNL     1      -3.024  -0.236  -1.079  1.00  0.00     0.177 C 
HETATM    2  N1  UNL     1      -1.976  -0.026  -0.140  1.00  0.00    -0.167 N 
HETATM    3  C2  UNL     1      -2.057   1.028   0.834  1.00  0.00     0.714 C 
HETATM    4  N4  UNL     1      -1.008   1.640   1.566  1.00  0.00    -0.129 N 
ATOM      5  H4  UNL     1      -1.303   2.269   2.313  1.00  0.00     0.205 HD
HETATM    6  N5  UNL     1       0.370   1.502   1.408  1.00  0.00    -0.269 N 
ATOM      7  H5  UNL     1       0.952   2.139   1.952  1.00  0.00     0.189 HD
HETATM    8  C3  UNL     1       1.065   0.566   0.567  1.00  0.00     0.147 C 
HETATM    9  C6  UNL     1       0.480  -0.669   0.034  1.00  0.00     0.124 A 
HETATM   10  N8  UNL     1       1.146  -1.794  -0.253  1.00  0.00    -0.346 N 
ATOM     11  H8  UNL     1       2.150  -1.940  -0.146  1.00  0.00     0.167 HD
HETATM   12  C7  UNL     1       0.271  -2.687  -0.702  1.00  0.00     0.184 A 
HETATM   13  N9  UNL     1      -0.990  -2.173  -0.722  1.00  0.00    -0.331 N 
HETATM   14  C8  UNL     1      -2.213  -2.798  -1.118  1.00  0.00     0.158 C 
HETATM   15  C9  UNL     1      -0.875  -0.918  -0.268  1.00  0.00     0.156 A 
ENDROOT
BRANCH   8  16
HETATM   16  N6  UNL     1       2.271   0.821   0.263  1.00  0.00    -0.372 N 
ATOM     17  H6  UNL     1       2.648   1.686   0.651  1.00  0.00     0.161 HD
BRANCH  16  18
HETATM   18  C4  UNL     1       3.169   0.070  -0.542  1.00  0.00     0.148 C 
BRANCH  18  19
HETATM   19  C5  UNL     1       4.419   0.881  -0.861  1.00  0.00     0.249 C 
BRANCH  19  20
HETATM   20  N7  UNL     1       5.040   1.209   0.413  1.00  0.00    -0.078 N 
ATOM     21  H73 UNL     1       4.408   1.681   1.060  1.00  0.00     0.274 HD
ATOM     22  H72 UNL     1       5.228   0.391   0.992  1.00  0.00     0.274 HD
ATOM     23  H71 UNL     1       5.877   1.752   0.199  1.00  0.00     0.274 HD
ENDBRANCH  19  20
ENDBRANCH  18  19
ENDBRANCH  16  18
ENDBRANCH   8  16
BRANCH   3  24
HETATM   24  N2  UNL     1      -3.267   1.428   1.018  1.00  0.00    -0.137 N 
ATOM     25  H2  UNL     1      -4.044   1.011   0.506  1.00  0.00     0.205 HD
BRANCH  24  26
HETATM   26  N3  UNL     1      -3.478   2.453   1.944  1.00  0.00    -0.331 N 
ATOM     27  H32 UNL     1      -2.690   2.860   2.448  1.00  0.00     0.177 HD
ATOM     28  H31 UNL     1      -4.437   2.770   2.090  1.00  0.00     0.177 HD
ENDBRANCH  24  26
ENDBRANCH   3  24
TORSDOF 6
