REMARK  3 active torsions:
REMARK  status: ('A' for Active; 'I' for Inactive)
REMARK    1  A    between atoms: C4_6  and  O2_7 
REMARK    2  A    between atoms: O2_7  and  C5_8 
REMARK    3  A    between atoms: C7_17  and  N5_18 
ROOT
HETATM    1  C5  UNL     1      -1.925   1.060   0.208  1.00  0.00     0.208 A 
HETATM    2  N2  UNL     1      -2.614   0.707   1.325  1.00  0.00    -0.273 N 
ATOM      3  H2  UNL     1      -2.227   0.951   2.237  1.00  0.00     0.189 HD
HETATM    4  N3  UNL     1      -3.762   0.062   1.277  1.00  0.00    -0.249 N 
ATOM      5  H3  UNL     1      -4.252  -0.189   2.136  1.00  0.00     0.192 HD
HETATM    6  C6  UNL     1      -4.274  -0.259   0.082  1.00  0.00     0.340 A 
HETATM    7  O3  UNL     1      -5.370  -0.875   0.014  1.00  0.00    -0.245 OA
HETATM    8  N4  UNL     1      -3.637   0.065  -1.062  1.00  0.00    -0.290 N 
ATOM      9  H4  UNL     1      -4.045  -0.189  -1.962  1.00  0.00     0.172 HD
HETATM   10  C7  UNL     1      -2.475   0.717  -1.018  1.00  0.00     0.156 A 
ENDROOT
BRANCH   1  11
HETATM   11  O2  UNL     1      -0.723   1.735   0.291  1.00  0.00    -0.272 OA
BRANCH  11  12
HETATM   12  C4  UNL     1       0.508   1.091   0.259  1.00  0.00     0.159 A 
HETATM   13  C3  UNL     1       0.627  -0.280   0.389  1.00  0.00     0.131 A 
HETATM   14  C2  UNL     1       1.872  -0.881   0.352  1.00  0.00     0.255 A 
HETATM   15  N1  UNL     1       2.991  -0.156   0.189  1.00  0.00    -0.271 N 
HETATM   16  O1  UNL     1       1.996  -2.144   0.470  1.00  0.00    -0.268 OA
HETATM   17  C1  UNL     1       4.318  -0.778   0.148  1.00  0.00     0.164 C 
HETATM   18  C8  UNL     1       2.852   1.177   0.065  1.00  0.00     0.330 A 
HETATM   19  N6  UNL     1       1.643   1.791   0.098  1.00  0.00    -0.288 N 
HETATM   20  O4  UNL     1       3.888   1.898  -0.092  1.00  0.00    -0.246 OA
ATOM     21  H6  UNL     1       1.595   2.805  -0.001  1.00  0.00     0.172 HD
ENDBRANCH  11  12
ENDBRANCH   1  11
BRANCH  10  22
HETATM   22  N5  UNL     1      -1.808   1.062  -2.088  1.00  0.00    -0.382 N 
ATOM     23  H52 UNL     1      -0.919   1.561  -2.054  1.00  0.00     0.157 HD
ATOM     24  H51 UNL     1      -2.213   0.810  -2.990  1.00  0.00     0.157 HD
ENDBRANCH  10  22
TORSDOF 3
