REMARK  4 active torsions:
REMARK  status: ('A' for Active; 'I' for Inactive)
REMARK    1  A    between atoms: C1_2  and  N1_3 
REMARK    2  A    between atoms: N1_3  and  N2_5 
REMARK    3  A    between atoms: C4_13  and  C5_14 
REMARK       I    between atoms: C5_14  and  N5_16 
REMARK    4  A    between atoms: N5_16  and  C6_18 
ROOT
HETATM    1  N2  UNL     1       3.195   0.481  -0.992  1.00  0.00    -0.130 N 
ATOM      2  H2  UNL     1       3.746  -0.354  -0.793  1.00  0.00     0.205 HD
HETATM    3  C2  UNL     1       1.891   0.430  -0.897  1.00  0.00     0.699 A 
HETATM    4  N3  UNL     1       1.117   1.503  -1.149  1.00  0.00    -0.186 N 
ATOM      5  H3  UNL     1       1.561   2.380  -1.421  1.00  0.00     0.185 HD
HETATM    6  C3  UNL     1      -0.227   1.452  -1.052  1.00  0.00     0.200 A 
HETATM    7  N4  UNL     1      -0.759   0.271  -0.690  1.00  0.00    -0.333 N 
ATOM      8  H4  UNL     1      -1.773   0.193  -0.606  1.00  0.00     0.168 HD
HETATM    9  C4  UNL     1       0.006  -0.823  -0.432  1.00  0.00     0.191 A 
HETATM   10  N10 UNL     1       1.342  -0.741  -0.537  1.00  0.00    -0.170 N 
ATOM     11  H10 UNL     1       1.929  -1.553  -0.347  1.00  0.00     0.186 HD
ENDROOT
BRANCH   9  12
HETATM   12  C5  UNL     1      -0.608  -2.080  -0.043  1.00  0.00     0.304 C 
HETATM   13  O2  UNL     1       0.119  -3.060   0.185  1.00  0.00    -0.263 OA
HETATM   14  N5  UNL     1      -2.006  -2.144   0.060  1.00  0.00    -0.150 N 
ATOM     15  H5  UNL     1      -2.494  -2.733  -0.615  1.00  0.00     0.188 HD
BRANCH  14  16
HETATM   16  C6  UNL     1      -2.719  -1.537   0.916  1.00  0.00     0.716 A 
HETATM   17  N6  UNL     1      -2.272  -0.722   1.883  1.00  0.00    -0.115 N 
HETATM   18  N7  UNL     1      -3.290  -0.265   2.591  1.00  0.00    -0.213 N 
ATOM     19  H6  UNL     1      -1.293  -0.490   2.047  1.00  0.00     0.207 HD
HETATM   20  N8  UNL     1      -4.373  -0.798   2.063  1.00  0.00    -0.213 N 
ATOM     21  H7  UNL     1      -3.246   0.372   3.386  1.00  0.00     0.210 HD
HETATM   22  N9  UNL     1      -4.051  -1.575   1.044  1.00  0.00    -0.115 N 
ATOM     23  H8  UNL     1      -5.324  -0.634   2.394  1.00  0.00     0.210 HD
ATOM     24  H9  UNL     1      -4.698  -2.106   0.462  1.00  0.00     0.207 HD
ENDBRANCH  14  16
ENDBRANCH   9  12
BRANCH   1  25
HETATM   25  N1  UNL     1       3.839   1.654  -1.359  1.00  0.00    -0.263 N 
ATOM     26  H1  UNL     1       3.857   1.931  -2.340  1.00  0.00     0.190 HD
BRANCH  25  27
HETATM   27  C1  UNL     1       4.469   2.468  -0.397  1.00  0.00     0.369 C 
HETATM   28  O1  UNL     1       4.474   2.164   0.830  1.00  0.00    -0.282 OA
ENDBRANCH  25  27
ENDBRANCH   1  25
TORSDOF 4
