REMARK  3 active torsions:
REMARK  status: ('A' for Active; 'I' for Inactive)
REMARK    1  A    between atoms: C2_2  and  O1_3 
REMARK    2  A    between atoms: C2_2  and  C3_5 
REMARK    3  A    between atoms: C3_5  and  N1_6 
REMARK       I    between atoms: N5_14  and  C7_15 
ROOT
HETATM    1  N1  UNL     1      -1.021  -0.767  -0.385  1.00  0.00    -0.334 N 
HETATM    2  C4  UNL     1      -1.046  -2.128   0.032  1.00  0.00     0.192 C 
HETATM    3  N2  UNL     1      -2.174  -2.701   0.692  1.00  0.00    -0.063 NA
HETATM    4  N3  UNL     1       0.008  -2.821  -0.220  1.00  0.00    -0.331 N 
ATOM      5  H3  UNL     1      -0.002  -3.797   0.075  1.00  0.00     0.168 HD
HETATM    6  C5  UNL     1       1.183  -2.360  -0.868  1.00  0.00     0.157 C 
HETATM    7  N4  UNL     1       1.140  -1.037  -1.406  1.00  0.00    -0.239 NA
HETATM    8  C6  UNL     1       2.470  -0.445  -1.221  1.00  0.00     0.226 C 
HETATM    9  N5  UNL     1       2.324   0.610  -0.264  1.00  0.00    -0.340 N 
HETATM   10  C7  UNL     1       3.244   1.658  -0.025  1.00  0.00     0.185 C 
HETATM   11  N6  UNL     1       3.745   2.390  -0.979  1.00  0.00    -0.374 N 
ATOM     12  H61 UNL     1       4.408   3.146  -0.807  1.00  0.00     0.158 HD
ATOM     13  H62 UNL     1       3.449   2.182  -1.933  1.00  0.00     0.158 HD
HETATM   14  N7  UNL     1       3.655   1.947   1.299  1.00  0.00    -0.064 NA
HETATM   15  C8  UNL     1       1.033   0.365   0.396  1.00  0.00     0.168 C 
HETATM   16  C9  UNL     1       0.203  -0.158  -0.761  1.00  0.00     0.187 C 
ENDROOT
BRANCH   1  17
HETATM   17  C3  UNL     1      -2.276  -0.051  -0.410  1.00  0.00     0.158 C 
BRANCH  17  18
HETATM   18  C2  UNL     1      -2.407   1.032   0.604  1.00  0.00     0.132 C 
HETATM   19  C1  UNL     1      -3.825   1.606   0.447  1.00  0.00     0.041 C 
BRANCH  18  20
HETATM   20  O1  UNL     1      -2.310   0.604   1.917  1.00  0.00    -0.394 OA
ATOM     21  H1  UNL     1      -1.434   0.249   2.014  1.00  0.00     0.210 HD
ENDBRANCH  18  20
ENDBRANCH  17  18
ENDBRANCH   1  17
TORSDOF 3
