REMARK  6 active torsions:
REMARK  status: ('A' for Active; 'I' for Inactive)
REMARK    1  A    between atoms: C2_2  and  O1_3 
REMARK    2  A    between atoms: C2_2  and  C3_5 
REMARK    3  A    between atoms: C2_2  and  N1_8 
REMARK    4  A    between atoms: C3_5  and  O2_6 
REMARK    5  A    between atoms: N1_8  and  N2_9 
REMARK    6  A    between atoms: N1_8  and  C4_12 
ROOT
HETATM    1  C4  UNL     1       0.154   0.255  -0.562  1.00  0.00     0.163 C 
HETATM    2  N3  UNL     1      -0.685  -0.433   0.058  1.00  0.00    -0.314 N 
ATOM      3  H3  UNL     1      -0.391  -1.299   0.511  1.00  0.00     0.166 HD
HETATM    4  C5  UNL     1      -2.026  -0.029   0.139  1.00  0.00     0.316 C 
HETATM    5  C6  UNL     1      -2.153   1.478   0.022  1.00  0.00     0.175 C 
HETATM    6  S1  UNL     1      -0.766   1.692  -1.183  1.00  0.00    -0.086 SA
HETATM    7  N4  UNL     1      -2.626  -0.384   1.404  1.00  0.00    -0.021 N 
ATOM      8  H41 UNL     1      -2.291   0.139   2.213  1.00  0.00     0.283 HD
ATOM      9  H42 UNL     1      -2.363  -1.296   1.776  1.00  0.00     0.283 HD
HETATM   10  C7  UNL     1      -4.053  -0.215   1.084  1.00  0.00     0.264 C 
HETATM   11  C8  UNL     1      -4.087  -0.777  -0.322  1.00  0.00     0.200 C 
HETATM   12  O3  UNL     1      -2.824  -0.633  -0.846  1.00  0.00    -0.336 OA
ENDROOT
BRANCH   1  13
HETATM   13  N1  UNL     1       1.544   0.101  -0.806  1.00  0.00    -0.240 N 
BRANCH  13  14
HETATM   14  C2  UNL     1       2.566   0.362   0.160  1.00  0.00     0.171 C 
HETATM   15  C1  UNL     1       2.290  -0.579   1.342  1.00  0.00     0.075 C 
BRANCH  14  16
HETATM   16  O1  UNL     1       2.583   1.686   0.593  1.00  0.00    -0.367 OA
ATOM     17  H1  UNL     1       2.754   2.268  -0.138  1.00  0.00     0.212 HD
ENDBRANCH  14  16
BRANCH  14  18
HETATM   18  C3  UNL     1       3.916  -0.042  -0.378  1.00  0.00     0.226 C 
BRANCH  18  19
HETATM   19  O2  UNL     1       4.261   0.635  -1.528  1.00  0.00    -0.396 OA
ATOM     20  H2  UNL     1       5.111   0.381  -1.867  1.00  0.00     0.209 HD
ENDBRANCH  18  19
ENDBRANCH  14  18
ENDBRANCH  13  14
BRANCH  13  21
HETATM   21  N2  UNL     1       1.932  -0.335  -2.076  1.00  0.00    -0.338 N 
ATOM     22  H22 UNL     1       2.931  -0.446  -2.251  1.00  0.00     0.177 HD
ATOM     23  H21 UNL     1       1.203  -0.521  -2.765  1.00  0.00     0.177 HD
ENDBRANCH  13  21
ENDBRANCH   1  13
TORSDOF 6
