REMARK  4 active torsions:
REMARK  status: ('A' for Active; 'I' for Inactive)
REMARK       I    between atoms: N3_8  and  C5_9 
REMARK       I    between atoms: C5_9  and  N4_11 
REMARK    1  A    between atoms: N4_11  and  C6_12 
REMARK    2  A    between atoms: N4_11  and  N5_14 
REMARK    3  A    between atoms: N5_14  and  O3_15 
REMARK    4  A    between atoms: C8_18  and  O4_19 
ROOT
HETATM    1  C1  UNL     1      -3.128   2.107   0.046  1.00  0.00     0.068 C 
HETATM    2  C2  UNL     1      -2.577   0.755   0.298  1.00  0.00     0.047 C 
HETATM    3  N1  UNL     1      -2.789  -0.011   1.275  1.00  0.00    -0.368 N 
ATOM      4  H1  UNL     1      -3.403   0.226   2.054  1.00  0.00     0.161 HD
HETATM    5  C3  UNL     1      -2.078  -1.249   1.178  1.00  0.00     0.402 C 
HETATM    6  N2  UNL     1      -1.761  -1.379  -0.221  1.00  0.00     0.165 N 
HETATM    7  C4  UNL     1      -0.461  -1.964  -0.450  1.00  0.00     0.408 C 
HETATM    8  N3  UNL     1       0.495  -0.862  -0.241  1.00  0.00    -0.301 N 
HETATM    9  C5  UNL     1       1.877  -1.106   0.015  1.00  0.00     0.346 C 
HETATM   10  O1  UNL     1       2.324  -2.305   0.065  1.00  0.00    -0.245 OA
HETATM   11  N4  UNL     1       2.826  -0.072   0.227  1.00  0.00    -0.158 N 
HETATM   12  C7  UNL     1      -0.203   0.373  -0.344  1.00  0.00     0.208 C 
HETATM   13  C8  UNL     1      -1.634   0.017  -0.603  1.00  0.00     0.318 C 
ENDROOT
BRANCH  11  14
HETATM   14  C6  UNL     1       4.182  -0.376   0.473  1.00  0.00     0.379 C 
HETATM   15  O2  UNL     1       4.629  -1.542   0.521  1.00  0.00    -0.282 OA
ENDBRANCH  11  14
BRANCH  11  16
HETATM   16  N5  UNL     1       2.378   1.259   0.185  1.00  0.00     0.032 NA
BRANCH  16  17
HETATM   17  O3  UNL     1       3.097   1.960  -0.714  1.00  0.00    -0.276 OA
ATOM     18  H3  UNL     1       2.794   2.860  -0.742  1.00  0.00     0.240 HD
ENDBRANCH  16  17
ENDBRANCH  11  16
BRANCH  13  19
HETATM   19  O4  UNL     1      -2.024   0.131  -1.918  1.00  0.00    -0.357 OA
ATOM     20  H4  UNL     1      -1.426  -0.337  -2.489  1.00  0.00     0.213 HD
ENDBRANCH  13  19
TORSDOF 4
