REMARK  5 active torsions:
REMARK  status: ('A' for Active; 'I' for Inactive)
REMARK    1  A    between atoms: N1_2  and  C2_4 
REMARK    2  A    between atoms: C5_13  and  N5_14 
REMARK    3  A    between atoms: N5_14  and  N6_16 
REMARK       I    between atoms: N6_16  and  C6_18 
REMARK    4  A    between atoms: C6_18  and  C7_20 
REMARK    5  A    between atoms: C7_20  and  N7_21 
ROOT
HETATM    1  C2  UNL     1      -3.377   0.290   0.214  1.00  0.00     0.708 A 
HETATM    2  N2  UNL     1      -3.280  -0.941  -0.321  1.00  0.00    -0.019 N 
ATOM      3  H2  UNL     1      -4.070  -1.553  -0.526  1.00  0.00     0.203 HD
HETATM    4  C3  UNL     1      -2.000  -1.243  -0.544  1.00  0.00     0.734 A 
HETATM    5  N3  UNL     1      -1.466  -2.365  -1.065  1.00  0.00    -0.184 N 
ATOM      6  H3  UNL     1      -2.052  -3.147  -1.358  1.00  0.00     0.185 HD
HETATM    7  C4  UNL     1      -0.125  -2.410  -1.182  1.00  0.00     0.215 A 
HETATM    8  N4  UNL     1       0.647  -1.379  -0.797  1.00  0.00    -0.184 N 
ATOM      9  H4  UNL     1       1.661  -1.429  -0.893  1.00  0.00     0.185 HD
HETATM   10  C5  UNL     1       0.065  -0.283  -0.284  1.00  0.00     0.734 A 
HETATM   11  N8  UNL     1      -1.265  -0.190  -0.147  1.00  0.00     0.106 N 
HETATM   12  N9  UNL     1      -2.109   0.722   0.306  1.00  0.00    -0.096 N 
ATOM     13  H9  UNL     1      -1.834   1.632   0.676  1.00  0.00     0.207 HD
ENDROOT
BRANCH  10  14
HETATM   14  N5  UNL     1       0.783   0.719   0.093  1.00  0.00    -0.127 N 
ATOM     15  H5  UNL     1       0.325   1.544   0.480  1.00  0.00     0.205 HD
BRANCH  14  16
HETATM   16  N6  UNL     1       2.188   0.699  -0.018  1.00  0.00    -0.254 N 
HETATM   17  C6  UNL     1       3.030   1.123   1.038  1.00  0.00     0.262 C 
HETATM   18  O1  UNL     1       2.575   1.540   2.133  1.00  0.00    -0.270 OA
ATOM     19  H6  UNL     1       2.611   0.369  -0.886  1.00  0.00     0.190 HD
BRANCH  17  20
HETATM   20  C7  UNL     1       4.495   1.078   0.860  1.00  0.00     0.333 C 
BRANCH  20  21
HETATM   21  N7  UNL     1       4.798   0.577  -0.446  1.00  0.00    -0.071 N 
ATOM     22  H73 UNL     1       4.359  -0.326  -0.625  1.00  0.00     0.274 HD
ATOM     23  H72 UNL     1       4.336   1.111  -1.182  1.00  0.00     0.274 HD
ATOM     24  H71 UNL     1       5.810   0.546  -0.569  1.00  0.00     0.274 HD
ENDBRANCH  20  21
ENDBRANCH  17  20
ENDBRANCH  14  16
ENDBRANCH  10  14
BRANCH   1  25
HETATM   25  N1  UNL     1      -4.460   0.921   0.564  1.00  0.00    -0.229 N 
HETATM   26  C1  UNL     1      -5.729   0.253   0.371  1.00  0.00     0.165 C 
ATOM     27  H1  UNL     1      -4.416   1.859   0.963  1.00  0.00     0.177 HD
ENDBRANCH   1  25
TORSDOF 5
