REMARK  7 active torsions:
REMARK  status: ('A' for Active; 'I' for Inactive)
REMARK    1  A    between atoms: C2_2  and  C4_4 
REMARK    2  A    between atoms: C4_4  and  S1_5 
REMARK    3  A    between atoms: S1_5  and  C5_6 
REMARK    4  A    between atoms: N4_16  and  C9_18 
REMARK    5  A    between atoms: C14_23  and  N5_24 
REMARK    6  A    between atoms: C15_26  and  C16_27 
REMARK    7  A    between atoms: C16_27  and  O1_28 
ROOT
HETATM    1  C5  UNL     1       1.816  -0.789  -0.293  1.00  0.00     0.147 A 
HETATM    2  N1  UNL     1       1.962   0.463  -0.749  1.00  0.00    -0.322 N 
ATOM      3  H1  UNL     1       2.862   0.820  -1.069  1.00  0.00     0.169 HD
HETATM    4  C6  UNL     1       0.857   1.216  -0.759  1.00  0.00     0.126 A 
HETATM    5  N2  UNL     1       0.980   2.480  -1.215  1.00  0.00    -0.338 N 
ATOM      6  H2  UNL     1       1.889   2.818  -1.531  1.00  0.00     0.168 HD
HETATM    7  C7  UNL     1      -0.084   3.295  -1.256  1.00  0.00     0.183 A 
HETATM    8  N3  UNL     1      -1.285   2.855  -0.842  1.00  0.00    -0.338 N 
ATOM      9  H3  UNL     1      -2.081   3.492  -0.883  1.00  0.00     0.168 HD
HETATM   10  C8  UNL     1      -1.478   1.607  -0.376  1.00  0.00     0.120 A 
HETATM   11  N4  UNL     1      -2.620   1.168   0.024  1.00  0.00    -0.370 N 
ATOM     12  H4  UNL     1      -2.713   0.213   0.369  1.00  0.00     0.161 HD
HETATM   13  C13 UNL     1      -0.360   0.776  -0.341  1.00  0.00     0.096 A 
HETATM   14  C14 UNL     1      -0.515  -0.533   0.136  1.00  0.00     0.124 A 
HETATM   15  N6  UNL     1       0.615  -1.269   0.135  1.00  0.00    -0.322 N 
ATOM     16  H6  UNL     1       0.568  -2.231   0.471  1.00  0.00     0.169 HD
ENDROOT
BRANCH  11  17
HETATM   17  C9  UNL     1      -3.754   2.033  -0.021  1.00  0.00     0.087 A 
HETATM   18  C10 UNL     1      -4.476   2.068  -1.379  1.00  0.00     0.031 A 
HETATM   19  C11 UNL     1      -5.137   1.534  -0.158  1.00  0.00     0.006 A 
HETATM   20  C12 UNL     1      -5.491   0.088  -0.099  1.00  0.00     0.012 C 
ENDBRANCH  11  17
BRANCH  14  21
HETATM   21  N5  UNL     1      -1.651  -0.853   0.495  1.00  0.00    -0.353 N 
HETATM   22  C15 UNL     1      -2.327  -1.916   1.004  1.00  0.00     0.088 C 
ATOM     23  H5  UNL     1      -2.288  -0.066   0.369  1.00  0.00     0.166 HD
BRANCH  22  24
HETATM   24  C16 UNL     1      -1.646  -3.197   1.355  1.00  0.00     0.208 C 
BRANCH  24  25
HETATM   25  O1  UNL     1      -2.620  -4.089   1.856  1.00  0.00    -0.396 OA
ATOM     26  H1  UNL     1      -2.187  -4.904   2.079  1.00  0.00     0.209 HD
ENDBRANCH  24  25
ENDBRANCH  22  24
ENDBRANCH  14  21
BRANCH   1  27
HETATM   27  S1  UNL     1       3.188  -1.940  -0.213  1.00  0.00    -0.093 SA
BRANCH  27  28
HETATM   28  C4  UNL     1       4.704  -1.158  -0.800  1.00  0.00     0.086 C 
BRANCH  28  29
HETATM   29  C2  UNL     1       5.107  -0.090   0.173  1.00  0.00    -0.013 C 
HETATM   30  C1  UNL     1       6.378   0.551  -0.338  1.00  0.00     0.010 C 
HETATM   31  C3  UNL     1       5.362  -0.748   1.513  1.00  0.00     0.010 C 
ENDBRANCH  28  29
ENDBRANCH  27  28
ENDBRANCH   1  27
TORSDOF 7
