REMARK  7 active torsions:
REMARK  status: ('A' for Active; 'I' for Inactive)
REMARK    1  A    between atoms: C2_2  and  C3_3 
REMARK    2  A    between atoms: C6_11  and  O2_12 
REMARK    3  A    between atoms: C7_14  and  C8_15 
REMARK    4  A    between atoms: N3_16  and  C9_18 
REMARK    5  A    between atoms: C9_18  and  C10_19 
REMARK    6  A    between atoms: C10_19  and  C11_20 
REMARK    7  A    between atoms: C11_20  and  N4_21 
ROOT
HETATM    1  C3  UNL     1      -5.367  -0.329  -0.232  1.00  0.00     0.175 C 
HETATM    2  C4  UNL     1      -5.499   0.157   1.146  1.00  0.00     0.246 C 
HETATM    3  O1  UNL     1      -6.681   0.241   1.568  1.00  0.00    -0.271 OA
HETATM    4  N1  UNL     1      -4.538   0.562   2.126  1.00  0.00    -0.310 N 
ATOM      5  H1  UNL     1      -4.882   0.988   2.986  1.00  0.00     0.170 HD
HETATM    6  C5  UNL     1      -3.131   0.407   1.974  1.00  0.00     0.122 A 
HETATM    7  N2  UNL     1      -2.245   0.497   2.965  1.00  0.00    -0.322 N 
ATOM      8  H2  UNL     1      -2.484   0.687   3.938  1.00  0.00     0.169 HD
HETATM    9  C6  UNL     1      -0.975   0.301   2.505  1.00  0.00     0.154 A 
HETATM   10  C7  UNL     1      -1.054   0.073   1.149  1.00  0.00     0.045 A 
HETATM   11  C16 UNL     1      -2.387   0.139   0.819  1.00  0.00     0.039 A 
HETATM   12  C17 UNL     1      -2.984  -0.039  -0.525  1.00  0.00     0.102 C 
HETATM   13  N5  UNL     1      -4.111  -0.864  -0.586  1.00  0.00    -0.380 N 
HETATM   14  C18 UNL     1      -4.097  -1.949  -1.484  1.00  0.00     0.150 C 
ENDROOT
BRANCH  10  15
HETATM   15  C8  UNL     1       0.041  -0.187   0.226  1.00  0.00     0.099 C 
HETATM   16  N3  UNL     1       1.250  -0.220   0.677  1.00  0.00    -0.398 N 
ATOM     17  H3  UNL     1       1.392  -0.060   1.674  1.00  0.00     0.158 HD
BRANCH  16  18
HETATM   18  C9  UNL     1       2.402  -0.466  -0.133  1.00  0.00     0.120 C 
BRANCH  18  19
HETATM   19  C10 UNL     1       3.366   0.697  -0.082  1.00  0.00     0.050 C 
BRANCH  19  20
HETATM   20  C11 UNL     1       4.575   0.415  -0.945  1.00  0.00     0.274 C 
BRANCH  20  21
HETATM   21  N4  UNL     1       5.289  -0.761  -0.516  1.00  0.00     0.088 N 
HETATM   22  C12 UNL     1       6.424  -0.947  -1.400  1.00  0.00     0.272 C 
HETATM   23  C13 UNL     1       7.424   0.111  -0.952  1.00  0.00     0.032 C 
HETATM   24  C14 UNL     1       7.067   0.462   0.457  1.00  0.00     0.032 C 
HETATM   25  C15 UNL     1       5.948  -0.534   0.756  1.00  0.00     0.272 C 
ENDBRANCH  20  21
ENDBRANCH  19  20
ENDBRANCH  18  19
ENDBRANCH  16  18
ENDBRANCH  10  15
BRANCH   9  26
HETATM   26  O2  UNL     1       0.192   0.324   3.258  1.00  0.00    -0.345 OA
ATOM     27  H2  UNL     1       1.076   0.188   2.938  1.00  0.00     0.219 HD
ENDBRANCH   9  26
BRANCH   1  28
HETATM   28  C2  UNL     1      -5.774   0.802  -1.170  1.00  0.00     0.030 C 
HETATM   29  C1  UNL     1      -7.203   1.235  -0.928  1.00  0.00     0.007 C 
ENDBRANCH   1  28
TORSDOF 7
