REMARK  9 active torsions:
REMARK  status: ('A' for Active; 'I' for Inactive)
REMARK    1  A    between atoms: C2_3  and  N2_4 
REMARK    2  A    between atoms: N2_4  and  C3_6 
REMARK    3  A    between atoms: C3_6  and  N3_8 
REMARK    4  A    between atoms: N3_8  and  C4_10 
REMARK    5  A    between atoms: C4_10  and  C5_11 
REMARK    6  A    between atoms: C5_11  and  O1_12 
REMARK    7  A    between atoms: C5_11  and  C6_14 
REMARK    8  A    between atoms: C6_14  and  O2_15 
REMARK    9  A    between atoms: O2_15  and  C7_16 
ROOT
HETATM    1  N1  UNL     1      -5.269   1.936  -0.169  1.00  0.00    -0.195 NA
HETATM    2  C1  UNL     1      -4.485   1.092  -0.084  1.00  0.00     0.091 C 
HETATM    3  C2  UNL     1      -3.474   0.019   0.027  1.00  0.00     0.121 C 
HETATM    4  C12 UNL     1      -3.548  -0.515   1.427  1.00  0.00     0.046 C 
HETATM    5  C13 UNL     1      -4.124  -1.919   1.462  1.00  0.00     0.004 C 
HETATM    6  C14 UNL     1      -5.414  -2.023   0.685  1.00  0.00     0.000 C 
HETATM    7  C15 UNL     1      -5.296  -1.451  -0.712  1.00  0.00     0.004 C 
HETATM    8  C16 UNL     1      -3.869  -1.032  -0.994  1.00  0.00     0.046 C 
ENDROOT
BRANCH   3   9
HETATM    9  N2  UNL     1      -2.167   0.549  -0.307  1.00  0.00    -0.345 N 
ATOM     10  H2  UNL     1      -1.649   0.148  -1.089  1.00  0.00     0.163 HD
BRANCH   9  11
HETATM   11  C3  UNL     1      -1.596   1.612   0.432  1.00  0.00     0.169 C 
HETATM   12  S1  UNL     1      -2.415   2.263   1.686  1.00  0.00    -0.041 SA
BRANCH  11  13
HETATM   13  N3  UNL     1      -0.325   2.130   0.110  1.00  0.00    -0.365 N 
ATOM     14  H3  UNL     1       0.049   2.897   0.668  1.00  0.00     0.161 HD
BRANCH  13  15
HETATM   15  C4  UNL     1       0.475   1.608  -0.994  1.00  0.00     0.155 C 
BRANCH  15  16
HETATM   16  C5  UNL     1       1.799   2.340  -1.117  1.00  0.00     0.159 C 
BRANCH  16  17
HETATM   17  O1  UNL     1       1.505   3.716  -1.348  1.00  0.00    -0.392 OA
ATOM     18  H1  UNL     1       2.334   4.174  -1.425  1.00  0.00     0.210 HD
ENDBRANCH  16  17
BRANCH  16  19
HETATM   19  C6  UNL     1       2.623   2.317   0.125  1.00  0.00     0.204 C 
BRANCH  19  20
HETATM   20  O2  UNL     1       3.078   1.101   0.548  1.00  0.00    -0.359 OA
BRANCH  20  21
HETATM   21  C7  UNL     1       3.930   0.459  -0.345  1.00  0.00     0.259 C 
HETATM   22  C8  UNL     1       3.432  -0.844  -0.812  1.00  0.00     0.061 C 
HETATM   23  C9  UNL     1       4.215  -2.058  -0.501  1.00  0.00     0.007 C 
HETATM   24  C10 UNL     1       5.629  -1.820  -0.055  1.00  0.00     0.026 C 
HETATM   25  C11 UNL     1       5.558  -0.633   0.917  1.00  0.00     0.171 C 
HETATM   26  O3  UNL     1       5.237   0.450   0.138  1.00  0.00    -0.361 OA
ENDBRANCH  20  21
ENDBRANCH  19  20
ENDBRANCH  16  19
ENDBRANCH  15  16
ENDBRANCH  13  15
ENDBRANCH  11  13
ENDBRANCH   9  11
ENDBRANCH   3   9
TORSDOF 9
