REMARK  18 active torsions:
REMARK  status: ('A' for Active; 'I' for Inactive)
REMARK    1  A    between atoms: C2_2  and  C3_3 
REMARK    2  A    between atoms: C2_2  and  C17_45 
REMARK    3  A    between atoms: C3_3  and  C4_8 
REMARK    4  A    between atoms: N1_4  and  O1_6 
REMARK    5  A    between atoms: C4_8  and  O2_9 
REMARK    6  A    between atoms: C4_8  and  N2_11 
REMARK    7  A    between atoms: N2_11  and  O3_12 
REMARK    8  A    between atoms: N2_11  and  C5_14 
REMARK    9  A    between atoms: C7_16  and  N3_17 
REMARK   10  A    between atoms: N3_17  and  N4_18 
REMARK   11  A    between atoms: C9_20  and  O4_21 
REMARK   12  A    between atoms: C10_23  and  N5_24 
REMARK   13  A    between atoms: C11_28  and  O5_29 
REMARK   14  A    between atoms: C12_31  and  N6_32 
REMARK       I    between atoms: N6_32  and  C13_34 
REMARK   15  A    between atoms: C13_34  and  C14_36 
REMARK   16  A    between atoms: N7_37  and  O7_39 
REMARK   17  A    between atoms: C17_45  and  O9_46 
REMARK   18  A    between atoms: C17_45  and  O10_48 
ROOT
HETATM    1  C5  UNL     1       1.712   0.671  -0.937  1.00  0.00     0.175 C 
HETATM    2  C6  UNL     1       0.653  -0.364  -1.240  1.00  0.00     0.068 C 
HETATM    3  C7  UNL     1      -0.658   0.363  -1.447  1.00  0.00     0.166 C 
HETATM    4  C15 UNL     1      -0.691   0.992  -2.777  1.00  0.00     0.156 C 
HETATM    5  O8  UNL     1      -1.508   0.656  -3.592  1.00  0.00    -0.295 OA
HETATM    6  C16 UNL     1       0.294   2.043  -3.092  1.00  0.00     0.156 C 
HETATM    7  S1  UNL     1       1.244   2.321  -1.545  1.00  0.00    -0.134 SA
ENDROOT
BRANCH   3   8
HETATM    8  N3  UNL     1      -1.797  -0.475  -1.277  1.00  0.00    -0.150 NA
BRANCH   8   9
HETATM    9  N4  UNL     1      -1.908  -1.055  -0.010  1.00  0.00    -0.206 NA
HETATM   10  C8  UNL     1      -2.384  -2.389  -0.182  1.00  0.00     0.146 C 
HETATM   11  C9  UNL     1      -2.917  -3.042   1.042  1.00  0.00     0.165 C 
HETATM   12  C10 UNL     1      -3.769  -2.154   1.890  1.00  0.00     0.245 C 
HETATM   13  C11 UNL     1      -3.159  -0.811   2.107  1.00  0.00     0.189 C 
HETATM   14  C12 UNL     1      -2.707  -0.199   0.803  1.00  0.00     0.207 C 
BRANCH  11  15
HETATM   15  O4  UNL     1      -3.728  -4.124   0.628  1.00  0.00    -0.392 OA
ATOM     16  H4  UNL     1      -4.069  -4.541   1.410  1.00  0.00     0.210 HD
ENDBRANCH  11  15
BRANCH  12  17
HETATM   17  N5  UNL     1      -5.124  -2.116   1.391  1.00  0.00    -0.070 N 
ATOM     18  H53 UNL     1      -5.157  -1.845   0.408  1.00  0.00     0.274 HD
ATOM     19  H52 UNL     1      -5.521  -3.052   1.306  1.00  0.00     0.274 HD
ATOM     20  H51 UNL     1      -5.705  -1.510   1.970  1.00  0.00     0.274 HD
ENDBRANCH  12  17
BRANCH  13  21
HETATM   21  O5  UNL     1      -4.091   0.028   2.696  1.00  0.00    -0.390 OA
ATOM     22  H5  UNL     1      -3.702   0.884   2.834  1.00  0.00     0.210 HD
ENDBRANCH  13  21
BRANCH  14  23
HETATM   23  N6  UNL     1      -3.805   0.378   0.077  1.00  0.00    -0.336 N 
HETATM   24  C13 UNL     1      -3.948   1.768  -0.139  1.00  0.00     0.260 C 
HETATM   25  O6  UNL     1      -3.042   2.522   0.346  1.00  0.00    -0.267 OA
ATOM     26  H6  UNL     1      -4.517  -0.247  -0.301  1.00  0.00     0.164 HD
BRANCH  24  27
HETATM   27  C14 UNL     1      -5.072   2.317  -0.880  1.00  0.00     0.187 C 
HETATM   28  N7  UNL     1      -5.133   3.601  -1.037  1.00  0.00    -0.275 N 
ATOM     29  H7  UNL     1      -5.916   4.001  -1.554  1.00  0.00     0.193 HD
BRANCH  28  30
HETATM   30  O7  UNL     1      -4.178   4.435  -0.529  1.00  0.00    -0.290 OA
ATOM     31  H7  UNL     1      -4.223   5.377  -0.644  1.00  0.00     0.244 HD
ENDBRANCH  28  30
ENDBRANCH  24  27
ENDBRANCH  14  23
ENDBRANCH   8   9
ENDBRANCH   3   8
BRANCH   1  32
HETATM   32  N2  UNL     1       2.111   0.699   0.410  1.00  0.00    -0.247 N 
BRANCH  32  33
HETATM   33  C4  UNL     1       2.758  -0.385   1.002  1.00  0.00     0.291 C 
BRANCH  33  34
HETATM   34  C3  UNL     1       4.106  -0.751   0.507  1.00  0.00     0.068 C 
HETATM   35  N1  UNL     1       4.331  -1.823  -0.173  1.00  0.00    -0.272 N 
ATOM     36  H1  UNL     1       5.276  -2.041  -0.489  1.00  0.00     0.193 HD
BRANCH  34  37
HETATM   37  C2  UNL     1       5.289   0.105   0.783  1.00  0.00     0.088 C 
HETATM   38  C1  UNL     1       6.537  -0.545   0.221  1.00  0.00     0.021 C 
BRANCH  37  39
HETATM   39  C17 UNL     1       5.182   1.468   0.135  1.00  0.00     0.263 C 
BRANCH  39  40
HETATM   40  O9  UNL     1       6.312   2.249   0.448  1.00  0.00    -0.371 OA
ATOM     41  H9  UNL     1       6.245   3.105   0.041  1.00  0.00     0.212 HD
ENDBRANCH  39  40
BRANCH  39  42
HETATM   42  O10 UNL     1       5.278   1.274  -1.260  1.00  0.00    -0.371 OA
ATOM     43  H10 UNL     1       5.211   2.130  -1.667  1.00  0.00     0.212 HD
ENDBRANCH  39  42
ENDBRANCH  37  39
ENDBRANCH  34  37
BRANCH  35  44
HETATM   44  O1  UNL     1       3.300  -2.661  -0.466  1.00  0.00    -0.290 OA
ATOM     45  H1  UNL     1       3.466  -3.451  -0.967  1.00  0.00     0.244 HD
ENDBRANCH  35  44
ENDBRANCH  33  34
BRANCH  33  46
HETATM   46  O2  UNL     1       2.765  -0.243   2.405  1.00  0.00    -0.369 OA
ATOM     47  H2  UNL     1       1.901  -0.008   2.722  1.00  0.00     0.212 HD
ENDBRANCH  33  46
ENDBRANCH  32  33
BRANCH  32  48
HETATM   48  O3  UNL     1       1.492   1.562   1.204  1.00  0.00    -0.288 OA
ATOM     49  H3  UNL     1       1.051   2.301   0.801  1.00  0.00     0.244 HD
ENDBRANCH  32  48
ENDBRANCH   1  32
TORSDOF 18
