REMARK  18 active torsions:
REMARK  status: ('A' for Active; 'I' for Inactive)
REMARK    1  A    between atoms: N1_1  and  C1_5 
REMARK    2  A    between atoms: C2_6  and  O1_7 
REMARK    3  A    between atoms: C3_9  and  C4_10 
REMARK    4  A    between atoms: C4_10  and  O2_11 
REMARK    5  A    between atoms: C5_14  and  O4_15 
REMARK    6  A    between atoms: O4_15  and  C6_16 
REMARK    7  A    between atoms: C7_17  and  S1_18 
REMARK    8  A    between atoms: S1_18  and  S2_19 
REMARK    9  A    between atoms: S2_19  and  C8_20 
REMARK   10  A    between atoms: C9_21  and  O5_22 
REMARK   11  A    between atoms: C11_25  and  O6_26 
REMARK   12  A    between atoms: C12_28  and  C13_29 
REMARK   13  A    between atoms: C13_29  and  O7_30 
REMARK   14  A    between atoms: C14_32  and  O8_33 
REMARK   15  A    between atoms: C15_36  and  O10_37 
REMARK   16  A    between atoms: C16_39  and  O11_40 
REMARK   17  A    between atoms: C17_42  and  O12_43 
REMARK   18  A    between atoms: C18_45  and  O13_46 
ROOT
HETATM    1  C6  UNL     1      -1.128   1.787   1.219  1.00  0.00     0.196 C 
HETATM    2  C7  UNL     1       0.355   1.715   1.267  1.00  0.00     0.228 C 
HETATM    3  O9  UNL     1       0.950   2.453   2.278  1.00  0.00    -0.340 OA
HETATM    4  C15 UNL     1       0.640   3.823   2.148  1.00  0.00     0.289 C 
HETATM    5  C16 UNL     1      -0.823   3.921   2.547  1.00  0.00     0.204 C 
HETATM    6  C17 UNL     1      -1.691   3.115   1.645  1.00  0.00     0.184 C 
ENDROOT
BRANCH   1   7
HETATM    7  O4  UNL     1      -1.672   0.703   1.851  1.00  0.00    -0.347 OA
BRANCH   7   8
HETATM    8  C5  UNL     1      -2.406  -0.166   1.119  1.00  0.00     0.291 C 
HETATM    9  O3  UNL     1      -3.740  -0.078   1.616  1.00  0.00    -0.349 OA
HETATM   10  C3  UNL     1      -4.599  -0.762   0.796  1.00  0.00     0.179 C 
HETATM   11  C2  UNL     1      -3.945  -1.787  -0.071  1.00  0.00     0.182 C 
HETATM   12  C1  UNL     1      -2.806  -2.503   0.577  1.00  0.00     0.247 C 
HETATM   13  C18 UNL     1      -1.994  -1.578   1.456  1.00  0.00     0.206 C 
BRANCH  10  14
HETATM   14  C4  UNL     1      -5.771  -1.344   1.592  1.00  0.00     0.198 C 
BRANCH  14  15
HETATM   15  O2  UNL     1      -5.316  -2.221   2.570  1.00  0.00    -0.398 OA
ATOM     16  H2  UNL     1      -6.043  -2.582   3.064  1.00  0.00     0.209 HD
ENDBRANCH  14  15
ENDBRANCH  10  14
BRANCH  11  17
HETATM   17  O1  UNL     1      -4.929  -2.761  -0.364  1.00  0.00    -0.391 OA
ATOM     18  H1  UNL     1      -5.654  -2.305  -0.776  1.00  0.00     0.210 HD
ENDBRANCH  11  17
BRANCH  12  19
HETATM   19  N1  UNL     1      -1.922  -2.969  -0.501  1.00  0.00    -0.070 N 
ATOM     20  H13 UNL     1      -2.405  -3.534  -1.199  1.00  0.00     0.274 HD
ATOM     21  H12 UNL     1      -1.622  -2.220  -1.125  1.00  0.00     0.274 HD
ATOM     22  H11 UNL     1      -1.144  -3.458  -0.058  1.00  0.00     0.274 HD
ENDBRANCH  12  19
BRANCH  13  23
HETATM   23  O13 UNL     1      -0.650  -1.823   1.397  1.00  0.00    -0.388 OA
ATOM     24  H13 UNL     1      -0.140  -1.242   1.949  1.00  0.00     0.210 HD
ENDBRANCH  13  23
ENDBRANCH   7   8
ENDBRANCH   1   7
BRANCH   2  25
HETATM   25  S1  UNL     1       1.104   2.274  -0.316  1.00  0.00    -0.062 SA
BRANCH  25  26
HETATM   26  S2  UNL     1       0.600   0.878  -1.877  1.00  0.00    -0.085 SA
BRANCH  26  27
HETATM   27  C8  UNL     1       1.962  -0.358  -1.847  1.00  0.00     0.116 C 
HETATM   28  C9  UNL     1       1.815  -1.419  -2.853  1.00  0.00     0.137 C 
HETATM   29  C10 UNL     1       3.090  -1.967  -3.418  1.00  0.00     0.065 C 
HETATM   30  C11 UNL     1       4.154  -1.800  -2.323  1.00  0.00     0.129 C 
HETATM   31  C12 UNL     1       4.451  -0.312  -2.319  1.00  0.00     0.068 C 
HETATM   32  C14 UNL     1       3.243   0.398  -1.832  1.00  0.00     0.143 C 
BRANCH  28  33
HETATM   33  O5  UNL     1       1.083  -2.518  -2.344  1.00  0.00    -0.394 OA
ATOM     34  H5  UNL     1       0.988  -3.204  -2.994  1.00  0.00     0.210 HD
ENDBRANCH  28  33
BRANCH  30  35
HETATM   35  O6  UNL     1       5.262  -2.576  -2.565  1.00  0.00    -0.395 OA
ATOM     36  H6  UNL     1       5.920  -2.473  -1.888  1.00  0.00     0.210 HD
ENDBRANCH  30  35
BRANCH  31  37
HETATM   37  C13 UNL     1       5.634   0.039  -1.461  1.00  0.00     0.173 C 
BRANCH  37  38
HETATM   38  O7  UNL     1       6.757  -0.635  -1.956  1.00  0.00    -0.400 OA
ATOM     39  H7  UNL     1       7.505  -0.413  -1.414  1.00  0.00     0.209 HD
ENDBRANCH  37  38
ENDBRANCH  31  37
BRANCH  32  40
HETATM   40  O8  UNL     1       3.502   0.887  -0.548  1.00  0.00    -0.394 OA
ATOM     41  H8  UNL     1       4.320   1.370  -0.538  1.00  0.00     0.210 HD
ENDBRANCH  32  40
ENDBRANCH  26  27
ENDBRANCH  25  26
ENDBRANCH   2  25
BRANCH   6  42
HETATM   42  O12 UNL     1      -1.983   3.931   0.545  1.00  0.00    -0.390 OA
ATOM     43  H12 UNL     1      -2.339   4.770   0.814  1.00  0.00     0.210 HD
ENDBRANCH   6  42
BRANCH   5  44
HETATM   44  O11 UNL     1      -1.229   5.268   2.469  1.00  0.00    -0.388 OA
ATOM     45  H11 UNL     1      -2.144   5.329   2.718  1.00  0.00     0.210 HD
ENDBRANCH   5  44
BRANCH   4  46
HETATM   46  O10 UNL     1       1.408   4.499   3.078  1.00  0.00    -0.368 OA
ATOM     47  H10 UNL     1       1.199   5.422   2.990  1.00  0.00     0.212 HD
ENDBRANCH   4  46
TORSDOF 18
