REMARK  14 active torsions:
REMARK  status: ('A' for Active; 'I' for Inactive)
REMARK    1  A    between atoms: C2_5  and  C3_6 
REMARK    2  A    between atoms: C9_21  and  N8_22 
REMARK    3  A    between atoms: N9_25  and  N10_26 
REMARK    4  A    between atoms: C11_30  and  N11_31 
REMARK    5  A    between atoms: N11_31  and  C12_33 
REMARK    6  A    between atoms: C12_33  and  O1_34 
REMARK    7  A    between atoms: C12_33  and  C13_36 
REMARK    8  A    between atoms: C13_36  and  O2_37 
REMARK    9  A    between atoms: C13_36  and  C14_39 
REMARK   10  A    between atoms: C14_39  and  O3_40 
REMARK   11  A    between atoms: C14_39  and  C15_42 
REMARK   12  A    between atoms: C15_42  and  O4_43 
REMARK   13  A    between atoms: C15_42  and  C16_45 
REMARK   14  A    between atoms: C16_45  and  O5_46 
ROOT
HETATM    1  C3  UNL     1       3.022  -0.346  -0.425  1.00  0.00     0.157 A 
HETATM    2  N3  UNL     1       4.139   0.047   0.262  1.00  0.00    -0.334 N 
ATOM      3  H3  UNL     1       4.051   0.719   1.024  1.00  0.00     0.168 HD
HETATM    4  C4  UNL     1       5.329  -0.434  -0.050  1.00  0.00     0.110 A 
HETATM    5  C5  UNL     1       6.417  -0.011   0.666  1.00  0.00     0.144 A 
HETATM    6  N4  UNL     1       6.490   0.794   1.614  1.00  0.00    -0.277 N 
ATOM      7  H4  UNL     1       7.448   0.908   1.944  1.00  0.00     0.179 HD
HETATM    8  C6  UNL     1       5.626   1.549   2.311  1.00  0.00     0.183 C 
HETATM    9  N5  UNL     1       4.912   2.206   2.926  1.00  0.00    -0.172 NA
HETATM   10  N6  UNL     1       7.632  -0.553   0.288  1.00  0.00    -0.336 N 
ATOM     11  H6  UNL     1       8.480  -0.277   0.784  1.00  0.00     0.168 HD
HETATM   12  C7  UNL     1       7.715  -1.433  -0.716  1.00  0.00     0.182 A 
HETATM   13  N7  UNL     1       6.638  -1.834  -1.404  1.00  0.00    -0.347 N 
ATOM     14  H7  UNL     1       6.740  -2.507  -2.164  1.00  0.00     0.167 HD
HETATM   15  C8  UNL     1       5.409  -1.344  -1.089  1.00  0.00     0.110 A 
HETATM   16  C9  UNL     1       4.293  -1.742  -1.781  1.00  0.00     0.151 A 
HETATM   17  N9  UNL     1       3.080  -1.219  -1.425  1.00  0.00    -0.226 N 
ENDROOT
BRANCH   1  18
HETATM   18  C2  UNL     1       1.741   0.256   0.009  1.00  0.00     0.098 A 
HETATM   19  N2  UNL     1       1.615   1.150   1.020  1.00  0.00    -0.294 N 
HETATM   20  N1  UNL     1       0.333   1.509   1.172  1.00  0.00    -0.281 N 
ATOM     21  H2  UNL     1       2.388   1.500   1.586  1.00  0.00     0.187 HD
HETATM   22  C1  UNL     1      -0.086   2.457   2.187  1.00  0.00     0.179 C 
HETATM   23  C11 UNL     1      -0.431   0.880   0.284  1.00  0.00     0.121 A 
HETATM   24  C10 UNL     1       0.483   0.072  -0.465  1.00  0.00     0.084 A 
BRANCH  23  25
HETATM   25  N11 UNL     1      -1.670   0.879   0.027  1.00  0.00    -0.347 N 
ATOM     26  H11 UNL     1      -1.935   0.263  -0.742  1.00  0.00     0.163 HD
BRANCH  25  27
HETATM   27  C12 UNL     1      -2.731   1.558   0.595  1.00  0.00     0.250 C 
BRANCH  27  28
HETATM   28  O1  UNL     1      -2.934   1.265   1.950  1.00  0.00    -0.374 OA
ATOM     29  H1  UNL     1      -3.663   1.732   2.341  1.00  0.00     0.212 HD
ENDBRANCH  27  28
BRANCH  27  30
HETATM   30  C13 UNL     1      -4.052   1.329  -0.167  1.00  0.00     0.198 C 
BRANCH  30  31
HETATM   31  O2  UNL     1      -3.929   1.761  -1.464  1.00  0.00    -0.389 OA
ATOM     32  H2  UNL     1      -4.743   1.620  -1.933  1.00  0.00     0.210 HD
ENDBRANCH  30  31
BRANCH  30  33
HETATM   33  C14 UNL     1      -4.450  -0.111  -0.127  1.00  0.00     0.181 C 
BRANCH  33  34
HETATM   34  O3  UNL     1      -4.595  -0.623   1.137  1.00  0.00    -0.390 OA
ATOM     35  H3  UNL     1      -4.848  -1.538   1.162  1.00  0.00     0.210 HD
ENDBRANCH  33  34
BRANCH  33  36
HETATM   36  C15 UNL     1      -5.666  -0.314  -0.994  1.00  0.00     0.173 C 
BRANCH  36  37
HETATM   37  O4  UNL     1      -6.800   0.291  -0.469  1.00  0.00    -0.391 OA
ATOM     38  H4  UNL     1      -7.566   0.163  -1.015  1.00  0.00     0.210 HD
ENDBRANCH  36  37
BRANCH  36  39
HETATM   39  C16 UNL     1      -5.998  -1.804  -1.132  1.00  0.00     0.198 C 
BRANCH  39  40
HETATM   40  O5  UNL     1      -7.089  -1.964  -1.985  1.00  0.00    -0.398 OA
ATOM     41  H5  UNL     1      -7.295  -2.887  -2.071  1.00  0.00     0.209 HD
ENDBRANCH  39  40
ENDBRANCH  36  39
ENDBRANCH  33  36
ENDBRANCH  30  33
ENDBRANCH  27  30
ENDBRANCH  25  27
ENDBRANCH  23  25
ENDBRANCH   1  18
BRANCH  16  42
HETATM   42  N8  UNL     1       4.360  -2.581  -2.740  1.00  0.00    -0.382 N 
ATOM     43  H82 UNL     1       5.264  -2.971  -3.005  1.00  0.00     0.157 HD
ATOM     44  H81 UNL     1       3.530  -2.877  -3.254  1.00  0.00     0.157 HD
ENDBRANCH  16  42
BRANCH  17  45
HETATM   45  N10 UNL     1       1.946  -1.644  -2.153  1.00  0.00    -0.335 N 
ATOM     46 2H10 UNL     1       1.042  -1.254  -1.888  1.00  0.00     0.177 HD
ATOM     47 1H10 UNL     1       1.991  -2.314  -2.921  1.00  0.00     0.177 HD
ENDBRANCH  17  45
TORSDOF 14
