REMARK  11 active torsions:
REMARK  status: ('A' for Active; 'I' for Inactive)
REMARK    1  A    between atoms: C2_2  and  O1_4 
REMARK    2  A    between atoms: C2_2  and  N1_6 
REMARK       I    between atoms: N1_6  and  C4_8 
REMARK    3  A    between atoms: C4_8  and  C5_10 
REMARK    4  A    between atoms: C7_14  and  C8_15 
REMARK    5  A    between atoms: C8_15  and  N3_16 
REMARK       I    between atoms: N3_16  and  C9_18 
REMARK       I    between atoms: C9_18  and  N4_20 
REMARK    6  A    between atoms: C11_22  and  C12_23 
REMARK    7  A    between atoms: C12_23  and  N7_29 
REMARK    8  A    between atoms: N5_24  and  N6_26 
REMARK    9  A    between atoms: N7_29  and  N8_31 
REMARK   10  A    between atoms: N11_38  and  N12_39 
REMARK   11  A    between atoms: N12_39  and  C13_41 
ROOT
HETATM    1  C5  UNL     1      -2.450   0.656  -1.231  1.00  0.00     0.141 A 
HETATM    2  C6  UNL     1      -2.094   1.460  -2.343  1.00  0.00     0.127 A 
HETATM    3  N2  UNL     1      -0.927   1.031  -2.773  1.00  0.00    -0.350 N 
ATOM      4  H2  UNL     1      -0.403   1.407  -3.563  1.00  0.00     0.166 HD
HETATM    5  C7  UNL     1      -0.555   0.030  -2.003  1.00  0.00     0.122 A 
HETATM    6  N11 UNL     1      -1.480  -0.245  -1.021  1.00  0.00    -0.233 N 
ENDROOT
BRANCH   5   7
HETATM    7  C8  UNL     1       0.713  -0.717  -2.178  1.00  0.00     0.203 C 
BRANCH   7   8
HETATM    8  N3  UNL     1       1.725  -0.157  -1.299  1.00  0.00    -0.334 N 
HETATM    9  C9  UNL     1       3.029  -0.702  -1.283  1.00  0.00     0.342 C 
HETATM   10  O3  UNL     1       3.302  -1.674  -2.036  1.00  0.00    -0.245 OA
HETATM   11  N4  UNL     1       3.999  -0.138  -0.416  1.00  0.00    -0.200 N 
HETATM   12  C10 UNL     1       5.267  -0.569  -0.313  1.00  0.00     0.158 A 
HETATM   13  N10 UNL     1       3.866   0.872   0.423  1.00  0.00    -0.232 N 
HETATM   14  C11 UNL     1       5.917   0.211   0.622  1.00  0.00     0.113 A 
HETATM   15  N9  UNL     1       5.021   1.094   1.058  1.00  0.00    -0.281 N 
ATOM     16  H9  UNL     1       5.188   1.817   1.758  1.00  0.00     0.188 HD
ATOM     17  H10 UNL     1       3.008   1.405   0.566  1.00  0.00     0.209 HD
ATOM     18  H3  UNL     1       1.494   0.630  -0.693  1.00  0.00     0.164 HD
BRANCH  14  19
HETATM   19  C12 UNL     1       7.312   0.033   0.996  1.00  0.00     0.164 C 
HETATM   20  N5  UNL     1       8.002   1.060   1.381  1.00  0.00    -0.289 N 
ATOM     21  H5  UNL     1       7.562   1.979   1.417  1.00  0.00     0.188 HD
BRANCH  20  22
HETATM   22  N6  UNL     1       9.337   0.921   1.745  1.00  0.00    -0.344 N 
ATOM     23  H62 UNL     1       9.762  -0.005   1.703  1.00  0.00     0.176 HD
ATOM     24  H61 UNL     1       9.880   1.729   2.048  1.00  0.00     0.176 HD
ENDBRANCH  20  22
BRANCH  19  25
HETATM   25  N7  UNL     1       7.888  -1.260   0.932  1.00  0.00    -0.289 N 
ATOM     26  H7  UNL     1       7.690  -1.916   1.687  1.00  0.00     0.188 HD
BRANCH  25  27
HETATM   27  N8  UNL     1       8.702  -1.675  -0.099  1.00  0.00    -0.344 N 
ATOM     28  H82 UNL     1       8.889  -1.006  -0.846  1.00  0.00     0.176 HD
ATOM     29  H81 UNL     1       9.117  -2.606  -0.145  1.00  0.00     0.176 HD
ENDBRANCH  25  27
ENDBRANCH  19  25
ENDBRANCH  14  19
ENDBRANCH   7   8
ENDBRANCH   5   7
BRANCH   6  30
HETATM   30  N12 UNL     1      -1.351  -1.275  -0.168  1.00  0.00    -0.262 N 
ATOM     31  H12 UNL     1      -0.410  -1.669  -0.192  1.00  0.00     0.190 HD
BRANCH  30  32
HETATM   32  C13 UNL     1      -2.175  -1.952   0.750  1.00  0.00     0.207 C 
HETATM   33  N13 UNL     1      -3.088  -2.822   0.459  1.00  0.00    -0.345 N 
HETATM   34  C14 UNL     1      -3.751  -3.324   1.644  1.00  0.00     0.259 C 
ATOM     35  H13 UNL     1      -3.313  -3.118  -0.491  1.00  0.00     0.164 HD
HETATM   36  N14 UNL     1      -3.343  -2.402   2.718  1.00  0.00    -0.119 NA
HETATM   37  N15 UNL     1      -2.153  -1.895   2.187  1.00  0.00    -0.272 N 
ATOM     38  H15 UNL     1      -1.377  -1.535   2.742  1.00  0.00     0.185 HD
ENDBRANCH  30  32
ENDBRANCH   6  30
BRANCH   1  39
HETATM   39  C4  UNL     1      -3.653   0.954  -0.510  1.00  0.00     0.274 C 
HETATM   40  N1  UNL     1      -4.575   1.941  -0.982  1.00  0.00    -0.324 N 
ATOM     41  H1  UNL     1      -4.390   2.453  -1.845  1.00  0.00     0.165 HD
HETATM   42  O2  UNL     1      -3.964   0.385   0.549  1.00  0.00    -0.266 OA
BRANCH  40  43
HETATM   43  C2  UNL     1      -5.768   2.200  -0.219  1.00  0.00     0.126 C 
HETATM   44  C1  UNL     1      -6.542   3.262  -0.939  1.00  0.00     0.070 C 
HETATM   45  C3  UNL     1      -6.624   0.946  -0.133  1.00  0.00     0.070 C 
BRANCH  43  46
HETATM   46  O1  UNL     1      -5.448   2.562   1.086  1.00  0.00    -0.372 OA
ATOM     47  H1  UNL     1      -4.957   1.889   1.542  1.00  0.00     0.212 HD
ENDBRANCH  43  46
ENDBRANCH  40  43
ENDBRANCH   1  39
TORSDOF 11
