REMARK  0 active torsions:
REMARK  status: ('A' for Active; 'I' for Inactive)
ROOT
HETATM    1  C1  UNL     1       2.571   0.745  -0.268  1.00  0.00     0.138 C 
HETATM    2  N1  UNL     1       1.157   0.790  -0.547  1.00  0.00    -0.203 NA
HETATM    3  S1  UNL     1       0.348   1.067   1.019  1.00  0.00    -0.072 SA
HETATM    4  C2  UNL     1      -0.997  -0.172   1.108  1.00  0.00     0.093 C 
HETATM    5  C3  UNL     1      -1.777   0.001  -0.187  1.00  0.00     0.023 C 
HETATM    6  C4  UNL     1      -1.160  -0.935  -1.199  1.00  0.00     0.093 C 
HETATM    7  S2  UNL     1       0.605  -0.687  -1.302  1.00  0.00    -0.072 SA
ENDROOT
TORSDOF 0
