REMARK  0 active torsions:
REMARK  status: ('A' for Active; 'I' for Inactive)
ROOT
HETATM    1  N1  UNL     1       2.939  -1.485  -0.610  1.00  0.00    -0.196 NA
HETATM    2  C1  UNL     1       1.907  -1.005  -0.434  1.00  0.00     0.080 C 
HETATM    3  C2  UNL     1       0.628  -0.411  -0.192  1.00  0.00     0.150 C 
HETATM    4  C3  UNL     1      -0.325  -0.344  -1.375  1.00  0.00     0.308 C 
HETATM    5  N2  UNL     1      -1.408  -0.529  -0.431  1.00  0.00     0.110 N 
HETATM    6  C4  UNL     1      -1.738   0.650   0.325  1.00  0.00     0.395 C 
HETATM    7  N3  UNL     1      -0.550   1.436   0.648  1.00  0.00    -0.361 N 
ATOM      8  H3  UNL     1      -0.641   2.364   1.060  1.00  0.00     0.161 HD
HETATM    9  C5  UNL     1       0.604   0.945   0.407  1.00  0.00     0.081 C 
HETATM   10  S1  UNL     1       2.123   1.791   0.750  1.00  0.00    -0.036 SA
HETATM   11  C6  UNL     1      -0.453  -1.299   0.374  1.00  0.00     0.308 C 
ENDROOT
TORSDOF 0
