REMARK  0 active torsions:
REMARK  status: ('A' for Active; 'I' for Inactive)
ROOT
HETATM    1  C1  UNL     1       1.521   0.117  -0.288  1.00  0.00     0.056 C 
HETATM    2  C2  UNL     1       0.322  -0.024  -1.149  1.00  0.00     0.276 C 
HETATM    3  N1  UNL     1      -0.934   0.058  -0.511  1.00  0.00     0.106 N 
HETATM    4  C3  UNL     1      -1.283  -1.185   0.135  1.00  0.00     0.348 C 
HETATM    5  S1  UNL     1       0.133  -1.606   1.226  1.00  0.00    -0.124 SA
HETATM    6  C4  UNL     1       1.183  -0.101   1.175  1.00  0.00     0.113 C 
HETATM    7  S2  UNL     1       0.046   1.276   1.612  1.00  0.00    -0.124 SA
HETATM    8  C5  UNL     1      -1.193   1.217   0.257  1.00  0.00     0.348 C 
ENDROOT
TORSDOF 0
