REMARK  2 active torsions:
REMARK  status: ('A' for Active; 'I' for Inactive)
REMARK    1  A    between atoms: O1_1  and  N1_3 
REMARK    2  A    between atoms: N1_3  and  N2_5 
ROOT
HETATM    1  N2  UNL     1       1.978  -0.548   0.592  1.00  0.00    -0.265 N 
HETATM    2  C1  UNL     1       1.739   0.187  -0.711  1.00  0.00     0.161 A 
HETATM    3  C2  UNL     1       0.778   1.299  -0.536  1.00  0.00     0.037 C 
HETATM    4  C3  UNL     1      -0.650   0.959  -0.850  1.00  0.00     0.016 C 
HETATM    5  C4  UNL     1      -1.465   0.990   0.404  1.00  0.00     0.008 C 
HETATM    6  C5  UNL     1      -1.677  -0.310   1.065  1.00  0.00     0.031 C 
HETATM    7  C6  UNL     1      -0.797  -1.433   0.668  1.00  0.00     0.275 C 
HETATM    8  N3  UNL     1      -0.107  -1.316  -0.553  1.00  0.00     0.115 N 
HETATM    9  C7  UNL     1      -0.681  -0.406  -1.510  1.00  0.00     0.280 C 
HETATM   10  C8  UNL     1       1.296  -1.159  -0.498  1.00  0.00     0.365 A 
ENDROOT
BRANCH   1  11
HETATM   11  N1  UNL     1       2.570  -0.324   1.834  1.00  0.00    -0.210 N 
ATOM     12  H1  UNL     1       3.151  -1.058   2.239  1.00  0.00     0.215 HD
BRANCH  11  13
HETATM   13  O1  UNL     1       2.417   0.744   2.473  1.00  0.00    -0.275 OA
ATOM     14  H1  UNL     1       2.820   0.897   3.319  1.00  0.00     0.246 HD
ENDBRANCH  11  13
ENDBRANCH   1  11
TORSDOF 2
