REMARK  0 active torsions:
REMARK  status: ('A' for Active; 'I' for Inactive)
ROOT
HETATM    1  C1  UNL     1      -2.697   1.218   0.763  1.00  0.00     0.310 C 
HETATM    2  N1  UNL     1      -1.615   0.641  -0.029  1.00  0.00     0.086 N 
HETATM    3  C2  UNL     1      -2.008  -0.601  -0.619  1.00  0.00     0.274 C 
HETATM    4  C3  UNL     1      -0.764  -1.453  -0.594  1.00  0.00     0.064 C 
HETATM    5  C4  UNL     1       0.319  -0.583   0.050  1.00  0.00     0.073 C 
HETATM    6  C5  UNL     1       1.037   0.238  -0.960  1.00  0.00     0.036 C 
HETATM    7  C6  UNL     1       2.542   0.126  -0.904  1.00  0.00     0.024 C 
HETATM    8  C7  UNL     1       2.868   0.143   0.597  1.00  0.00     0.139 C 
HETATM    9  N2  UNL     1       2.309  -1.066   1.119  1.00  0.00    -0.340 N 
ATOM     10  H2  UNL     1       2.871  -1.677   1.712  1.00  0.00     0.179 HD
HETATM   11  N3  UNL     1       1.159  -1.362   0.852  1.00  0.00    -0.329 N 
ATOM     12  H3  UNL     1       0.786  -2.230   1.236  1.00  0.00     0.180 HD
HETATM   13  C8  UNL     1      -0.528   0.371   0.891  1.00  0.00     0.304 C 
ENDROOT
TORSDOF 0
