REMARK  11 active torsions:
REMARK  status: ('A' for Active; 'I' for Inactive)
REMARK    1  A    between atoms: C2_2  and  C3_3 
REMARK    2  A    between atoms: C3_3  and  C5_5 
REMARK    3  A    between atoms: C9_14  and  C10_15 
REMARK    4  A    between atoms: C14_22  and  C15_23 
REMARK    5  A    between atoms: C15_23  and  C16_24 
REMARK    6  A    between atoms: C16_24  and  C17_25 
REMARK    7  A    between atoms: C17_25  and  C18_26 
REMARK    8  A    between atoms: C18_26  and  N3_27 
REMARK    9  A    between atoms: N3_27  and  C19_29 
REMARK   10  A    between atoms: C19_29  and  N4_31 
REMARK   11  A    between atoms: N4_31  and  C20_33 
ROOT
HETATM    1  C5  UNL     1      -3.972  -1.519  -0.510  1.00  0.00     0.099 C 
HETATM    2  C6  UNL     1      -5.224  -1.046   0.136  1.00  0.00     0.134 C 
HETATM    3  S1  UNL     1      -5.097  -0.784   1.884  1.00  0.00     0.025 S 
HETATM    4  O1  UNL     1      -6.554  -0.090   2.388  1.00  0.00    -0.258 OA
HETATM    5  C7  UNL     1      -3.735   0.198   2.362  1.00  0.00     0.211 C 
HETATM    6  C8  UNL     1      -4.214   1.584   2.654  1.00  0.00     0.230 C 
HETATM    7  O2  UNL     1      -5.007   1.725   3.615  1.00  0.00    -0.273 OA
HETATM    8  N1  UNL     1      -3.804   2.703   1.892  1.00  0.00    -0.347 N 
ATOM      9  H1  UNL     1      -3.733   3.603   2.366  1.00  0.00     0.163 HD
HETATM   10  C9  UNL     1      -3.477   2.653   0.475  1.00  0.00     0.180 C 
HETATM   11  C13 UNL     1      -2.026   2.434   0.282  1.00  0.00     0.241 C 
HETATM   12  O3  UNL     1      -1.295   2.751   1.293  1.00  0.00    -0.271 OA
HETATM   13  N2  UNL     1      -1.385   1.931  -0.860  1.00  0.00    -0.346 N 
ATOM     14  H2  UNL     1      -0.685   2.546  -1.276  1.00  0.00     0.163 HD
HETATM   15  C14 UNL     1      -1.574   0.672  -1.528  1.00  0.00     0.176 C 
HETATM   16  C26 UNL     1      -2.918   0.333  -1.953  1.00  0.00     0.240 C 
HETATM   17  O4  UNL     1      -3.498   1.264  -2.636  1.00  0.00    -0.271 OA
HETATM   18  N5  UNL     1      -3.686  -0.818  -1.755  1.00  0.00    -0.354 N 
ATOM     19  H5  UNL     1      -4.102  -1.221  -2.595  1.00  0.00     0.163 HD
ENDROOT
BRANCH  15  20
HETATM   20  C15 UNL     1      -0.791  -0.402  -0.816  1.00  0.00     0.035 C 
BRANCH  20  21
HETATM   21  C16 UNL     1       0.683   0.043  -0.902  1.00  0.00     0.004 C 
BRANCH  21  22
HETATM   22  C17 UNL     1       1.563  -0.993  -0.203  1.00  0.00     0.020 C 
BRANCH  22  23
HETATM   23  C18 UNL     1       2.988  -0.565  -0.287  1.00  0.00     0.122 C 
BRANCH  23  24
HETATM   24  N3  UNL     1       3.856  -1.523   0.365  1.00  0.00    -0.367 N 
ATOM     25  H3  UNL     1       3.438  -2.347   0.797  1.00  0.00     0.161 HD
BRANCH  24  26
HETATM   26  C19 UNL     1       5.284  -1.359   0.428  1.00  0.00     0.167 C 
HETATM   27  S2  UNL     1       6.098  -2.537   1.209  1.00  0.00    -0.041 SA
BRANCH  26  28
HETATM   28  N4  UNL     1       5.894  -0.234  -0.157  1.00  0.00    -0.363 N 
ATOM     29  H4  UNL     1       5.263   0.429  -0.608  1.00  0.00     0.162 HD
BRANCH  28  30
HETATM   30  C20 UNL     1       7.281   0.101  -0.202  1.00  0.00     0.083 C 
HETATM   31  C21 UNL     1       8.063  -0.917  -0.958  1.00  0.00     0.025 C 
HETATM   32  C22 UNL     1       9.553  -0.610  -0.947  1.00  0.00     0.002 C 
HETATM   33  C23 UNL     1      10.014  -0.482   0.478  1.00  0.00     0.000 C 
HETATM   34  C24 UNL     1       9.293   0.709   1.097  1.00  0.00     0.002 C 
HETATM   35  C25 UNL     1       7.816   0.286   1.197  1.00  0.00     0.025 C 
ENDBRANCH  28  30
ENDBRANCH  26  28
ENDBRANCH  24  26
ENDBRANCH  23  24
ENDBRANCH  22  23
ENDBRANCH  21  22
ENDBRANCH  20  21
ENDBRANCH  15  20
BRANCH  10  36
HETATM   36  C10 UNL     1      -3.862   3.999  -0.157  1.00  0.00     0.009 C 
HETATM   37  C11 UNL     1      -3.137   5.152   0.457  1.00  0.00     0.012 C 
HETATM   38  C12 UNL     1      -5.358   4.205  -0.090  1.00  0.00     0.012 C 
ENDBRANCH  10  36
BRANCH   1  39
HETATM   39  C3  UNL     1      -3.767  -2.976  -0.652  1.00  0.00     0.005 C 
HETATM   40  C4  UNL     1      -3.431  -3.643   0.661  1.00  0.00     0.012 C 
BRANCH  39  41
HETATM   41  C2  UNL     1      -4.728  -3.774  -1.442  1.00  0.00     0.002 C 
HETATM   42  C1  UNL     1      -6.048  -4.077  -0.841  1.00  0.00     0.005 C 
ENDBRANCH  39  41
ENDBRANCH   1  39
TORSDOF 11
