REMARK  11 active torsions:
REMARK  status: ('A' for Active; 'I' for Inactive)
REMARK    1  A    between atoms: C2_2  and  C4_4 
REMARK    2  A    between atoms: C4_4  and  C5_5 
REMARK    3  A    between atoms: C7_10  and  C8_11 
REMARK    4  A    between atoms: C8_11  and  C9_12 
REMARK    5  A    between atoms: C13_19  and  C14_20 
REMARK    6  A    between atoms: C14_20  and  C15_21 
REMARK    7  A    between atoms: C15_21  and  C16_22 
REMARK    8  A    between atoms: C16_22  and  C17_23 
REMARK    9  A    between atoms: C17_23  and  N3_24 
REMARK   10  A    between atoms: C18_30  and  O3_31 
REMARK   11  A    between atoms: C24_40  and  C25_41 
ROOT
HETATM    1  C5  UNL     1      -1.909   1.391  -0.128  1.00  0.00     0.177 C 
HETATM    2  N1  UNL     1      -1.053   1.842  -1.199  1.00  0.00    -0.346 N 
ATOM      3  H1  UNL     1      -1.537   2.152  -2.042  1.00  0.00     0.163 HD
HETATM    4  C6  UNL     1       0.351   1.917  -1.250  1.00  0.00     0.241 C 
HETATM    5  O1  UNL     1       0.893   1.337  -2.264  1.00  0.00    -0.271 OA
HETATM    6  C7  UNL     1       1.272   2.562  -0.312  1.00  0.00     0.177 C 
HETATM    7  N2  UNL     1       1.888   1.749   0.687  1.00  0.00    -0.346 N 
ATOM      8  H2  UNL     1       2.346   2.276   1.431  1.00  0.00     0.163 HD
HETATM    9  C12 UNL     1       1.977   0.351   0.831  1.00  0.00     0.241 C 
HETATM   10  O2  UNL     1       1.386  -0.087   1.883  1.00  0.00    -0.271 OA
HETATM   11  C13 UNL     1       2.620  -0.632  -0.009  1.00  0.00     0.175 C 
HETATM   12  N4  UNL     1       1.960  -1.829  -0.371  1.00  0.00    -0.359 N 
ATOM     13  H4  UNL     1       2.616  -2.530  -0.716  1.00  0.00     0.162 HD
HETATM   14  C18 UNL     1       0.660  -2.299  -0.380  1.00  0.00     0.135 C 
HETATM   15  C19 UNL     1      -0.289  -2.611   0.710  1.00  0.00     0.161 C 
HETATM   16  C20 UNL     1       0.312  -3.504   1.801  1.00  0.00     0.035 C 
HETATM   17  C21 UNL     1       0.330  -4.889   1.204  1.00  0.00     0.022 C 
HETATM   18  C22 UNL     1      -0.619  -4.837   0.044  1.00  0.00     0.127 C 
HETATM   19  N5  UNL     1      -1.331  -3.571   0.285  1.00  0.00    -0.340 N 
HETATM   20  C23 UNL     1      -2.697  -3.268   0.182  1.00  0.00     0.226 C 
HETATM   21  O4  UNL     1      -3.519  -4.069   0.757  1.00  0.00    -0.273 OA
HETATM   22  C24 UNL     1      -3.300  -2.114  -0.524  1.00  0.00     0.099 C 
HETATM   23  C28 UNL     1      -3.834  -1.135   0.467  1.00  0.00     0.137 C 
HETATM   24  N6  UNL     1      -4.153   0.167  -0.052  1.00  0.00    -0.358 N 
ATOM     25  H6  UNL     1      -5.128   0.458   0.016  1.00  0.00     0.162 HD
HETATM   26  C29 UNL     1      -3.278   1.067  -0.634  1.00  0.00     0.240 C 
HETATM   27  O5  UNL     1      -3.616   1.704  -1.696  1.00  0.00    -0.271 OA
ENDROOT
BRANCH  11  28
HETATM   28  C14 UNL     1       4.055  -0.962   0.489  1.00  0.00     0.035 C 
BRANCH  28  29
HETATM   29  C15 UNL     1       4.113  -1.508   1.848  1.00  0.00     0.004 C 
BRANCH  29  30
HETATM   30  C16 UNL     1       5.494  -1.768   2.336  1.00  0.00     0.027 C 
BRANCH  30  31
HETATM   31  C17 UNL     1       6.341  -2.730   1.600  1.00  0.00     0.229 C 
BRANCH  31  32
HETATM   32  N3  UNL     1       6.673  -2.430   0.248  1.00  0.00    -0.079 N 
ATOM     33  H33 UNL     1       5.815  -2.269  -0.279  1.00  0.00     0.274 HD
ATOM     34  H32 UNL     1       7.103  -1.506   0.206  1.00  0.00     0.274 HD
ATOM     35  H31 UNL     1       7.258  -3.094  -0.260  1.00  0.00     0.274 HD
ENDBRANCH  31  32
ENDBRANCH  30  31
ENDBRANCH  29  30
ENDBRANCH  28  29
ENDBRANCH  11  28
BRANCH  14  36
HETATM   36  O3  UNL     1       0.143  -2.520  -1.558  1.00  0.00    -0.348 OA
ATOM     37  H3  UNL     1      -0.750  -2.843  -1.564  1.00  0.00     0.219 HD
ENDBRANCH  14  36
BRANCH   6  38
HETATM   38  C8  UNL     1       2.344   3.415  -0.931  1.00  0.00     0.038 C 
BRANCH  38  39
HETATM   39  C9  UNL     1       1.926   4.583  -1.729  1.00  0.00    -0.020 C 
HETATM   40  C10 UNL     1       3.242   5.254  -2.200  1.00  0.00     0.009 C 
HETATM   41  C11 UNL     1       1.162   4.310  -2.995  1.00  0.00     0.009 C 
ENDBRANCH  38  39
ENDBRANCH   6  38
BRANCH   1  42
HETATM   42  C4  UNL     1      -1.944   2.234   1.079  1.00  0.00     0.038 C 
BRANCH  42  43
HETATM   43  C2  UNL     1      -2.369   3.637   1.001  1.00  0.00    -0.020 C 
HETATM   44  C1  UNL     1      -2.264   4.195   2.440  1.00  0.00     0.009 C 
HETATM   45  C3  UNL     1      -3.776   3.911   0.574  1.00  0.00     0.009 C 
ENDBRANCH  42  43
ENDBRANCH   1  42
BRANCH  22  46
HETATM   46  C25 UNL     1      -4.302  -2.657  -1.497  1.00  0.00    -0.008 C 
HETATM   47  C26 UNL     1      -4.996  -1.567  -2.306  1.00  0.00     0.010 C 
HETATM   48  C27 UNL     1      -5.354  -3.541  -0.923  1.00  0.00     0.010 C 
ENDBRANCH  22  46
TORSDOF 11
