REMARK  11 active torsions:
REMARK  status: ('A' for Active; 'I' for Inactive)
REMARK    1  A    between atoms: C2_2  and  N1_3 
REMARK    2  A    between atoms: C4_8  and  C5_9 
REMARK    3  A    between atoms: C5_9  and  C6_10 
REMARK    4  A    between atoms: C12_22  and  C13_23 
REMARK    5  A    between atoms: C13_23  and  C14_24 
REMARK    6  A    between atoms: C17_29  and  O4_30 
REMARK    7  A    between atoms: C18_32  and  C19_33 
REMARK    8  A    between atoms: C19_33  and  C20_34 
REMARK    9  A    between atoms: C23_39  and  O5_40 
REMARK   10  A    between atoms: C24_42  and  C25_43 
REMARK   11  A    between atoms: C25_43  and  C26_44 
ROOT
HETATM    1  N1  UNL     1       2.595  -1.466  -0.018  1.00  0.00    -0.217 NA
HETATM    2  N2  UNL     1       2.330  -0.801   1.179  1.00  0.00    -0.287 N 
ATOM      3  H2  UNL     1       1.846  -1.340   1.897  1.00  0.00     0.184 HD
HETATM    4  C3  UNL     1       2.654   0.530   1.512  1.00  0.00     0.255 C 
HETATM    5  O1  UNL     1       2.920   0.837   2.736  1.00  0.00    -0.270 OA
HETATM    6  C4  UNL     1       2.740   1.701   0.619  1.00  0.00     0.178 C 
HETATM    7  N3  UNL     1       1.859   1.614  -0.523  1.00  0.00    -0.346 N 
ATOM      8  H3  UNL     1       1.923   0.776  -1.101  1.00  0.00     0.163 HD
HETATM    9  C9  UNL     1       0.928   2.582  -0.901  1.00  0.00     0.236 C 
HETATM   10  O2  UNL     1       0.565   2.600  -2.132  1.00  0.00    -0.272 OA
HETATM   11  C10 UNL     1       0.303   3.605  -0.037  1.00  0.00     0.225 C 
HETATM   12  N4  UNL     1      -0.266   3.159   1.184  1.00  0.00    -0.351 N 
ATOM     13  H4  UNL     1      -0.038   3.750   1.983  1.00  0.00     0.163 HD
HETATM   14  C11 UNL     1      -1.071   2.078   1.502  1.00  0.00     0.240 C 
HETATM   15  O3  UNL     1      -0.698   1.402   2.529  1.00  0.00    -0.271 OA
HETATM   16  C12 UNL     1      -2.322   1.605   0.799  1.00  0.00     0.175 C 
HETATM   17  N5  UNL     1      -2.089   0.726  -0.286  1.00  0.00    -0.359 N 
ATOM     18  H5  UNL     1      -1.824   1.215  -1.141  1.00  0.00     0.162 HD
HETATM   19  C17 UNL     1      -2.140  -0.657  -0.449  1.00  0.00     0.135 C 
HETATM   20  C18 UNL     1      -1.875  -1.782   0.435  1.00  0.00     0.158 C 
HETATM   21  N6  UNL     1      -0.552  -1.919   0.982  1.00  0.00    -0.361 N 
ATOM     22  H6  UNL     1      -0.427  -1.330   1.805  1.00  0.00     0.162 HD
HETATM   23  C23 UNL     1       0.601  -2.637   0.692  1.00  0.00     0.132 C 
HETATM   24  C24 UNL     1       1.633  -2.512  -0.366  1.00  0.00     0.154 C 
ENDROOT
BRANCH   6  25
HETATM   25  C5  UNL     1       4.171   1.816   0.142  1.00  0.00     0.038 C 
BRANCH  25  26
HETATM   26  C6  UNL     1       5.178   2.003   1.223  1.00  0.00    -0.020 C 
HETATM   27  C7  UNL     1       6.543   2.093   0.516  1.00  0.00     0.009 C 
HETATM   28  C8  UNL     1       5.021   3.366   1.902  1.00  0.00     0.009 C 
ENDBRANCH  25  26
ENDBRANCH   6  25
BRANCH   1  29
HETATM   29  C2  UNL     1       3.922  -2.082   0.065  1.00  0.00     0.110 C 
HETATM   30  C1  UNL     1       4.388  -2.505  -1.292  1.00  0.00     0.023 C 
ENDBRANCH   1  29
BRANCH  24  31
HETATM   31  C25 UNL     1       1.167  -2.237  -1.743  1.00  0.00     0.034 C 
BRANCH  31  32
HETATM   32  C26 UNL     1       0.254  -3.224  -2.380  1.00  0.00    -0.021 C 
HETATM   33  C27 UNL     1       0.874  -4.603  -2.492  1.00  0.00     0.009 C 
HETATM   34  C28 UNL     1      -0.087  -2.803  -3.822  1.00  0.00     0.009 C 
ENDBRANCH  31  32
ENDBRANCH  24  31
BRANCH  23  35
HETATM   35  O5  UNL     1       0.908  -3.657   1.490  1.00  0.00    -0.348 OA
ATOM     36  H5  UNL     1       1.697  -4.148   1.292  1.00  0.00     0.219 HD
ENDBRANCH  23  35
BRANCH  16  37
HETATM   37  C13 UNL     1      -3.221   2.772   0.577  1.00  0.00     0.038 C 
BRANCH  37  38
HETATM   38  C14 UNL     1      -4.512   2.631  -0.078  1.00  0.00    -0.020 C 
HETATM   39  C15 UNL     1      -5.224   4.009  -0.143  1.00  0.00     0.009 C 
HETATM   40  C16 UNL     1      -4.458   2.211  -1.534  1.00  0.00     0.009 C 
ENDBRANCH  37  38
ENDBRANCH  16  37
BRANCH  20  41
HETATM   41  C19 UNL     1      -2.854  -2.040   1.561  1.00  0.00     0.037 C 
BRANCH  41  42
HETATM   42  C20 UNL     1      -4.237  -2.396   1.242  1.00  0.00    -0.020 C 
HETATM   43  C21 UNL     1      -4.987  -1.361   0.476  1.00  0.00     0.009 C 
HETATM   44  C22 UNL     1      -4.988  -2.611   2.580  1.00  0.00     0.009 C 
ENDBRANCH  41  42
ENDBRANCH  20  41
BRANCH  19  45
HETATM   45  O4  UNL     1      -2.503  -1.010  -1.661  1.00  0.00    -0.348 OA
ATOM     46  H4  UNL     1      -2.538  -1.953  -1.772  1.00  0.00     0.219 HD
ENDBRANCH  19  45
TORSDOF 11
