REMARK  4 active torsions:
REMARK  status: ('A' for Active; 'I' for Inactive)
REMARK    1  A    between atoms: O1_2  and  C2_3 
REMARK    2  A    between atoms: C5_6  and  O2_7 
REMARK    3  A    between atoms: C7_9  and  O3_10 
REMARK    4  A    between atoms: C9_12  and  O4_13 
ROOT
HETATM    1  C2  UNL     1      -3.254   1.181  -0.386  1.00  0.00     0.111 A 
HETATM    2  C3  UNL     1      -1.878   1.199  -0.552  1.00  0.00    -0.008 A 
HETATM    3  C4  UNL     1      -1.129   0.088  -0.138  1.00  0.00     0.020 A 
HETATM    4  C5  UNL     1      -1.739  -0.992   0.413  1.00  0.00     0.116 A 
HETATM    5  C7  UNL     1      -3.141  -0.972   0.572  1.00  0.00     0.139 A 
HETATM    6  C9  UNL     1      -3.893   0.111   0.172  1.00  0.00     0.138 A 
HETATM    7  C11 UNL     1       0.314   0.075  -0.381  1.00  0.00    -0.015 A 
HETATM    8  C12 UNL     1       1.130  -0.854   0.222  1.00  0.00     0.026 A 
HETATM    9  C13 UNL     1       2.507  -0.692   0.139  1.00  0.00    -0.005 A 
HETATM   10  C14 UNL     1       3.188  -1.701   0.788  1.00  0.00     0.069 C 
HETATM   11  C15 UNL     1       4.536  -1.771   1.130  1.00  0.00     0.180 C 
HETATM   12  O5  UNL     1       4.879  -2.805   1.757  1.00  0.00    -0.288 OA
HETATM   13  C16 UNL     1       5.526  -0.851   0.866  1.00  0.00     0.004 C 
HETATM   14  C17 UNL     1       6.844  -1.048   1.555  1.00  0.00     0.054 C 
HETATM   15  C18 UNL     1       5.418   0.237   0.024  1.00  0.00     0.101 C 
HETATM   16  N1  UNL     1       4.379   0.685  -0.710  1.00  0.00    -0.360 N 
HETATM   17  C19 UNL     1       4.671   1.591  -1.795  1.00  0.00     0.155 C 
HETATM   18  C20 UNL     1       3.082   0.359  -0.518  1.00  0.00     0.044 A 
HETATM   19  C21 UNL     1       2.255   1.275  -1.111  1.00  0.00     0.038 A 
HETATM   20  C22 UNL     1       0.881   1.156  -1.058  1.00  0.00    -0.044 A 
HETATM   21  C23 UNL     1       0.030   2.115  -1.798  1.00  0.00     0.044 C 
HETATM   22  C24 UNL     1      -1.217   2.401  -1.075  1.00  0.00     0.047 C 
ENDROOT
BRANCH   1  23
HETATM   23  O1  UNL     1      -4.006   2.271  -0.794  1.00  0.00    -0.352 OA
HETATM   24  C1  UNL     1      -4.322   3.371   0.006  1.00  0.00     0.210 C 
ENDBRANCH   1  23
BRANCH   6  25
HETATM   25  O4  UNL     1      -5.267   0.110   0.336  1.00  0.00    -0.351 OA
HETATM   26  C10 UNL     1      -5.943   0.575   1.462  1.00  0.00     0.210 C 
ENDBRANCH   6  25
BRANCH   5  27
HETATM   27  O3  UNL     1      -3.835  -2.037   1.136  1.00  0.00    -0.351 OA
HETATM   28  C8  UNL     1      -4.450  -3.078   0.444  1.00  0.00     0.210 C 
ENDBRANCH   5  27
BRANCH   4  29
HETATM   29  O2  UNL     1      -1.135  -2.142   0.822  1.00  0.00    -0.352 OA
HETATM   30  C6  UNL     1      -1.158  -3.325  -0.024  1.00  0.00     0.210 C 
ENDBRANCH   4  29
TORSDOF 4
