REMARK  4 active torsions:
REMARK  status: ('A' for Active; 'I' for Inactive)
REMARK    1  A    between atoms: C2_2  and  C3_3 
REMARK    2  A    between atoms: C2_2  and  C5_6 
REMARK    3  A    between atoms: C12_13  and  C13_14 
REMARK    4  A    between atoms: N1_16  and  N2_18 
ROOT
HETATM    1  C5  UNL     1      -4.324   0.193   0.203  1.00  0.00     0.030 C 
HETATM    2  C6  UNL     1      -4.294  -0.884   1.337  1.00  0.00     0.010 C 
HETATM    3  C7  UNL     1      -2.864  -1.356   1.242  1.00  0.00     0.006 C 
HETATM    4  C8  UNL     1      -2.172   0.019   1.276  1.00  0.00    -0.001 C 
HETATM    5  C9  UNL     1      -0.742  -0.121   1.152  1.00  0.00    -0.005 C 
HETATM    6  C10 UNL     1      -0.079   0.605   2.335  1.00  0.00     0.006 C 
HETATM    7  C11 UNL     1       0.890   1.587   1.684  1.00  0.00     0.011 C 
HETATM    8  C12 UNL     1       1.293   0.766   0.464  1.00  0.00     0.037 C 
HETATM    9  C21 UNL     1      -0.047   0.374  -0.059  1.00  0.00    -0.000 C 
HETATM   10  C22 UNL     1      -0.845   1.419  -0.731  1.00  0.00     0.006 C 
HETATM   11  C23 UNL     1      -2.182   0.736  -1.105  1.00  0.00     0.010 C 
HETATM   12  C24 UNL     1      -2.960   0.688   0.164  1.00  0.00    -0.032 C 
HETATM   13  C25 UNL     1      -3.045   2.186   0.604  1.00  0.00     0.016 C 
ENDROOT
BRANCH   8  14
HETATM   14  C13 UNL     1       2.219   1.426  -0.411  1.00  0.00     0.004 C 
HETATM   15  C14 UNL     1       1.972   2.730  -1.111  1.00  0.00     0.065 C 
HETATM   16  N1  UNL     1       3.360   0.910  -0.653  1.00  0.00    -0.311 N 
ATOM     17  H1  UNL     1       3.944   1.455  -1.288  1.00  0.00     0.186 HD
BRANCH  16  18
HETATM   18  N2  UNL     1       3.932  -0.240  -0.211  1.00  0.00    -0.320 N 
HETATM   19  C15 UNL     1       3.510  -1.552  -0.625  1.00  0.00     0.173 C 
HETATM   20  C16 UNL     1       4.643  -2.436  -1.031  1.00  0.00     0.293 C 
HETATM   21  N3  UNL     1       5.880  -1.699  -0.996  1.00  0.00     0.087 N 
HETATM   22  C17 UNL     1       5.990  -0.708  -2.020  1.00  0.00     0.310 C 
HETATM   23  C18 UNL     1       6.122  -1.173   0.333  1.00  0.00     0.298 C 
HETATM   24  C19 UNL     1       5.054  -0.174   0.731  1.00  0.00     0.126 C 
HETATM   25  C20 UNL     1       4.596  -0.520   2.128  1.00  0.00     0.036 C 
ENDBRANCH  16  18
ENDBRANCH   8  14
BRANCH   1  26
HETATM   26  C2  UNL     1      -5.084  -0.362  -0.879  1.00  0.00    -0.017 C 
HETATM   27  C1  UNL     1      -4.770  -0.591  -2.093  1.00  0.00     0.023 C 
BRANCH  26  28
HETATM   28  C3  UNL     1      -6.498  -0.713  -0.517  1.00  0.00     0.151 C 
HETATM   29  C4  UNL     1      -7.364  -1.281  -1.557  1.00  0.00     0.096 C 
HETATM   30  O1  UNL     1      -6.941  -0.535   0.622  1.00  0.00    -0.293 OA
ENDBRANCH  26  28
ENDBRANCH   1  26
TORSDOF 4
