REMARK  7 active torsions:
REMARK  status: ('A' for Active; 'I' for Inactive)
REMARK    1  A    between atoms: N1_1  and  C1_4 
REMARK    2  A    between atoms: C2_7  and  C3_8 
REMARK    3  A    between atoms: C3_8  and  N3_9 
REMARK    4  A    between atoms: N3_9  and  C4_12 
REMARK    5  A    between atoms: C4_12  and  C5_13 
REMARK    6  A    between atoms: C5_13  and  C6_14 
REMARK    7  A    between atoms: C6_14  and  N4_15 
ROOT
HETATM    1  N3  UNL     1       1.587  -0.702   1.221  1.00  0.00    -0.070 N 
ATOM      2  H31 UNL     1       1.252   0.251   1.364  1.00  0.00     0.277 HD
ATOM      3  H32 UNL     1       2.154  -0.815   2.061  1.00  0.00     0.277 HD
ENDROOT
BRANCH   1   4
HETATM    4  C3  UNL     1       2.403  -0.771   0.060  1.00  0.00     0.289 C 
BRANCH   4   5
HETATM    5  C2  UNL     1       3.540   0.237   0.190  1.00  0.00     0.043 A 
HETATM    6  N2  UNL     1       4.565   0.174  -0.616  1.00  0.00    -0.339 N 
HETATM    7  C1  UNL     1       5.537   1.072  -0.474  1.00  0.00     0.142 A 
ATOM      8  H2  UNL     1       4.620  -0.546  -1.337  1.00  0.00     0.168 HD
HETATM    9  S1  UNL     1       5.005   2.035   0.822  1.00  0.00    -0.064 SA
HETATM   10  C11 UNL     1       3.530   1.229   1.133  1.00  0.00     0.080 A 
BRANCH   7  11
HETATM   11  N1  UNL     1       6.648   1.206  -1.151  1.00  0.00    -0.380 N 
ATOM     12  H12 UNL     1       6.967   0.628  -1.929  1.00  0.00     0.158 HD
ATOM     13  H11 UNL     1       7.393   1.894  -1.042  1.00  0.00     0.158 HD
ENDBRANCH   7  11
ENDBRANCH   4   5
ENDBRANCH   1   4
BRANCH   1  14
HETATM   14  C4  UNL     1       0.496  -1.620   1.229  1.00  0.00     0.234 C 
BRANCH  14  15
HETATM   15  C5  UNL     1      -0.591  -1.343   0.227  1.00  0.00     0.057 C 
BRANCH  15  16
HETATM   16  C6  UNL     1      -1.225   0.011   0.434  1.00  0.00     0.274 C 
BRANCH  16  17
HETATM   17  N4  UNL     1      -2.269   0.212  -0.548  1.00  0.00     0.088 N 
HETATM   18  C7  UNL     1      -3.376  -0.687  -0.290  1.00  0.00     0.272 C 
HETATM   19  C8  UNL     1      -4.651   0.074  -0.379  1.00  0.00     0.032 C 
HETATM   20  C9  UNL     1      -4.260   1.405  -0.976  1.00  0.00     0.032 C 
HETATM   21  C10 UNL     1      -2.818   1.551  -0.479  1.00  0.00     0.272 C 
ENDBRANCH  16  17
ENDBRANCH  15  16
ENDBRANCH  14  15
ENDBRANCH   1  14
TORSDOF 7
