REMARK  8 active torsions:
REMARK  status: ('A' for Active; 'I' for Inactive)
REMARK    1  A    between atoms: N1_1  and  C1_5 
REMARK    2  A    between atoms: C1_5  and  C2_6 
REMARK    3  A    between atoms: C2_6  and  C3_7 
REMARK    4  A    between atoms: C3_7  and  C4_8 
REMARK    5  A    between atoms: C4_8  and  N2_9 
REMARK    6  A    between atoms: N2_9  and  C5_12 
REMARK    7  A    between atoms: N4_18  and  C8_19 
REMARK    8  A    between atoms: C8_19  and  C9_20 
ROOT
HETATM    1  C5  UNL     1      -0.316  -0.329  -0.250  1.00  0.00     0.487 C 
HETATM    2  N3  UNL     1      -0.413  -0.061   1.163  1.00  0.00    -0.027 N 
ATOM      3  H31 UNL     1      -1.037   0.719   1.370  1.00  0.00     0.281 HD
ATOM      4  H32 UNL     1       0.445   0.339   1.544  1.00  0.00     0.281 HD
HETATM    5  C6  UNL     1      -0.801  -1.267   1.836  1.00  0.00     0.257 C 
HETATM    6  C7  UNL     1      -1.285  -2.188   0.726  1.00  0.00     0.153 C 
HETATM    7  N4  UNL     1      -1.228  -1.415  -0.461  1.00  0.00    -0.339 N 
ENDROOT
BRANCH   1   8
HETATM    8  N2  UNL     1       0.985  -0.796  -0.673  1.00  0.00    -0.029 N 
ATOM      9  H22 UNL     1       0.969  -1.065  -1.657  1.00  0.00     0.281 HD
ATOM     10  H21 UNL     1       1.197  -1.701  -0.252  1.00  0.00     0.281 HD
BRANCH   8  11
HETATM   11  C4  UNL     1       2.055   0.152  -0.418  1.00  0.00     0.237 C 
BRANCH  11  12
HETATM   12  C3  UNL     1       3.317  -0.495  -0.932  1.00  0.00     0.029 C 
BRANCH  12  13
HETATM   13  C2  UNL     1       4.491   0.416  -0.731  1.00  0.00     0.029 C 
BRANCH  13  14
HETATM   14  C1  UNL     1       4.693   0.726   0.718  1.00  0.00     0.229 C 
BRANCH  14  15
HETATM   15  N1  UNL     1       5.850   1.601   0.924  1.00  0.00    -0.079 N 
ATOM     16  H13 UNL     1       6.693   1.209   0.505  1.00  0.00     0.274 HD
ATOM     17  H12 UNL     1       5.778   2.452   0.367  1.00  0.00     0.274 HD
ATOM     18  H11 UNL     1       5.988   1.812   1.912  1.00  0.00     0.274 HD
ENDBRANCH  14  15
ENDBRANCH  13  14
ENDBRANCH  12  13
ENDBRANCH  11  12
ENDBRANCH   8  11
ENDBRANCH   1   8
BRANCH   7  19
HETATM   19  C8  UNL     1      -2.421  -1.137  -1.150  1.00  0.00     0.100 C 
BRANCH  19  20
HETATM   20  C9  UNL     1      -3.326  -0.138  -0.582  1.00  0.00    -0.021 A 
HETATM   21  C10 UNL     1      -3.304   1.199  -0.986  1.00  0.00     0.013 A 
HETATM   22  C11 UNL     1      -4.157   2.153  -0.453  1.00  0.00     0.001 A 
HETATM   23  C12 UNL     1      -5.065   1.773   0.513  1.00  0.00     0.000 A 
HETATM   24  C13 UNL     1      -5.086   0.454   0.910  1.00  0.00     0.001 A 
HETATM   25  C14 UNL     1      -4.240  -0.501   0.384  1.00  0.00     0.013 A 
ENDBRANCH  19  20
ENDBRANCH   7  19
TORSDOF 8
