REMARK  6 active torsions:
REMARK  status: ('A' for Active; 'I' for Inactive)
REMARK    1  A    between atoms: N3_8  and  C5_10 
REMARK    2  A    between atoms: C5_10  and  C6_11 
REMARK    3  A    between atoms: C6_11  and  C7_12 
REMARK    4  A    between atoms: C7_12  and  N4_13 
REMARK    5  A    between atoms: N4_13  and  C8_16 
REMARK    6  A    between atoms: C8_16  and  C9_17 
ROOT
HETATM    1  C5  UNL     1      -1.246   2.348   1.309  1.00  0.00     0.123 C 
ENDROOT
BRANCH   1   2
HETATM    2  N3  UNL     1      -2.056   1.830   0.264  1.00  0.00    -0.376 N 
HETATM    3  C4  UNL     1      -2.707   0.718   0.241  1.00  0.00     0.102 A 
HETATM    4  N2  UNL     1      -2.713  -0.160   1.258  1.00  0.00    -0.352 N 
HETATM    5  C13 UNL     1      -3.442   0.430  -0.921  1.00  0.00     0.074 A 
HETATM    6  C3  UNL     1      -3.429  -1.284   1.117  1.00  0.00     0.091 A 
ATOM      7  H2  UNL     1      -2.188   0.024   2.113  1.00  0.00     0.166 HD
HETATM    8  C2  UNL     1      -4.160  -1.602   0.001  1.00  0.00     0.043 A 
HETATM    9  C1  UNL     1      -4.175  -0.722  -1.063  1.00  0.00     0.051 A 
HETATM   10  N1  UNL     1      -4.916  -1.003  -2.244  1.00  0.00    -0.102 NA
ATOM     11  H3  UNL     1      -2.132   2.410  -0.572  1.00  0.00     0.161 HD
ENDBRANCH   1   2
BRANCH   1  12
HETATM   12  C6  UNL     1       0.212   2.132   0.906  1.00  0.00     0.047 C 
BRANCH  12  13
HETATM   13  C7  UNL     1       0.551   0.693   0.699  1.00  0.00     0.234 C 
BRANCH  13  14
HETATM   14  N4  UNL     1       1.950   0.618   0.323  1.00  0.00    -0.069 N 
ATOM     15  H42 UNL     1       2.145   1.207  -0.487  1.00  0.00     0.277 HD
ATOM     16  H41 UNL     1       2.541   1.085   1.011  1.00  0.00     0.277 HD
BRANCH  14  17
HETATM   17  C8  UNL     1       2.385  -0.731   0.098  1.00  0.00     0.296 C 
BRANCH  17  18
HETATM   18  C9  UNL     1       3.840  -0.677  -0.282  1.00  0.00     0.078 A 
HETATM   19  C10 UNL     1       4.609  -1.768  -0.575  1.00  0.00     0.036 A 
HETATM   20  C11 UNL     1       5.869  -1.313  -0.871  1.00  0.00     0.027 A 
HETATM   21  C12 UNL     1       5.817   0.058  -0.745  1.00  0.00     0.142 A 
HETATM   22  O1  UNL     1       4.594   0.372  -0.396  1.00  0.00    -0.325 OA
ENDBRANCH  17  18
ENDBRANCH  14  17
ENDBRANCH  13  14
ENDBRANCH  12  13
ENDBRANCH   1  12
TORSDOF 6
