REMARK  7 active torsions:
REMARK  status: ('A' for Active; 'I' for Inactive)
REMARK    1  A    between atoms: N1_1  and  C1_4 
REMARK    2  A    between atoms: C3_8  and  C4_9 
REMARK    3  A    between atoms: C4_9  and  N3_10 
REMARK    4  A    between atoms: N3_10  and  C5_12 
REMARK    5  A    between atoms: C5_12  and  C6_13 
REMARK    6  A    between atoms: C6_13  and  C7_14 
REMARK    7  A    between atoms: C7_14  and  C8_15 
ROOT
HETATM    1  C4  UNL     1      -1.370   0.740   0.541  1.00  0.00     0.118 C 
ENDROOT
BRANCH   1   2
HETATM    2  C3  UNL     1      -2.803   0.404   0.149  1.00  0.00     0.063 A 
HETATM    3  N2  UNL     1      -3.081  -0.168  -1.029  1.00  0.00    -0.360 N 
HETATM    4  C2  UNL     1      -4.323  -0.480  -1.415  1.00  0.00     0.136 A 
ATOM      5  H2  UNL     1      -2.309  -0.376  -1.662  1.00  0.00     0.165 HD
HETATM    6  C1  UNL     1      -5.357  -0.187  -0.533  1.00  0.00     0.114 A 
HETATM    7  N5  UNL     1      -5.132   0.385   0.660  1.00  0.00    -0.349 N 
HETATM    8  C13 UNL     1      -3.859   0.673   0.987  1.00  0.00     0.120 A 
ATOM      9  H5  UNL     1      -5.900   0.594   1.297  1.00  0.00     0.167 HD
BRANCH   6  10
HETATM   10  N1  UNL     1      -6.573  -0.474  -0.870  1.00  0.00    -0.384 N 
ATOM     11  H12 UNL     1      -6.744  -0.909  -1.777  1.00  0.00     0.157 HD
ATOM     12  H11 UNL     1      -7.332  -0.259  -0.223  1.00  0.00     0.157 HD
ENDBRANCH   6  10
ENDBRANCH   1   2
BRANCH   1  13
HETATM   13  N3  UNL     1      -0.878  -0.362   1.250  1.00  0.00    -0.377 N 
ATOM     14  H3  UNL     1      -1.484  -1.177   1.344  1.00  0.00     0.164 HD
BRANCH  13  15
HETATM   15  C5  UNL     1       0.374  -0.418   1.831  1.00  0.00     0.061 C 
BRANCH  15  16
HETATM   16  C6  UNL     1       1.619  -0.523   1.058  1.00  0.00     0.049 C 
BRANCH  16  17
HETATM   17  C7  UNL     1       1.939   0.583   0.109  1.00  0.00     0.043 C 
BRANCH  17  18
HETATM   18  C8  UNL     1       3.310   0.248  -0.491  1.00  0.00    -0.055 A 
HETATM   19  C9  UNL     1       4.464   0.693   0.113  1.00  0.00     0.024 A 
HETATM   20  C10 UNL     1       5.702   0.384  -0.436  1.00  0.00     0.088 A 
HETATM   21  N4  UNL     1       5.760  -0.351  -1.560  1.00  0.00    -0.375 N 
HETATM   22  C11 UNL     1       4.642  -0.794  -2.164  1.00  0.00     0.088 A 
ATOM     23  H4  UNL     1       6.669  -0.577  -1.963  1.00  0.00     0.164 HD
HETATM   24  C12 UNL     1       3.394  -0.502  -1.639  1.00  0.00     0.024 A 
ENDBRANCH  17  18
ENDBRANCH  16  17
ENDBRANCH  15  16
ENDBRANCH  13  15
ENDBRANCH   1  13
TORSDOF 7
