REMARK  8 active torsions:
REMARK  status: ('A' for Active; 'I' for Inactive)
REMARK    1  A    between atoms: N1_1  and  C1_5 
REMARK    2  A    between atoms: C1_5  and  C2_6 
REMARK    3  A    between atoms: C2_6  and  N2_7 
REMARK    4  A    between atoms: N2_7  and  C3_10 
REMARK    5  A    between atoms: C3_10  and  C4_11 
REMARK    6  A    between atoms: C4_11  and  C5_12 
REMARK    7  A    between atoms: C5_12  and  N3_13 
REMARK    8  A    between atoms: N3_13  and  C6_15 
ROOT
HETATM    1  C5  UNL     1      -0.511  -0.723   1.294  1.00  0.00     0.123 C 
ENDROOT
BRANCH   1   2
HETATM    2  C4  UNL     1      -1.186  -1.558   0.245  1.00  0.00     0.047 C 
BRANCH   2   3
HETATM    3  C3  UNL     1      -2.116  -0.736  -0.623  1.00  0.00     0.234 C 
BRANCH   3   4
HETATM    4  N2  UNL     1      -3.165  -0.111   0.169  1.00  0.00    -0.073 N 
ATOM      5  H22 UNL     1      -2.807   0.452   0.940  1.00  0.00     0.277 HD
ATOM      6  H21 UNL     1      -3.695  -0.776   0.732  1.00  0.00     0.277 HD
BRANCH   4   7
HETATM    7  C2  UNL     1      -3.990   0.643  -0.758  1.00  0.00     0.259 C 
BRANCH   7   8
HETATM    8  C1  UNL     1      -5.130   1.346  -0.032  1.00  0.00     0.257 C 
BRANCH   8   9
HETATM    9  N1  UNL     1      -5.964   0.374   0.631  1.00  0.00    -0.078 N 
ATOM     10  H13 UNL     1      -6.303  -0.341  -0.012  1.00  0.00     0.274 HD
ATOM     11  H12 UNL     1      -5.427  -0.229   1.254  1.00  0.00     0.274 HD
ATOM     12  H11 UNL     1      -6.727   0.845   1.117  1.00  0.00     0.274 HD
ENDBRANCH   8   9
ENDBRANCH   7   8
ENDBRANCH   4   7
ENDBRANCH   3   4
ENDBRANCH   2   3
ENDBRANCH   1   2
BRANCH   1  13
HETATM   13  N3  UNL     1       0.284   0.337   0.705  1.00  0.00    -0.370 N 
ATOM     14  H3  UNL     1      -0.153   1.220   0.439  1.00  0.00     0.161 HD
BRANCH  13  15
HETATM   15  C6  UNL     1       1.577   0.151   0.515  1.00  0.00     0.145 A 
HETATM   16  N4  UNL     1       2.449   1.008  -0.008  1.00  0.00    -0.336 N 
HETATM   17  C7  UNL     1       3.708   0.630  -0.115  1.00  0.00     0.051 A 
ATOM     18  H4  UNL     1       2.152   1.933  -0.318  1.00  0.00     0.168 HD
HETATM   19  C8  UNL     1       4.759   1.410  -0.643  1.00  0.00     0.031 A 
HETATM   20  C12 UNL     1       4.033  -0.621   0.321  1.00  0.00     0.035 A 
HETATM   21  C9  UNL     1       6.018   0.895  -0.694  1.00  0.00     0.002 A 
HETATM   22  C10 UNL     1       6.384  -0.358  -0.267  1.00  0.00     0.002 A 
HETATM   23  C11 UNL     1       5.345  -1.122   0.253  1.00  0.00     0.021 A 
HETATM   24  S1  UNL     1       2.533  -1.217   0.868  1.00  0.00    -0.052 SA
ENDBRANCH  13  15
ENDBRANCH   1  13
TORSDOF 8
