REMARK  9 active torsions:
REMARK  status: ('A' for Active; 'I' for Inactive)
REMARK    1  A    between atoms: C2_7  and  C3_8 
REMARK       I    between atoms: C3_8  and  N4_10 
REMARK    2  A    between atoms: N4_10  and  C4_12 
REMARK    3  A    between atoms: C4_12  and  C5_13 
REMARK    4  A    between atoms: C4_12  and  C7_20 
REMARK       I    between atoms: C5_13  and  N5_15 
REMARK    5  A    between atoms: N5_15  and  C6_17 
REMARK    6  A    between atoms: C7_20  and  O3_21 
REMARK    7  A    between atoms: C7_20  and  C8_23 
REMARK    8  A    between atoms: C8_23  and  N7_24 
REMARK    9  A    between atoms: C12_34  and  O4_35 
ROOT
HETATM    1  C4  UNL     1      -0.084   1.181   0.683  1.00  0.00     0.207 C 
ENDROOT
BRANCH   1   2
HETATM    2  N4  UNL     1       1.155   0.468   0.388  1.00  0.00    -0.340 N 
HETATM    3  C3  UNL     1       2.090   0.136   1.393  1.00  0.00     0.274 C 
HETATM    4  O1  UNL     1       1.846   0.465   2.577  1.00  0.00    -0.266 OA
ATOM      5  H4  UNL     1       1.352   0.201  -0.576  1.00  0.00     0.163 HD
BRANCH   3   6
HETATM    6  C2  UNL     1       3.323  -0.572   1.113  1.00  0.00     0.170 A 
HETATM    7  N3  UNL     1       3.756  -1.007  -0.087  1.00  0.00    -0.277 N 
HETATM    8  N2  UNL     1       4.928  -1.609   0.071  1.00  0.00    -0.238 N 
ATOM      9  H3  UNL     1       3.263  -0.892  -0.973  1.00  0.00     0.189 HD
HETATM   10  N1  UNL     1       5.295  -1.592   1.337  1.00  0.00    -0.259 N 
ATOM     11  H2  UNL     1       5.471  -2.028  -0.684  1.00  0.00     0.208 HD
HETATM   12  C1  UNL     1       6.504  -2.138   1.950  1.00  0.00     0.181 C 
HETATM   13  C12 UNL     1       4.307  -0.949   2.007  1.00  0.00     0.192 A 
BRANCH  13  14
HETATM   14  O4  UNL     1       4.284  -0.707   3.365  1.00  0.00    -0.343 OA
ATOM     15  H4  UNL     1       3.592  -0.256   3.834  1.00  0.00     0.219 HD
ENDBRANCH  13  14
ENDBRANCH   3   6
ENDBRANCH   1   2
BRANCH   1  16
HETATM   16  C5  UNL     1      -0.067   2.500   0.015  1.00  0.00     0.249 C 
HETATM   17  O2  UNL     1       0.927   2.786  -0.690  1.00  0.00    -0.271 OA
HETATM   18  N5  UNL     1      -1.101   3.458   0.123  1.00  0.00    -0.304 N 
ATOM     19  H5  UNL     1      -1.919   3.245   0.694  1.00  0.00     0.170 HD
BRANCH  18  20
HETATM   20  C6  UNL     1      -1.030   4.709  -0.543  1.00  0.00     0.187 C 
HETATM   21  N6  UNL     1       0.112   4.997  -1.337  1.00  0.00    -0.070 NA
HETATM   22  S1  UNL     1      -2.245   5.822  -0.408  1.00  0.00    -0.044 SA
ENDBRANCH  18  20
ENDBRANCH   1  16
BRANCH   1  23
HETATM   23  C7  UNL     1      -1.280   0.330   0.326  1.00  0.00     0.168 C 
BRANCH  23  24
HETATM   24  O3  UNL     1      -2.499   0.937   0.579  1.00  0.00    -0.391 OA
ATOM     25  H3  UNL     1      -3.251   0.402   0.354  1.00  0.00     0.210 HD
ENDBRANCH  23  24
BRANCH  23  26
HETATM   26  C8  UNL     1      -1.274  -0.166  -1.081  1.00  0.00     0.161 C 
BRANCH  26  27
HETATM   27  N7  UNL     1      -2.386  -1.130  -1.174  1.00  0.00    -0.329 N 
HETATM   28  C9  UNL     1      -2.241  -2.362  -0.439  1.00  0.00     0.361 C 
HETATM   29  N8  UNL     1      -3.125  -3.380  -0.947  1.00  0.00    -0.043 N 
HETATM   30  C10 UNL     1      -4.491  -2.885  -1.063  1.00  0.00     0.358 C 
ATOM     31  H82 UNL     1      -2.788  -3.761  -1.831  1.00  0.00     0.281 HD
ATOM     32  H81 UNL     1      -3.081  -4.229  -0.384  1.00  0.00     0.281 HD
HETATM   33  N9  UNL     1      -4.522  -1.680  -1.892  1.00  0.00    -0.341 N 
HETATM   34  C11 UNL     1      -3.526  -0.868  -1.933  1.00  0.00     0.189 C 
ATOM     35  H9  UNL     1      -5.352  -1.480  -2.450  1.00  0.00     0.163 HD
HETATM   36  N10 UNL     1      -3.568   0.309  -2.751  1.00  0.00    -0.064 NA
ENDBRANCH  26  27
ENDBRANCH  23  26
ENDBRANCH   1  23
TORSDOF 9
