REMARK  13 active torsions:
REMARK  status: ('A' for Active; 'I' for Inactive)
REMARK    1  A    between atoms: O1_2  and  C2_3 
REMARK    2  A    between atoms: C2_3  and  C3_5 
REMARK    3  A    between atoms: C3_5  and  N1_6 
REMARK    4  A    between atoms: C3_5  and  C12_35 
REMARK    5  A    between atoms: N1_6  and  C4_8 
REMARK    6  A    between atoms: C4_8  and  O3_9 
REMARK    7  A    between atoms: C4_8  and  N2_11 
REMARK       I    between atoms: N2_11  and  C5_13 
REMARK    8  A    between atoms: C5_13  and  C6_15 
REMARK    9  A    between atoms: N5_23  and  N6_24 
REMARK   10  A    between atoms: N7_28  and  C10_29 
REMARK   11  A    between atoms: C10_29  and  C11_30 
REMARK   12  A    between atoms: C11_30  and  O6_31 
REMARK   13  A    between atoms: C11_30  and  O7_33 
ROOT
HETATM    1  C6  UNL     1      -1.730  -0.824   0.610  1.00  0.00     0.180 A 
HETATM    2  N3  UNL     1      -2.058  -2.060   1.121  1.00  0.00    -0.321 N 
ATOM      3  H3  UNL     1      -1.389  -2.812   1.283  1.00  0.00     0.169 HD
HETATM    4  C7  UNL     1      -3.359  -2.146   1.375  1.00  0.00     0.158 A 
HETATM    5  N4  UNL     1      -4.387  -2.881   1.822  1.00  0.00    -0.290 N 
ATOM      6  H4  UNL     1      -4.321  -3.840   2.164  1.00  0.00     0.172 HD
HETATM    7  C8  UNL     1      -5.516  -2.159   1.749  1.00  0.00     0.348 A 
HETATM    8  O5  UNL     1      -6.674  -2.545   2.088  1.00  0.00    -0.245 OA
HETATM    9  N5  UNL     1      -5.195  -0.956   1.251  1.00  0.00    -0.191 N 
HETATM   10  C9  UNL     1      -3.880  -0.932   1.017  1.00  0.00     0.180 A 
HETATM   11  N7  UNL     1      -2.863  -0.135   0.550  1.00  0.00    -0.305 N 
ENDROOT
BRANCH   1  12
HETATM   12  C5  UNL     1      -0.343  -0.554   0.293  1.00  0.00     0.293 C 
HETATM   13  N2  UNL     1       0.227   0.564  -0.297  1.00  0.00    -0.286 N 
ATOM     14  H2  UNL     1      -0.413   1.313  -0.562  1.00  0.00     0.172 HD
HETATM   15  O4  UNL     1       0.472  -1.507   0.615  1.00  0.00    -0.264 OA
BRANCH  13  16
HETATM   16  C4  UNL     1       1.593   0.780  -0.571  1.00  0.00     0.221 C 
BRANCH  16  17
HETATM   17  N1  UNL     1       2.698  -0.029  -0.337  1.00  0.00    -0.335 N 
ATOM     18  H1  UNL     1       2.550  -0.937   0.103  1.00  0.00     0.164 HD
BRANCH  17  19
HETATM   19  C3  UNL     1       4.066   0.358  -0.691  1.00  0.00     0.274 C 
BRANCH  19  20
HETATM   20  C2  UNL     1       4.936   0.328   0.514  1.00  0.00     0.290 C 
HETATM   21  O2  UNL     1       4.431  -0.001   1.611  1.00  0.00    -0.262 OA
BRANCH  20  22
HETATM   22  O1  UNL     1       6.269   0.643   0.488  1.00  0.00    -0.325 OA
HETATM   23  C1  UNL     1       7.087   0.611   1.644  1.00  0.00     0.213 C 
ENDBRANCH  20  22
ENDBRANCH  19  20
BRANCH  19  24
HETATM   24  C12 UNL     1       4.581  -0.643  -1.649  1.00  0.00     0.263 C 
HETATM   25  N8  UNL     1       5.887  -0.578  -2.205  1.00  0.00    -0.060 NA
HETATM   26  O8  UNL     1       3.854  -1.606  -2.007  1.00  0.00    -0.274 OA
ENDBRANCH  19  24
ENDBRANCH  17  19
ENDBRANCH  16  17
BRANCH  16  27
HETATM   27  O3  UNL     1       1.899   1.914  -1.136  1.00  0.00    -0.332 OA
ATOM     28  H3  UNL     1       1.143   2.467  -1.296  1.00  0.00     0.220 HD
ENDBRANCH  16  27
ENDBRANCH  13  16
ENDBRANCH   1  12
BRANCH  11  29
HETATM   29  C10 UNL     1      -3.084   1.187   0.082  1.00  0.00     0.193 C 
BRANCH  29  30
HETATM   30  C11 UNL     1      -3.481   1.309  -1.363  1.00  0.00     0.272 C 
BRANCH  30  31
HETATM   31  O6  UNL     1      -2.617   0.821  -2.286  1.00  0.00    -0.370 OA
ATOM     32  H6  UNL     1      -2.868   0.898  -3.199  1.00  0.00     0.212 HD
ENDBRANCH  30  31
BRANCH  30  33
HETATM   33  O7  UNL     1      -3.716   2.668  -1.684  1.00  0.00    -0.370 OA
ATOM     34  H7  UNL     1      -3.967   2.745  -2.597  1.00  0.00     0.212 HD
ENDBRANCH  30  33
ENDBRANCH  29  30
ENDBRANCH  11  29
BRANCH   9  35
HETATM   35  N6  UNL     1      -6.139   0.058   1.038  1.00  0.00    -0.333 N 
ATOM     36  H62 UNL     1      -7.143   0.040   1.217  1.00  0.00     0.177 HD
ATOM     37  H61 UNL     1      -5.895   0.973   0.659  1.00  0.00     0.177 HD
ENDBRANCH   9  35
TORSDOF 13
