REMARK  7 active torsions:
REMARK  status: ('A' for Active; 'I' for Inactive)
REMARK    1  A    between atoms: C2_2  and  C3_3 
REMARK    2  A    between atoms: C7_10  and  N2_11 
REMARK    3  A    between atoms: N2_11  and  N3_13 
REMARK    4  A    between atoms: N3_13  and  C8_15 
REMARK    5  A    between atoms: C8_15  and  N4_17 
REMARK    6  A    between atoms: N5_20  and  C10_21 
REMARK    7  A    between atoms: N6_23  and  C12_24 
ROOT
HETATM    1  C3  UNL     1      -3.167  -0.059   0.641  1.00  0.00     0.034 A 
HETATM    2  C4  UNL     1      -2.298   1.009   0.491  1.00  0.00     0.077 A 
HETATM    3 CL1  UNL     1      -2.929   2.642   0.399  1.00  0.00    -0.081 Cl
HETATM    4  C5  UNL     1      -0.926   0.800   0.396  1.00  0.00     0.119 A 
HETATM    5  C6  UNL     1      -0.520  -0.540   0.462  1.00  0.00     0.155 A 
HETATM    6  N1  UNL     1       0.824  -0.487   0.342  1.00  0.00    -0.172 N 
ATOM      7  H1  UNL     1       1.443  -1.297   0.349  1.00  0.00     0.186 HD
HETATM    8  C7  UNL     1       1.222   0.772   0.214  1.00  0.00     0.701 A 
HETATM    9  N5  UNL     1       0.147   1.581   0.247  1.00  0.00    -0.177 N 
HETATM   10  N6  UNL     1      -1.372  -1.572   0.607  1.00  0.00    -0.298 N 
HETATM   11  C14 UNL     1      -2.692  -1.343   0.697  1.00  0.00     0.257 A 
HETATM   12  O1  UNL     1      -3.544  -2.267   0.835  1.00  0.00    -0.267 OA
ENDROOT
BRANCH   8  13
HETATM   13  N2  UNL     1       2.420   1.182   0.081  1.00  0.00    -0.130 N 
ATOM     14  H2  UNL     1       2.591   2.183  -0.010  1.00  0.00     0.205 HD
BRANCH  13  15
HETATM   15  N3  UNL     1       3.500   0.314   0.056  1.00  0.00    -0.262 N 
ATOM     16  H3  UNL     1       3.383  -0.643  -0.276  1.00  0.00     0.190 HD
BRANCH  15  17
HETATM   17  C8  UNL     1       4.762   0.765   0.494  1.00  0.00     0.186 C 
HETATM   18  S1  UNL     1       4.937   2.296   1.023  1.00  0.00    -0.040 SA
BRANCH  17  19
HETATM   19  N4  UNL     1       5.870  -0.120   0.470  1.00  0.00    -0.370 N 
HETATM   20  C9  UNL     1       5.676  -1.470  -0.006  1.00  0.00     0.148 C 
ATOM     21  H4  UNL     1       6.789   0.192   0.784  1.00  0.00     0.161 HD
ENDBRANCH  17  19
ENDBRANCH  15  17
ENDBRANCH  13  15
ENDBRANCH   8  13
BRANCH   9  22
HETATM   22  C10 UNL     1       0.140   3.025   0.175  1.00  0.00     0.143 C 
HETATM   23  C11 UNL     1      -0.080   3.594  -1.177  1.00  0.00     0.027 C 
ENDBRANCH   9  22
BRANCH  10  24
HETATM   24  C12 UNL     1      -0.866  -2.927   0.665  1.00  0.00     0.129 C 
HETATM   25  C13 UNL     1      -0.782  -3.576  -0.694  1.00  0.00     0.027 C 
ENDBRANCH  10  24
BRANCH   1  26
HETATM   26  C2  UNL     1      -4.617   0.263   0.728  1.00  0.00     0.041 C 
HETATM   27  C1  UNL     1      -5.100   0.567  -0.672  1.00  0.00     0.010 C 
ENDBRANCH   1  26
TORSDOF 7
