REMARK  6 active torsions:
REMARK  status: ('A' for Active; 'I' for Inactive)
REMARK    1  A    between atoms: C2_2  and  C3_3 
REMARK    2  A    between atoms: C2_2  and  S1_5 
REMARK    3  A    between atoms: S1_5  and  C4_8 
REMARK    4  A    between atoms: C4_8  and  C5_9 
REMARK    5  A    between atoms: C10_17  and  O3_18 
REMARK    6  A    between atoms: C14_24  and  O5_25 
ROOT
HETATM    1  C5  UNL     1       0.795   0.923  -0.007  1.00  0.00     0.057 C 
HETATM    2  C6  UNL     1       0.460   0.572  -1.429  1.00  0.00     0.240 C 
HETATM    3  N1  UNL     1      -0.574   1.510  -1.849  1.00  0.00    -0.072 N 
ATOM      4  H11 UNL     1      -0.686   1.507  -2.863  1.00  0.00     0.277 HD
ATOM      5  H12 UNL     1      -0.270   2.476  -1.723  1.00  0.00     0.277 HD
HETATM    6  C7  UNL     1      -1.826   1.267  -1.185  1.00  0.00     0.273 C 
HETATM    7  C8  UNL     1      -1.690   0.437   0.063  1.00  0.00     0.114 C 
HETATM    8  C9  UNL     1      -2.856   0.866   0.972  1.00  0.00     0.077 C 
HETATM    9  C10 UNL     1      -4.005   0.242   0.165  1.00  0.00     0.155 C 
HETATM   10  C11 UNL     1      -3.335  -1.071  -0.220  1.00  0.00     0.081 C 
HETATM   11  C12 UNL     1      -3.812  -2.088   0.826  1.00  0.00     0.048 C 
HETATM   12  C13 UNL     1      -3.826  -1.577  -1.552  1.00  0.00     0.048 C 
HETATM   13  O4  UNL     1      -1.985  -0.883  -0.151  1.00  0.00    -0.363 OA
HETATM   14  C14 UNL     1      -0.444   0.681   0.829  1.00  0.00     0.161 C 
ENDROOT
BRANCH   1  15
HETATM   15  C4  UNL     1       1.996   0.269   0.566  1.00  0.00     0.149 C 
BRANCH  15  16
HETATM   16  S1  UNL     1       3.500   0.606  -0.254  1.00  0.00     0.149 S 
HETATM   17  O1  UNL     1       3.500   0.054  -1.673  1.00  0.00    -0.227 OA
HETATM   18  O2  UNL     1       3.781   2.072  -0.316  1.00  0.00    -0.227 OA
BRANCH  16  19
HETATM   19  C2  UNL     1       4.885  -0.200   0.540  1.00  0.00     0.118 C 
HETATM   20  C1  UNL     1       6.175   0.156  -0.168  1.00  0.00     0.027 C 
BRANCH  19  21
HETATM   21  C3  UNL     1       4.716  -1.690   0.565  1.00  0.00     0.134 C 
HETATM   22 CL1  UNL     1       6.106  -2.376   1.436  1.00  0.00    -0.129 Cl
ENDBRANCH  19  21
ENDBRANCH  16  19
ENDBRANCH  15  16
ENDBRANCH   1  15
BRANCH  14  23
HETATM   23  O5  UNL     1      -0.541   1.731   1.740  1.00  0.00    -0.392 OA
ATOM     24  H5  UNL     1      -1.318   1.579   2.265  1.00  0.00     0.210 HD
ENDBRANCH  14  23
BRANCH   9  25
HETATM   25  O3  UNL     1      -5.115   0.024   0.971  1.00  0.00    -0.392 OA
ATOM     26  H3  UNL     1      -5.825  -0.362   0.472  1.00  0.00     0.210 HD
ENDBRANCH   9  25
TORSDOF 6
