REMARK  4 active torsions:
REMARK  status: ('A' for Active; 'I' for Inactive)
REMARK    1  A    between atoms: C2_2  and  N1_3 
REMARK    2  A    between atoms: C2_2  and  C11_23 
REMARK       I    between atoms: N1_3  and  C3_5 
REMARK    3  A    between atoms: C3_5  and  C4_7 
REMARK    4  A    between atoms: C8_12  and  N2_13 
REMARK       I    between atoms: N2_13  and  C9_15 
ROOT
HETATM    1  C4  UNL     1      -0.384   1.080  -0.374  1.00  0.00     0.075 C 
HETATM    2  C5  UNL     1       0.214   1.804   0.761  1.00  0.00     0.083 C 
HETATM    3  C6  UNL     1       1.546   1.306   1.212  1.00  0.00     0.096 C 
HETATM    4 CL1  UNL     1       1.427   0.141   2.539  1.00  0.00    -0.124 Cl
HETATM    5  C7  UNL     1       2.431   0.848   0.118  1.00  0.00     0.054 A 
HETATM    6  C8  UNL     1       2.668  -0.613  -0.083  1.00  0.00     0.114 A 
HETATM    7  C10 UNL     1       1.754   0.166  -0.977  1.00  0.00     0.112 A 
HETATM    8  N5  UNL     1       0.379  -0.051  -0.886  1.00  0.00    -0.382 N 
ATOM      9  H5  UNL     1      -0.058  -0.932  -1.157  1.00  0.00     0.160 HD
ENDROOT
BRANCH   1  10
HETATM   10  C3  UNL     1      -1.821   0.855  -0.405  1.00  0.00     0.264 C 
HETATM   11  N1  UNL     1      -2.517  -0.111   0.366  1.00  0.00    -0.344 N 
ATOM     12  H1  UNL     1      -2.042  -0.699   1.051  1.00  0.00     0.163 HD
HETATM   13  O1  UNL     1      -2.455   1.614  -1.227  1.00  0.00    -0.266 OA
BRANCH  11  14
HETATM   14  C2  UNL     1      -3.959  -0.214   0.121  1.00  0.00     0.170 C 
HETATM   15  C1  UNL     1      -4.080  -0.346  -1.434  1.00  0.00     0.042 C 
BRANCH  14  16
HETATM   16  C11 UNL     1      -4.601  -1.387   0.697  1.00  0.00     0.253 C 
HETATM   17  N6  UNL     1      -5.975  -1.637   0.480  1.00  0.00    -0.060 NA
HETATM   18  O2  UNL     1      -4.012  -2.271   1.426  1.00  0.00    -0.275 OA
ENDBRANCH  14  16
ENDBRANCH  11  14
ENDBRANCH   1  10
BRANCH   6  19
HETATM   19  N2  UNL     1       3.952  -1.029  -0.613  1.00  0.00    -0.358 N 
HETATM   20  C9  UNL     1       5.130  -0.723   0.163  1.00  0.00     0.182 C 
HETATM   21  N3  UNL     1       5.646  -1.742   0.822  1.00  0.00    -0.374 N 
HETATM   22  N4  UNL     1       5.748   0.525   0.214  1.00  0.00    -0.064 NA
ATOM     23  H32 UNL     1       5.194  -2.655   0.785  1.00  0.00     0.158 HD
ATOM     24  H31 UNL     1       6.478  -1.526   1.370  1.00  0.00     0.158 HD
ATOM     25  H2  UNL     1       4.020  -1.521  -1.504  1.00  0.00     0.162 HD
ENDBRANCH   6  19
TORSDOF 4
