REMARK  6 active torsions:
REMARK  status: ('A' for Active; 'I' for Inactive)
REMARK    1  A    between atoms: C2_2  and  C3_3 
REMARK    2  A    between atoms: C4_4  and  C5_5 
REMARK    3  A    between atoms: C5_5  and  N1_6 
REMARK       I    between atoms: N1_6  and  C6_8 
REMARK       I    between atoms: C6_8  and  N2_10 
REMARK    4  A    between atoms: N2_10  and  C7_12 
REMARK    5  A    between atoms: C7_12  and  C8_13 
REMARK    6  A    between atoms: C8_13  and  N3_14 
REMARK       I    between atoms: N3_14  and  C9_16 
REMARK       I    between atoms: C9_16  and  N6_21 
REMARK       I    between atoms: N6_21  and  C11_23 
ROOT
HETATM    1  N3  UNL     1       2.313  -0.557  -1.673  1.00  0.00    -0.224 N 
ATOM      2  H3  UNL     1       2.360  -0.815  -2.659  1.00  0.00     0.177 HD
HETATM    3  C9  UNL     1       3.200   0.411  -1.140  1.00  0.00     0.689 C 
HETATM    4  N4  UNL     1       3.358   1.603  -1.541  1.00  0.00    -0.126 N 
ATOM      5  H4  UNL     1       4.042   2.178  -1.049  1.00  0.00     0.197 HD
HETATM    6  C10 UNL     1       2.679   2.180  -2.587  1.00  0.00     0.196 C 
HETATM    7  N5  UNL     1       2.121   2.676  -3.485  1.00  0.00    -0.171 NA
HETATM    8  N6  UNL     1       4.012  -0.020  -0.025  1.00  0.00    -0.163 N 
ATOM      9  H6  UNL     1       3.729   0.163   0.938  1.00  0.00     0.187 HD
HETATM   10  C11 UNL     1       5.201  -0.698  -0.315  1.00  0.00     0.202 C 
HETATM   11  N7  UNL     1       5.354  -1.361  -1.562  1.00  0.00    -0.063 NA
HETATM   12  N8  UNL     1       6.179  -0.754   0.503  1.00  0.00    -0.368 N 
ATOM     13  H8  UNL     1       7.016  -1.266   0.225  1.00  0.00     0.161 HD
HETATM   14  C12 UNL     1       6.157  -0.133   1.790  1.00  0.00     0.148 C 
ENDROOT
BRANCH   1  15
HETATM   15  C8  UNL     1       1.341  -1.173  -0.800  1.00  0.00     0.157 C 
BRANCH  15  16
HETATM   16  C7  UNL     1       0.278  -0.204  -0.355  1.00  0.00     0.144 C 
BRANCH  16  17
HETATM   17  N2  UNL     1      -0.637  -0.897   0.526  1.00  0.00    -0.342 N 
HETATM   18  C6  UNL     1      -1.735  -0.165   1.066  1.00  0.00     0.316 C 
HETATM   19  N1  UNL     1      -2.660  -0.775   1.941  1.00  0.00    -0.333 N 
HETATM   20  O1  UNL     1      -1.894   1.037   0.768  1.00  0.00    -0.247 OA
ATOM     21  H1  UNL     1      -2.535  -1.756   2.192  1.00  0.00     0.165 HD
ATOM     22  H2  UNL     1      -0.500  -1.882   0.754  1.00  0.00     0.164 HD
BRANCH  19  23
HETATM   23  C5  UNL     1      -3.761  -0.056   2.480  1.00  0.00     0.218 C 
BRANCH  23  24
HETATM   24  C4  UNL     1      -4.589   0.398   1.335  1.00  0.00    -0.087 C 
HETATM   25  C3  UNL     1      -5.277   0.748   0.410  1.00  0.00    -0.105 C 
BRANCH  25  26
HETATM   26  C2  UNL     1      -6.140   1.157  -0.719  1.00  0.00     0.089 C 
HETATM   27  C1  UNL     1      -7.562   0.633  -0.506  1.00  0.00     0.018 C 
ENDBRANCH  25  26
ENDBRANCH  23  24
ENDBRANCH  19  23
ENDBRANCH  16  17
ENDBRANCH  15  16
ENDBRANCH   1  15
TORSDOF 6
