REMARK  6 active torsions:
REMARK  status: ('A' for Active; 'I' for Inactive)
REMARK    1  A    between atoms: C2_2  and  C3_3 
REMARK    2  A    between atoms: C4_6  and  N2_7 
REMARK    3  A    between atoms: N2_7  and  C5_9 
REMARK    4  A    between atoms: C5_9  and  C6_10 
REMARK    5  A    between atoms: C6_10  and  N3_11 
REMARK    6  A    between atoms: C8_18  and  N7_19 
ROOT
HETATM    1  C3  UNL     1      -3.080  -0.218   0.091  1.00  0.00     0.047 A 
HETATM    2  N1  UNL     1      -1.953   0.492   0.096  1.00  0.00    -0.194 N 
ATOM      3  H1  UNL     1      -2.014   1.488   0.310  1.00  0.00     0.184 HD
HETATM    4  C4  UNL     1      -0.721  -0.034  -0.168  1.00  0.00     0.680 A 
HETATM    5  N6  UNL     1      -0.653  -1.345  -0.445  1.00  0.00    -0.176 N 
ATOM      6  H6  UNL     1       0.260  -1.754  -0.642  1.00  0.00     0.186 HD
HETATM    7  C8  UNL     1      -1.727  -2.138  -0.474  1.00  0.00     0.134 A 
HETATM    8  C9  UNL     1      -2.953  -1.565  -0.203  1.00  0.00     0.078 A 
HETATM    9 BR1  UNL     1      -4.546  -2.653  -0.238  1.00  0.00    -0.045 Br
ENDROOT
BRANCH   4  10
HETATM   10  N2  UNL     1       0.298   0.704  -0.166  1.00  0.00    -0.221 N 
ATOM     11  H2  UNL     1       0.101   1.683   0.044  1.00  0.00     0.178 HD
BRANCH  10  12
HETATM   12  C5  UNL     1       1.664   0.430  -0.400  1.00  0.00     0.182 C 
BRANCH  12  13
HETATM   13  C6  UNL     1       2.422  -0.085   0.821  1.00  0.00     0.083 C 
BRANCH  13  14
HETATM   14  N3  UNL     1       3.773  -0.315   0.642  1.00  0.00    -0.345 N 
HETATM   15  C7  UNL     1       4.736   0.349   0.273  1.00  0.00     0.200 C 
HETATM   16  N4  UNL     1       4.669   1.722  -0.125  1.00  0.00    -0.067 NA
HETATM   17  N5  UNL     1       6.035  -0.288   0.246  1.00  0.00    -0.067 NA
ATOM     18  H3  UNL     1       4.034  -1.273   0.874  1.00  0.00     0.167 HD
ENDBRANCH  13  14
ENDBRANCH  12  13
ENDBRANCH  10  12
ENDBRANCH   4  10
BRANCH   1  19
HETATM   19  C2  UNL     1      -4.414   0.345   0.368  1.00  0.00     0.055 C 
HETATM   20  C1  UNL     1      -4.500   1.816   0.041  1.00  0.00     0.011 C 
ENDBRANCH   1  19
BRANCH   7  21
HETATM   21  N7  UNL     1      -1.608  -3.412  -0.739  1.00  0.00    -0.384 N 
ATOM     22  H72 UNL     1      -0.702  -3.835  -0.939  1.00  0.00     0.157 HD
ATOM     23  H71 UNL     1      -2.428  -4.018  -0.761  1.00  0.00     0.157 HD
ENDBRANCH   7  21
TORSDOF 6
