REMARK  8 active torsions:
REMARK  status: ('A' for Active; 'I' for Inactive)
REMARK    1  A    between atoms: N1_2  and  C3_4 
REMARK    2  A    between atoms: C3_4  and  C4_5 
REMARK    3  A    between atoms: C4_5  and  N2_6 
REMARK       I    between atoms: N2_6  and  C5_8 
REMARK       I    between atoms: C5_8  and  N4_12 
REMARK    4  A    between atoms: N4_12  and  N5_14 
REMARK    5  A    between atoms: N5_14  and  C6_16 
REMARK    6  A    between atoms: C6_16  and  N6_18 
REMARK    7  A    between atoms: N6_18  and  N7_20 
REMARK       I    between atoms: N7_20  and  C7_22 
REMARK    8  A    between atoms: C7_22  and  C8_24 
ROOT
HETATM    1  N2  UNL     1      -1.375   0.790  -0.536  1.00  0.00    -0.221 N 
ATOM      2  H2  UNL     1      -1.893   0.814  -1.414  1.00  0.00     0.178 HD
HETATM    3  C5  UNL     1      -0.348   1.729  -0.323  1.00  0.00     0.686 C 
HETATM    4  N3  UNL     1      -0.077   2.602  -1.219  1.00  0.00    -0.234 N 
ATOM      5  H31 UNL     1       0.667   3.282  -1.065  1.00  0.00     0.174 HD
ATOM      6  H32 UNL     1      -0.613   2.606  -2.087  1.00  0.00     0.174 HD
HETATM    7  N4  UNL     1       0.393   1.723   0.878  1.00  0.00    -0.131 N 
ATOM      8  H4  UNL     1       0.368   2.571   1.444  1.00  0.00     0.205 HD
ENDROOT
BRANCH   7   9
HETATM    9  N5  UNL     1       1.154   0.664   1.359  1.00  0.00    -0.261 N 
ATOM     10  H5  UNL     1       0.885   0.190   2.221  1.00  0.00     0.190 HD
BRANCH   9  11
HETATM   11  C6  UNL     1       2.307   0.245   0.645  1.00  0.00     0.205 C 
HETATM   12  S1  UNL     1       2.716   1.009  -0.747  1.00  0.00    -0.038 SA
BRANCH  11  13
HETATM   13  N6  UNL     1       3.131  -0.819   1.080  1.00  0.00    -0.272 N 
ATOM     14  H6  UNL     1       2.900  -1.315   1.941  1.00  0.00     0.189 HD
BRANCH  13  15
HETATM   15  N7  UNL     1       4.243  -1.195   0.356  1.00  0.00    -0.267 N 
HETATM   16  C7  UNL     1       5.362  -0.347   0.244  1.00  0.00     0.249 C 
HETATM   17  O1  UNL     1       5.421   0.783   0.785  1.00  0.00    -0.271 OA
ATOM     18  H7  UNL     1       4.255  -2.104  -0.107  1.00  0.00     0.190 HD
BRANCH  16  19
HETATM   19  C8  UNL     1       6.560  -0.784  -0.556  1.00  0.00     0.219 C 
HETATM   20 CL1  UNL     1       7.807   0.454  -0.576  1.00  0.00    -0.121 Cl
ENDBRANCH  16  19
ENDBRANCH  13  15
ENDBRANCH  11  13
ENDBRANCH   9  11
ENDBRANCH   7   9
BRANCH   1  21
HETATM   21  C4  UNL     1      -1.723  -0.224   0.470  1.00  0.00     0.182 C 
BRANCH  21  22
HETATM   22  C3  UNL     1      -2.864  -1.068  -0.055  1.00  0.00     0.077 C 
BRANCH  22  23
HETATM   23  N1  UNL     1      -4.035  -0.337  -0.338  1.00  0.00    -0.400 N 
HETATM   24  C1  UNL     1      -4.761   0.227   0.731  1.00  0.00     0.148 C 
HETATM   25  C2  UNL     1      -4.718  -0.587  -1.549  1.00  0.00     0.148 C 
ENDBRANCH  22  23
ENDBRANCH  21  22
ENDBRANCH   1  21
TORSDOF 8
