REMARK  6 active torsions:
REMARK  status: ('A' for Active; 'I' for Inactive)
REMARK    1  A    between atoms: C2_2  and  N1_4 
REMARK    2  A    between atoms: N1_4  and  C4_6 
REMARK    3  A    between atoms: C9_16  and  N4_17 
REMARK    4  A    between atoms: C10_20  and  N5_21 
REMARK    5  A    between atoms: N5_21  and  C12_23 
REMARK    6  A    between atoms: C15_26  and  N6_27 
ROOT
HETATM    1  C4  UNL     1      -2.094  -0.069   0.140  1.00  0.00     0.118 A 
HETATM    2  N2  UNL     1      -3.334   0.356  -0.169  1.00  0.00    -0.318 N 
ATOM      3  H2  UNL     1      -3.609   1.312   0.055  1.00  0.00     0.170 HD
HETATM    4  C5  UNL     1      -4.209  -0.462  -0.766  1.00  0.00     0.181 A 
HETATM    5 CL1  UNL     1      -5.823   0.158  -1.144  1.00  0.00    -0.045 Cl
HETATM    6  N3  UNL     1      -3.861  -1.722  -1.066  1.00  0.00    -0.332 N 
ATOM      7  H3  UNL     1      -4.529  -2.345  -1.521  1.00  0.00     0.168 HD
HETATM    8  C6  UNL     1      -2.617  -2.162  -0.761  1.00  0.00     0.050 A 
HETATM    9  C7  UNL     1      -2.347  -3.466  -1.099  1.00  0.00     0.033 A 
HETATM   10  C8  UNL     1      -1.125  -3.953  -0.812  1.00  0.00     0.041 A 
HETATM   11  C9  UNL     1      -0.160  -3.155  -0.188  1.00  0.00     0.130 A 
HETATM   12  C10 UNL     1      -0.404  -1.830   0.165  1.00  0.00     0.084 A 
HETATM   13  C18 UNL     1      -1.662  -1.362  -0.140  1.00  0.00     0.064 A 
ENDROOT
BRANCH  12  14
HETATM   14  N5  UNL     1       0.635  -1.086   0.756  1.00  0.00    -0.356 N 
HETATM   15  C11 UNL     1       0.779  -1.058   2.196  1.00  0.00     0.156 C 
BRANCH  14  16
HETATM   16  C12 UNL     1       1.686  -0.368   0.029  1.00  0.00    -0.011 C 
HETATM   17  C13 UNL     1       1.515  -0.277  -1.438  1.00  0.00     0.054 C 
HETATM   18  C14 UNL     1       2.106   0.894  -2.117  1.00  0.00     0.038 C 
HETATM   19  C15 UNL     1       3.161   1.614  -1.330  1.00  0.00     0.184 C 
HETATM   20  C16 UNL     1       2.510   2.026  -0.034  1.00  0.00     0.038 C 
HETATM   21  C17 UNL     1       2.234   0.793   0.763  1.00  0.00     0.054 C 
BRANCH  19  22
HETATM   22  N6  UNL     1       4.342   0.849  -1.099  1.00  0.00    -0.075 N 
ATOM     23  H63 UNL     1       4.110  -0.040  -0.656  1.00  0.00     0.274 HD
ATOM     24  H62 UNL     1       4.725   0.508  -1.981  1.00  0.00     0.274 HD
ATOM     25  H61 UNL     1       5.059   1.339  -0.564  1.00  0.00     0.274 HD
ENDBRANCH  19  22
ENDBRANCH  14  16
ENDBRANCH  12  14
BRANCH  11  26
HETATM   26  N4  UNL     1       1.050  -3.805   0.029  1.00  0.00    -0.113 N 
HETATM   27  O1  UNL     1       1.417  -4.696  -0.802  1.00  0.00    -0.532 OA
HETATM   28  O2  UNL     1       1.898  -3.585   1.036  1.00  0.00    -0.532 OA
ENDBRANCH  11  26
BRANCH   1  29
HETATM   29  N1  UNL     1      -1.317   0.707   0.691  1.00  0.00    -0.371 N 
ATOM     30  H1  UNL     1      -0.394   0.327   0.899  1.00  0.00     0.161 HD
BRANCH  29  31
HETATM   31  C2  UNL     1      -1.521   2.053   1.078  1.00  0.00     0.075 C 
HETATM   32  C1  UNL     1      -1.695   3.030  -0.073  1.00  0.00     0.031 C 
HETATM   33  C3  UNL     1      -2.538   2.262   2.179  1.00  0.00     0.031 C 
ENDBRANCH  29  31
ENDBRANCH   1  29
TORSDOF 6
