REMARK  6 active torsions:
REMARK  status: ('A' for Active; 'I' for Inactive)
REMARK    1  A    between atoms: C2_2  and  C3_3 
REMARK    2  A    between atoms: C3_3  and  C4_4 
REMARK    3  A    between atoms: C4_4  and  C5_5 
REMARK    4  A    between atoms: C6_7  and  N1_8 
REMARK    5  A    between atoms: N3_19  and  C13_20 
REMARK    6  A    between atoms: C16_23  and  N4_24 
ROOT
HETATM    1  C5  UNL     1       3.585   0.090  -1.115  1.00  0.00    -0.005 A 
HETATM    2  S1  UNL     1       3.665  -1.443  -1.874  1.00  0.00    -0.058 SA
HETATM    3  C6  UNL     1       2.168  -2.215  -2.021  1.00  0.00     0.143 A 
HETATM    4  N2  UNL     1       1.154  -1.518  -1.525  1.00  0.00    -0.335 N 
ATOM      5  H2  UNL     1       0.237  -1.959  -1.598  1.00  0.00     0.168 HD
HETATM    6  C7  UNL     1       1.174  -0.321  -0.945  1.00  0.00     0.070 A 
HETATM    7  C8  UNL     1       2.298   0.466  -0.737  1.00  0.00    -0.015 A 
HETATM    8  C9  UNL     1       2.196   1.845  -0.195  1.00  0.00     0.047 C 
HETATM    9  C10 UNL     1       0.937   2.103   0.545  1.00  0.00     0.047 C 
HETATM   10  C11 UNL     1      -0.235   1.300   0.210  1.00  0.00    -0.010 A 
HETATM   11  C12 UNL     1      -1.590   1.499   0.510  1.00  0.00     0.120 A 
HETATM   12  N3  UNL     1      -2.249   0.452   0.026  1.00  0.00    -0.296 N 
HETATM   13  N5  UNL     1      -1.388  -0.366  -0.546  1.00  0.00    -0.296 N 
ATOM     14  H5  UNL     1      -1.634  -1.248  -0.996  1.00  0.00     0.187 HD
HETATM   15  C19 UNL     1      -0.142   0.125  -0.452  1.00  0.00     0.083 A 
ENDROOT
BRANCH  12  16
HETATM   16  C13 UNL     1      -3.702   0.284   0.138  1.00  0.00     0.126 C 
HETATM   17  C14 UNL     1      -4.011  -0.398   1.435  1.00  0.00     0.031 C 
HETATM   18  C15 UNL     1      -5.305  -1.149   1.327  1.00  0.00     0.035 C 
HETATM   19  C16 UNL     1      -6.281  -0.518   0.358  1.00  0.00     0.185 C 
HETATM   20  C17 UNL     1      -5.731  -0.478  -1.040  1.00  0.00     0.055 C 
HETATM   21  C18 UNL     1      -4.221  -0.446  -1.063  1.00  0.00     0.109 C 
HETATM   22 CL1  UNL     1      -3.634   0.377  -2.521  1.00  0.00    -0.123 Cl
BRANCH  19  23
HETATM   23  N4  UNL     1      -6.689   0.810   0.821  1.00  0.00    -0.075 N 
ATOM     24  H43 UNL     1      -7.064   0.780   1.769  1.00  0.00     0.274 HD
ATOM     25  H42 UNL     1      -5.885   1.413   0.993  1.00  0.00     0.274 HD
ATOM     26  H41 UNL     1      -7.347   1.235   0.168  1.00  0.00     0.274 HD
ENDBRANCH  19  23
ENDBRANCH  12  16
BRANCH   3  27
HETATM   27  N1  UNL     1       2.024  -3.367  -2.561  1.00  0.00    -0.380 N 
ATOM     28  H12 UNL     1       2.804  -3.903  -2.942  1.00  0.00     0.158 HD
ATOM     29  H11 UNL     1       1.121  -3.833  -2.650  1.00  0.00     0.158 HD
ENDBRANCH   3  27
BRANCH   1  30
HETATM   30  C4  UNL     1       4.804   0.886  -0.859  1.00  0.00     0.047 C 
BRANCH  30  31
HETATM   31  C3  UNL     1       5.442   0.724   0.468  1.00  0.00     0.005 C 
BRANCH  31  32
HETATM   32  C2  UNL     1       5.922  -0.676   0.784  1.00  0.00    -0.004 C 
HETATM   33  C1  UNL     1       6.980  -1.141  -0.179  1.00  0.00     0.005 C 
ENDBRANCH  31  32
ENDBRANCH  30  31
ENDBRANCH   1  30
TORSDOF 6
