REMARK  5 active torsions:
REMARK  status: ('A' for Active; 'I' for Inactive)
REMARK    1  A    between atoms: C2_2  and  O1_4 
REMARK    2  A    between atoms: C2_2  and  C4_6 
REMARK    3  A    between atoms: C5_7  and  C6_8 
REMARK    4  A    between atoms: C9_11  and  N1_12 
REMARK    5  A    between atoms: N3_22  and  O2_23 
ROOT
HETATM    1  C6  UNL     1      -1.151  -0.343   0.393  1.00  0.00     0.035 A 
HETATM    2  C7  UNL     1      -0.656  -0.876  -0.782  1.00  0.00     0.026 A 
HETATM    3  C8  UNL     1       0.695  -1.125  -0.881  1.00  0.00     0.053 A 
HETATM    4  C9  UNL     1       1.573  -0.856   0.161  1.00  0.00     0.140 A 
HETATM    5  N3  UNL     1       1.050  -0.337   1.288  1.00  0.00    -0.217 N 
HETATM    6  C17 UNL     1      -0.263  -0.078   1.430  1.00  0.00     0.145 A 
ENDROOT
BRANCH   4   7
HETATM    7  N1  UNL     1       2.970  -1.127   0.023  1.00  0.00    -0.290 N 
HETATM    8  C10 UNL     1       3.655  -2.207   0.423  1.00  0.00     0.191 A 
HETATM    9  N2  UNL     1       4.950  -2.066   0.102  1.00  0.00    -0.350 N 
HETATM   10  C11 UNL     1       5.117  -0.873  -0.519  1.00  0.00     0.060 A 
ATOM     11  H2  UNL     1       5.687  -2.745   0.294  1.00  0.00     0.166 HD
HETATM   12  C12 UNL     1       6.203  -0.224  -1.050  1.00  0.00     0.032 A 
HETATM   13  C16 UNL     1       3.878  -0.302  -0.560  1.00  0.00     0.068 A 
HETATM   14  C13 UNL     1       6.001   1.026  -1.627  1.00  0.00     0.002 A 
HETATM   15  C14 UNL     1       4.758   1.606  -1.672  1.00  0.00     0.002 A 
HETATM   16  C15 UNL     1       3.676   0.935  -1.130  1.00  0.00     0.032 A 
ENDBRANCH   4   7
BRANCH   5  17
HETATM   17  O2  UNL     1       1.926  -0.067   2.333  1.00  0.00    -0.281 OA
ATOM     18  H2  UNL     1       1.557   0.299   3.128  1.00  0.00     0.245 HD
ENDBRANCH   5  17
BRANCH   1  19
HETATM   19  C5  UNL     1      -2.561  -0.080   0.504  1.00  0.00    -0.062 C 
HETATM   20  C4  UNL     1      -3.748   0.119   0.595  1.00  0.00    -0.064 C 
BRANCH  20  21
HETATM   21  C2  UNL     1      -5.191   0.341   0.690  1.00  0.00     0.114 C 
HETATM   22  C1  UNL     1      -5.646   1.072  -0.554  1.00  0.00     0.060 C 
HETATM   23  C3  UNL     1      -5.561   1.188   1.887  1.00  0.00     0.060 C 
BRANCH  21  24
HETATM   24  O1  UNL     1      -5.845  -0.882   0.831  1.00  0.00    -0.378 OA
ATOM     25  H1  UNL     1      -5.559  -1.341   1.612  1.00  0.00     0.211 HD
ENDBRANCH  21  24
ENDBRANCH  20  21
ENDBRANCH   1  19
TORSDOF 5
