REMARK  1 active torsions:
REMARK  status: ('A' for Active; 'I' for Inactive)
REMARK    1  A    between atoms: N4_12  and  C7_14 
ROOT
HETATM    1  C1  UNL     1       3.799   2.274  -0.705  1.00  0.00     0.089 C 
HETATM    2  C2  UNL     1       3.621   0.836  -0.344  1.00  0.00     0.095 A 
HETATM    3  N1  UNL     1       4.695   0.085  -0.040  1.00  0.00    -0.330 N 
ATOM      4  H1  UNL     1       5.626   0.501  -0.057  1.00  0.00     0.168 HD
HETATM    5  C3  UNL     1       4.546  -1.217   0.288  1.00  0.00     0.148 A 
HETATM    6  C4  UNL     1       5.426  -2.224   0.639  1.00  0.00     0.070 A 
HETATM    7  C5  UNL     1       4.700  -3.380   0.872  1.00  0.00     0.112 A 
HETATM    8  N2  UNL     1       3.421  -3.060   0.662  1.00  0.00    -0.289 N 
ATOM      9  H2  UNL     1       2.640  -3.709   0.756  1.00  0.00     0.187 HD
HETATM   10  N3  UNL     1       3.300  -1.781   0.313  1.00  0.00    -0.070 N 
HETATM   11  C6  UNL     1       2.228  -1.038   0.012  1.00  0.00     0.707 A 
HETATM   12  N4  UNL     1       1.075  -1.548   0.032  1.00  0.00    -0.190 N 
ATOM     13  H4  UNL     1       1.024  -2.534   0.286  1.00  0.00     0.184 HD
HETATM   14  N6  UNL     1       2.413   0.247  -0.308  1.00  0.00    -0.179 N 
ATOM     15  H6  UNL     1       1.594   0.810  -0.537  1.00  0.00     0.185 HD
ENDROOT
BRANCH  12  16
HETATM   16  C7  UNL     1      -0.142  -0.922  -0.253  1.00  0.00     0.050 A 
HETATM   17  C8  UNL     1      -0.520  -0.467  -1.502  1.00  0.00     0.031 A 
HETATM   18  C9  UNL     1      -1.749   0.137  -1.665  1.00  0.00     0.016 A 
HETATM   19  C10 UNL     1      -2.622   0.302  -0.608  1.00  0.00    -0.010 A 
HETATM   20  C11 UNL     1      -3.863   0.911  -0.771  1.00  0.00     0.102 A 
HETATM   21  C15 UNL     1      -2.256  -0.144   0.625  1.00  0.00    -0.021 A 
HETATM   22  N5  UNL     1      -4.693   1.057   0.281  1.00  0.00    -0.370 N 
HETATM   23  C12 UNL     1      -5.984   1.700   0.072  1.00  0.00     0.154 C 
HETATM   24  C13 UNL     1      -4.322   0.618   1.477  1.00  0.00     0.090 A 
HETATM   25  C14 UNL     1      -3.094   0.000   1.701  1.00  0.00     0.029 A 
HETATM   26  C16 UNL     1      -1.036  -0.747   0.800  1.00  0.00     0.042 A 
ENDBRANCH  12  16
TORSDOF 1
