REMARK  5 active torsions:
REMARK  status: ('A' for Active; 'I' for Inactive)
REMARK    1  A    between atoms: C2_2  and  C4_4 
REMARK    2  A    between atoms: C7_7  and  O1_8 
REMARK    3  A    between atoms: N1_12  and  O2_13 
REMARK    4  A    between atoms: C10_17  and  C11_18 
REMARK    5  A    between atoms: N3_24  and  O3_25 
ROOT
HETATM    1  C4  UNL     1      -2.633  -0.365   0.313  1.00  0.00     0.002 A 
HETATM    2  C5  UNL     1      -3.093  -1.291   1.280  1.00  0.00     0.017 A 
HETATM    3  C6  UNL     1      -2.184  -1.957   2.057  1.00  0.00     0.040 A 
HETATM    4  C7  UNL     1      -0.830  -1.739   1.910  1.00  0.00     0.097 A 
HETATM    5  C8  UNL     1      -0.413  -0.835   0.964  1.00  0.00     0.129 A 
HETATM    6  C9  UNL     1      -1.296  -0.132   0.149  1.00  0.00     0.124 A 
HETATM    7  N1  UNL     1      -0.788   0.728  -0.739  1.00  0.00    -0.159 N 
HETATM    8  N2  UNL     1       0.511   0.935  -0.875  1.00  0.00    -0.256 N 
ATOM      9  H2  UNL     1       0.843   1.602  -1.571  1.00  0.00     0.191 HD
HETATM   10  C10 UNL     1       1.413   0.270  -0.099  1.00  0.00     0.160 A 
HETATM   11  N3  UNL     1       0.925  -0.581   0.781  1.00  0.00    -0.201 N 
ENDROOT
BRANCH  10  12
HETATM   12  C11 UNL     1       2.827   0.546  -0.301  1.00  0.00     0.012 A 
HETATM   13  C12 UNL     1       3.161   1.487  -1.290  1.00  0.00     0.015 A 
HETATM   14  C13 UNL     1       4.448   1.851  -1.595  1.00  0.00     0.001 A 
HETATM   15  C14 UNL     1       5.467   1.250  -0.880  1.00  0.00     0.000 A 
HETATM   16  C15 UNL     1       5.180   0.330   0.090  1.00  0.00     0.001 A 
HETATM   17  C16 UNL     1       3.865  -0.012   0.369  1.00  0.00     0.015 A 
ENDBRANCH  10  12
BRANCH  11  18
HETATM   18  O3  UNL     1       1.743  -1.309   1.618  1.00  0.00    -0.281 OA
ATOM     19  H3  UNL     1       2.668  -1.133   1.491  1.00  0.00     0.245 HD
ENDBRANCH  11  18
BRANCH   7  20
HETATM   20  O2  UNL     1      -1.666   1.431  -1.546  1.00  0.00    -0.267 OA
ATOM     21  H2  UNL     1      -1.305   2.042  -2.177  1.00  0.00     0.247 HD
ENDBRANCH   7  20
BRANCH   4  22
HETATM   22  O1  UNL     1       0.102  -2.395   2.678  1.00  0.00    -0.358 OA
ATOM     23  H1  UNL     1       1.035  -2.245   2.577  1.00  0.00     0.217 HD
ENDBRANCH   4  22
BRANCH   1  24
HETATM   24  C2  UNL     1      -3.627   0.320  -0.491  1.00  0.00    -0.059 C 
HETATM   25  C1  UNL     1      -4.226   1.428  -0.104  1.00  0.00     0.019 C 
HETATM   26  C3  UNL     1      -4.026  -0.291  -1.792  1.00  0.00     0.048 C 
ENDBRANCH   1  24
TORSDOF 5
