REMARK  4 active torsions:
REMARK  status: ('A' for Active; 'I' for Inactive)
REMARK    1  A    between atoms: C10_12  and  C11_13 
REMARK    2  A    between atoms: C11_13  and  N2_15 
REMARK    3  A    between atoms: N2_15  and  O1_17 
REMARK    4  A    between atoms: N3_23  and  O2_24 
ROOT
HETATM    1  C1  UNL     1       5.413   2.077  -0.969  1.00  0.00     0.049 C 
HETATM    2  C2  UNL     1       4.563   0.910  -0.635  1.00  0.00    -0.046 A 
HETATM    3  C3  UNL     1       5.103  -0.342  -0.352  1.00  0.00     0.096 A 
HETATM    4  N1  UNL     1       4.258  -1.348  -0.066  1.00  0.00    -0.349 N 
ATOM      5  H1  UNL     1       4.649  -2.267   0.142  1.00  0.00     0.167 HD
HETATM    6  C4  UNL     1       2.912  -1.200  -0.041  1.00  0.00     0.144 A 
HETATM    7  C5  UNL     1       2.370   0.048  -0.323  1.00  0.00     0.022 A 
HETATM    8  C6  UNL     1       3.193   1.100  -0.619  1.00  0.00     0.024 A 
HETATM    9  C7  UNL     1       1.005   0.164  -0.292  1.00  0.00    -0.010 A 
HETATM   10  C8  UNL     1       0.414   1.376  -0.563  1.00  0.00     0.014 A 
HETATM   11  C9  UNL     1      -0.976   1.421  -0.514  1.00  0.00     0.010 A 
HETATM   12  C10 UNL     1      -1.739   0.322  -0.211  1.00  0.00    -0.038 A 
HETATM   13  C14 UNL     1      -1.136  -0.882   0.058  1.00  0.00     0.023 A 
HETATM   14  C15 UNL     1       0.258  -0.973   0.020  1.00  0.00     0.000 A 
HETATM   15  C16 UNL     1       0.814  -2.204   0.297  1.00  0.00     0.049 A 
HETATM   16  C17 UNL     1      -0.026  -3.392   0.618  1.00  0.00     0.072 C 
HETATM   17  N3  UNL     1       2.156  -2.282   0.257  1.00  0.00    -0.211 N 
ENDROOT
BRANCH  12  18
HETATM   18  C11 UNL     1      -3.211   0.408  -0.176  1.00  0.00     0.114 C 
HETATM   19  C12 UNL     1      -3.853  -0.783   0.451  1.00  0.00     0.034 C 
BRANCH  18  20
HETATM   20  N2  UNL     1      -3.686   1.598   0.490  1.00  0.00    -0.195 NA
HETATM   21  C13 UNL     1      -5.095   1.793   0.337  1.00  0.00     0.144 C 
BRANCH  20  22
HETATM   22  O1  UNL     1      -3.220   1.771   1.722  1.00  0.00    -0.313 OA
ATOM     23  H1  UNL     1      -3.532   2.554   2.160  1.00  0.00     0.237 HD
ENDBRANCH  20  22
ENDBRANCH  18  20
ENDBRANCH  12  18
BRANCH  17  24
HETATM   24  O2  UNL     1       2.714  -3.502   0.533  1.00  0.00    -0.281 OA
ATOM     25  H2  UNL     1       2.183  -4.262   0.742  1.00  0.00     0.245 HD
ENDBRANCH  17  24
TORSDOF 4
