REMARK  6 active torsions:
REMARK  status: ('A' for Active; 'I' for Inactive)
REMARK    1  A    between atoms: C13_13  and  C14_14 
REMARK    2  A    between atoms: C14_14  and  C15_15 
REMARK    3  A    between atoms: C15_15  and  O1_16 
REMARK    4  A    between atoms: O1_16  and  C16_17 
REMARK    5  A    between atoms: C16_17  and  C17_19 
REMARK    6  A    between atoms: C17_19  and  C18_20 
ROOT
HETATM    1  C1  UNL     1      -4.809  -1.216   0.628  1.00  0.00     0.015 C 
HETATM    2  C2  UNL     1      -3.857  -0.081   0.937  1.00  0.00    -0.044 C 
HETATM    3  C3  UNL     1      -3.923   0.177   2.417  1.00  0.00     0.015 C 
HETATM    4  C4  UNL     1      -4.390   1.149   0.234  1.00  0.00     0.009 C 
HETATM    5  C5  UNL     1      -4.492   0.956  -1.262  1.00  0.00     0.001 C 
HETATM    6  C6  UNL     1      -3.328   0.093  -1.743  1.00  0.00     0.005 C 
HETATM    7  C7  UNL     1      -2.180   0.367  -0.795  1.00  0.00    -0.005 C 
HETATM    8  C8  UNL     1      -2.454  -0.399   0.467  1.00  0.00    -0.002 C 
HETATM    9  C9  UNL     1      -1.410   0.003   1.465  1.00  0.00     0.006 C 
HETATM   10  C10 UNL     1      -0.135   0.509   0.810  1.00  0.00     0.010 C 
HETATM   11  C11 UNL     1       0.202  -0.358  -0.350  1.00  0.00    -0.036 C 
HETATM   12  C12 UNL     1       0.193  -1.806   0.029  1.00  0.00     0.016 C 
HETATM   13  C13 UNL     1       1.384  -0.004  -1.161  1.00  0.00    -0.004 C 
HETATM   14  C19 UNL     1       1.022   1.369  -1.662  1.00  0.00     0.006 C 
HETATM   15  C20 UNL     1      -0.364   1.096  -2.214  1.00  0.00     0.006 C 
HETATM   16  C21 UNL     1      -0.905  -0.093  -1.410  1.00  0.00    -0.002 C 
ENDROOT
BRANCH  13  17
HETATM   17  C14 UNL     1       2.741  -0.264  -0.736  1.00  0.00     0.032 C 
BRANCH  17  18
HETATM   18  C15 UNL     1       3.290   0.309   0.505  1.00  0.00     0.179 C 
BRANCH  18  19
HETATM   19  O1  UNL     1       4.638  -0.007   0.748  1.00  0.00    -0.321 OA
BRANCH  19  20
HETATM   20  C16 UNL     1       5.680   0.387  -0.042  1.00  0.00     0.268 C 
HETATM   21  O2  UNL     1       5.447   1.089  -1.060  1.00  0.00    -0.265 OA
BRANCH  20  22
HETATM   22  C17 UNL     1       7.110  -0.000   0.276  1.00  0.00     0.224 C 
BRANCH  22  23
HETATM   23  C18 UNL     1       7.190  -0.814   1.492  1.00  0.00     0.182 C 
HETATM   24  O3  UNL     1       6.167  -1.118   2.143  1.00  0.00    -0.648 OA
HETATM   25  O4  UNL     1       8.466  -1.236   1.892  1.00  0.00    -0.648 OA
ENDBRANCH  22  23
ENDBRANCH  20  22
ENDBRANCH  19  20
ENDBRANCH  18  19
ENDBRANCH  17  18
ENDBRANCH  13  17
TORSDOF 6
