REMARK  5 active torsions:
REMARK  status: ('A' for Active; 'I' for Inactive)
REMARK    1  A    between atoms: C4_8  and  N3_9 
REMARK    2  A    between atoms: N3_9  and  C5_11 
REMARK    3  A    between atoms: C5_11  and  C6_12 
REMARK    4  A    between atoms: C6_12  and  N4_13 
REMARK    5  A    between atoms: C9_18  and  N6_19 
ROOT
HETATM    1  C1  UNL     1       5.258   2.014   0.381  1.00  0.00     0.070 C 
HETATM    2  C2  UNL     1       3.984   1.311   0.172  1.00  0.00     0.029 A 
HETATM    3  N1  UNL     1       2.825   1.895  -0.197  1.00  0.00    -0.344 N 
ATOM      4  H1  UNL     1       2.709   2.894  -0.370  1.00  0.00     0.167 HD
HETATM    5  C3  UNL     1       1.847   0.986  -0.306  1.00  0.00     0.137 A 
HETATM    6  N2  UNL     1       0.543   1.002  -0.630  1.00  0.00    -0.176 N 
ATOM      7  H2  UNL     1       0.101   1.890  -0.866  1.00  0.00     0.186 HD
HETATM    8  C4  UNL     1      -0.204  -0.137  -0.652  1.00  0.00     0.681 A 
HETATM    9  N5  UNL     1       0.386  -1.304  -0.339  1.00  0.00    -0.176 N 
ATOM     10  H5  UNL     1      -0.172  -2.158  -0.355  1.00  0.00     0.186 HD
HETATM   11  C9  UNL     1       1.695  -1.384  -0.003  1.00  0.00     0.130 A 
HETATM   12  C10 UNL     1       2.434  -0.230   0.014  1.00  0.00     0.075 A 
HETATM   13  C11 UNL     1       3.771  -0.052   0.317  1.00  0.00     0.084 A 
HETATM   14  C12 UNL     1       4.738  -1.067   0.703  1.00  0.00     0.102 C 
HETATM   15  N7  UNL     1       5.521  -1.868   0.995  1.00  0.00    -0.191 NA
ENDROOT
BRANCH  11  16
HETATM   16  N6  UNL     1       2.256  -2.506   0.296  1.00  0.00    -0.384 N 
ATOM     17  H62 UNL     1       1.706  -3.365   0.283  1.00  0.00     0.157 HD
ATOM     18  H61 UNL     1       3.242  -2.566   0.549  1.00  0.00     0.157 HD
ENDBRANCH  11  16
BRANCH   8  19
HETATM   19  N3  UNL     1      -1.445  -0.128  -0.962  1.00  0.00    -0.224 N 
ATOM     20  H3  UNL     1      -1.850   0.779  -1.193  1.00  0.00     0.177 HD
BRANCH  19  21
HETATM   21  C5  UNL     1      -2.321  -1.246  -1.019  1.00  0.00     0.157 C 
BRANCH  21  22
HETATM   22  C6  UNL     1      -3.766  -0.749  -1.023  1.00  0.00     0.136 C 
BRANCH  22  23
HETATM   23  N4  UNL     1      -4.127  -0.010   0.136  1.00  0.00    -0.419 N 
HETATM   24  C7  UNL     1      -4.193  -0.711   1.358  1.00  0.00     0.142 C 
HETATM   25  C8  UNL     1      -3.823   1.360   0.184  1.00  0.00     0.142 C 
ENDBRANCH  22  23
ENDBRANCH  21  22
ENDBRANCH  19  21
ENDBRANCH   8  19
TORSDOF 5
