REMARK  5 active torsions:
REMARK  status: ('A' for Active; 'I' for Inactive)
REMARK    1  A    between atoms: C3_3  and  C4_4 
REMARK    2  A    between atoms: C5_6  and  N1_7 
REMARK    3  A    between atoms: N1_7  and  C6_9 
REMARK    4  A    between atoms: C10_16  and  N3_17 
REMARK    5  A    between atoms: C11_22  and  O3_24 
ROOT
HETATM    1  N1  UNL     1       0.447  -0.823   1.196  1.00  0.00    -0.390 N 
ATOM      2  H1  UNL     1       0.084  -1.524   1.842  1.00  0.00     0.156 HD
ENDROOT
BRANCH   1   3
HETATM    3  C5  UNL     1      -0.446  -0.035   0.497  1.00  0.00     0.231 C 
HETATM    4  C3  UNL     1      -1.883  -0.059   1.063  1.00  0.00     0.104 C 
HETATM    5  C2  UNL     1      -2.476   0.922   0.034  1.00  0.00     0.058 C 
HETATM    6  C1  UNL     1      -3.944   0.927   0.023  1.00  0.00     0.016 C 
HETATM    7  C11 UNL     1      -1.789   0.452  -1.207  1.00  0.00     0.164 C 
HETATM    8  O2  UNL     1      -0.753  -0.410  -0.823  1.00  0.00    -0.331 OA
HETATM    9  C12 UNL     1      -2.664  -0.210  -2.216  1.00  0.00     0.079 C 
BRANCH   4  10
HETATM   10  C4  UNL     1      -2.536  -1.363   0.874  1.00  0.00     0.240 C 
HETATM   11  O1  UNL     1      -2.154  -2.435   1.305  1.00  0.00    -0.306 OA
ENDBRANCH   4  10
BRANCH   7  12
HETATM   12  O3  UNL     1      -1.180   1.558  -1.839  1.00  0.00    -0.365 OA
ATOM     13  H3  UNL     1      -0.743   1.259  -2.628  1.00  0.00     0.213 HD
ENDBRANCH   7  12
ENDBRANCH   1   3
BRANCH   1  14
HETATM   14  C6  UNL     1       1.835  -0.692   1.048  1.00  0.00     0.112 C 
HETATM   15  C7  UNL     1       2.376   0.671   1.444  1.00  0.00     0.054 C 
HETATM   16  C8  UNL     1       3.822   0.718   0.993  1.00  0.00     0.234 C 
HETATM   17  N2  UNL     1       3.790   0.971  -0.456  1.00  0.00    -0.073 N 
HETATM   18  C9  UNL     1       2.740   0.178  -1.079  1.00  0.00     0.267 C 
ATOM     19  H22 UNL     1       3.695   1.964  -0.668  1.00  0.00     0.277 HD
ATOM     20  H21 UNL     1       4.698   0.811  -0.892  1.00  0.00     0.277 HD
HETATM   21  C10 UNL     1       2.456  -1.071  -0.247  1.00  0.00     0.231 C 
BRANCH  21  22
HETATM   22  N3  UNL     1       1.741  -1.995  -1.059  1.00  0.00    -0.071 N 
ATOM     23  H33 UNL     1       1.538  -2.836  -0.519  1.00  0.00     0.274 HD
ATOM     24  H32 UNL     1       0.797  -1.645  -1.224  1.00  0.00     0.274 HD
ATOM     25  H31 UNL     1       2.167  -2.255  -1.948  1.00  0.00     0.274 HD
ENDBRANCH  21  22
ENDBRANCH   1  14
TORSDOF 5
