REMARK  5 active torsions:
REMARK  status: ('A' for Active; 'I' for Inactive)
REMARK       I    between atoms: C1_2  and  N2_4 
REMARK       I    between atoms: N2_4  and  C2_6 
REMARK    1  A    between atoms: C2_6  and  C3_8 
REMARK    2  A    between atoms: C4_9  and  O3_10 
REMARK    3  A    between atoms: O3_10  and  C5_11 
REMARK       I    between atoms: C5_11  and  N3_13 
REMARK    4  A    between atoms: N3_13  and  C6_15 
REMARK    5  A    between atoms: C10_19  and  N4_20 
ROOT
HETATM    1  C5  UNL     1      -0.159   0.059   0.298  1.00  0.00     0.365 C 
HETATM    2  O4  UNL     1       0.062  -0.546  -0.775  1.00  0.00    -0.238 OA
HETATM    3  N3  UNL     1      -1.509   0.260   0.741  1.00  0.00    -0.330 N 
ATOM      4  H3  UNL     1      -1.691   0.752   1.616  1.00  0.00     0.165 HD
ENDROOT
BRANCH   1   5
HETATM    5  O3  UNL     1       0.883   0.515   1.029  1.00  0.00    -0.274 OA
BRANCH   5   6
HETATM    6  C4  UNL     1       2.222   0.446   0.819  1.00  0.00     0.153 C 
HETATM    7  C3  UNL     1       2.889  -0.088  -0.162  1.00  0.00     0.099 C 
BRANCH   7   8
HETATM    8  C2  UNL     1       4.360  -0.029  -0.156  1.00  0.00     0.250 C 
HETATM    9  N2  UNL     1       5.086  -0.608  -1.218  1.00  0.00    -0.278 N 
HETATM   10  C1  UNL     1       6.499  -0.554  -1.218  1.00  0.00     0.335 C 
ATOM     11  H2  UNL     1       4.592  -1.065  -1.985  1.00  0.00     0.173 HD
HETATM   12  N1  UNL     1       7.208   0.071  -0.170  1.00  0.00    -0.040 NA
HETATM   13  O1  UNL     1       7.140  -1.062  -2.150  1.00  0.00    -0.251 OA
HETATM   14  O2  UNL     1       4.962   0.536   0.794  1.00  0.00    -0.268 OA
ENDBRANCH   7   8
ENDBRANCH   5   6
ENDBRANCH   1   5
BRANCH   3  15
HETATM   15  C6  UNL     1      -2.626  -0.241  -0.063  1.00  0.00     0.117 C 
HETATM   16  C7  UNL     1      -3.380  -1.216   0.839  1.00  0.00     0.027 C 
HETATM   17  C8  UNL     1      -4.430  -0.295   1.459  1.00  0.00     0.004 C 
HETATM   18  C9  UNL     1      -4.880   0.478   0.235  1.00  0.00     0.035 C 
HETATM   19  C10 UNL     1      -3.573   0.871  -0.383  1.00  0.00     0.206 C 
BRANCH  19  20
HETATM   20  N4  UNL     1      -3.638   1.014  -1.820  1.00  0.00    -0.073 N 
ATOM     21  H43 UNL     1      -2.719   1.147  -2.243  1.00  0.00     0.274 HD
ATOM     22  H42 UNL     1      -3.883   0.143  -2.290  1.00  0.00     0.274 HD
ATOM     23  H41 UNL     1      -4.284   1.773  -2.038  1.00  0.00     0.274 HD
ENDBRANCH  19  20
ENDBRANCH   3  15
TORSDOF 5
