REMARK  4 active torsions:
REMARK  status: ('A' for Active; 'I' for Inactive)
REMARK    1  A    between atoms: C2_2  and  C3_3 
REMARK    2  A    between atoms: C3_3  and  C4_4 
REMARK    3  A    between atoms: C4_4  and  N1_5 
REMARK    4  A    between atoms: N1_5  and  C5_8 
ROOT
HETATM    1  N1  UNL     1      -0.155  -1.018  -0.173  1.00  0.00    -0.066 N 
ATOM      2  H11 UNL     1      -0.217  -1.819  -0.801  1.00  0.00     0.278 HD
ATOM      3  H12 UNL     1       0.407  -0.398  -0.756  1.00  0.00     0.278 HD
ENDROOT
BRANCH   1   4
HETATM    4  C4  UNL     1       0.538  -1.361   1.045  1.00  0.00     0.237 C 
BRANCH   4   5
HETATM    5  C3  UNL     1       1.894  -1.976   0.751  1.00  0.00     0.061 C 
BRANCH   5   6
HETATM    6  C2  UNL     1       2.754  -1.013  -0.015  1.00  0.00    -0.078 C 
HETATM    7  C1  UNL     1       3.203  -1.341  -1.210  1.00  0.00    -0.023 C 
HETATM    8  C20 UNL     1       4.061  -0.452  -2.044  1.00  0.00     0.032 C 
HETATM    9  C19 UNL     1       4.268   0.905  -1.417  1.00  0.00    -0.011 C 
HETATM   10  C18 UNL     1       5.317   0.862  -0.323  1.00  0.00     0.005 C 
HETATM   11  C21 UNL     1       3.043   1.324  -0.599  1.00  0.00     0.014 C 
HETATM   12  C17 UNL     1       4.592   0.327   0.879  1.00  0.00     0.009 C 
HETATM   13  C16 UNL     1       3.121   0.315   0.537  1.00  0.00     0.014 C 
ENDBRANCH   5   6
ENDBRANCH   4   5
ENDBRANCH   1   4
BRANCH   1  14
HETATM   14  C5  UNL     1      -1.464  -0.451   0.086  1.00  0.00     0.126 C 
HETATM   15  C6  UNL     1      -2.267  -1.537   0.786  1.00  0.00     0.039 C 
HETATM   16  C7  UNL     1      -3.735  -1.432   0.559  1.00  0.00     0.007 C 
HETATM   17  C8  UNL     1      -4.313  -0.061   0.654  1.00  0.00    -0.014 C 
HETATM   18  C9  UNL     1      -3.625   0.858   1.598  1.00  0.00     0.009 C 
HETATM   19  C13 UNL     1      -4.450   0.495  -0.743  1.00  0.00     0.009 C 
HETATM   20  C10 UNL     1      -2.493   1.631   1.015  1.00  0.00    -0.012 C 
HETATM   21  C11 UNL     1      -2.723   2.150  -0.364  1.00  0.00     0.009 C 
HETATM   22  C15 UNL     1      -1.268   0.741   0.990  1.00  0.00     0.043 C 
HETATM   23  C12 UNL     1      -3.107   0.963  -1.222  1.00  0.00    -0.012 C 
HETATM   24  C14 UNL     1      -2.070  -0.099  -1.251  1.00  0.00     0.043 C 
ENDBRANCH   1  14
TORSDOF 4
