REMARK  4 active torsions:
REMARK  status: ('A' for Active; 'I' for Inactive)
REMARK    1  A    between atoms: N1_1  and  N2_4 
REMARK    2  A    between atoms: N2_4  and  N3_6 
REMARK       I    between atoms: N3_6  and  C1_8 
REMARK       I    between atoms: C1_8  and  N5_12 
REMARK       I    between atoms: N5_12  and  C2_14 
REMARK    3  A    between atoms: C2_14  and  C3_16 
REMARK    4  A    between atoms: C5_18  and  C6_19 
ROOT
HETATM    1  N3  UNL     1      -3.673   1.028  -0.053  1.00  0.00    -0.118 N 
ATOM      2  H3  UNL     1      -3.881   1.825   0.549  1.00  0.00     0.207 HD
HETATM    3  C1  UNL     1      -2.551   1.092  -0.948  1.00  0.00     0.694 C 
HETATM    4  N4  UNL     1      -2.796   1.677  -2.088  1.00  0.00    -0.233 N 
ATOM      5  H41 UNL     1      -1.999   1.722  -2.723  1.00  0.00     0.174 HD
ATOM      6  H42 UNL     1      -3.736   2.021  -2.282  1.00  0.00     0.174 HD
HETATM    7  N5  UNL     1      -1.262   0.620  -0.682  1.00  0.00    -0.153 N 
ATOM      8  H5  UNL     1      -0.522   0.762  -1.369  1.00  0.00     0.187 HD
HETATM    9  C2  UNL     1      -0.959  -0.080   0.579  1.00  0.00     0.281 C 
HETATM   10  O1  UNL     1      -1.867  -0.223   1.416  1.00  0.00    -0.266 OA
ENDROOT
BRANCH   9  11
HETATM   11  C3  UNL     1       0.391  -0.603   0.821  1.00  0.00     0.075 C 
HETATM   12  C4  UNL     1       1.557   0.167   1.166  1.00  0.00     0.079 C 
HETATM   13  C5  UNL     1       2.722  -0.517   0.427  1.00  0.00     0.110 C 
HETATM   14  C7  UNL     1       2.190  -1.827   0.017  1.00  0.00     0.135 C 
HETATM   15  N6  UNL     1       0.762  -1.611  -0.210  1.00  0.00    -0.388 N 
ATOM     16  H6  UNL     1       0.162  -2.048  -0.909  1.00  0.00     0.159 HD
BRANCH  13  17
HETATM   17  C6  UNL     1       3.292   0.326  -0.630  1.00  0.00     0.178 C 
HETATM   18  O2  UNL     1       3.388  -0.055  -1.821  1.00  0.00    -0.648 OA
HETATM   19  O3  UNL     1       3.765   1.612  -0.384  1.00  0.00    -0.648 OA
ENDBRANCH  13  17
ENDBRANCH   9  11
BRANCH   1  20
HETATM   20  N2  UNL     1      -4.452  -0.065   0.004  1.00  0.00    -0.235 N 
ATOM     21  H2  UNL     1      -4.020  -0.988  -0.039  1.00  0.00     0.208 HD
BRANCH  20  22
HETATM   22  N1  UNL     1      -5.741   0.026   0.112  1.00  0.00    -0.330 N 
ATOM     23  H12 UNL     1      -6.157   0.956   0.153  1.00  0.00     0.178 HD
ATOM     24  H11 UNL     1      -6.332  -0.804   0.155  1.00  0.00     0.178 HD
ENDBRANCH  20  22
ENDBRANCH   1  20
TORSDOF 4
