REMARK  3 active torsions:
REMARK  status: ('A' for Active; 'I' for Inactive)
REMARK       I    between atoms: C2_4  and  N2_5 
REMARK       I    between atoms: C2_4  and  N3_8 
REMARK    1  A    between atoms: N2_5  and  C3_6 
REMARK    2  A    between atoms: N3_8  and  C4_10 
REMARK    3  A    between atoms: C4_10  and  C5_11 
ROOT
HETATM    1  C5  UNL     1       0.579  -0.464   0.210  1.00  0.00     0.159 C 
HETATM    2  C6  UNL     1       1.193   0.825   0.078  1.00  0.00    -0.061 C 
HETATM    3  N4  UNL     1       2.102   1.820  -0.073  1.00  0.00    -0.358 N 
ATOM      4  H4  UNL     1       1.858   2.794  -0.253  1.00  0.00     0.168 HD
HETATM    5  C7  UNL     1       3.504   1.319   0.056  1.00  0.00     0.148 C 
HETATM    6  C8  UNL     1       3.720  -0.057  -0.409  1.00  0.00     0.141 C 
HETATM    7  N5  UNL     1       3.060  -1.185   0.208  1.00  0.00    -0.377 N 
ATOM      8  H5  UNL     1       3.706  -1.896   0.551  1.00  0.00     0.160 HD
HETATM    9  C9  UNL     1       1.682  -1.509   0.436  1.00  0.00     0.089 C 
HETATM   10  N6  UNL     1       1.337  -2.655   0.841  1.00  0.00    -0.388 N 
ATOM     11  H61 UNL     1       2.069  -3.349   0.991  1.00  0.00     0.157 HD
ATOM     12  H62 UNL     1       0.357  -2.885   1.003  1.00  0.00     0.157 HD
ENDROOT
BRANCH   1  13
HETATM   13  C4  UNL     1      -0.180  -0.968  -1.037  1.00  0.00     0.149 C 
BRANCH  13  14
HETATM   14  N3  UNL     1      -1.240  -0.061  -1.325  1.00  0.00    -0.349 N 
HETATM   15  C2  UNL     1      -2.431   0.006  -0.519  1.00  0.00     0.253 C 
HETATM   16  N1  UNL     1      -2.957  -1.203  -0.273  1.00  0.00    -0.355 N 
HETATM   17  N2  UNL     1      -3.070   1.067  -0.006  1.00  0.00    -0.344 NA
HETATM   18  C1  UNL     1      -4.158  -1.347   0.513  1.00  0.00     0.150 C 
ATOM     19  H1  UNL     1      -2.500  -2.034  -0.648  1.00  0.00     0.163 HD
ATOM     20  H3  UNL     1      -1.152   0.561  -2.128  1.00  0.00     0.163 HD
BRANCH  17  21
HETATM   21  C3  UNL     1      -3.717   2.149   0.514  1.00  0.00     0.445 C 
HETATM   22  O1  UNL     1      -3.487   3.386   0.475  1.00  0.00    -0.268 OA
ENDBRANCH  17  21
ENDBRANCH  13  14
ENDBRANCH   1  13
TORSDOF 3
