REMARK  6 active torsions:
REMARK  status: ('A' for Active; 'I' for Inactive)
REMARK    1  A    between atoms: N1_2  and  C3_4 
REMARK    2  A    between atoms: N1_2  and  C6_11 
REMARK    3  A    between atoms: C3_4  and  C4_5 
REMARK    4  A    between atoms: C4_5  and  C5_6 
REMARK    5  A    between atoms: C5_6  and  N2_7 
REMARK    6  A    between atoms: C9_17  and  N4_18 
ROOT
HETATM    1  C6  UNL     1      -0.891  -1.249  -0.582  1.00  0.00     0.281 C 
HETATM    2  C7  UNL     1      -1.208  -0.340  -1.737  1.00  0.00     0.273 C 
HETATM    3  N3  UNL     1      -2.381   0.460  -1.542  1.00  0.00    -0.069 N 
ATOM      4  H31 UNL     1      -3.169  -0.064  -1.160  1.00  0.00     0.277 HD
ATOM      5  H32 UNL     1      -2.828   0.742  -2.415  1.00  0.00     0.277 HD
HETATM    6  C8  UNL     1      -1.977   1.589  -0.707  1.00  0.00     0.286 C 
HETATM    7  C9  UNL     1      -2.585   1.371   0.631  1.00  0.00     0.308 C 
HETATM    8  N5  UNL     1      -2.154   0.174   1.265  1.00  0.00    -0.350 N 
ATOM      9  H5  UNL     1      -2.211   0.155   2.283  1.00  0.00     0.163 HD
HETATM   10  C10 UNL     1      -1.646  -1.016   0.630  1.00  0.00     0.105 C 
HETATM   11  N6  UNL     1      -1.975  -2.075   1.335  1.00  0.00    -0.387 N 
ATOM     12  H61 UNL     1      -2.507  -1.911   2.189  1.00  0.00     0.157 HD
ATOM     13  H62 UNL     1      -1.615  -2.917   0.886  1.00  0.00     0.157 HD
ENDROOT
BRANCH   1  14
HETATM   14  N1  UNL     1       0.554  -1.387  -0.409  1.00  0.00    -0.062 N 
HETATM   15  C1  UNL     1       0.775  -2.724   0.134  1.00  0.00     0.273 C 
HETATM   16  C2  UNL     1       1.171  -1.457  -1.724  1.00  0.00     0.273 C 
BRANCH  14  17
HETATM   17  C3  UNL     1       1.166  -0.484   0.475  1.00  0.00     0.239 C 
BRANCH  17  18
HETATM   18  C4  UNL     1       2.064   0.555  -0.088  1.00  0.00     0.055 C 
BRANCH  18  19
HETATM   19  C5  UNL     1       2.588   1.391   1.086  1.00  0.00     0.231 C 
BRANCH  19  20
HETATM   20  N2  UNL     1       3.482   2.438   0.607  1.00  0.00    -0.079 N 
ATOM     21  H23 UNL     1       4.242   2.059   0.042  1.00  0.00     0.274 HD
ATOM     22  H22 UNL     1       3.039   3.019  -0.105  1.00  0.00     0.274 HD
ATOM     23  H21 UNL     1       3.831   2.994   1.388  1.00  0.00     0.274 HD
ENDBRANCH  19  20
ENDBRANCH  18  19
ENDBRANCH  17  18
ENDBRANCH  14  17
ENDBRANCH   1  14
BRANCH   7  24
HETATM   24  N4  UNL     1      -2.292   2.483   1.550  1.00  0.00    -0.057 N 
ATOM     25  H43 UNL     1      -1.289   2.653   1.621  1.00  0.00     0.276 HD
ATOM     26  H42 UNL     1      -2.577   3.378   1.153  1.00  0.00     0.276 HD
ATOM     27  H41 UNL     1      -2.709   2.333   2.469  1.00  0.00     0.276 HD
ENDBRANCH   7  24
TORSDOF 6
