REMARK  4 active torsions:
REMARK  status: ('A' for Active; 'I' for Inactive)
REMARK       I    between atoms: N2_3  and  C2_5 
REMARK       I    between atoms: C2_5  and  N4_9 
REMARK       I    between atoms: C3_11  and  N5_12 
REMARK       I    between atoms: C3_11  and  N8_19 
REMARK    1  A    between atoms: N6_14  and  N7_16 
REMARK    2  A    between atoms: N8_19  and  C4_21 
REMARK    3  A    between atoms: C4_21  and  C5_22 
REMARK    4  A    between atoms: C5_22  and  C6_23 
ROOT
HETATM    1  N1  UNL     1      -4.184   3.955   0.730  1.00  0.00    -0.171 NA
HETATM    2  C1  UNL     1      -3.930   2.821   0.633  1.00  0.00     0.196 C 
HETATM    3  N2  UNL     1      -3.661   1.470   0.537  1.00  0.00    -0.126 N 
ATOM      4  H2  UNL     1      -4.350   0.802   0.883  1.00  0.00     0.197 HD
HETATM    5  C2  UNL     1      -2.425   0.973  -0.043  1.00  0.00     0.699 C 
HETATM    6  N3  UNL     1      -1.853   1.756  -0.886  1.00  0.00    -0.233 N 
ATOM      7  H31 UNL     1      -0.985   1.407  -1.293  1.00  0.00     0.174 HD
ATOM      8  H32 UNL     1      -2.199   2.674  -1.166  1.00  0.00     0.174 HD
HETATM    9  N4  UNL     1      -1.961  -0.257   0.333  1.00  0.00    -0.021 N 
ATOM     10  H4  UNL     1      -2.684  -0.769   0.839  1.00  0.00     0.203 HD
HETATM   11  C3  UNL     1      -0.940  -0.933   0.247  1.00  0.00     0.708 C 
HETATM   12  N5  UNL     1      -0.911  -2.258   0.831  1.00  0.00    -0.118 N 
ATOM     13  H5  UNL     1      -0.804  -2.347   1.842  1.00  0.00     0.207 HD
HETATM   14  N6  UNL     1      -1.013  -3.310   0.135  1.00  0.00    -0.235 N 
ATOM     15  H6  UNL     1      -1.119  -3.233  -0.876  1.00  0.00     0.208 HD
HETATM   16  N8  UNL     1       0.263  -0.553  -0.372  1.00  0.00    -0.224 N 
ATOM     17  H8  UNL     1       0.404  -0.808  -1.349  1.00  0.00     0.177 HD
ENDROOT
BRANCH  16  18
HETATM   18  C4  UNL     1       1.316   0.183   0.304  1.00  0.00     0.148 C 
BRANCH  18  19
HETATM   19  C5  UNL     1       2.520   0.212  -0.663  1.00  0.00     0.133 C 
BRANCH  19  20
HETATM   20  C6  UNL     1       3.677   0.927  -0.084  1.00  0.00     0.174 C 
HETATM   21  O1  UNL     1       4.707   0.233   0.198  1.00  0.00    -0.648 OA
HETATM   22  O2  UNL     1       3.596   2.289   0.127  1.00  0.00    -0.648 OA
ENDBRANCH  19  20
ENDBRANCH  18  19
ENDBRANCH  16  18
BRANCH  14  23
HETATM   23  N7  UNL     1      -0.983  -4.560   0.719  1.00  0.00    -0.330 N 
ATOM     24  H72 UNL     1      -0.876  -4.620   1.732  1.00  0.00     0.178 HD
ATOM     25  H71 UNL     1      -1.065  -5.408   0.158  1.00  0.00     0.178 HD
ENDBRANCH  14  23
TORSDOF 4
