REMARK  3 active torsions:
REMARK  status: ('A' for Active; 'I' for Inactive)
REMARK    1  A    between atoms: C2_2  and  C3_3 
REMARK    2  A    between atoms: C3_3  and  N1_4 
REMARK       I    between atoms: N1_4  and  C4_6 
REMARK    3  A    between atoms: C4_6  and  C5_8 
ROOT
HETATM    1  C5  UNL     1       2.368  -1.257   1.279  1.00  0.00     0.086 C 
HETATM    2  C6  UNL     1       2.176  -2.417   0.285  1.00  0.00     0.015 C 
HETATM    3  C7  UNL     1       0.877  -2.991   0.804  1.00  0.00     0.007 C 
HETATM    4  C8  UNL     1       0.145  -1.870   1.448  1.00  0.00    -0.001 C 
HETATM    5  C9  UNL     1      -1.178  -1.668   0.797  1.00  0.00    -0.001 C 
HETATM    6  C10 UNL     1      -1.253  -2.061  -0.632  1.00  0.00     0.033 C 
HETATM    7  C11 UNL     1      -2.242  -1.272  -1.440  1.00  0.00    -0.018 C 
HETATM    8  C12 UNL     1      -3.096  -0.452  -0.891  1.00  0.00    -0.047 C 
HETATM    9  C13 UNL     1      -3.961   0.209  -1.877  1.00  0.00     0.004 C 
HETATM   10  C14 UNL     1      -5.074   1.066  -1.480  1.00  0.00    -0.025 C 
HETATM   11  C15 UNL     1      -4.887   2.348  -0.737  1.00  0.00     0.038 C 
HETATM   12  C16 UNL     1      -4.550   2.146   0.778  1.00  0.00     0.084 C 
HETATM   13  C17 UNL     1      -3.785   0.963   0.898  1.00  0.00    -0.173 C 
HETATM   14  C18 UNL     1      -3.104  -0.254   0.613  1.00  0.00     0.089 C 
HETATM   15  C19 UNL     1      -1.642  -0.290   1.105  1.00  0.00     0.009 C 
HETATM   16  C20 UNL     1      -0.811   0.789   0.556  1.00  0.00     0.007 C 
HETATM   17  C21 UNL     1       0.637   0.335   0.363  1.00  0.00     0.011 C 
HETATM   18  C22 UNL     1       1.058  -0.648   1.389  1.00  0.00    -0.028 C 
HETATM   19  C23 UNL     1       0.964   0.065   2.748  1.00  0.00     0.016 C 
ENDROOT
BRANCH   1  20
HETATM   20  C4  UNL     1       3.542  -0.531   0.890  1.00  0.00     0.222 C 
HETATM   21  N1  UNL     1       3.848   0.078  -0.329  1.00  0.00    -0.361 N 
ATOM     22  H1  UNL     1       3.166   0.023  -1.085  1.00  0.00     0.162 HD
HETATM   23  O1  UNL     1       4.455  -0.418   1.789  1.00  0.00    -0.273 OA
BRANCH  21  24
HETATM   24  C3  UNL     1       5.084   0.781  -0.568  1.00  0.00     0.122 C 
BRANCH  24  25
HETATM   25  C2  UNL     1       5.153   1.339  -1.962  1.00  0.00     0.015 C 
HETATM   26  C1  UNL     1       6.503   2.053  -2.083  1.00  0.00     0.006 C 
ENDBRANCH  24  25
ENDBRANCH  21  24
ENDBRANCH   1  20
TORSDOF 3
