REMARK  4 active torsions:
REMARK  status: ('A' for Active; 'I' for Inactive)
REMARK    1  A    between atoms: C2_2  and  C4_4 
REMARK    2  A    between atoms: C4_4  and  C5_5 
REMARK    3  A    between atoms: C5_5  and  C6_6 
REMARK    4  A    between atoms: C20_20  and  O1_21 
ROOT
HETATM    1  C6  UNL     1       3.031   1.063  -0.058  1.00  0.00    -0.024 C 
HETATM    2  C7  UNL     1       2.184   0.301   0.573  1.00  0.00    -0.079 C 
HETATM    3  C8  UNL     1       2.271  -1.011   1.186  1.00  0.00     0.034 C 
HETATM    4  C9  UNL     1       0.951  -1.660   0.661  1.00  0.00     0.010 C 
HETATM    5  C10 UNL     1       0.016  -0.529   1.083  1.00  0.00    -0.002 C 
HETATM    6  C11 UNL     1       0.722   0.727   0.842  1.00  0.00     0.019 C 
HETATM    7  C12 UNL     1       0.288   1.550  -0.319  1.00  0.00     0.010 C 
HETATM    8  C13 UNL     1      -1.132   1.418  -0.720  1.00  0.00     0.006 C 
HETATM    9  C14 UNL     1      -1.958   0.753   0.342  1.00  0.00    -0.002 C 
HETATM   10  C15 UNL     1      -1.357  -0.649   0.502  1.00  0.00    -0.005 C 
HETATM   11  C16 UNL     1      -1.401  -1.406  -0.800  1.00  0.00     0.006 C 
HETATM   12  C17 UNL     1      -2.729  -1.335  -1.465  1.00  0.00     0.006 C 
HETATM   13  C18 UNL     1      -3.747  -0.734  -0.558  1.00  0.00    -0.004 C 
HETATM   14  C19 UNL     1      -5.126  -0.655  -1.170  1.00  0.00     0.037 C 
HETATM   15  C20 UNL     1      -6.113  -0.355  -0.092  1.00  0.00     0.118 C 
HETATM   16  C21 UNL     1      -5.742   0.727   0.844  1.00  0.00     0.032 C 
HETATM   17  C22 UNL     1      -4.299   0.834   1.189  1.00  0.00     0.012 C 
HETATM   18  C23 UNL     1      -3.407   0.623  -0.040  1.00  0.00    -0.036 C 
HETATM   19  C24 UNL     1      -3.778   1.737  -1.008  1.00  0.00     0.016 C 
ENDROOT
BRANCH   1  20
HETATM   20  C5  UNL     1       4.421   0.905  -0.405  1.00  0.00     0.028 C 
BRANCH  20  21
HETATM   21  C4  UNL     1       5.054  -0.359  -0.012  1.00  0.00     0.007 C 
BRANCH  21  22
HETATM   22  C2  UNL     1       6.546  -0.315  -0.458  1.00  0.00    -0.023 C 
HETATM   23  C1  UNL     1       7.185   0.845   0.234  1.00  0.00     0.009 C 
HETATM   24  C3  UNL     1       7.159  -1.599   0.055  1.00  0.00     0.009 C 
ENDBRANCH  21  22
ENDBRANCH  20  21
ENDBRANCH   1  20
BRANCH  15  25
HETATM   25  O1  UNL     1      -6.428  -1.562   0.549  1.00  0.00    -0.396 OA
ATOM     26  H1  UNL     1      -7.056  -1.371   1.235  1.00  0.00     0.210 HD
ENDBRANCH  15  25
TORSDOF 4
