REMARK  5 active torsions:
REMARK  status: ('A' for Active; 'I' for Inactive)
REMARK    1  A    between atoms: C2_2  and  C3_3 
REMARK    2  A    between atoms: C6_7  and  S2_8 
REMARK    3  A    between atoms: S2_8  and  N1_9 
REMARK    4  A    between atoms: S2_8  and  N2_13 
REMARK    5  A    between atoms: C8_16  and  O2_17 
ROOT
HETATM    1  C3  UNL     1      -1.330  -0.075  -0.319  1.00  0.00    -0.011 A 
HETATM    2  C4  UNL     1      -1.654  -0.973   0.652  1.00  0.00    -0.011 A 
HETATM    3  C5  UNL     1      -2.954  -1.397   1.243  1.00  0.00     0.057 C 
HETATM    4  S1  UNL     1      -0.124  -1.611   1.129  1.00  0.00    -0.080 SA
HETATM    5  C6  UNL     1       0.861  -0.706   0.069  1.00  0.00     0.132 A 
HETATM    6  C8  UNL     1      -0.037   0.064  -0.620  1.00  0.00     0.101 A 
ENDROOT
BRANCH   5   7
HETATM    7  S2  UNL     1       2.609  -0.808  -0.044  1.00  0.00     0.142 S 
HETATM    8  O1  UNL     1       3.130  -1.292   1.303  1.00  0.00    -0.223 OA
BRANCH   7   9
HETATM    9  N1  UNL     1       2.981  -2.003  -1.234  1.00  0.00    -0.341 N 
ATOM     10  H12 UNL     1       2.298  -2.543  -1.766  1.00  0.00     0.167 HD
ATOM     11  H11 UNL     1       3.997  -2.062  -1.300  1.00  0.00     0.167 HD
ENDBRANCH   7   9
BRANCH   7  12
HETATM   12  N2  UNL     1       3.265   0.553  -0.344  1.00  0.00    -0.336 N 
HETATM   13  C7  UNL     1       3.871   1.288   0.758  1.00  0.00     0.158 C 
ATOM     14  H2  UNL     1       3.275   0.930  -1.292  1.00  0.00     0.170 HD
ENDBRANCH   7  12
ENDBRANCH   5   7
BRANCH   6  15
HETATM   15  O2  UNL     1       0.488   0.942  -1.594  1.00  0.00    -0.358 OA
ATOM     16  H2  UNL     1       1.408   1.041  -1.808  1.00  0.00     0.217 HD
ENDBRANCH   6  15
BRANCH   1  17
HETATM   17  C2  UNL     1      -2.428   0.711  -1.006  1.00  0.00     0.038 C 
HETATM   18  C1  UNL     1      -2.855   1.809  -0.088  1.00  0.00     0.010 C 
ENDBRANCH   1  17
TORSDOF 5
