REMARK  4 active torsions:
REMARK  status: ('A' for Active; 'I' for Inactive)
REMARK    1  A    between atoms: N3_6  and  N4_8 
REMARK    2  A    between atoms: N4_8  and  C4_10 
REMARK    3  A    between atoms: C4_10  and  N5_12 
REMARK    4  A    between atoms: N5_12  and  C5_14 
ROOT
HETATM    1  N1  UNL     1       5.210   0.427   0.063  1.00  0.00    -0.189 NA
HETATM    2  C1  UNL     1       4.472  -0.356  -0.367  1.00  0.00     0.130 C 
HETATM    3  C2  UNL     1       3.575  -1.335  -0.882  1.00  0.00     0.209 C 
HETATM    4  C3  UNL     1       3.885  -2.718  -0.754  1.00  0.00     0.130 C 
HETATM    5  N2  UNL     1       4.155  -3.834  -0.654  1.00  0.00    -0.189 NA
HETATM    6  N3  UNL     1       2.514  -0.976  -1.447  1.00  0.00    -0.280 N 
ATOM      7  H3  UNL     1       1.924  -1.734  -1.790  1.00  0.00     0.188 HD
ENDROOT
BRANCH   6   8
HETATM    8  N4  UNL     1       2.036   0.285  -1.669  1.00  0.00    -0.275 N 
ATOM      9  H4  UNL     1       2.589   0.913  -2.252  1.00  0.00     0.189 HD
BRANCH   8  10
HETATM   10  C4  UNL     1       0.794   0.778  -1.125  1.00  0.00     0.191 C 
HETATM   11  S1  UNL     1       0.354   2.281  -1.514  1.00  0.00    -0.039 SA
BRANCH  10  12
HETATM   12  N5  UNL     1      -0.003  -0.053  -0.312  1.00  0.00    -0.332 N 
ATOM     13  H5  UNL     1       0.347  -0.998  -0.156  1.00  0.00     0.168 HD
BRANCH  12  14
HETATM   14  C5  UNL     1      -1.227   0.268   0.312  1.00  0.00     0.034 A 
HETATM   15  C6  UNL     1      -1.646   1.503   0.711  1.00  0.00     0.029 A 
HETATM   16  C7  UNL     1      -2.897   1.732   1.292  1.00  0.00     0.002 A 
HETATM   17  C8  UNL     1      -3.770   0.693   1.487  1.00  0.00     0.000 A 
HETATM   18  C9  UNL     1      -3.381  -0.569   1.098  1.00  0.00     0.002 A 
HETATM   19  C10 UNL     1      -2.158  -0.780   0.531  1.00  0.00     0.029 A 
ENDBRANCH  12  14
ENDBRANCH  10  12
ENDBRANCH   8  10
ENDBRANCH   6   8
TORSDOF 4
