REMARK  9 active torsions:
REMARK  status: ('A' for Active; 'I' for Inactive)
REMARK    1  A    between atoms: C2_2  and  C3_3 
REMARK    2  A    between atoms: C6_6  and  C7_7 
REMARK    3  A    between atoms: N1_9  and  O1_11 
REMARK    4  A    between atoms: C15_19  and  O2_20 
REMARK    5  A    between atoms: O2_20  and  C16_21 
REMARK    6  A    between atoms: C16_21  and  C17_23 
REMARK    7  A    between atoms: C19_25  and  O4_26 
REMARK    8  A    between atoms: C21_28  and  O5_29 
REMARK    9  A    between atoms: C24_35  and  O6_36 
ROOT
HETATM    1  C3  UNL     1      -2.789   1.794   0.645  1.00  0.00    -0.017 C 
HETATM    2  C4  UNL     1      -4.141   2.042  -0.058  1.00  0.00     0.020 C 
HETATM    3  C5  UNL     1      -2.067   0.861  -0.280  1.00  0.00     0.021 C 
HETATM    4  C6  UNL     1      -0.900   0.128   0.263  1.00  0.00     0.027 C 
HETATM    5  C15 UNL     1       0.348   1.002   0.280  1.00  0.00     0.139 C 
HETATM    6  C23 UNL     1       0.140   2.204   1.192  1.00  0.00     0.065 C 
HETATM    7  C24 UNL     1      -0.713   3.250   0.552  1.00  0.00     0.129 C 
HETATM    8  C25 UNL     1      -2.164   3.102   0.881  1.00  0.00    -0.011 C 
HETATM    9  C26 UNL     1      -2.865   4.221   0.091  1.00  0.00     0.018 C 
HETATM   10  C27 UNL     1      -2.342   3.531   2.344  1.00  0.00     0.018 C 
ENDROOT
BRANCH   5  11
HETATM   11  O2  UNL     1       1.503   0.300   0.607  1.00  0.00    -0.310 OA
BRANCH  11  12
HETATM   12  C16 UNL     1       2.617   0.227  -0.169  1.00  0.00     0.310 C 
HETATM   13  O3  UNL     1       2.624   0.837  -1.266  1.00  0.00    -0.258 OA
BRANCH  12  14
HETATM   14  C17 UNL     1       3.821  -0.521   0.193  1.00  0.00     0.111 A 
HETATM   15  C18 UNL     1       4.920  -0.561  -0.631  1.00  0.00     0.075 A 
HETATM   16  C19 UNL     1       6.082  -1.247  -0.348  1.00  0.00     0.105 A 
HETATM   17  C21 UNL     1       6.128  -1.933   0.843  1.00  0.00     0.114 A 
HETATM   18  C22 UNL     1       5.025  -1.888   1.660  1.00  0.00     0.128 A 
HETATM   19  N2  UNL     1       3.903  -1.210   1.359  1.00  0.00    -0.358 N 
ATOM     20  H2  UNL     1       3.115  -1.214   2.006  1.00  0.00     0.165 HD
BRANCH  16  21
HETATM   21  O4  UNL     1       7.152  -1.233  -1.243  1.00  0.00    -0.353 OA
HETATM   22  C20 UNL     1       7.133  -0.546  -2.457  1.00  0.00     0.210 C 
ENDBRANCH  16  21
BRANCH  17  23
HETATM   23  O5  UNL     1       7.288  -2.636   1.157  1.00  0.00    -0.357 OA
ATOM     24  H5  UNL     1       7.320  -3.110   1.980  1.00  0.00     0.218 HD
ENDBRANCH  17  23
ENDBRANCH  12  14
ENDBRANCH  11  12
ENDBRANCH   5  11
BRANCH   4  25
HETATM   25  C7  UNL     1      -0.618  -1.213  -0.305  1.00  0.00     0.047 C 
HETATM   26  C8  UNL     1      -0.431  -1.304  -1.750  1.00  0.00     0.015 C 
HETATM   27  N1  UNL     1      -0.470  -0.263  -2.487  1.00  0.00    -0.277 N 
HETATM   28  C9  UNL     1      -0.194  -2.594  -2.459  1.00  0.00     0.055 C 
ATOM     29  H1  UNL     1      -0.637   0.630  -2.023  1.00  0.00     0.193 HD
HETATM   30  C10 UNL     1      -0.721  -3.769  -1.680  1.00  0.00     0.006 C 
HETATM   31  C11 UNL     1      -0.663  -3.616  -0.202  1.00  0.00     0.010 C 
HETATM   32  C12 UNL     1      -1.471  -2.352   0.168  1.00  0.00    -0.038 C 
HETATM   33  C13 UNL     1      -2.787  -2.516  -0.490  1.00  0.00     0.015 C 
HETATM   34  C14 UNL     1      -1.649  -2.406   1.656  1.00  0.00     0.015 C 
BRANCH  27  35
HETATM   35  O1  UNL     1      -0.309  -0.241  -3.834  1.00  0.00    -0.290 OA
ATOM     36  H1  UNL     1      -0.338   0.534  -4.383  1.00  0.00     0.244 HD
ENDBRANCH  27  35
ENDBRANCH   4  25
BRANCH   7  37
HETATM   37  O6  UNL     1      -0.455   3.432  -0.803  1.00  0.00    -0.395 OA
ATOM     38  H6  UNL     1      -0.997   4.097  -1.210  1.00  0.00     0.210 HD
ENDBRANCH   7  37
BRANCH   1  39
HETATM   39  C2  UNL     1      -3.157   1.183   1.952  1.00  0.00    -0.027 C 
HETATM   40  C1  UNL     1      -4.386   0.925   2.348  1.00  0.00     0.008 C 
ENDBRANCH   1  39
TORSDOF 9
