REMARK  6 active torsions:
REMARK  status: ('A' for Active; 'I' for Inactive)
REMARK    1  A    between atoms: C3_3  and  O1_4 
REMARK    2  A    between atoms: N1_19  and  O2_21 
REMARK    3  A    between atoms: C21_27  and  C22_28 
REMARK    4  A    between atoms: C22_28  and  C24_30 
REMARK    5  A    between atoms: C24_30  and  C25_31 
REMARK    6  A    between atoms: C25_31  and  C26_32 
ROOT
HETATM    1  C1  UNL     1       2.665  -2.319   2.083  1.00  0.00     0.022 C 
HETATM    2  C2  UNL     1       1.938  -1.956   1.046  1.00  0.00    -0.035 C 
HETATM    3  C3  UNL     1       0.896  -2.924   0.603  1.00  0.00     0.151 C 
HETATM    4  C4  UNL     1      -0.383  -2.156   0.860  1.00  0.00     0.043 C 
HETATM    5  C5  UNL     1      -0.450  -0.979  -0.095  1.00  0.00     0.009 C 
HETATM    6  C6  UNL     1       0.745  -0.114  -0.158  1.00  0.00    -0.015 C 
HETATM    7  C7  UNL     1       0.870   0.523  -1.529  1.00  0.00     0.020 C 
HETATM    8  C8  UNL     1       0.445   1.133   0.711  1.00  0.00     0.014 C 
HETATM    9  C9  UNL     1      -0.650   1.894   0.062  1.00  0.00     0.007 C 
HETATM   10  C10 UNL     1      -1.933   1.100  -0.112  1.00  0.00     0.005 C 
HETATM   11  C11 UNL     1      -2.978   1.947   0.501  1.00  0.00    -0.026 C 
HETATM   12  C12 UNL     1      -2.721   3.332  -0.169  1.00  0.00     0.019 C 
HETATM   13  C13 UNL     1      -2.828   2.243   1.980  1.00  0.00     0.019 C 
HETATM   14  C14 UNL     1      -4.387   1.709   0.225  1.00  0.00    -0.015 C 
HETATM   15  C15 UNL     1      -5.284   0.849  -0.219  1.00  0.00     0.024 C 
HETATM   16  C16 UNL     1      -5.069  -0.508  -0.704  1.00  0.00     0.031 C 
HETATM   17  N1  UNL     1      -5.956  -0.856  -1.565  1.00  0.00    -0.274 N 
ATOM     18  H1  UNL     1      -6.693  -0.201  -1.825  1.00  0.00     0.193 HD
HETATM   19  C17 UNL     1      -4.022  -1.548  -0.383  1.00  0.00     0.060 C 
HETATM   20  C18 UNL     1      -2.742  -1.059  -0.870  1.00  0.00     0.016 C 
HETATM   21  C19 UNL     1      -1.813  -0.335   0.121  1.00  0.00    -0.034 C 
HETATM   22  C20 UNL     1      -2.304  -0.722   1.515  1.00  0.00     0.016 C 
HETATM   23  C21 UNL     1       2.039  -0.686   0.323  1.00  0.00    -0.059 C 
ENDROOT
BRANCH  23  24
HETATM   24  C22 UNL     1       3.206  -0.696  -0.570  1.00  0.00     0.012 C 
HETATM   25  C23 UNL     1       3.361  -1.753  -1.611  1.00  0.00     0.015 C 
BRANCH  24  26
HETATM   26  C24 UNL     1       4.558  -0.684   0.111  1.00  0.00     0.016 C 
BRANCH  26  27
HETATM   27  C25 UNL     1       4.883   0.490   0.945  1.00  0.00     0.078 C 
BRANCH  27  28
HETATM   28  C26 UNL     1       4.961   1.774   0.235  1.00  0.00     0.123 C 
HETATM   29  C27 UNL     1       6.290   2.394  -0.083  1.00  0.00     0.091 C 
HETATM   30  O3  UNL     1       3.985   2.381  -0.119  1.00  0.00    -0.298 OA
ENDBRANCH  27  28
ENDBRANCH  26  27
ENDBRANCH  24  26
ENDBRANCH  23  24
BRANCH   3  31
HETATM   31  O1  UNL     1       0.980  -3.395  -0.666  1.00  0.00    -0.391 OA
ATOM     32  H1  UNL     1       0.315  -4.012  -0.949  1.00  0.00     0.210 HD
ENDBRANCH   3  31
BRANCH  17  33
HETATM   33  O2  UNL     1      -5.921  -2.081  -2.128  1.00  0.00    -0.290 OA
ATOM     34  H2  UNL     1      -6.577  -2.338  -2.765  1.00  0.00     0.244 HD
ENDBRANCH  17  33
TORSDOF 6
