REMARK  6 active torsions:
REMARK  status: ('A' for Active; 'I' for Inactive)
REMARK    1  A    between atoms: C2_2  and  C3_3 
REMARK    2  A    between atoms: C3_3  and  C26_32 
REMARK    3  A    between atoms: C4_4  and  C5_5 
REMARK    4  A    between atoms: C8_8  and  O1_9 
REMARK    5  A    between atoms: N1_11  and  C9_12 
REMARK    6  A    between atoms: C15_18  and  O2_19 
ROOT
HETATM    1  C5  UNL     1      -1.126   0.457   0.126  1.00  0.00     0.052 C 
HETATM    2  C6  UNL     1       0.240  -0.112  -0.173  1.00  0.00     0.012 A 
HETATM    3  C7  UNL     1       0.503  -1.198   0.595  1.00  0.00     0.016 A 
HETATM    4  C8  UNL     1       1.764  -1.634   0.245  1.00  0.00     0.152 A 
HETATM    5  N1  UNL     1       2.291  -0.856  -0.712  1.00  0.00    -0.303 N 
HETATM    6  C15 UNL     1       1.373   0.069  -0.970  1.00  0.00     0.152 A 
HETATM    7  C16 UNL     1      -0.660  -1.477   1.491  1.00  0.00     0.099 C 
HETATM    8  C17 UNL     1      -1.082  -2.908   1.384  1.00  0.00     0.140 C 
HETATM    9  O3  UNL     1      -0.432  -3.907   1.589  1.00  0.00    -0.297 OA
HETATM   10  C18 UNL     1      -2.499  -2.881   0.964  1.00  0.00     0.064 C 
HETATM   11  C19 UNL     1      -2.960  -4.106   0.269  1.00  0.00     0.040 C 
HETATM   12  C20 UNL     1      -4.186  -3.755  -0.531  1.00  0.00    -0.024 C 
HETATM   13  C21 UNL     1      -4.557  -2.541  -0.830  1.00  0.00    -0.087 C 
HETATM   14  C22 UNL     1      -5.820  -2.382  -1.644  1.00  0.00     0.043 C 
HETATM   15  C23 UNL     1      -3.823  -1.293  -0.426  1.00  0.00     0.039 C 
HETATM   16  C24 UNL     1      -2.459  -1.683   0.003  1.00  0.00     0.007 C 
HETATM   17  C25 UNL     1      -1.775  -0.676   0.890  1.00  0.00     0.019 C 
ENDROOT
BRANCH   1  18
HETATM   18  C4  UNL     1      -0.923   1.583   1.049  1.00  0.00    -0.014 C 
HETATM   19  C3  UNL     1      -0.966   2.863   0.738  1.00  0.00    -0.084 C 
BRANCH  19  20
HETATM   20  C2  UNL     1      -1.238   3.285  -0.641  1.00  0.00     0.029 C 
HETATM   21  C1  UNL     1      -2.488   4.132  -0.760  1.00  0.00     0.010 C 
ENDBRANCH  19  20
BRANCH  19  22
HETATM   22  C26 UNL     1      -0.732   3.865   1.827  1.00  0.00     0.029 C 
HETATM   23  C27 UNL     1       0.478   4.678   1.419  1.00  0.00     0.010 C 
ENDBRANCH  19  22
ENDBRANCH   1  18
BRANCH   6  24
HETATM   24  O2  UNL     1       1.414   1.131  -1.891  1.00  0.00    -0.345 OA
ATOM     25  H2  UNL     1       2.184   1.254  -2.433  1.00  0.00     0.219 HD
ENDBRANCH   6  24
BRANCH   4  26
HETATM   26  O1  UNL     1       2.346  -2.752   0.859  1.00  0.00    -0.345 OA
ATOM     27  H1  UNL     1       3.214  -3.052   0.618  1.00  0.00     0.219 HD
ENDBRANCH   4  26
BRANCH   5  28
HETATM   28  C9  UNL     1       3.560  -0.981  -1.329  1.00  0.00     0.094 C 
HETATM   29  C10 UNL     1       4.178   0.352  -1.758  1.00  0.00     0.026 C 
HETATM   30  C11 UNL     1       4.397   1.248  -0.560  1.00  0.00     0.002 C 
HETATM   31  C12 UNL     1       5.524   0.581   0.244  1.00  0.00     0.000 C 
HETATM   32  C13 UNL     1       4.905  -0.723   0.768  1.00  0.00     0.002 C 
HETATM   33  C14 UNL     1       4.632  -1.588  -0.448  1.00  0.00     0.026 C 
ENDBRANCH   5  28
TORSDOF 6
