REMARK  14 active torsions:
REMARK  status: ('A' for Active; 'I' for Inactive)
REMARK    1  A    between atoms: C3_6  and  O1_7 
REMARK    2  A    between atoms: O1_7  and  C4_8 
REMARK    3  A    between atoms: C4_8  and  C5_9 
REMARK    4  A    between atoms: C4_8  and  C6_12 
REMARK    5  A    between atoms: C5_9  and  O2_10 
REMARK    6  A    between atoms: C6_12  and  N2_13 
REMARK    7  A    between atoms: C6_12  and  O3_17 
REMARK    8  A    between atoms: C7_20  and  C8_21 
REMARK    9  A    between atoms: C9_26  and  C10_27 
REMARK   10  A    between atoms: C11_28  and  N5_29 
REMARK   11  A    between atoms: C14_37  and  C15_38 
REMARK   12  A    between atoms: C15_38  and  N9_39 
REMARK   13  A    between atoms: C15_38  and  C16_43 
REMARK   14  A    between atoms: C18_51  and  N12_52 
ROOT
HETATM    1  C8  UNL     1       0.895  -0.912   1.258  1.00  0.00     0.154 A 
HETATM    2  N3  UNL     1       0.319   0.222   1.615  1.00  0.00    -0.283 N 
ATOM      3  H3  UNL     1       0.741   0.972   2.162  1.00  0.00     0.188 HD
HETATM    4  N4  UNL     1      -0.934   0.198   1.117  1.00  0.00    -0.283 N 
ATOM      5  H4  UNL     1      -1.611   0.951   1.241  1.00  0.00     0.188 HD
HETATM    6  C9  UNL     1      -1.180  -0.912   0.452  1.00  0.00     0.139 A 
HETATM    7  N13 UNL     1      -0.005  -1.610   0.551  1.00  0.00    -0.325 N 
ATOM      8  H13 UNL     1       0.161  -2.530   0.144  1.00  0.00     0.169 HD
ENDROOT
BRANCH   6   9
HETATM    9  C10 UNL     1      -2.332  -1.440  -0.295  1.00  0.00     0.097 A 
HETATM   10  C11 UNL     1      -3.443  -0.771  -0.619  1.00  0.00     0.125 A 
HETATM   11  N10 UNL     1      -4.470  -1.384  -1.250  1.00  0.00    -0.338 N 
HETATM   12  C17 UNL     1      -4.403  -2.683  -1.573  1.00  0.00     0.183 A 
ATOM     13  H10 UNL     1      -5.307  -0.850  -1.483  1.00  0.00     0.168 HD
HETATM   14  N11 UNL     1      -3.313  -3.413  -1.278  1.00  0.00    -0.338 N 
HETATM   15  C18 UNL     1      -2.306  -2.802  -0.655  1.00  0.00     0.117 A 
ATOM     16  H11 UNL     1      -3.259  -4.402  -1.523  1.00  0.00     0.168 HD
BRANCH  10  17
HETATM   17  N5  UNL     1      -3.642   0.653  -0.439  1.00  0.00    -0.326 N 
HETATM   18  C12 UNL     1      -2.922   1.407  -1.470  1.00  0.00     0.252 C 
HETATM   19  N6  UNL     1      -3.411   2.760  -1.496  1.00  0.00    -0.348 N 
HETATM   20  C13 UNL     1      -3.610   3.399  -0.199  1.00  0.00     0.186 C 
ATOM     21  H6  UNL     1      -3.607   3.245  -2.371  1.00  0.00     0.163 HD
HETATM   22  N7  UNL     1      -3.252   4.759  -0.101  1.00  0.00    -0.064 NA
HETATM   23  N8  UNL     1      -4.101   2.670   0.738  1.00  0.00    -0.341 N 
HETATM   24  C14 UNL     1      -4.451   1.261   0.520  1.00  0.00     0.230 C 
ATOM     25  H8  UNL     1      -4.252   3.082   1.659  1.00  0.00     0.164 HD
BRANCH  24  26
HETATM   26  C15 UNL     1      -4.625   0.614   1.878  1.00  0.00     0.325 C 
BRANCH  26  27
HETATM   27  N9  UNL     1      -5.528   1.613   2.575  1.00  0.00    -0.061 N 
ATOM     28  H93 UNL     1      -5.184   2.573   2.591  1.00  0.00     0.275 HD
ATOM     29  H92 UNL     1      -6.394   1.833   2.084  1.00  0.00     0.275 HD
ATOM     30  H91 UNL     1      -5.645   1.177   3.490  1.00  0.00     0.275 HD
ENDBRANCH  26  27
BRANCH  26  31
HETATM   31  C16 UNL     1      -5.400  -0.615   1.924  1.00  0.00     0.208 C 
HETATM   32  O5  UNL     1      -6.668  -0.534   1.813  1.00  0.00    -0.646 OA
HETATM   33  O6  UNL     1      -4.929  -1.908   2.085  1.00  0.00    -0.646 OA
ENDBRANCH  26  31
ENDBRANCH  24  26
ENDBRANCH  10  17
BRANCH  15  34
HETATM   34  N12 UNL     1      -1.233  -3.472  -0.351  1.00  0.00    -0.385 N 
ATOM     35 2H12 UNL     1      -0.462  -3.004   0.126  1.00  0.00     0.157 HD
ATOM     36 1H12 UNL     1      -1.214  -4.458  -0.612  1.00  0.00     0.157 HD
ENDBRANCH  15  34
ENDBRANCH   6   9
BRANCH   1  37
HETATM   37  C7  UNL     1       2.275  -1.418   1.543  1.00  0.00     0.337 C 
HETATM   38  O4  UNL     1       3.251  -0.471   1.395  1.00  0.00    -0.301 OA
HETATM   39  C3  UNL     1       3.773  -0.378   0.111  1.00  0.00     0.475 C 
HETATM   40  N1  UNL     1       4.166  -1.631  -0.442  1.00  0.00     0.001 N 
HETATM   41  C2  UNL     1       3.805  -2.752   0.404  1.00  0.00     0.325 C 
ATOM     42  H12 UNL     1       5.163  -1.640  -0.657  1.00  0.00     0.286 HD
ATOM     43  H11 UNL     1       3.794  -1.748  -1.384  1.00  0.00     0.286 HD
HETATM   44  C1  UNL     1       3.840  -3.985  -0.482  1.00  0.00     0.071 C 
HETATM   45  O7  UNL     1       2.517  -2.585   0.826  1.00  0.00    -0.321 OA
BRANCH  39  46
HETATM   46  O1  UNL     1       4.875   0.470   0.129  1.00  0.00    -0.327 OA
BRANCH  46  47
HETATM   47  C4  UNL     1       4.759   1.607  -0.616  1.00  0.00     0.206 C 
BRANCH  47  48
HETATM   48  C5  UNL     1       4.952   2.872   0.211  1.00  0.00     0.200 C 
BRANCH  48  49
HETATM   49  O2  UNL     1       6.235   2.878   0.797  1.00  0.00    -0.398 OA
ATOM     50  H2  UNL     1       6.355   3.667   1.313  1.00  0.00     0.209 HD
ENDBRANCH  48  49
ENDBRANCH  47  48
BRANCH  47  51
HETATM   51  C6  UNL     1       5.821   1.647  -1.691  1.00  0.00     0.347 C 
BRANCH  51  52
HETATM   52  N2  UNL     1       5.651   0.504  -2.565  1.00  0.00    -0.051 N 
ATOM     53  H23 UNL     1       5.649  -0.379  -2.054  1.00  0.00     0.277 HD
ATOM     54  H22 UNL     1       4.709   0.448  -2.952  1.00  0.00     0.277 HD
ATOM     55  H21 UNL     1       6.368   0.531  -3.290  1.00  0.00     0.277 HD
ENDBRANCH  51  52
BRANCH  51  56
HETATM   56  O3  UNL     1       7.053   1.523  -1.048  1.00  0.00    -0.368 OA
ATOM     57  H3  UNL     1       7.720   1.548  -1.724  1.00  0.00     0.212 HD
ENDBRANCH  51  56
ENDBRANCH  47  51
ENDBRANCH  46  47
ENDBRANCH  39  46
ENDBRANCH   1  37
TORSDOF 14
