REMARK  18 active torsions:
REMARK  status: ('A' for Active; 'I' for Inactive)
REMARK    1  A    between atoms: N1_1  and  N2_4 
REMARK    2  A    between atoms: N2_4  and  N3_6 
REMARK    3  A    between atoms: N3_6  and  C1_8 
REMARK    4  A    between atoms: C2_10  and  O2_11 
REMARK    5  A    between atoms: O2_11  and  C3_12 
REMARK    6  A    between atoms: C4_14  and  C5_15 
REMARK    7  A    between atoms: C5_15  and  O4_16 
REMARK    8  A    between atoms: C6_18  and  O5_19 
REMARK    9  A    between atoms: C7_21  and  O6_22 
REMARK   10  A    between atoms: O6_22  and  C8_23 
REMARK   11  A    between atoms: C12_27  and  O7_28 
REMARK   12  A    between atoms: C13_30  and  O8_31 
REMARK   13  A    between atoms: C13_30  and  C14_33 
REMARK   14  A    between atoms: C14_33  and  O9_34 
REMARK   15  A    between atoms: C16_38  and  O11_39 
REMARK   16  A    between atoms: C17_42  and  C18_43 
REMARK   17  A    between atoms: C18_43  and  O13_44 
REMARK   18  A    between atoms: C19_46  and  O14_47 
ROOT
HETATM    1  C3  UNL     1      -1.727  -0.806   0.947  1.00  0.00     0.297 C 
HETATM    2  O3  UNL     1      -1.803  -1.241   2.242  1.00  0.00    -0.348 OA
HETATM    3  C4  UNL     1      -0.838  -0.767   3.073  1.00  0.00     0.179 C 
HETATM    4  C6  UNL     1       0.503  -1.232   2.543  1.00  0.00     0.181 C 
HETATM    5  C7  UNL     1       0.698  -0.628   1.192  1.00  0.00     0.189 C 
HETATM    6  C16 UNL     1      -0.410  -1.186   0.286  1.00  0.00     0.205 C 
ENDROOT
BRANCH   1   7
HETATM    7  O2  UNL     1      -2.835  -1.120   0.198  1.00  0.00    -0.305 OA
BRANCH   7   8
HETATM    8  C2  UNL     1      -3.556  -0.041  -0.264  1.00  0.00     0.417 C 
HETATM    9  O1  UNL     1      -4.810  -0.061   0.391  1.00  0.00    -0.310 OA
HETATM   10  C1  UNL     1      -5.815  -0.417  -0.531  1.00  0.00     0.274 C 
HETATM   11  C19 UNL     1      -5.987   0.694  -1.561  1.00  0.00     0.199 C 
HETATM   12  C17 UNL     1      -4.588   0.961  -2.108  1.00  0.00     0.183 C 
HETATM   13  O12 UNL     1      -3.765   0.009  -1.593  1.00  0.00    -0.329 OA
BRANCH  10  14
HETATM   14  N3  UNL     1      -7.053  -0.687   0.145  1.00  0.00    -0.291 N 
ATOM     15  H3  UNL     1      -7.878  -0.129  -0.076  1.00  0.00     0.184 HD
BRANCH  14  16
HETATM   16  N2  UNL     1      -7.146  -1.698   1.097  1.00  0.00    -0.251 N 
ATOM     17  H2  UNL     1      -7.650  -1.543   1.970  1.00  0.00     0.207 HD
BRANCH  16  18
HETATM   18  N1  UNL     1      -6.585  -2.834   0.857  1.00  0.00    -0.331 N 
ATOM     19  H12 UNL     1      -6.085  -2.973  -0.021  1.00  0.00     0.178 HD
ATOM     20  H11 UNL     1      -6.653  -3.575   1.555  1.00  0.00     0.178 HD
ENDBRANCH  16  18
ENDBRANCH  14  16
ENDBRANCH  10  14
BRANCH  11  21
HETATM   21  O14 UNL     1      -6.860   0.321  -2.566  1.00  0.00    -0.388 OA
ATOM     22  H14 UNL     1      -6.967   1.013  -3.208  1.00  0.00     0.210 HD
ENDBRANCH  11  21
BRANCH  12  23
HETATM   23  C18 UNL     1      -4.129   2.329  -1.630  1.00  0.00     0.199 C 
BRANCH  23  24
HETATM   24  O13 UNL     1      -4.941   3.338  -2.159  1.00  0.00    -0.398 OA
ATOM     25  H13 UNL     1      -4.654   4.193  -1.860  1.00  0.00     0.209 HD
ENDBRANCH  23  24
ENDBRANCH  12  23
ENDBRANCH   7   8
ENDBRANCH   1   7
BRANCH   6  26
HETATM   26  O11 UNL     1      -0.318  -2.543   0.122  1.00  0.00    -0.388 OA
ATOM     27  H11 UNL     1       0.504  -2.780  -0.291  1.00  0.00     0.210 HD
ENDBRANCH   6  26
BRANCH   3  28
HETATM   28  C5  UNL     1      -0.886   0.705   3.362  1.00  0.00     0.198 C 
BRANCH  28  29
HETATM   29  O4  UNL     1       0.171   1.005   4.223  1.00  0.00    -0.398 OA
ATOM     30  H4  UNL     1       0.141   1.937   4.406  1.00  0.00     0.209 HD
ENDBRANCH  28  29
ENDBRANCH   3  28
BRANCH   5  31
HETATM   31  O6  UNL     1       1.953  -0.904   0.735  1.00  0.00    -0.351 OA
BRANCH  31  32
HETATM   32  C8  UNL     1       2.681   0.230   0.381  1.00  0.00     0.261 C 
HETATM   33  C9  UNL     1       3.954   0.370   1.157  1.00  0.00     0.068 C 
HETATM   34  C10 UNL     1       4.872  -0.567   0.426  1.00  0.00     0.025 C 
HETATM   35  C11 UNL     1       6.274  -0.002   0.360  1.00  0.00     0.042 C 
HETATM   36  C15 UNL     1       4.309  -0.517  -0.963  1.00  0.00     0.168 C 
HETATM   37  C12 UNL     1       6.665  -0.139  -1.099  1.00  0.00     0.157 C 
HETATM   38  C13 UNL     1       5.348   0.115  -1.840  1.00  0.00     0.131 C 
HETATM   39  O10 UNL     1       3.117   0.165  -0.923  1.00  0.00    -0.352 OA
BRANCH  37  40
HETATM   40  O7  UNL     1       7.087  -1.447  -1.346  1.00  0.00    -0.392 OA
ATOM     41  H7  UNL     1       7.332  -1.533  -2.260  1.00  0.00     0.210 HD
ENDBRANCH  37  40
BRANCH  38  42
HETATM   42  O8  UNL     1       5.447  -0.447  -3.093  1.00  0.00    -0.382 OA
ATOM     43  H8  UNL     1       4.631  -0.290  -3.552  1.00  0.00     0.210 HD
ENDBRANCH  38  42
BRANCH  38  44
HETATM   44  C14 UNL     1       5.214   1.596  -1.988  1.00  0.00     0.207 C 
BRANCH  44  45
HETATM   45  O9  UNL     1       4.102   1.990  -2.714  1.00  0.00    -0.398 OA
ATOM     46  H9  UNL     1       4.017   2.931  -2.808  1.00  0.00     0.209 HD
ENDBRANCH  44  45
ENDBRANCH  38  44
ENDBRANCH  31  32
ENDBRANCH   5  31
BRANCH   4  47
HETATM   47  O5  UNL     1       0.402  -2.623   2.392  1.00  0.00    -0.390 OA
ATOM     48  H5  UNL     1       1.243  -2.915   2.060  1.00  0.00     0.210 HD
ENDBRANCH   4  47
TORSDOF 18
