REMARK  16 active torsions:
REMARK  status: ('A' for Active; 'I' for Inactive)
REMARK       I    between atoms: C2_2  and  N1_4 
REMARK    1  A    between atoms: N1_4  and  C3_6 
REMARK    2  A    between atoms: C4_7  and  C5_8 
REMARK    3  A    between atoms: C5_8  and  O2_9 
REMARK    4  A    between atoms: C5_8  and  O3_11 
REMARK    5  A    between atoms: C6_14  and  C7_15 
REMARK    6  A    between atoms: C7_15  and  O5_16 
REMARK    7  A    between atoms: C7_15  and  N2_18 
REMARK    8  A    between atoms: C11_24  and  C12_25 
REMARK    9  A    between atoms: C12_25  and  O6_26 
REMARK   10  A    between atoms: C12_25  and  C13_28 
REMARK   11  A    between atoms: C13_28  and  O7_29 
REMARK   12  A    between atoms: C13_28  and  O8_31 
REMARK   13  A    between atoms: C14_33  and  O9_34 
REMARK   14  A    between atoms: O9_34  and  C15_35 
REMARK   15  A    between atoms: C16_38  and  O12_39 
REMARK   16  A    between atoms: C18_43  and  N4_44 
REMARK       I    between atoms: N4_44  and  C19_46 
REMARK       I    between atoms: C19_46  and  N5_47 
REMARK       I    between atoms: C19_46  and  N6_51 
ROOT
HETATM    1  C3  UNL     1      -2.717   0.436  -0.449  1.00  0.00     0.100 C 
HETATM    2  C4  UNL     1      -1.413   0.772  -0.679  1.00  0.00     0.137 C 
HETATM    3  O4  UNL     1      -0.334   0.339  -0.064  1.00  0.00    -0.304 OA
HETATM    4  C6  UNL     1      -0.168  -0.652   0.771  1.00  0.00     0.139 C 
HETATM    5  C16 UNL     1      -1.143  -1.508   1.234  1.00  0.00     0.153 C 
HETATM    6  C17 UNL     1      -2.505  -1.591   0.905  1.00  0.00     0.236 C 
HETATM    7  O13 UNL     1      -3.075  -2.611   1.379  1.00  0.00    -0.283 OA
HETATM    8  C18 UNL     1      -3.267  -0.723   0.152  1.00  0.00     0.114 C 
ENDROOT
BRANCH   4   9
HETATM    9  C7  UNL     1       1.162  -0.913   1.289  1.00  0.00     0.289 C 
BRANCH   9  10
HETATM   10  O5  UNL     1       1.192  -2.178   1.918  1.00  0.00    -0.370 OA
ATOM     11  H5  UNL     1       2.063  -2.349   2.257  1.00  0.00     0.212 HD
ENDBRANCH   9  10
BRANCH   9  12
HETATM   12  N2  UNL     1       2.255  -0.912   0.371  1.00  0.00    -0.282 N 
HETATM   13  C8  UNL     1       2.297  -1.695  -0.721  1.00  0.00     0.083 A 
HETATM   14  C9  UNL     1       1.155  -2.616  -1.054  1.00  0.00     0.089 C 
HETATM   15  N3  UNL     1       3.371  -1.665  -1.525  1.00  0.00    -0.355 N 
HETATM   16  C10 UNL     1       4.434  -0.884  -1.306  1.00  0.00     0.103 A 
ATOM     17  H3  UNL     1       3.377  -2.270  -2.346  1.00  0.00     0.166 HD
HETATM   18  C11 UNL     1       4.444  -0.047  -0.181  1.00  0.00     0.042 A 
HETATM   19  C14 UNL     1       3.326  -0.107   0.615  1.00  0.00     0.170 A 
BRANCH  18  20
HETATM   20  C12 UNL     1       5.633   0.801   0.096  1.00  0.00     0.211 C 
BRANCH  20  21
HETATM   21  O6  UNL     1       5.374   2.131   0.255  1.00  0.00    -0.386 OA
ATOM     22  H6  UNL     1       6.134   2.673   0.432  1.00  0.00     0.210 HD
ENDBRANCH  20  21
BRANCH  20  23
HETATM   23  C13 UNL     1       6.767   0.530  -0.858  1.00  0.00     0.287 C 
BRANCH  23  24
HETATM   24  O7  UNL     1       7.898   1.158  -0.279  1.00  0.00    -0.368 OA
ATOM     25  H7  UNL     1       8.613   0.987  -0.881  1.00  0.00     0.212 HD
ENDBRANCH  23  24
BRANCH  23  26
HETATM   26  O8  UNL     1       6.620   1.145  -2.096  1.00  0.00    -0.368 OA
ATOM     27  H8  UNL     1       7.335   0.974  -2.698  1.00  0.00     0.212 HD
ENDBRANCH  23  26
ENDBRANCH  20  23
ENDBRANCH  18  20
BRANCH  19  28
HETATM   28  O9  UNL     1       3.330   0.724   1.731  1.00  0.00    -0.235 OA
BRANCH  28  29
HETATM   29  C15 UNL     1       2.730   1.972   1.782  1.00  0.00     0.339 C 
HETATM   30  O10 UNL     1       2.127   2.445   0.811  1.00  0.00    -0.623 OA
HETATM   31  O11 UNL     1       2.845   2.666   2.997  1.00  0.00    -0.623 OA
ENDBRANCH  28  29
ENDBRANCH  19  28
ENDBRANCH   9  12
ENDBRANCH   4   9
BRANCH   5  32
HETATM   32  O12 UNL     1      -0.753  -2.444   2.169  1.00  0.00    -0.355 OA
ATOM     33  H12 UNL     1      -1.425  -3.034   2.488  1.00  0.00     0.218 HD
ENDBRANCH   5  32
BRANCH   2  34
HETATM   34  C5  UNL     1      -1.232   1.760  -1.776  1.00  0.00     0.315 C 
BRANCH  34  35
HETATM   35  O2  UNL     1      -0.190   1.398  -2.635  1.00  0.00    -0.365 OA
ATOM     36  H2  UNL     1      -0.074   2.029  -3.336  1.00  0.00     0.213 HD
ENDBRANCH  34  35
BRANCH  34  37
HETATM   37  O3  UNL     1      -1.033   3.038  -1.295  1.00  0.00    -0.365 OA
ATOM     38  H3  UNL     1      -0.917   3.669  -1.996  1.00  0.00     0.213 HD
ENDBRANCH  34  37
ENDBRANCH   2  34
BRANCH   1  39
HETATM   39  N1  UNL     1      -3.739   1.361  -0.856  1.00  0.00    -0.323 N 
HETATM   40  C2  UNL     1      -4.138   2.326   0.107  1.00  0.00     0.218 C 
HETATM   41  C1  UNL     1      -5.197   3.332  -0.225  1.00  0.00     0.117 C 
HETATM   42  O1  UNL     1      -3.627   2.383   1.275  1.00  0.00    -0.274 OA
ATOM     43  H1  UNL     1      -4.155   1.326  -1.786  1.00  0.00     0.169 HD
ENDBRANCH   1  39
BRANCH   8  44
HETATM   44  N4  UNL     1      -4.488  -0.911  -0.043  1.00  0.00    -0.336 N 
HETATM   45  C19 UNL     1      -5.392  -1.903   0.359  1.00  0.00     0.480 C 
HETATM   46  N5  UNL     1      -5.885  -1.777   1.727  1.00  0.00    -0.033 N 
HETATM   47  N6  UNL     1      -6.593  -1.766  -0.515  1.00  0.00    -0.033 N 
ATOM     48  H53 UNL     1      -5.102  -1.730   2.379  1.00  0.00     0.278 HD
ATOM     49  H52 UNL     1      -6.292  -0.853   1.870  1.00  0.00     0.278 HD
ATOM     50  H51 UNL     1      -6.543  -2.499   2.020  1.00  0.00     0.278 HD
ATOM     51  H63 UNL     1      -6.994  -0.828  -0.505  1.00  0.00     0.278 HD
ATOM     52  H62 UNL     1      -6.373  -1.801  -1.510  1.00  0.00     0.278 HD
ATOM     53  H61 UNL     1      -7.251  -2.488  -0.222  1.00  0.00     0.278 HD
ATOM     54  H4  UNL     1      -4.918  -0.187  -0.618  1.00  0.00     0.163 HD
ENDBRANCH   8  44
TORSDOF 16
