REMARK  7 active torsions:
REMARK  status: ('A' for Active; 'I' for Inactive)
REMARK    1  A    between atoms: O1_1  and  C1_3 
REMARK    2  A    between atoms: C1_3  and  C2_4 
REMARK    3  A    between atoms: C3_6  and  N1_7 
REMARK    4  A    between atoms: C7_11  and  O3_12 
REMARK    5  A    between atoms: C8_14  and  O4_15 
REMARK    6  A    between atoms: C9_17  and  O5_18 
REMARK    7  A    between atoms: C10_20  and  O6_21 
ROOT
HETATM    1  C2  UNL     1      -1.764   0.299   0.375  1.00  0.00     0.179 C 
HETATM    2  O2  UNL     1      -0.545   0.927   0.155  1.00  0.00    -0.353 OA
HETATM    3  C3  UNL     1       0.411  -0.089   0.120  1.00  0.00     0.261 C 
HETATM    4  C8  UNL     1       0.326  -0.671  -1.276  1.00  0.00     0.198 C 
HETATM    5  C9  UNL     1      -1.018  -1.328  -1.407  1.00  0.00     0.182 C 
HETATM    6  C10 UNL     1      -2.095  -0.774  -0.581  1.00  0.00     0.180 C 
ENDROOT
BRANCH   3   7
HETATM    7  N1  UNL     1       1.733   0.389   0.442  1.00  0.00    -0.308 N 
HETATM    8  C4  UNL     1       2.171   1.664   0.404  1.00  0.00     0.096 A 
HETATM    9  C5  UNL     1       3.501   1.692   0.787  1.00  0.00     0.022 A 
HETATM   10  C6  UNL     1       3.888   0.402   1.067  1.00  0.00     0.057 A 
HETATM   11  C7  UNL     1       2.758  -0.383   0.840  1.00  0.00     0.144 A 
BRANCH  11  12
HETATM   12  O3  UNL     1       2.681  -1.762   0.997  1.00  0.00    -0.346 OA
ATOM     13  H3  UNL     1       3.406  -2.308   1.278  1.00  0.00     0.219 HD
ENDBRANCH  11  12
ENDBRANCH   3   7
BRANCH   4  14
HETATM   14  O4  UNL     1       0.516   0.293  -2.254  1.00  0.00    -0.388 OA
ATOM     15  H4  UNL     1       0.463  -0.072  -3.129  1.00  0.00     0.210 HD
ENDBRANCH   4  14
BRANCH   1  16
HETATM   16  C1  UNL     1      -2.893   1.332   0.486  1.00  0.00     0.198 C 
BRANCH  16  17
HETATM   17  O1  UNL     1      -2.594   2.172   1.558  1.00  0.00    -0.398 OA
ATOM     18  H1  UNL     1      -3.293   2.812   1.627  1.00  0.00     0.209 HD
ENDBRANCH  16  17
ENDBRANCH   1  16
BRANCH   5  19
HETATM   19  O5  UNL     1      -0.812  -2.702  -1.134  1.00  0.00    -0.390 OA
ATOM     20  H5  UNL     1      -1.662  -3.118  -1.217  1.00  0.00     0.210 HD
ENDBRANCH   5  19
BRANCH   6  21
HETATM   21  O6  UNL     1      -2.715  -1.829   0.128  1.00  0.00    -0.390 OA
ATOM     22  H6  UNL     1      -2.928  -2.520  -0.488  1.00  0.00     0.210 HD
ENDBRANCH   6  21
TORSDOF 7
