REMARK  6 active torsions:
REMARK  status: ('A' for Active; 'I' for Inactive)
REMARK    1  A    between atoms: O1_1  and  N1_3 
REMARK    2  A    between atoms: C1_5  and  O2_6 
REMARK    3  A    between atoms: C1_5  and  C2_8 
REMARK    4  A    between atoms: C3_11  and  N3_12 
REMARK    5  A    between atoms: C8_17  and  O3_18 
REMARK    6  A    between atoms: C9_20  and  O4_21 
ROOT
HETATM    1  C2  UNL     1       1.562  -0.246   1.216  1.00  0.00     0.299 C 
HETATM    2  N2  UNL     1       0.416   0.567   0.987  1.00  0.00    -0.367 N 
ATOM      3  H2  UNL     1       0.101   1.250   1.676  1.00  0.00     0.158 HD
HETATM    4  C3  UNL     1      -0.263   0.385  -0.235  1.00  0.00     0.219 C 
HETATM    5  C8  UNL     1      -0.160  -0.961  -0.854  1.00  0.00     0.215 C 
HETATM    6  C9  UNL     1       1.055  -1.739  -0.478  1.00  0.00     0.292 C 
HETATM    7  O5  UNL     1       1.403  -1.573   0.843  1.00  0.00    -0.327 OA
ENDROOT
BRANCH   1   8
HETATM    8  C1  UNL     1       2.817   0.335   0.682  1.00  0.00     0.185 C 
HETATM    9  N1  UNL     1       2.858   1.467   0.071  1.00  0.00    -0.247 N 
ATOM     10  H1  UNL     1       1.981   1.975  -0.043  1.00  0.00     0.196 HD
BRANCH   9  11
HETATM   11  O1  UNL     1       3.978   2.032  -0.431  1.00  0.00    -0.288 OA
ATOM     12  H1  UNL     1       4.008   2.868  -0.882  1.00  0.00     0.244 HD
ENDBRANCH   9  11
BRANCH   8  13
HETATM   13  O2  UNL     1       4.007  -0.353   0.836  1.00  0.00    -0.345 OA
ATOM     14  H2  UNL     1       3.977  -1.189   1.287  1.00  0.00     0.219 HD
ENDBRANCH   8  13
ENDBRANCH   1   8
BRANCH   4  15
HETATM   15  N3  UNL     1      -1.690   0.711  -0.082  1.00  0.00    -0.343 N 
HETATM   16  C4  UNL     1      -2.470   1.393  -0.928  1.00  0.00     0.092 A 
HETATM   17  C5  UNL     1      -3.752   1.496  -0.441  1.00  0.00     0.019 A 
HETATM   18  C6  UNL     1      -3.766   0.842   0.774  1.00  0.00     0.019 A 
HETATM   19  C7  UNL     1      -2.481   0.376   0.954  1.00  0.00     0.092 A 
ENDBRANCH   4  15
BRANCH   6  20
HETATM   20  O4  UNL     1       0.775  -3.096  -0.671  1.00  0.00    -0.368 OA
ATOM     21  H4  UNL     1       1.549  -3.592  -0.431  1.00  0.00     0.212 HD
ENDBRANCH   6  20
BRANCH   5  22
HETATM   22  O3  UNL     1      -1.278  -1.769  -0.588  1.00  0.00    -0.387 OA
ATOM     23  H3  UNL     1      -1.212  -2.630  -0.984  1.00  0.00     0.210 HD
ENDBRANCH   5  22
TORSDOF 6
