REMARK  7 active torsions:
REMARK  status: ('A' for Active; 'I' for Inactive)
REMARK    1  A    between atoms: C4_4  and  C5_5 
REMARK       I    between atoms: C5_5  and  N1_7 
REMARK    2  A    between atoms: C6_8  and  C7_9 
REMARK       I    between atoms: C7_9  and  N2_11 
REMARK    3  A    between atoms: N2_11  and  C8_12 
REMARK    4  A    between atoms: C8_12  and  C9_13 
REMARK    5  A    between atoms: C8_12  and  C13_17 
REMARK    6  A    between atoms: C9_13  and  C10_14 
REMARK    7  A    between atoms: C16_22  and  C17_23 
ROOT
HETATM    1  C5  UNL     1      -1.083  -0.513   0.699  1.00  0.00     0.273 C 
HETATM    2  O1  UNL     1      -0.378   0.477   1.108  1.00  0.00    -0.266 OA
HETATM    3  N1  UNL     1      -0.402  -1.500  -0.053  1.00  0.00    -0.326 N 
HETATM    4  C6  UNL     1       0.923  -1.685  -0.498  1.00  0.00     0.195 C 
HETATM    5  C14 UNL     1       1.168  -3.168  -0.131  1.00  0.00     0.044 C 
HETATM    6  C15 UNL     1      -0.106  -3.800  -0.598  1.00  0.00     0.028 A 
HETATM    7  C16 UNL     1      -1.306  -3.860   0.283  1.00  0.00     0.116 A 
HETATM    8  C18 UNL     1      -1.151  -2.664  -0.582  1.00  0.00     0.108 A 
ENDROOT
BRANCH   4   9
HETATM    9  C7  UNL     1       2.000  -0.874   0.159  1.00  0.00     0.315 C 
HETATM   10  O2  UNL     1       2.262  -1.326   1.346  1.00  0.00    -0.255 OA
HETATM   11  N2  UNL     1       2.576   0.144  -0.443  1.00  0.00    -0.366 NA
BRANCH  11  12
HETATM   12  C8  UNL     1       3.195   1.234  -1.085  1.00  0.00     0.165 C 
BRANCH  12  13
HETATM   13  C9  UNL     1       3.309   2.519  -0.280  1.00  0.00     0.084 C 
BRANCH  13  14
HETATM   14  C10 UNL     1       2.046   3.087   0.228  1.00  0.00    -0.016 C 
HETATM   15  C11 UNL     1       0.983   3.457  -0.726  1.00  0.00     0.010 C 
HETATM   16  C12 UNL     1       2.444   4.391   0.971  1.00  0.00     0.010 C 
ENDBRANCH  13  14
ENDBRANCH  12  13
BRANCH  12  17
HETATM   17  C13 UNL     1       2.794   1.479  -2.481  1.00  0.00     0.237 C 
HETATM   18  O3  UNL     1       1.907   0.766  -3.014  1.00  0.00    -0.642 OA
HETATM   19  O4  UNL     1       3.373   2.479  -3.232  1.00  0.00    -0.642 OA
ENDBRANCH  12  17
ENDBRANCH  11  12
ENDBRANCH   4   9
BRANCH   1  20
HETATM   20  C4  UNL     1      -2.491  -0.533   1.031  1.00  0.00     0.125 A 
HETATM   21  C3  UNL     1      -3.159   0.452   1.743  1.00  0.00     0.071 A 
HETATM   22  C2  UNL     1      -4.479   0.091   1.852  1.00  0.00     0.075 A 
HETATM   23  C1  UNL     1      -5.604   0.810   2.520  1.00  0.00     0.079 C 
HETATM   24  O7  UNL     1      -4.598  -1.083   1.220  1.00  0.00    -0.242 OA
HETATM   25  N3  UNL     1      -3.427  -1.433   0.746  1.00  0.00    -0.256 N 
ATOM     26  H3  UNL     1      -3.255  -2.291   0.222  1.00  0.00     0.195 HD
ENDBRANCH   1  20
BRANCH   7  27
HETATM   27  C17 UNL     1      -2.296  -4.869  -0.176  1.00  0.00     0.179 C 
HETATM   28  O5  UNL     1      -2.563  -5.086  -1.382  1.00  0.00    -0.648 OA
HETATM   29  O6  UNL     1      -2.956  -5.607   0.793  1.00  0.00    -0.648 OA
ENDBRANCH   7  27
TORSDOF 7
