REMARK  3 active torsions:
REMARK  status: ('A' for Active; 'I' for Inactive)
REMARK    1  A    between atoms: C2_2  and  O1_5 
REMARK    2  A    between atoms: O1_5  and  C5_6 
REMARK    3  A    between atoms: C5_6  and  N1_8 
ROOT
HETATM    1  N1  UNL     1       2.714   0.656   0.136  1.00  0.00    -0.264 N 
ATOM      2  H1  UNL     1       3.422   1.165   0.665  1.00  0.00     0.181 HD
HETATM    3  C6  UNL     1       2.803   0.559  -1.260  1.00  0.00     0.184 C 
HETATM    4  N2  UNL     1       2.857   0.479  -2.414  1.00  0.00    -0.172 NA
ENDROOT
BRANCH   1   5
HETATM    5  C5  UNL     1       1.630   0.038   0.799  1.00  0.00     0.224 C 
HETATM    6  S1  UNL     1       1.536   0.158   2.421  1.00  0.00    -0.032 SA
BRANCH   5   7
HETATM    7  O1  UNL     1       0.685  -0.643   0.080  1.00  0.00    -0.316 OA
BRANCH   7   8
HETATM    8  C2  UNL     1      -0.671  -0.302  -0.003  1.00  0.00     0.059 C 
HETATM    9  C1  UNL     1      -1.292  -0.327   1.379  1.00  0.00     0.045 C 
HETATM   10  C3  UNL     1      -1.407  -1.316  -0.845  1.00  0.00     0.045 C 
HETATM   11  C4  UNL     1      -0.763   1.088  -0.604  1.00  0.00     0.045 C 
ENDBRANCH   7   8
ENDBRANCH   5   7
ENDBRANCH   1   5
TORSDOF 3
