REMARK  1 active torsions:
REMARK  status: ('A' for Active; 'I' for Inactive)
REMARK    1  A    between atoms: N3_11  and  O1_12 
ROOT
HETATM    1  N1  UNL     1       3.047  -0.710  -1.787  1.00  0.00    -0.195 NA
HETATM    2  C1  UNL     1       2.326  -0.445  -0.941  1.00  0.00     0.082 C 
HETATM    3  C2  UNL     1       1.435  -0.120   0.141  1.00  0.00     0.198 C 
HETATM    4  C3  UNL     1       0.429  -1.218   0.399  1.00  0.00     0.022 C 
HETATM    5  C4  UNL     1      -0.429  -1.351  -0.819  1.00  0.00     0.010 C 
HETATM    6  C5  UNL     1      -1.389  -0.154  -0.816  1.00  0.00     0.043 C 
HETATM    7  C6  UNL     1      -0.753   0.693   0.277  1.00  0.00     0.128 C 
HETATM    8  C7  UNL     1      -1.554   1.757   0.748  1.00  0.00     0.087 C 
HETATM    9  N2  UNL     1      -2.198   2.640   1.125  1.00  0.00    -0.195 NA
HETATM   10  C8  UNL     1      -0.513  -0.416   1.318  1.00  0.00     0.050 C 
HETATM   11  N3  UNL     1       0.571   1.002  -0.134  1.00  0.00    -0.158 NA
ENDROOT
BRANCH  11  12
HETATM   12  O1  UNL     1       1.046   2.173   0.250  1.00  0.00    -0.310 OA
ATOM     13  H1  UNL     1       0.477   2.912   0.069  1.00  0.00     0.237 HD
ENDBRANCH  11  12
TORSDOF 1
