REMARK  0 active torsions:
REMARK  status: ('A' for Active; 'I' for Inactive)
ROOT
HETATM    1  C1  UNL     1      -1.432   0.219  -0.891  1.00  0.00     0.004 C 
HETATM    2  C2  UNL     1      -1.907  -0.746   0.145  1.00  0.00     0.023 C 
HETATM    3  C3  UNL     1      -0.855  -0.940   1.244  1.00  0.00     0.118 C 
HETATM    4  S1  UNL     1      -0.697   0.677   2.109  1.00  0.00    -0.131 SA
HETATM    5  C4  UNL     1       0.156   1.404   0.643  1.00  0.00     0.149 C 
HETATM    6  C5  UNL     1      -0.910   1.510  -0.403  1.00  0.00     0.036 C 
HETATM    7  N1  UNL     1       1.015   0.288   0.314  1.00  0.00    -0.340 N 
HETATM    8  C6  UNL     1       2.355   0.051  -0.188  1.00  0.00     0.261 C 
HETATM    9  N2  UNL     1       2.328  -1.339  -0.561  1.00  0.00    -0.120 NA
HETATM   10  N3  UNL     1       1.204  -1.892   0.014  1.00  0.00    -0.290 N 
ATOM     11  H3  UNL     1       0.996  -2.890   0.039  1.00  0.00     0.183 HD
HETATM   12  C7  UNL     1       0.439  -0.956   0.524  1.00  0.00     0.107 C 
ENDROOT
TORSDOF 0
