REMARK  1 active torsions:
REMARK  status: ('A' for Active; 'I' for Inactive)
REMARK    1  A    between atoms: C5_5  and  O1_6 
ROOT
HETATM    1  C1  UNL     1      -2.980   1.357   0.120  1.00  0.00     0.039 C 
HETATM    2  C2  UNL     1      -1.772   0.519  -0.231  1.00  0.00     0.119 C 
HETATM    3  C3  UNL     1      -2.050  -0.958  -0.072  1.00  0.00     0.035 C 
HETATM    4  C4  UNL     1      -0.808  -1.686  -0.459  1.00  0.00     0.052 C 
HETATM    5  C5  UNL     1       0.448  -1.150   0.156  1.00  0.00     0.158 C 
HETATM    6  C6  UNL     1       1.560  -1.449  -0.783  1.00  0.00     0.152 C 
HETATM    7  N1  UNL     1       2.393  -2.427  -0.716  1.00  0.00    -0.381 N 
ATOM      8  H11 UNL     1       3.156  -2.632  -1.361  1.00  0.00     0.158 HD
ATOM      9  H12 UNL     1       2.431  -3.161  -0.009  1.00  0.00     0.158 HD
HETATM   10  O2  UNL     1       1.509  -0.457  -1.739  1.00  0.00    -0.302 OA
HETATM   11  C7  UNL     1       1.138   0.725  -1.051  1.00  0.00     0.305 C 
HETATM   12  O3  UNL     1       2.297   1.423  -0.799  1.00  0.00    -0.357 OA
HETATM   13  C8  UNL     1       2.325   1.828   0.503  1.00  0.00     0.174 C 
HETATM   14  C9  UNL     1       1.488   0.827   1.266  1.00  0.00     0.073 C 
HETATM   15  C10 UNL     1       0.494   0.344   0.229  1.00  0.00     0.151 C 
HETATM   16  O4  UNL     1      -0.700   0.952   0.492  1.00  0.00    -0.366 OA
ENDROOT
BRANCH   5  17
HETATM   17  O1  UNL     1       0.747  -1.759   1.372  1.00  0.00    -0.378 OA
ATOM     18  H1  UNL     1       1.544  -1.419   1.762  1.00  0.00     0.211 HD
ENDBRANCH   5  17
TORSDOF 1
