REMARK  4 active torsions:
REMARK  status: ('A' for Active; 'I' for Inactive)
REMARK    1  A    between atoms: C3_3  and  C4_4 
REMARK    2  A    between atoms: C5_5  and  C6_6 
REMARK    3  A    between atoms: C6_6  and  C7_7 
REMARK    4  A    between atoms: C8_9  and  C9_10 
ROOT
HETATM    1  C1  UNL     1       6.282   0.275  -1.112  1.00  0.00     0.112 C 
HETATM    2  C2  UNL     1       4.956  -0.110  -0.628  1.00  0.00    -0.106 C 
HETATM    3  C3  UNL     1       3.864  -0.414  -0.239  1.00  0.00    -0.079 C 
ENDROOT
BRANCH   3   4
HETATM    4  C4  UNL     1       2.553  -0.779   0.234  1.00  0.00     0.060 C 
HETATM    5  C5  UNL     1       1.605   0.115   0.349  1.00  0.00    -0.015 C 
BRANCH   5   6
HETATM    6  C6  UNL     1       0.253  -0.263   0.838  1.00  0.00     0.062 C 
BRANCH   6   7
HETATM    7  C7  UNL     1      -0.826   0.018  -0.147  1.00  0.00     0.154 A 
HETATM    8  O1  UNL     1      -1.056   1.309  -0.599  1.00  0.00    -0.375 OA
HETATM    9  C8  UNL     1      -1.945   0.898   0.364  1.00  0.00     0.154 A 
BRANCH   9  10
HETATM   10  C9  UNL     1      -3.344   0.500   0.027  1.00  0.00     0.009 C 
HETATM   11  C10 UNL     1      -3.602   0.445  -1.461  1.00  0.00     0.012 C 
HETATM   12  C11 UNL     1      -3.697  -0.845   0.670  1.00  0.00     0.012 C 
ENDBRANCH   9  10
ENDBRANCH   6   7
ENDBRANCH   5   6
ENDBRANCH   3   4
TORSDOF 4
