REMARK  4 active torsions:
REMARK  status: ('A' for Active; 'I' for Inactive)
REMARK    1  A    between atoms: C2_2  and  N1_3 
REMARK    2  A    between atoms: C5_6  and  N2_7 
REMARK    3  A    between atoms: N2_7  and  C6_9 
REMARK    4  A    between atoms: C6_9  and  S1_10 
ROOT
HETATM    1  N1  UNL     1      -2.201   0.001  -0.448  1.00  0.00     0.090 N 
HETATM    2  C3  UNL     1      -1.981   1.441  -0.240  1.00  0.00     0.274 C 
HETATM    3  C4  UNL     1      -0.547   1.739  -0.469  1.00  0.00     0.057 C 
HETATM    4  C5  UNL     1       0.065   0.359  -0.172  1.00  0.00     0.111 C 
HETATM    5  C8  UNL     1      -0.903  -0.491  -0.935  1.00  0.00     0.297 C 
ENDROOT
BRANCH   4   6
HETATM    6  N2  UNL     1       1.383   0.304  -0.781  1.00  0.00    -0.387 N 
ATOM      7  H2  UNL     1       1.597  -0.412  -1.476  1.00  0.00     0.159 HD
BRANCH   6   8
HETATM    8  C6  UNL     1       2.368   1.248  -0.406  1.00  0.00     0.128 C 
BRANCH   8   9
HETATM    9  S1  UNL     1       3.814   0.843   0.216  1.00  0.00    -0.129 SA
HETATM   10  C7  UNL     1       4.143  -0.963   0.424  1.00  0.00     0.096 C 
ENDBRANCH   8   9
ENDBRANCH   6   8
ENDBRANCH   4   6
BRANCH   1  11
HETATM   11  C2  UNL     1      -2.494  -0.643   0.813  1.00  0.00     0.268 C 
HETATM   12  C1  UNL     1      -3.075  -2.016   0.532  1.00  0.00     0.037 C 
ENDBRANCH   1  11
TORSDOF 4
