REMARK  3 active torsions:
REMARK  status: ('A' for Active; 'I' for Inactive)
REMARK    1  A    between atoms: C5_5  and  O1_6 
REMARK    2  A    between atoms: C8_10  and  C9_11 
REMARK    3  A    between atoms: C12_14  and  O2_15 
ROOT
HETATM    1  C1  UNL     1       0.999  -2.585  -0.596  1.00  0.00     0.015 C 
HETATM    2  C2  UNL     1       1.335  -1.424  -0.074  1.00  0.00    -0.084 C 
HETATM    3  C3  UNL     1       2.355  -1.316   0.982  1.00  0.00     0.036 C 
HETATM    4  C4  UNL     1       3.324  -0.256   0.590  1.00  0.00     0.036 C 
HETATM    5  C5  UNL     1       2.829   0.831  -0.274  1.00  0.00     0.122 C 
HETATM    6  C6  UNL     1       1.313   1.058  -0.214  1.00  0.00     0.019 C 
HETATM    7  C7  UNL     1       1.034   1.726   1.064  1.00  0.00     0.013 C 
HETATM    8  C8  UNL     1       0.657  -0.199  -0.577  1.00  0.00     0.025 C 
ENDROOT
BRANCH   8   9
HETATM    9  C9  UNL     1      -0.803  -0.351  -0.335  1.00  0.00     0.013 C 
HETATM   10  C10 UNL     1      -1.212  -0.567   1.083  1.00  0.00     0.009 C 
HETATM   11  C11 UNL     1      -2.482   0.163   1.461  1.00  0.00     0.032 C 
HETATM   12  C12 UNL     1      -3.522  -0.002   0.383  1.00  0.00     0.119 C 
HETATM   13  C13 UNL     1      -3.059   0.558  -0.928  1.00  0.00     0.052 C 
HETATM   14  C14 UNL     1      -1.584   0.740  -1.035  1.00  0.00     0.089 C 
HETATM   15 CL1  UNL     1      -1.164   0.581  -2.773  1.00  0.00    -0.124 Cl
BRANCH  12  16
HETATM   16  O2  UNL     1      -3.767  -1.385   0.271  1.00  0.00    -0.396 OA
ATOM     17  H2  UNL     1      -4.423  -1.489  -0.409  1.00  0.00     0.210 HD
ENDBRANCH  12  16
ENDBRANCH   8   9
BRANCH   5  18
HETATM   18  O1  UNL     1       3.471   2.027   0.050  1.00  0.00    -0.395 OA
ATOM     19  H1  UNL     1       3.152   2.728  -0.507  1.00  0.00     0.210 HD
ENDBRANCH   5  18
TORSDOF 3
