REMARK  3 active torsions:
REMARK  status: ('A' for Active; 'I' for Inactive)
REMARK    1  A    between atoms: C2_2  and  C4_4 
REMARK    2  A    between atoms: C9_10  and  O1_11 
REMARK    3  A    between atoms: C15_18  and  O2_19 
ROOT
HETATM    1  C4  UNL     1       1.877   0.450   0.350  1.00  0.00     0.045 C 
HETATM    2  C5  UNL     1       1.144  -0.815   0.642  1.00  0.00     0.056 C 
HETATM    3  C6  UNL     1      -0.248  -0.887   0.050  1.00  0.00     0.112 C 
HETATM    4  F1  UNL     1      -0.058  -1.355  -1.260  1.00  0.00    -0.242 F 
HETATM    5  C7  UNL     1      -1.018  -1.891   0.836  1.00  0.00     0.047 C 
HETATM    6  C8  UNL     1      -2.412  -1.544   1.186  1.00  0.00     0.035 C 
HETATM    7  C9  UNL     1      -3.141  -0.663   0.250  1.00  0.00     0.122 C 
HETATM    8  C10 UNL     1      -2.314   0.302  -0.536  1.00  0.00     0.022 C 
HETATM    9  C11 UNL     1      -2.410  -0.074  -1.982  1.00  0.00     0.013 C 
HETATM   10  C12 UNL     1      -0.921   0.467  -0.013  1.00  0.00     0.000 C 
HETATM   11  C13 UNL     1      -1.037   0.956   1.427  1.00  0.00     0.019 C 
HETATM   12  C14 UNL     1      -0.115   1.453  -0.764  1.00  0.00     0.045 C 
HETATM   13  C15 UNL     1       1.349   1.066  -0.923  1.00  0.00     0.127 C 
ENDROOT
BRANCH   1  14
HETATM   14  C2  UNL     1       3.323   0.184   0.188  1.00  0.00    -0.086 C 
HETATM   15  C1  UNL     1       4.176   0.767   1.010  1.00  0.00     0.014 C 
HETATM   16  C3  UNL     1       3.865  -0.718  -0.866  1.00  0.00     0.043 C 
ENDBRANCH   1  14
BRANCH  13  17
HETATM   17  O2  UNL     1       2.091   2.258  -1.111  1.00  0.00    -0.395 OA
ATOM     18  H2  UNL     1       1.759   2.646  -1.912  1.00  0.00     0.210 HD
ENDBRANCH  13  17
BRANCH   7  19
HETATM   19  O1  UNL     1      -4.129   0.003   1.020  1.00  0.00    -0.395 OA
ATOM     20  H1  UNL     1      -4.598   0.569   0.418  1.00  0.00     0.210 HD
ENDBRANCH   7  19
TORSDOF 3
