REMARK  2 active torsions:
REMARK  status: ('A' for Active; 'I' for Inactive)
REMARK    1  A    between atoms: N1_1  and  C1_4 
REMARK    2  A    between atoms: N3_10  and  C4_11 
ROOT
HETATM    1  C1  UNL     1       1.737   0.768   0.303  1.00  0.00     0.135 A 
HETATM    2  C2  UNL     1       3.085   0.499   0.396  1.00  0.00     0.072 A 
HETATM    3 BR1  UNL     1       4.494   1.698   0.731  1.00  0.00    -0.045 Br
HETATM    4  C3  UNL     1       3.186  -0.852   0.190  1.00  0.00     0.130 A 
HETATM    5  N2  UNL     1       1.967  -1.324  -0.009  1.00  0.00    -0.306 N 
ATOM      6  H2  UNL     1       1.755  -2.306  -0.188  1.00  0.00     0.186 HD
HETATM    7  N3  UNL     1       1.061  -0.371   0.052  1.00  0.00    -0.271 N 
ENDROOT
BRANCH   7   8
HETATM    8  C4  UNL     1      -0.321  -0.583  -0.122  1.00  0.00     0.110 C 
HETATM    9  C5  UNL     1      -0.976   0.052  -1.290  1.00  0.00     0.027 C 
HETATM   10  C6  UNL     1      -2.448  -0.059  -0.908  1.00  0.00     0.002 C 
HETATM   11  C7  UNL     1      -2.405   0.501   0.499  1.00  0.00     0.002 C 
HETATM   12  C8  UNL     1      -1.187  -0.200   1.064  1.00  0.00     0.027 C 
ENDBRANCH   7   8
BRANCH   1  13
HETATM   13  N1  UNL     1       1.273   1.952   0.446  1.00  0.00    -0.383 N 
ATOM     14  H12 UNL     1       1.784   2.814   0.636  1.00  0.00     0.157 HD
ATOM     15  H11 UNL     1       0.275   2.151   0.377  1.00  0.00     0.157 HD
ENDBRANCH   1  13
TORSDOF 2
