REMARK  3 active torsions:
REMARK  status: ('A' for Active; 'I' for Inactive)
REMARK    1  A    between atoms: C2_2  and  C5_5 
REMARK    2  A    between atoms: C7_9  and  N2_10 
REMARK    3  A    between atoms: N2_10  and  C8_12 
ROOT
HETATM    1  C5  UNL     1      -2.166   0.041  -0.840  1.00  0.00     0.018 C 
HETATM    2  C6  UNL     1      -1.474  -1.257  -1.064  1.00  0.00     0.126 C 
HETATM    3  N1  UNL     1      -0.076  -0.883  -1.140  1.00  0.00    -0.380 N 
ATOM      4  H1  UNL     1       0.652  -1.451  -1.574  1.00  0.00     0.160 HD
HETATM    5  C7  UNL     1       0.124   0.264  -0.586  1.00  0.00     0.073 C 
HETATM    6  C14 UNL     1      -1.145   0.826  -0.051  1.00  0.00     0.082 C 
ENDROOT
BRANCH   5   7
HETATM    7  N2  UNL     1       1.406   0.875  -0.517  1.00  0.00    -0.374 N 
ATOM      8  H2  UNL     1       1.724   1.423  -1.316  1.00  0.00     0.161 HD
BRANCH   7   9
HETATM    9  C8  UNL     1       2.279   0.759   0.625  1.00  0.00     0.101 C 
HETATM   10  C9  UNL     1       3.543   1.512   0.385  1.00  0.00     0.026 C 
HETATM   11  C10 UNL     1       4.781   0.721   0.778  1.00  0.00     0.002 C 
HETATM   12  C11 UNL     1       4.734  -0.561  -0.030  1.00  0.00     0.002 C 
HETATM   13  C12 UNL     1       3.531  -1.398   0.319  1.00  0.00     0.022 C 
HETATM   14  C13 UNL     1       2.482  -0.660   1.070  1.00  0.00     0.105 C 
HETATM   15 CL1  UNL     1       2.746  -0.747   2.836  1.00  0.00    -0.123 Cl
ENDBRANCH   7   9
ENDBRANCH   5   7
BRANCH   1  16
HETATM   16  C2  UNL     1      -3.491  -0.063  -0.157  1.00  0.00    -0.046 C 
HETATM   17  C1  UNL     1      -3.444  -0.676   1.198  1.00  0.00     0.015 C 
HETATM   18  C3  UNL     1      -4.071   1.329  -0.045  1.00  0.00     0.015 C 
HETATM   19  C4  UNL     1      -4.413  -0.875  -1.026  1.00  0.00     0.015 C 
ENDBRANCH   1  16
TORSDOF 3
