REMARK  6 active torsions:
REMARK  status: ('A' for Active; 'I' for Inactive)
REMARK    1  A    between atoms: C1_2  and  C2_3 
REMARK       I    between atoms: C1_2  and  N4_19 
REMARK    2  A    between atoms: C2_3  and  S1_4 
REMARK    3  A    between atoms: S1_4  and  C3_5 
REMARK    4  A    between atoms: C4_8  and  C5_9 
REMARK    5  A    between atoms: N4_19  and  C11_21 
REMARK    6  A    between atoms: C11_21  and  C12_22 
ROOT
HETATM    1  C3  UNL     1      -1.206   1.285   1.247  1.00  0.00     0.160 A 
HETATM    2  N1  UNL     1      -2.443   1.012   1.684  1.00  0.00    -0.324 N 
ATOM      3  H1  UNL     1      -2.800   1.219   2.617  1.00  0.00     0.169 HD
HETATM    4  C4  UNL     1      -3.148   0.414   0.682  1.00  0.00     0.102 A 
HETATM    5  N2  UNL     1      -2.286   0.348  -0.348  1.00  0.00    -0.287 N 
ATOM      6  H2  UNL     1      -2.504  -0.051  -1.261  1.00  0.00     0.188 HD
HETATM    7  N3  UNL     1      -1.134   0.863  -0.021  1.00  0.00    -0.278 N 
ATOM      8  H3  UNL     1      -0.317   0.932  -0.628  1.00  0.00     0.189 HD
ENDROOT
BRANCH   1   9
HETATM    9  S1  UNL     1       0.077   2.060   2.177  1.00  0.00    -0.083 SA
BRANCH   9  10
HETATM   10  C2  UNL     1       1.591   2.253   1.226  1.00  0.00     0.185 C 
BRANCH  10  11
HETATM   11  C1  UNL     1       2.210   0.930   0.897  1.00  0.00     0.227 C 
HETATM   12  O1  UNL     1       1.626  -0.110   1.298  1.00  0.00    -0.273 OA
HETATM   13  N4  UNL     1       3.408   0.837   0.162  1.00  0.00    -0.358 N 
ATOM     14  H4  UNL     1       3.864   1.694  -0.153  1.00  0.00     0.162 HD
BRANCH  13  15
HETATM   15  C11 UNL     1       4.007  -0.430  -0.157  1.00  0.00     0.154 C 
BRANCH  15  16
HETATM   16  C12 UNL     1       5.294  -0.186  -0.958  1.00  0.00     0.139 C 
HETATM   17  C13 UNL     1       6.229   0.552  -0.041  1.00  0.00     0.035 C 
HETATM   18  C14 UNL     1       7.179  -0.574   0.387  1.00  0.00     0.029 C 
HETATM   19  C15 UNL     1       7.143  -1.450  -0.848  1.00  0.00     0.168 C 
HETATM   20  O2  UNL     1       5.831  -1.413  -1.240  1.00  0.00    -0.384 OA
ENDBRANCH  15  16
ENDBRANCH  13  15
ENDBRANCH  10  11
ENDBRANCH   9  10
ENDBRANCH   1   9
BRANCH   4  21
HETATM   21  C5  UNL     1      -4.566  -0.055   0.744  1.00  0.00     0.055 C 
HETATM   22  C6  UNL     1      -5.340   0.810  -0.229  1.00  0.00     0.012 C 
HETATM   23  C7  UNL     1      -6.732   0.322  -0.456  1.00  0.00     0.001 C 
HETATM   24  C8  UNL     1      -6.816  -1.182  -0.579  1.00  0.00     0.000 C 
HETATM   25  C9  UNL     1      -5.462  -1.798  -0.830  1.00  0.00     0.001 C 
HETATM   26  C10 UNL     1      -4.597  -1.502   0.378  1.00  0.00     0.012 C 
ENDBRANCH   4  21
TORSDOF 6
