REMARK  6 active torsions:
REMARK  status: ('A' for Active; 'I' for Inactive)
REMARK    1  A    between atoms: N1_8  and  C8_9 
REMARK    2  A    between atoms: C8_9  and  C9_10 
REMARK    3  A    between atoms: C9_10  and  C10_11 
REMARK    4  A    between atoms: C10_11  and  C11_12 
REMARK    5  A    between atoms: C11_12  and  S1_13 
REMARK    6  A    between atoms: S1_13  and  C12_14 
ROOT
HETATM    1  C1  UNL     1      -4.626   3.186  -0.133  1.00  0.00     0.015 C 
HETATM    2  C2  UNL     1      -4.307   2.017  -0.129  1.00  0.00    -0.076 C 
HETATM    3  C3  UNL     1      -3.911   0.598  -0.149  1.00  0.00     0.217 C 
HETATM    4  C4  UNL     1      -4.457  -0.091   1.037  1.00  0.00     0.064 C 
HETATM    5  C5  UNL     1      -4.477  -0.066  -1.404  1.00  0.00     0.056 C 
HETATM    6  C6  UNL     1      -3.379  -1.047  -1.676  1.00  0.00     0.034 C 
HETATM    7  C7  UNL     1      -2.131  -0.164  -1.423  1.00  0.00     0.275 C 
HETATM    8  N1  UNL     1      -2.473   0.599  -0.299  1.00  0.00     0.109 N 
ENDROOT
BRANCH   8   9
HETATM    9  C8  UNL     1      -1.770   0.470   0.916  1.00  0.00     0.275 C 
BRANCH   9  10
HETATM   10  C9  UNL     1      -0.342   0.855   0.976  1.00  0.00     0.031 C 
BRANCH  10  11
HETATM   11  C10 UNL     1       0.679   0.148   0.199  1.00  0.00     0.012 C 
BRANCH  11  12
HETATM   12  C11 UNL     1       0.907  -1.310   0.538  1.00  0.00     0.082 C 
BRANCH  12  13
HETATM   13  S1  UNL     1       2.152  -1.933  -0.598  1.00  0.00    -0.094 SA
BRANCH  13  14
HETATM   14  C12 UNL     1       3.751  -1.169  -0.370  1.00  0.00     0.145 A 
HETATM   15  N2  UNL     1       4.065  -0.320   0.589  1.00  0.00    -0.322 N 
HETATM   16  C13 UNL     1       5.298   0.196   0.681  1.00  0.00     0.123 A 
ATOM     17  H2  UNL     1       3.357  -0.052   1.272  1.00  0.00     0.169 HD
HETATM   18  N3  UNL     1       5.639   1.031   1.629  1.00  0.00    -0.384 N 
HETATM   19  C14 UNL     1       6.281  -0.147  -0.233  1.00  0.00     0.103 A 
ATOM     20  H32 UNL     1       4.915   1.284   2.302  1.00  0.00     0.157 HD
ATOM     21  H31 UNL     1       6.578   1.424   1.699  1.00  0.00     0.157 HD
HETATM   22  C15 UNL     1       7.615   0.386  -0.173  1.00  0.00     0.104 C 
HETATM   23  C16 UNL     1       5.928  -1.034  -1.223  1.00  0.00     0.116 A 
HETATM   24  N4  UNL     1       8.691   0.819  -0.146  1.00  0.00    -0.191 NA
HETATM   25  N5  UNL     1       4.691  -1.528  -1.282  1.00  0.00    -0.345 N 
ATOM     26  H5  UNL     1       4.447  -2.185  -2.023  1.00  0.00     0.167 HD
ENDBRANCH  13  14
ENDBRANCH  12  13
ENDBRANCH  11  12
ENDBRANCH  10  11
ENDBRANCH   9  10
ENDBRANCH   8   9
TORSDOF 6
