REMARK  12 active torsions:
REMARK  status: ('A' for Active; 'I' for Inactive)
REMARK    1  A    between atoms: C2_2  and  O1_5 
REMARK    2  A    between atoms: O1_5  and  C5_6 
REMARK       I    between atoms: C5_6  and  N1_8 
REMARK    3  A    between atoms: N1_8  and  C6_10 
REMARK    4  A    between atoms: C6_10  and  C7_11 
REMARK    5  A    between atoms: C6_10  and  C25_39 
REMARK    6  A    between atoms: C7_11  and  O3_12 
REMARK    7  A    between atoms: C7_11  and  N2_14 
REMARK    8  A    between atoms: C11_18  and  C12_19 
REMARK       I    between atoms: C12_19  and  N3_21 
REMARK    9  A    between atoms: N3_21  and  C13_23 
REMARK   10  A    between atoms: C13_23  and  C15_25 
REMARK   11  A    between atoms: C13_23  and  C24_36 
REMARK   12  A    between atoms: C15_25  and  C16_26 
REMARK       I    between atoms: C16_26  and  N4_28 
ROOT
HETATM    1  N2  UNL     1      -1.517  -0.096  -2.233  1.00  0.00    -0.350 N 
HETATM    2  C8  UNL     1      -1.016  -1.132  -3.082  1.00  0.00     0.126 C 
HETATM    3  C9  UNL     1       0.405  -0.740  -3.473  1.00  0.00     0.022 C 
HETATM    4  C10 UNL     1       0.295   0.758  -3.452  1.00  0.00     0.037 C 
HETATM    5  C11 UNL     1      -0.543   1.028  -2.253  1.00  0.00     0.178 C 
ENDROOT
BRANCH   5   6
HETATM    6  C12 UNL     1       0.333   0.982  -1.038  1.00  0.00     0.241 C 
HETATM    7  O4  UNL     1       0.122   0.043  -0.248  1.00  0.00    -0.271 OA
HETATM    8  N3  UNL     1       1.327   1.931  -0.799  1.00  0.00    -0.337 N 
ATOM      9  H3  UNL     1       1.377   2.652  -1.519  1.00  0.00     0.164 HD
BRANCH   8  10
HETATM   10  C13 UNL     1       2.273   2.103   0.224  1.00  0.00     0.141 C 
HETATM   11  C14 UNL     1       1.623   1.974   1.612  1.00  0.00     0.055 C 
BRANCH  10  12
HETATM   12  C15 UNL     1       3.598   1.508   0.208  1.00  0.00     0.089 C 
BRANCH  12  13
HETATM   13  C16 UNL     1       3.870   0.103   0.175  1.00  0.00     0.242 C 
HETATM   14  O5  UNL     1       3.067  -0.846   0.286  1.00  0.00    -0.269 OA
HETATM   15  N4  UNL     1       5.238  -0.314  -0.009  1.00  0.00    -0.349 N 
HETATM   16  C17 UNL     1       5.427  -1.744  -0.025  1.00  0.00     0.126 C 
HETATM   17  C23 UNL     1       6.151   0.790  -0.149  1.00  0.00     0.126 C 
HETATM   18  C18 UNL     1       5.766  -2.296   1.339  1.00  0.00     0.020 C 
HETATM   19  C19 UNL     1       7.227  -2.040   1.653  1.00  0.00     0.002 C 
HETATM   20  C20 UNL     1       7.317  -0.652   2.244  1.00  0.00     0.000 C 
HETATM   21  C21 UNL     1       8.076   0.296   1.370  1.00  0.00     0.002 C 
HETATM   22  C22 UNL     1       7.597   0.334  -0.051  1.00  0.00     0.020 C 
ENDBRANCH  12  13
ENDBRANCH  10  12
BRANCH  10  23
HETATM   23  C24 UNL     1       2.610   3.648   0.259  1.00  0.00     0.206 C 
HETATM   24  O6  UNL     1       2.061   4.419  -0.527  1.00  0.00    -0.646 OA
HETATM   25  O7  UNL     1       3.516   4.047   1.183  1.00  0.00    -0.646 OA
ENDBRANCH  10  23
ENDBRANCH   8  10
ENDBRANCH   5   6
BRANCH   1  26
HETATM   26  C7  UNL     1      -2.705  -0.043  -1.491  1.00  0.00     0.138 C 
BRANCH  26  27
HETATM   27  C6  UNL     1      -3.872  -0.840  -1.257  1.00  0.00     0.168 C 
BRANCH  27  28
HETATM   28  N1  UNL     1      -4.289  -0.533   0.150  1.00  0.00    -0.324 N 
HETATM   29  C5  UNL     1      -5.426   0.179   0.487  1.00  0.00     0.362 C 
HETATM   30  O2  UNL     1      -6.215   0.635  -0.374  1.00  0.00    -0.238 OA
ATOM     31  H1  UNL     1      -3.696  -0.871   0.908  1.00  0.00     0.165 HD
BRANCH  29  32
HETATM   32  O1  UNL     1      -5.728   0.410   1.800  1.00  0.00    -0.294 OA
BRANCH  32  33
HETATM   33  C2  UNL     1      -6.804   1.093   2.327  1.00  0.00     0.061 C 
HETATM   34  C1  UNL     1      -6.921   2.537   1.917  1.00  0.00     0.046 C 
HETATM   35  C3  UNL     1      -8.084   0.394   1.900  1.00  0.00     0.046 C 
HETATM   36  C4  UNL     1      -6.755   1.026   3.840  1.00  0.00     0.046 C 
ENDBRANCH  32  33
ENDBRANCH  29  32
ENDBRANCH  27  28
BRANCH  27  37
HETATM   37  C25 UNL     1      -3.924  -2.292  -1.462  1.00  0.00    -0.023 C 
HETATM   38  C26 UNL     1      -3.015  -3.139  -0.643  1.00  0.00     0.017 C 
HETATM   39  C27 UNL     1      -5.381  -2.699  -0.974  1.00  0.00     0.017 C 
HETATM   40  C28 UNL     1      -3.935  -2.711  -2.888  1.00  0.00     0.017 C 
ENDBRANCH  27  37
ENDBRANCH  26  27
BRANCH  26  41
HETATM   41  O3  UNL     1      -2.752   1.104  -0.793  1.00  0.00    -0.348 OA
ATOM     42  H3  UNL     1      -1.978   1.633  -0.948  1.00  0.00     0.219 HD
ENDBRANCH  26  41
ENDBRANCH   1  26
TORSDOF 12
