REMARK  9 active torsions:
REMARK  status: ('A' for Active; 'I' for Inactive)
REMARK    1  A    between atoms: C2_2  and  C3_3 
REMARK    2  A    between atoms: C2_2  and  C4_6 
REMARK    3  A    between atoms: C3_3  and  O1_4 
REMARK    4  A    between atoms: C4_6  and  C5_7 
REMARK    5  A    between atoms: C9_11  and  O2_12 
REMARK    6  A    between atoms: N1_19  and  C15_20 
REMARK    7  A    between atoms: C15_20  and  C16_21 
REMARK    8  A    between atoms: N2_28  and  C23_29 
REMARK    9  A    between atoms: C23_29  and  C24_30 
ROOT
HETATM    1  C5  UNL     1      -2.272  -0.733  -0.166  1.00  0.00    -0.016 C 
HETATM    2  C6  UNL     1      -1.758  -1.169  -1.444  1.00  0.00    -0.018 A 
HETATM    3  C7  UNL     1      -2.457  -2.017  -2.277  1.00  0.00     0.015 A 
HETATM    4  C8  UNL     1      -1.855  -2.391  -3.471  1.00  0.00     0.040 A 
HETATM    5  C9  UNL     1      -0.608  -1.950  -3.845  1.00  0.00     0.099 A 
HETATM    6  C10 UNL     1       0.068  -1.098  -2.987  1.00  0.00     0.111 A 
HETATM    7  C11 UNL     1      -0.503  -0.731  -1.836  1.00  0.00     0.002 A 
HETATM    8  C12 UNL     1       0.377   0.230  -1.137  1.00  0.00     0.040 C 
HETATM    9  C13 UNL     1      -0.246   1.593  -1.516  1.00  0.00     0.049 C 
HETATM   10  C14 UNL     1      -1.510   1.928  -0.842  1.00  0.00     0.274 C 
HETATM   11  N1  UNL     1      -1.553   1.469   0.509  1.00  0.00     0.099 N 
HETATM   12  C19 UNL     1      -1.279   0.080   0.597  1.00  0.00     0.271 C 
HETATM   13  C20 UNL     1       0.201  -0.088   0.286  1.00  0.00     0.053 C 
HETATM   14  C21 UNL     1       0.857   0.753   1.326  1.00  0.00     0.005 C 
HETATM   15  C22 UNL     1       2.124   1.433   1.084  1.00  0.00     0.087 C 
HETATM   16  N2  UNL     1       3.299   0.748   0.801  1.00  0.00    -0.361 N 
HETATM   17  C27 UNL     1       3.340  -0.375  -0.007  1.00  0.00     0.028 C 
HETATM   18  C28 UNL     1       2.832  -1.660   0.659  1.00  0.00     0.285 C 
HETATM   19  N3  UNL     1       1.673  -2.046  -0.118  1.00  0.00    -0.069 N 
ATOM     20  H31 UNL     1       1.617  -3.049  -0.292  1.00  0.00     0.277 HD
ATOM     21  H32 UNL     1       1.723  -1.753  -1.094  1.00  0.00     0.277 HD
HETATM   22  C29 UNL     1       0.526  -1.520   0.582  1.00  0.00     0.250 C 
HETATM   23  C30 UNL     1       2.873  -0.349  -1.407  1.00  0.00     0.139 C 
HETATM   24  C31 UNL     1       3.950   0.270  -2.249  1.00  0.00     0.139 C 
HETATM   25  O3  UNL     1       5.145   0.261  -2.107  1.00  0.00    -0.297 OA
HETATM   26  C32 UNL     1       3.239   0.941  -3.365  1.00  0.00     0.082 C 
HETATM   27  C33 UNL     1       2.059   1.499  -2.546  1.00  0.00     0.048 C 
HETATM   28  C34 UNL     1       1.629   0.187  -1.841  1.00  0.00     0.097 C 
HETATM   29  O4  UNL     1       1.276  -0.512  -3.070  1.00  0.00    -0.334 OA
ENDROOT
BRANCH   1  30
HETATM   30  C4  UNL     1      -3.057  -1.637   0.723  1.00  0.00    -0.010 C 
BRANCH  30  31
HETATM   31  C2  UNL     1      -4.342  -2.223   0.322  1.00  0.00     0.028 C 
HETATM   32  C1  UNL     1      -5.436  -1.265  -0.049  1.00  0.00     0.016 C 
BRANCH  31  33
HETATM   33  C3  UNL     1      -4.895  -2.858   1.668  1.00  0.00     0.172 C 
BRANCH  33  34
HETATM   34  O1  UNL     1      -5.077  -1.861   2.591  1.00  0.00    -0.400 OA
ATOM     35  H1  UNL     1      -5.408  -2.241   3.396  1.00  0.00     0.209 HD
ENDBRANCH  33  34
ENDBRANCH  31  33
ENDBRANCH  30  31
ENDBRANCH   1  30
BRANCH  11  36
HETATM   36  C15 UNL     1      -2.669   1.953   1.262  1.00  0.00     0.278 C 
BRANCH  36  37
HETATM   37  C16 UNL     1      -2.526   3.442   1.477  1.00  0.00     0.014 A 
HETATM   38  C17 UNL     1      -3.655   4.101   2.268  1.00  0.00     0.007 A 
HETATM   39  C18 UNL     1      -3.549   4.357   0.773  1.00  0.00     0.007 A 
ENDBRANCH  36  37
ENDBRANCH  11  36
BRANCH   5  40
HETATM   40  O2  UNL     1      -0.070  -2.361  -5.044  1.00  0.00    -0.358 OA
ATOM     41  H2  UNL     1       0.792  -2.056  -5.302  1.00  0.00     0.217 HD
ENDBRANCH   5  40
BRANCH  16  42
HETATM   42  C23 UNL     1       4.189   0.642   1.938  1.00  0.00     0.132 C 
BRANCH  42  43
HETATM   43  C24 UNL     1       5.489  -0.019   1.693  1.00  0.00     0.004 A 
HETATM   44  C25 UNL     1       6.365  -0.089   2.952  1.00  0.00     0.007 A 
HETATM   45  C26 UNL     1       5.920  -1.307   2.234  1.00  0.00     0.007 A 
ENDBRANCH  42  43
ENDBRANCH  16  42
TORSDOF 9
