REMARK  7 active torsions:
REMARK  status: ('A' for Active; 'I' for Inactive)
REMARK    1  A    between atoms: O1_2  and  C2_3 
REMARK    2  A    between atoms: C5_6  and  N1_7 
REMARK       I    between atoms: N1_7  and  C6_9 
REMARK       I    between atoms: C6_9  and  N2_11 
REMARK    3  A    between atoms: N2_11  and  C7_13 
REMARK    4  A    between atoms: C10_16  and  N3_17 
REMARK    5  A    between atoms: N3_17  and  S1_19 
REMARK    6  A    between atoms: S1_19  and  C11_22 
REMARK    7  A    between atoms: C23_35  and  O5_36 
ROOT
HETATM    1  N1  UNL     1      -2.458  -0.273   0.478  1.00  0.00    -0.338 N 
ATOM      2  H1  UNL     1      -2.281  -0.696   1.389  1.00  0.00     0.164 HD
HETATM    3  C6  UNL     1      -1.359   0.172  -0.261  1.00  0.00     0.316 C 
HETATM    4  O2  UNL     1      -1.563   0.702  -1.399  1.00  0.00    -0.247 OA
HETATM    5  N2  UNL     1      -0.041   0.061   0.193  1.00  0.00    -0.339 N 
ATOM      6  H2  UNL     1       0.116  -0.366   1.106  1.00  0.00     0.164 HD
ENDROOT
BRANCH   5   7
HETATM    7  C7  UNL     1       1.117   0.515  -0.554  1.00  0.00     0.086 C 
HETATM    8  C8  UNL     1       2.050  -0.669  -0.706  1.00  0.00     0.027 C 
HETATM    9  C9  UNL     1       3.253  -0.556   0.162  1.00  0.00     0.028 C 
HETATM   10  C10 UNL     1       4.048   0.660  -0.232  1.00  0.00     0.093 C 
HETATM   11  C18 UNL     1       3.174   1.878  -0.116  1.00  0.00     0.028 C 
HETATM   12  C19 UNL     1       1.759   1.618   0.261  1.00  0.00     0.027 C 
BRANCH  10  13
HETATM   13  N3  UNL     1       4.656   0.546  -1.510  1.00  0.00    -0.314 N 
ATOM     14  H3  UNL     1       4.102   0.462  -2.362  1.00  0.00     0.172 HD
BRANCH  13  15
HETATM   15  S1  UNL     1       6.366   0.556  -1.547  1.00  0.00     0.231 S 
HETATM   16  O3  UNL     1       6.781   1.914  -0.991  1.00  0.00    -0.206 OA
HETATM   17  O4  UNL     1       6.765   0.473  -3.014  1.00  0.00    -0.206 OA
BRANCH  15  18
HETATM   18  C11 UNL     1       7.130  -0.754  -0.689  1.00  0.00     0.133 C 
HETATM   19  C12 UNL     1       7.124  -0.658   0.809  1.00  0.00     0.026 C 
HETATM   20  C13 UNL     1       8.478  -1.169   1.263  1.00  0.00    -0.013 C 
HETATM   21  C14 UNL     1       9.442  -0.014   1.090  1.00  0.00     0.005 C 
HETATM   22  C17 UNL     1       8.896  -2.016   0.068  1.00  0.00     0.010 C 
HETATM   23  C15 UNL     1       9.393   0.210  -0.430  1.00  0.00     0.006 C 
HETATM   24  C16 UNL     1       8.617  -0.917  -0.991  1.00  0.00     0.006 C 
ENDBRANCH  15  18
ENDBRANCH  13  15
ENDBRANCH  10  13
ENDBRANCH   5   7
BRANCH   1  25
HETATM   25  C5  UNL     1      -3.848  -0.171   0.029  1.00  0.00     0.091 C 
HETATM   26  C4  UNL     1      -4.471  -1.466  -0.114  1.00  0.00     0.028 C 
HETATM   27  C3  UNL     1      -5.650  -1.862   0.685  1.00  0.00     0.041 C 
HETATM   28  C2  UNL     1      -6.971  -1.241   0.297  1.00  0.00     0.078 C 
HETATM   29  C22 UNL     1      -7.282  -0.102   1.235  1.00  0.00     0.116 C 
HETATM   30  C26 UNL     1      -6.961  -0.288  -0.837  1.00  0.00     0.078 C 
HETATM   31  S2  UNL     1      -6.256  -0.016   2.692  1.00  0.00    -0.158 SA
HETATM   32  C23 UNL     1      -6.932   0.862   0.147  1.00  0.00     0.079 C 
HETATM   33  C21 UNL     1      -4.610   0.588   2.325  1.00  0.00     0.081 C 
HETATM   34  C20 UNL     1      -4.484   0.889   0.866  1.00  0.00     0.020 C 
HETATM   35  C25 UNL     1      -5.661   1.560   0.250  1.00  0.00     0.047 C 
BRANCH  28  36
HETATM   36  O1  UNL     1      -7.979  -2.178   0.148  1.00  0.00    -0.384 OA
HETATM   37  C1  UNL     1      -9.210  -1.749  -0.205  1.00  0.00     0.202 C 
ENDBRANCH  28  36
BRANCH  32  38
HETATM   38  O5  UNL     1      -7.978   1.747  -0.132  1.00  0.00    -0.384 OA
HETATM   39  C24 UNL     1      -7.660   2.631  -1.131  1.00  0.00     0.202 C 
ENDBRANCH  32  38
ENDBRANCH   1  25
TORSDOF 7
