REMARK  7 active torsions:
REMARK  status: ('A' for Active; 'I' for Inactive)
REMARK       I    between atoms: N1_2  and  C2_4 
REMARK    1  A    between atoms: C2_4  and  C3_6 
REMARK    2  A    between atoms: C3_6  and  C4_7 
REMARK    3  A    between atoms: C18_24  and  O2_25 
REMARK    4  A    between atoms: O2_25  and  S1_26 
REMARK    5  A    between atoms: S1_26  and  C19_29 
REMARK    6  A    between atoms: C19_29  and  C20_30 
REMARK    7  A    between atoms: C20_30  and  O5_33 
ROOT
HETATM    1  C4  UNL     1      -1.001   1.523   1.095  1.00  0.00     0.200 C 
HETATM    2  N2  UNL     1      -1.065   1.892  -0.361  1.00  0.00    -0.070 N 
ATOM      3  H21 UNL     1      -0.230   1.702  -0.915  1.00  0.00     0.277 HD
ATOM      4  H22 UNL     1      -1.068   2.889  -0.577  1.00  0.00     0.277 HD
HETATM    5  C5  UNL     1      -2.242   1.161  -0.714  1.00  0.00     0.238 C 
HETATM    6  C6  UNL     1      -2.205  -0.166   0.094  1.00  0.00     0.023 C 
HETATM    7  C7  UNL     1      -2.461  -1.218  -0.982  1.00  0.00    -0.004 C 
HETATM    8  C8  UNL     1      -3.272  -2.402  -0.505  1.00  0.00     0.006 C 
HETATM    9  C9  UNL     1      -2.514  -3.636  -0.212  1.00  0.00     0.006 C 
HETATM   10  C10 UNL     1      -0.979  -3.494  -0.158  1.00  0.00    -0.006 C 
HETATM   11  C11 UNL     1      -0.648  -3.302   1.253  1.00  0.00     0.006 C 
HETATM   12  C12 UNL     1      -1.207  -2.179   2.010  1.00  0.00     0.014 C 
HETATM   13  C13 UNL     1      -0.473  -0.852   1.888  1.00  0.00    -0.015 C 
HETATM   14  C14 UNL     1      -0.953  -0.119   3.187  1.00  0.00     0.020 C 
HETATM   15  C15 UNL     1       0.969  -1.185   2.030  1.00  0.00    -0.076 C 
HETATM   16  C16 UNL     1       1.274  -1.374   3.543  1.00  0.00     0.044 C 
HETATM   17  C17 UNL     1       1.987  -1.351   1.279  1.00  0.00     0.009 C 
HETATM   18  C18 UNL     1       2.390  -1.323  -0.141  1.00  0.00     0.165 C 
HETATM   19  C23 UNL     1       2.026  -2.517  -0.994  1.00  0.00     0.043 C 
HETATM   20  C24 UNL     1       0.721  -2.299  -1.680  1.00  0.00    -0.003 C 
HETATM   21  C25 UNL     1       0.540  -1.595  -2.816  1.00  0.00     0.006 C 
HETATM   22  C26 UNL     1      -0.973  -1.608  -3.140  1.00  0.00     0.006 C 
HETATM   23  C27 UNL     1      -1.315  -1.547  -1.710  1.00  0.00    -0.001 C 
HETATM   24  C28 UNL     1      -0.560  -2.829  -1.320  1.00  0.00    -0.033 C 
HETATM   25  C29 UNL     1      -0.853  -3.872  -2.451  1.00  0.00     0.016 C 
HETATM   26  C30 UNL     1      -0.951   0.007   0.802  1.00  0.00     0.035 C 
ENDROOT
BRANCH  18  27
HETATM   27  O2  UNL     1       3.786  -1.113  -0.302  1.00  0.00    -0.266 OA
BRANCH  27  28
HETATM   28  S1  UNL     1       4.314   0.320  -0.783  1.00  0.00     0.268 S 
HETATM   29  O3  UNL     1       4.880   0.162  -2.197  1.00  0.00    -0.199 OA
HETATM   30  O4  UNL     1       5.421   0.943   0.001  1.00  0.00    -0.199 OA
BRANCH  28  31
HETATM   31  C19 UNL     1       3.027   1.531  -0.930  1.00  0.00     0.207 C 
BRANCH  31  32
HETATM   32  C20 UNL     1       3.544   2.888  -1.367  1.00  0.00     0.066 C 
HETATM   33  C21 UNL     1       4.538   3.476  -0.425  1.00  0.00     0.046 C 
HETATM   34  C22 UNL     1       4.019   2.843  -2.792  1.00  0.00     0.046 C 
BRANCH  32  35
HETATM   35  O5  UNL     1       2.402   3.722  -1.369  1.00  0.00    -0.390 OA
ATOM     36  H5  UNL     1       2.726   4.572  -1.643  1.00  0.00     0.210 HD
ENDBRANCH  32  35
ENDBRANCH  31  32
ENDBRANCH  28  31
ENDBRANCH  27  28
ENDBRANCH  18  27
BRANCH   1  37
HETATM   37  C3  UNL     1      -2.223   2.124   1.624  1.00  0.00     0.136 C 
BRANCH  37  38
HETATM   38  C2  UNL     1      -2.254   3.628   1.377  1.00  0.00     0.219 C 
HETATM   39  N1  UNL     1      -3.336   4.418   1.822  1.00  0.00    -0.365 N 
HETATM   40  C1  UNL     1      -3.337   5.845   1.570  1.00  0.00     0.149 C 
ATOM     41  H1  UNL     1      -4.115   3.986   2.319  1.00  0.00     0.161 HD
HETATM   42  O1  UNL     1      -1.324   4.202   0.774  1.00  0.00    -0.274 OA
ENDBRANCH  37  38
ENDBRANCH   1  37
TORSDOF 7
