REMARK  2 active torsions:
REMARK  status: ('A' for Active; 'I' for Inactive)
REMARK    1  A    between atoms: C4_5  and  O1_6 
REMARK    2  A    between atoms: N1_8  and  C5_9 
ROOT
HETATM    1  C1  UNL     1       4.349   0.887  -0.049  1.00  0.00     0.062 C 
HETATM    2  C2  UNL     1       3.508  -0.231   0.401  1.00  0.00     0.025 C 
HETATM    3  S1  UNL     1       4.048  -1.207   1.577  1.00  0.00    -0.084 SA
HETATM    4  C3  UNL     1       2.213  -0.462  -0.195  1.00  0.00     0.102 A 
HETATM    5  C4  UNL     1       0.962  -0.101   0.317  1.00  0.00     0.175 A 
HETATM    6  N1  UNL     1       0.016  -0.497  -0.539  1.00  0.00    -0.263 N 
HETATM    7  N2  UNL     1       0.609  -1.092  -1.571  1.00  0.00    -0.261 N 
ATOM      8  H2  UNL     1       0.120  -1.489  -2.373  1.00  0.00     0.190 HD
HETATM    9  C10 UNL     1       1.937  -1.095  -1.407  1.00  0.00     0.276 A 
HETATM   10  O2  UNL     1       2.796  -1.576  -2.192  1.00  0.00    -0.266 OA
ENDROOT
BRANCH   6  11
HETATM   11  C5  UNL     1      -1.386  -0.332  -0.413  1.00  0.00     0.110 C 
HETATM   12  C6  UNL     1      -1.862   1.094  -0.600  1.00  0.00     0.027 C 
HETATM   13  C7  UNL     1      -3.352   0.909  -0.279  1.00  0.00     0.002 C 
HETATM   14  C8  UNL     1      -3.411  -0.229   0.721  1.00  0.00     0.002 C 
HETATM   15  C9  UNL     1      -1.949  -0.654   0.936  1.00  0.00     0.027 C 
ENDBRANCH   6  11
BRANCH   5  16
HETATM   16  O1  UNL     1       0.829   0.553   1.518  1.00  0.00    -0.344 OA
ATOM     17  H1  UNL     1      -0.020   0.798   1.866  1.00  0.00     0.219 HD
ENDBRANCH   5  16
TORSDOF 2
