REMARK  3 active torsions:
REMARK  status: ('A' for Active; 'I' for Inactive)
REMARK    1  A    between atoms: C2_5  and  O2_6 
REMARK    2  A    between atoms: C3_8  and  S1_9 
REMARK    3  A    between atoms: S1_9  and  C4_10 
ROOT
HETATM    1  O1  UNL     1       5.250  -1.731  -0.242  1.00  0.00    -0.260 OA
HETATM    2  C1  UNL     1       4.280  -0.904  -0.089  1.00  0.00     0.291 A 
HETATM    3  N1  UNL     1       4.308   0.425  -0.205  1.00  0.00    -0.296 N 
ATOM      4  H1  UNL     1       5.172   0.913  -0.442  1.00  0.00     0.171 HD
HETATM    5  C2  UNL     1       3.198   1.084  -0.006  1.00  0.00     0.167 A 
HETATM    6  C3  UNL     1       2.075   0.374   0.309  1.00  0.00     0.097 A 
HETATM    7  S2  UNL     1       2.658  -1.230   0.308  1.00  0.00    -0.018 SA
ENDROOT
BRANCH   6   8
HETATM    8  S1  UNL     1       0.416   1.015   0.645  1.00  0.00    -0.111 SA
BRANCH   8   9
HETATM    9  C4  UNL     1      -0.657  -0.407   0.976  1.00  0.00     0.087 C 
HETATM   10  C5  UNL     1      -0.804  -1.183  -0.310  1.00  0.00     0.018 C 
HETATM   11  C6  UNL     1      -1.575  -0.268  -1.246  1.00  0.00     0.001 C 
HETATM   12  C7  UNL     1      -2.924   0.054  -0.733  1.00  0.00     0.003 C 
HETATM   13  C8  UNL     1      -3.117   0.077   0.723  1.00  0.00     0.038 C 
HETATM   14  C9  UNL     1      -1.934   0.027   1.592  1.00  0.00     0.184 C 
HETATM   15  F1  UNL     1      -2.164  -0.826   2.685  1.00  0.00    -0.248 F 
ENDBRANCH   8   9
ENDBRANCH   6   8
BRANCH   5  16
HETATM   16  O2  UNL     1       3.129   2.498  -0.108  1.00  0.00    -0.345 OA
ATOM     17  H2  UNL     1       2.322   2.977   0.037  1.00  0.00     0.219 HD
ENDBRANCH   5  16
TORSDOF 3
