REMARK  4 active torsions:
REMARK  status: ('A' for Active; 'I' for Inactive)
REMARK    1  A    between atoms: O1_1  and  N1_3 
REMARK    2  A    between atoms: C1_5  and  O2_6 
REMARK    3  A    between atoms: C1_5  and  C2_8 
REMARK    4  A    between atoms: C6_15  and  N3_16 
ROOT
HETATM    1  C2  UNL     1      -1.840  -0.251  -0.551  1.00  0.00     0.049 A 
HETATM    2  C3  UNL     1      -2.977  -0.943  -0.995  1.00  0.00     0.079 A 
HETATM    3  C4  UNL     1      -2.843  -2.245  -1.352  1.00  0.00     0.189 A 
HETATM    4  F1  UNL     1      -3.929  -2.955  -1.791  1.00  0.00    -0.186 F 
HETATM    5  N2  UNL     1      -1.665  -2.905  -1.300  1.00  0.00    -0.341 N 
ATOM      6  H2  UNL     1      -1.620  -3.885  -1.581  1.00  0.00     0.167 HD
HETATM    7  C5  UNL     1      -0.577  -2.293  -0.890  1.00  0.00     0.120 A 
HETATM    8  C6  UNL     1      -0.662  -0.943  -0.506  1.00  0.00     0.060 A 
ENDROOT
BRANCH   1   9
HETATM    9  C1  UNL     1      -1.967   1.165  -0.231  1.00  0.00     0.172 C 
HETATM   10  N1  UNL     1      -3.160   1.687  -0.282  1.00  0.00    -0.247 N 
ATOM     11  H1  UNL     1      -3.940   1.083  -0.539  1.00  0.00     0.196 HD
BRANCH  10  12
HETATM   12  O1  UNL     1      -3.422   3.001  -0.010  1.00  0.00    -0.288 OA
ATOM     13  H1  UNL     1      -4.292   3.382  -0.047  1.00  0.00     0.244 HD
ENDBRANCH  10  12
BRANCH   9  14
HETATM   14  O2  UNL     1      -0.947   2.014   0.119  1.00  0.00    -0.344 OA
ATOM     15  H2  UNL     1      -0.077   1.633   0.156  1.00  0.00     0.219 HD
ENDBRANCH   9  14
ENDBRANCH   1   9
BRANCH   8  16
HETATM   16  N3  UNL     1       0.537  -0.351  -0.002  1.00  0.00    -0.379 N 
HETATM   17  C7  UNL     1       0.824  -0.316   1.400  1.00  0.00     0.123 C 
HETATM   18  C8  UNL     1       2.310  -0.564   1.623  1.00  0.00     0.020 C 
HETATM   19  C9  UNL     1       3.165   0.402   0.887  1.00  0.00     0.003 C 
HETATM   20  C10 UNL     1       2.535   1.031  -0.325  1.00  0.00     0.020 C 
HETATM   21  C11 UNL     1       1.465   0.191  -0.952  1.00  0.00     0.123 C 
ENDBRANCH   8  16
TORSDOF 4
