REMARK  3 active torsions:
REMARK  status: ('A' for Active; 'I' for Inactive)
REMARK       I    between atoms: C2_2  and  N1_4 
REMARK    1  A    between atoms: N2_6  and  C3_8 
REMARK    2  A    between atoms: C6_14  and  N4_15 
REMARK    3  A    between atoms: N4_15  and  O2_17 
ROOT
HETATM    1  C3  UNL     1       0.540  -0.559  -0.101  1.00  0.00     0.150 A 
HETATM    2  N3  UNL     1       1.130  -1.700  -0.435  1.00  0.00    -0.348 N 
ATOM      3  H3  UNL     1       0.641  -2.543  -0.737  1.00  0.00     0.167 HD
HETATM    4  C4  UNL     1       2.483  -1.585  -0.317  1.00  0.00     0.111 A 
HETATM    5  C5  UNL     1       2.772  -0.301   0.115  1.00  0.00     0.058 A 
HETATM    6 BR1  UNL     1       4.508   0.420   0.451  1.00  0.00    -0.047 Br
HETATM    7  C6  UNL     1       1.547   0.324   0.244  1.00  0.00     0.118 A 
ENDROOT
BRANCH   1   8
HETATM    8  N2  UNL     1      -0.836  -0.252  -0.084  1.00  0.00    -0.281 N 
HETATM    9  N1  UNL     1      -1.591  -0.325  -1.095  1.00  0.00    -0.269 N 
HETATM   10  C2  UNL     1      -2.969   0.022  -0.913  1.00  0.00     0.232 C 
ATOM     11  H1  UNL     1      -1.234  -0.619  -2.004  1.00  0.00     0.190 HD
HETATM   12  C1  UNL     1      -3.599  -0.075   0.447  1.00  0.00     0.119 C 
HETATM   13  O1  UNL     1      -3.676   0.415  -1.894  1.00  0.00    -0.272 OA
ATOM     14  H2  UNL     1      -1.248   0.048   0.800  1.00  0.00     0.188 HD
ENDBRANCH   1   8
BRANCH   7  15
HETATM   15  N4  UNL     1       1.348   1.654   0.662  1.00  0.00    -0.264 N 
ATOM     16  H4  UNL     1       0.399   2.023   0.725  1.00  0.00     0.194 HD
BRANCH  15  17
HETATM   17  O2  UNL     1       2.393   2.450   0.981  1.00  0.00    -0.289 OA
ATOM     18  H2  UNL     1       2.259   3.347   1.263  1.00  0.00     0.244 HD
ENDBRANCH  15  17
ENDBRANCH   7  15
TORSDOF 3
