REMARK  2 active torsions:
REMARK  status: ('A' for Active; 'I' for Inactive)
REMARK    1  A    between atoms: C2_2  and  C3_3 
REMARK    2  A    between atoms: C2_2  and  C6_10 
ROOT
HETATM    1  C6  UNL     1       0.712  -0.363  -0.278  1.00  0.00     0.093 C 
HETATM    2  C7  UNL     1       0.506   1.101  -0.487  1.00  0.00     0.036 C 
HETATM    3  C8  UNL     1       1.728   1.953  -0.490  1.00  0.00     0.084 C 
HETATM    4  S2  UNL     1       3.260   0.966  -0.340  1.00  0.00    -0.095 SA
HETATM    5  C9  UNL     1       2.861  -0.316   0.832  1.00  0.00     0.134 C 
HETATM    6  N2  UNL     1       3.732  -0.768   1.611  1.00  0.00    -0.380 N 
ATOM      7  H21 UNL     1       3.504  -1.502   2.282  1.00  0.00     0.158 HD
ATOM      8  H22 UNL     1       4.699  -0.443   1.620  1.00  0.00     0.158 HD
HETATM    9  N3  UNL     1       1.502  -0.773   0.819  1.00  0.00    -0.366 N 
ATOM     10  H3  UNL     1       1.126  -1.362   1.562  1.00  0.00     0.162 HD
ENDROOT
BRANCH   1  11
HETATM   11  C2  UNL     1      -0.610  -1.077  -0.484  1.00  0.00     0.058 C 
HETATM   12  C1  UNL     1      -1.019  -0.834  -1.972  1.00  0.00     0.018 C 
BRANCH  11  13
HETATM   13  C3  UNL     1      -1.719  -0.485   0.363  1.00  0.00     0.061 A 
HETATM   14  N1  UNL     1      -2.501   0.442  -0.125  1.00  0.00    -0.360 N 
HETATM   15  C4  UNL     1      -3.432   0.993   0.596  1.00  0.00     0.141 A 
ATOM     16  H1  UNL     1      -2.378   0.740  -1.093  1.00  0.00     0.165 HD
HETATM   17  S1  UNL     1      -3.259   0.198   2.088  1.00  0.00    -0.053 SA
HETATM   18  C5  UNL     1      -1.935  -0.842   1.664  1.00  0.00     0.181 A 
HETATM   19  F1  UNL     1      -1.330  -1.772   2.465  1.00  0.00    -0.196 F 
ENDBRANCH  11  13
ENDBRANCH   1  11
TORSDOF 2
