REMARK  8 active torsions:
REMARK  status: ('A' for Active; 'I' for Inactive)
REMARK    1  A    between atoms: O1_2  and  C2_3 
REMARK    2  A    between atoms: C4_6  and  N1_7 
REMARK    3  A    between atoms: N1_7  and  N2_9 
REMARK    4  A    between atoms: N2_9  and  N3_10 
REMARK    5  A    between atoms: C5_13  and  S1_14 
REMARK    6  A    between atoms: S1_14  and  C6_15 
REMARK    7  A    between atoms: C6_15  and  C7_16 
REMARK    8  A    between atoms: C7_16  and  O3_17 
ROOT
HETATM    1  C2  UNL     1      -1.587   0.241   0.409  1.00  0.00     0.330 C 
HETATM    2  C3  UNL     1      -1.158   0.769   1.730  1.00  0.00     0.271 C 
HETATM    3  O2  UNL     1      -0.117  -0.041   2.273  1.00  0.00    -0.325 OA
HETATM    4  C4  UNL     1       1.000  -0.402   1.509  1.00  0.00     0.203 C 
HETATM    5  C5  UNL     1       0.810  -0.597   0.223  1.00  0.00     0.125 C 
HETATM    6  N4  UNL     1      -0.542  -0.490  -0.256  1.00  0.00    -0.315 N 
HETATM    7  C8  UNL     1      -0.941  -1.151  -1.509  1.00  0.00     0.130 C 
HETATM    8  C9  UNL     1      -2.098  -0.433  -2.115  1.00  0.00     0.048 C 
HETATM    9  C10 UNL     1      -2.238   1.001  -1.776  1.00  0.00     0.240 C 
HETATM   10  N5  UNL     1      -1.938   1.379  -0.437  1.00  0.00    -0.021 N 
ATOM     11  H51 UNL     1      -1.207   2.090  -0.414  1.00  0.00     0.283 HD
ATOM     12  H52 UNL     1      -2.704   1.915  -0.029  1.00  0.00     0.283 HD
ENDROOT
BRANCH   4  13
HETATM   13  N1  UNL     1       2.217  -0.526   2.183  1.00  0.00    -0.191 N 
ATOM     14  H1  UNL     1       3.009   0.013   1.833  1.00  0.00     0.206 HD
BRANCH  13  15
HETATM   15  N2  UNL     1       2.403  -1.240   3.170  1.00  0.00    -0.241 NA
BRANCH  15  16
HETATM   16  N3  UNL     1       2.572  -2.225   3.900  1.00  0.00    -0.260 N 
ATOM     17  H32 UNL     1       2.514  -2.907   3.144  1.00  0.00     0.193 HD
ATOM     18  H31 UNL     1       2.726  -2.816   4.717  1.00  0.00     0.193 HD
ENDBRANCH  15  16
ENDBRANCH  13  15
ENDBRANCH   4  13
BRANCH   5  19
HETATM   19  S1  UNL     1       2.081  -1.046  -0.877  1.00  0.00    -0.106 SA
BRANCH  19  20
HETATM   20  C6  UNL     1       3.760  -0.819  -0.391  1.00  0.00     0.107 C 
BRANCH  20  21
HETATM   21  C7  UNL     1       4.258   0.587  -0.313  1.00  0.00     0.174 C 
BRANCH  21  22
HETATM   22  O3  UNL     1       4.162   1.223  -1.573  1.00  0.00    -0.400 OA
ATOM     23  H3  UNL     1       4.479   2.117  -1.523  1.00  0.00     0.209 HD
ENDBRANCH  21  22
ENDBRANCH  20  21
ENDBRANCH  19  20
ENDBRANCH   5  19
BRANCH   1  24
HETATM   24  O1  UNL     1      -2.706  -0.538   0.515  1.00  0.00    -0.342 OA
HETATM   25  C1  UNL     1      -3.845   0.045   0.984  1.00  0.00     0.206 C 
ENDBRANCH   1  24
TORSDOF 8
