REMARK  6 active torsions:
REMARK  status: ('A' for Active; 'I' for Inactive)
REMARK    1  A    between atoms: C4_5  and  O1_6 
REMARK    2  A    between atoms: C4_5  and  C5_8 
REMARK    3  A    between atoms: C5_8  and  S2_9 
REMARK    4  A    between atoms: S2_9  and  C6_10 
REMARK    5  A    between atoms: C6_10  and  C7_11 
REMARK    6  A    between atoms: C7_11  and  C8_12 
ROOT
HETATM    1  S2  UNL     1       1.477  -2.129  -0.998  1.00  0.00    -0.165 SA
ENDROOT
BRANCH   1   2
HETATM    2  C5  UNL     1       0.105  -2.420   0.095  1.00  0.00     0.123 C 
BRANCH   2   3
HETATM    3  C4  UNL     1      -1.061  -1.504  -0.065  1.00  0.00     0.122 C 
HETATM    4  S1  UNL     1      -0.659   0.236   0.215  1.00  0.00    -0.129 SA
HETATM    5  C3  UNL     1      -2.050   1.278  -0.214  1.00  0.00     0.091 C 
HETATM    6  C2  UNL     1      -3.363   0.854   0.329  1.00  0.00     0.052 C 
HETATM    7  C1  UNL     1      -4.451   1.412  -0.588  1.00  0.00     0.022 C 
HETATM    8  S3  UNL     1      -3.634  -0.898   0.491  1.00  0.00    -0.160 SA
HETATM    9  C9  UNL     1      -2.163  -1.836   0.940  1.00  0.00     0.124 C 
BRANCH   3  10
HETATM   10  O1  UNL     1      -1.671  -1.675  -1.333  1.00  0.00    -0.378 OA
ATOM     11  H1  UNL     1      -1.882  -2.589  -1.480  1.00  0.00     0.211 HD
ENDBRANCH   3  10
ENDBRANCH   2   3
ENDBRANCH   1   2
BRANCH   1  12
HETATM   12  C6  UNL     1       2.365  -0.601  -0.744  1.00  0.00     0.081 C 
BRANCH  12  13
HETATM   13  C7  UNL     1       3.085  -0.552   0.585  1.00  0.00     0.089 C 
BRANCH  13  14
HETATM   14  C8  UNL     1       3.780   0.756   0.674  1.00  0.00     0.110 A 
HETATM   15  N1  UNL     1       3.294   1.906   1.174  1.00  0.00    -0.271 N 
HETATM   16  N2  UNL     1       4.237   2.847   1.071  1.00  0.00    -0.005 NA
ATOM     17  H1  UNL     1       2.362   2.038   1.566  1.00  0.00     0.185 HD
HETATM   18  N3  UNL     1       5.309   2.313   0.514  1.00  0.00    -0.225 N 
HETATM   19  N4  UNL     1       5.030   1.057   0.277  1.00  0.00    -0.275 N 
ATOM     20  H3  UNL     1       6.187   2.789   0.308  1.00  0.00     0.205 HD
ATOM     21  H4  UNL     1       5.675   0.393  -0.152  1.00  0.00     0.189 HD
ENDBRANCH  13  14
ENDBRANCH  12  13
ENDBRANCH   1  12
TORSDOF 6
