REMARK  5 active torsions:
REMARK  status: ('A' for Active; 'I' for Inactive)
REMARK    1  A    between atoms: C2_2  and  C4_5 
REMARK       I    between atoms: C4_5  and  N2_7 
REMARK    2  A    between atoms: N2_7  and  C5_9 
REMARK    3  A    between atoms: C6_14  and  S1_15 
REMARK    4  A    between atoms: S1_15  and  C7_16 
REMARK    5  A    between atoms: C7_16  and  C9_18 
ROOT
HETATM    1  C1  UNL     1       4.909  -1.063   0.832  1.00  0.00     0.035 C 
HETATM    2  C2  UNL     1       4.682  -0.415  -0.522  1.00  0.00     0.181 C 
HETATM    3  C3  UNL     1       5.352   0.881  -0.547  1.00  0.00     0.073 C 
HETATM    4  N1  UNL     1       5.880   1.890  -0.585  1.00  0.00    -0.196 NA
ENDROOT
BRANCH   2   5
HETATM    5  C4  UNL     1       3.230  -0.270  -0.789  1.00  0.00     0.241 C 
HETATM    6  O1  UNL     1       2.765  -0.854  -1.811  1.00  0.00    -0.272 OA
HETATM    7  N2  UNL     1       2.409   0.494   0.072  1.00  0.00    -0.305 N 
ATOM      8  H2  UNL     1       2.817   0.952   0.887  1.00  0.00     0.171 HD
BRANCH   7   9
HETATM    9  C5  UNL     1       1.021   0.628  -0.191  1.00  0.00     0.168 A 
HETATM   10  N3  UNL     1       0.331   0.103  -1.201  1.00  0.00    -0.278 N 
HETATM   11  N4  UNL     1      -0.910   0.320  -1.291  1.00  0.00    -0.286 N 
ATOM     12  H3  UNL     1       0.802  -0.472  -1.899  1.00  0.00     0.189 HD
HETATM   13  C6  UNL     1      -1.521   1.069  -0.380  1.00  0.00     0.130 A 
ATOM     14  H4  UNL     1      -1.443  -0.080  -2.063  1.00  0.00     0.188 HD
HETATM   15  S2  UNL     1      -0.212   1.466   0.645  1.00  0.00    -0.026 SA
BRANCH  13  16
HETATM   16  S1  UNL     1      -3.270   1.518  -0.295  1.00  0.00    -0.088 SA
BRANCH  16  17
HETATM   17  C7  UNL     1      -4.077   0.210   0.678  1.00  0.00     0.151 C 
HETATM   18  C8  UNL     1      -5.575   0.498   0.813  1.00  0.00     0.033 C 
BRANCH  17  19
HETATM   19  C9  UNL     1      -3.928  -1.055  -0.086  1.00  0.00     0.187 C 
HETATM   20  O2  UNL     1      -3.317  -2.054   0.408  1.00  0.00    -0.647 OA
HETATM   21  O3  UNL     1      -4.460  -1.149  -1.354  1.00  0.00    -0.647 OA
ENDBRANCH  17  19
ENDBRANCH  16  17
ENDBRANCH  13  16
ENDBRANCH   7   9
ENDBRANCH   2   5
TORSDOF 5
