REMARK  7 active torsions:
REMARK  status: ('A' for Active; 'I' for Inactive)
REMARK    1  A    between atoms: N1_1  and  N2_4 
REMARK    2  A    between atoms: C1_5  and  O1_6 
REMARK    3  A    between atoms: O1_6  and  C2_7 
REMARK    4  A    between atoms: C2_7  and  N3_9 
REMARK    5  A    between atoms: N3_9  and  C3_11 
REMARK    6  A    between atoms: C3_11  and  C4_12 
REMARK    7  A    between atoms: C5_13  and  C6_14 
ROOT
HETATM    1  C2  UNL     1      -1.991  -0.174  -1.143  1.00  0.00     0.218 C 
HETATM    2  S1  UNL     1      -2.427   0.473  -2.572  1.00  0.00    -0.033 SA
ENDROOT
BRANCH   1   3
HETATM    3  O1  UNL     1      -2.786  -0.054  -0.026  1.00  0.00    -0.249 OA
BRANCH   3   4
HETATM    4  C1  UNL     1      -3.955   0.655  -0.046  1.00  0.00     0.277 A 
HETATM    5  N2  UNL     1      -4.772   0.808   1.009  1.00  0.00    -0.164 N 
HETATM    6  C11 UNL     1      -5.809   1.556   0.614  1.00  0.00     0.411 A 
HETATM    7  O2  UNL     1      -5.593   1.832  -0.656  1.00  0.00    -0.176 OA
HETATM    8  O3  UNL     1      -6.785   1.908   1.343  1.00  0.00    -0.234 OA
HETATM    9  N4  UNL     1      -4.501   1.311  -1.076  1.00  0.00    -0.217 N 
ATOM     10  H4  UNL     1      -4.119   1.383  -2.019  1.00  0.00     0.199 HD
BRANCH   5  11
HETATM   11  N1  UNL     1      -4.604   0.294   2.304  1.00  0.00    -0.331 N 
ATOM     12  H12 UNL     1      -3.814  -0.276   2.605  1.00  0.00     0.177 HD
ATOM     13  H11 UNL     1      -5.224   0.410   3.105  1.00  0.00     0.177 HD
ENDBRANCH   5  11
ENDBRANCH   3   4
ENDBRANCH   1   3
BRANCH   1  14
HETATM   14  N3  UNL     1      -0.741  -0.880  -1.085  1.00  0.00    -0.358 N 
ATOM     15  H3  UNL     1      -0.164  -0.960  -1.922  1.00  0.00     0.162 HD
BRANCH  14  16
HETATM   16  C3  UNL     1      -0.301  -1.471   0.142  1.00  0.00     0.149 C 
BRANCH  16  17
HETATM   17  C4  UNL     1       1.024  -2.084   0.193  1.00  0.00    -0.011 C 
HETATM   18  C5  UNL     1       2.295  -1.401   0.124  1.00  0.00    -0.024 C 
BRANCH  18  19
HETATM   19  C6  UNL     1       2.847  -0.546  -0.906  1.00  0.00     0.008 C 
HETATM   20  C7  UNL     1       2.247   0.754  -1.284  1.00  0.00     0.008 C 
HETATM   21  C8  UNL     1       2.299   1.482   0.059  1.00  0.00     0.001 C 
HETATM   22  C9  UNL     1       3.698   1.093   0.571  1.00  0.00     0.001 C 
HETATM   23  C10 UNL     1       4.211   0.010  -0.341  1.00  0.00     0.008 C 
ENDBRANCH  18  19
ENDBRANCH  16  17
ENDBRANCH  14  16
ENDBRANCH   1  14
TORSDOF 7
