REMARK  6 active torsions:
REMARK  status: ('A' for Active; 'I' for Inactive)
REMARK    1  A    between atoms: C2_3  and  S1_4 
REMARK    2  A    between atoms: S1_4  and  S2_5 
REMARK    3  A    between atoms: S2_5  and  C3_6 
REMARK    4  A    between atoms: C3_6  and  C9_18 
REMARK    5  A    between atoms: N2_7  and  N3_9 
REMARK       I    between atoms: N3_9  and  C4_11 
REMARK    6  A    between atoms: C4_11  and  C5_13 
ROOT
HETATM    1  N1  UNL     1       7.228   0.531   0.849  1.00  0.00    -0.196 NA
HETATM    2  C1  UNL     1       6.257   0.184   0.310  1.00  0.00     0.070 C 
HETATM    3  C2  UNL     1       5.041  -0.226  -0.371  1.00  0.00     0.210 C 
ENDROOT
BRANCH   3   4
HETATM    4  S1  UNL     1       4.195   1.249  -0.968  1.00  0.00    -0.077 SA
BRANCH   4   5
HETATM    5  S2  UNL     1       2.406   0.852  -1.985  1.00  0.00    -0.032 SA
BRANCH   5   6
HETATM    6  C3  UNL     1       0.978   0.807  -0.951  1.00  0.00     0.161 C 
HETATM    7  N2  UNL     1      -0.145   0.538  -1.507  1.00  0.00    -0.286 N 
ATOM      8  H2  UNL     1      -0.144   0.367  -2.513  1.00  0.00     0.188 HD
BRANCH   7   9
HETATM    9  N3  UNL     1      -1.359   0.462  -0.846  1.00  0.00    -0.263 N 
HETATM   10  C4  UNL     1      -2.071  -0.761  -0.679  1.00  0.00     0.293 C 
HETATM   11  O1  UNL     1      -1.636  -1.847  -1.124  1.00  0.00    -0.264 OA
ATOM     12  H3  UNL     1      -1.761   1.317  -0.462  1.00  0.00     0.190 HD
BRANCH  10  13
HETATM   13  C5  UNL     1      -3.348  -0.783   0.027  1.00  0.00     0.144 A 
HETATM   14  C6  UNL     1      -4.163  -1.859   0.279  1.00  0.00     0.045 A 
HETATM   15  C7  UNL     1      -5.253  -1.388   0.973  1.00  0.00     0.027 A 
HETATM   16  C8  UNL     1      -5.052  -0.021   1.117  1.00  0.00     0.143 A 
HETATM   17  O2  UNL     1      -3.927   0.266   0.545  1.00  0.00    -0.317 OA
ENDBRANCH  10  13
ENDBRANCH   7   9
BRANCH   6  18
HETATM   18  C9  UNL     1       1.037   1.052   0.455  1.00  0.00     0.290 C 
HETATM   19  N4  UNL     1       2.272   1.353   1.081  1.00  0.00    -0.055 NA
HETATM   20  O3  UNL     1       0.024   1.020   1.225  1.00  0.00    -0.269 OA
ENDBRANCH   6  18
ENDBRANCH   5   6
ENDBRANCH   4   5
ENDBRANCH   3   4
TORSDOF 6
