REMARK  5 active torsions:
REMARK  status: ('A' for Active; 'I' for Inactive)
REMARK    1  A    between atoms: C2_3  and  C3_4 
REMARK    2  A    between atoms: C2_3  and  S1_15 
REMARK    3  A    between atoms: N2_5  and  N3_7 
REMARK    4  A    between atoms: N3_7  and  C4_9 
REMARK    5  A    between atoms: S1_15  and  C10_18 
ROOT
HETATM    1  N1  UNL     1       1.791   0.396   2.695  1.00  0.00    -0.196 NA
HETATM    2  C1  UNL     1       1.724  -0.282   1.749  1.00  0.00     0.085 C 
HETATM    3  C2  UNL     1       1.663  -1.147   0.561  1.00  0.00     0.261 C 
ENDROOT
BRANCH   3   4
HETATM    4  C3  UNL     1       0.293  -1.578   0.257  1.00  0.00     0.115 C 
HETATM    5  N2  UNL     1      -0.496  -0.849  -0.437  1.00  0.00    -0.313 N 
ATOM      6  H2  UNL     1      -0.186   0.054  -0.796  1.00  0.00     0.185 HD
BRANCH   5   7
HETATM    7  N3  UNL     1      -1.791  -1.310  -0.695  1.00  0.00    -0.301 N 
ATOM      8  H3  UNL     1      -1.931  -2.225  -1.123  1.00  0.00     0.187 HD
BRANCH   7   9
HETATM    9  C4  UNL     1      -2.906  -0.507  -0.362  1.00  0.00     0.048 A 
HETATM   10  C5  UNL     1      -3.419   0.359  -1.292  1.00  0.00     0.031 A 
HETATM   11  C6  UNL     1      -4.513   1.162  -0.995  1.00  0.00     0.002 A 
HETATM   12  C7  UNL     1      -5.077   1.074   0.255  1.00  0.00     0.000 A 
HETATM   13  C8  UNL     1      -4.581   0.211   1.209  1.00  0.00     0.002 A 
HETATM   14  C9  UNL     1      -3.485  -0.579   0.879  1.00  0.00     0.031 A 
ENDBRANCH   7   9
ENDBRANCH   5   7
ENDBRANCH   3   4
BRANCH   3  15
HETATM   15  S1  UNL     1       2.416  -0.247  -0.775  1.00  0.00     0.221 S 
HETATM   16  O1  UNL     1       2.435  -1.150  -1.977  1.00  0.00    -0.219 OA
HETATM   17  O2  UNL     1       1.602   0.966  -1.124  1.00  0.00    -0.219 OA
BRANCH  15  18
HETATM   18  C10 UNL     1       4.039   0.199  -0.310  1.00  0.00     0.195 A 
HETATM   19  C11 UNL     1       4.493   1.512  -0.230  1.00  0.00     0.071 A 
HETATM   20  C12 UNL     1       5.810   1.482   0.164  1.00  0.00     0.118 A 
HETATM   21  N4  UNL     1       6.103   0.168   0.307  1.00  0.00    -0.271 N 
HETATM   22  O3  UNL     1       5.051  -0.546   0.024  1.00  0.00    -0.226 OA
ATOM     23  H4  UNL     1       7.008  -0.205   0.592  1.00  0.00     0.194 HD
ENDBRANCH  15  18
ENDBRANCH   3  15
TORSDOF 5
