REMARK  6 active torsions:
REMARK  status: ('A' for Active; 'I' for Inactive)
REMARK    1  A    between atoms: C1_2  and  C2_3 
REMARK       I    between atoms: C1_2  and  N3_16 
REMARK    2  A    between atoms: C2_3  and  S1_4 
REMARK    3  A    between atoms: S1_4  and  C3_5 
REMARK    4  A    between atoms: C4_10  and  S2_11 
REMARK    5  A    between atoms: S2_11  and  C5_12 
REMARK    6  A    between atoms: C5_12  and  O2_13 
ROOT
HETATM    1  S1  UNL     1       1.046  -0.781  -1.681  1.00  0.00    -0.094 SA
ENDROOT
BRANCH   1   2
HETATM    2  C2  UNL     1      -0.461   0.122  -1.243  1.00  0.00     0.184 C 
BRANCH   2   3
HETATM    3  C1  UNL     1      -0.936  -0.343   0.083  1.00  0.00     0.232 C 
HETATM    4  O1  UNL     1      -0.301  -1.243   0.717  1.00  0.00    -0.272 OA
HETATM    5  N3  UNL     1      -2.088   0.183   0.686  1.00  0.00    -0.316 N 
HETATM    6  C6  UNL     1      -3.274  -0.013   0.206  1.00  0.00     0.079 C 
ATOM      7  H3  UNL     1      -1.987   0.741   1.534  1.00  0.00     0.170 HD
HETATM    8  C7  UNL     1      -4.480   0.557   0.868  1.00  0.00     0.078 C 
HETATM    9  N4  UNL     1      -3.653  -0.736  -0.935  1.00  0.00    -0.380 N 
HETATM   10  C8  UNL     1      -5.603   0.053   0.005  1.00  0.00     0.027 C 
HETATM   11  C9  UNL     1      -4.949  -0.211  -1.320  1.00  0.00     0.121 C 
ATOM     12  H4  UNL     1      -3.126  -1.477  -1.398  1.00  0.00     0.160 HD
ENDBRANCH   2   3
ENDBRANCH   1   2
BRANCH   1  13
HETATM   13  C3  UNL     1       2.383  -0.340  -0.555  1.00  0.00     0.129 A 
HETATM   14  N1  UNL     1       2.720  -0.904   0.601  1.00  0.00    -0.287 N 
HETATM   15  N2  UNL     1       3.698  -0.454   1.258  1.00  0.00    -0.287 N 
ATOM     16  H1  UNL     1       2.189  -1.699   0.956  1.00  0.00     0.188 HD
HETATM   17  C4  UNL     1       4.390   0.583   0.796  1.00  0.00     0.131 A 
ATOM     18  H2  UNL     1       3.958  -0.886   2.145  1.00  0.00     0.188 HD
HETATM   19  S3  UNL     1       3.561   0.900  -0.665  1.00  0.00    -0.038 SA
BRANCH  17  20
HETATM   20  S2  UNL     1       5.818   1.407   1.541  1.00  0.00    -0.077 SA
BRANCH  20  21
HETATM   21  C5  UNL     1       7.318   0.573   0.940  1.00  0.00     0.245 C 
BRANCH  21  22
HETATM   22  O2  UNL     1       7.413  -0.728   1.398  1.00  0.00    -0.391 OA
ATOM     23  H2  UNL     1       8.197  -1.164   1.084  1.00  0.00     0.210 HD
ENDBRANCH  21  22
ENDBRANCH  20  21
ENDBRANCH  17  20
ENDBRANCH   1  13
TORSDOF 6
