REMARK  12 active torsions:
REMARK  status: ('A' for Active; 'I' for Inactive)
REMARK    1  A    between atoms: C2_2  and  N1_4 
REMARK    2  A    between atoms: N1_4  and  C4_5 
REMARK    3  A    between atoms: N1_4  and  C6_9 
REMARK    4  A    between atoms: C4_5  and  C5_6 
REMARK    5  A    between atoms: C6_9  and  C7_10 
REMARK    6  A    between atoms: C12_15  and  O2_16 
REMARK    7  A    between atoms: O2_16  and  C13_17 
REMARK    8  A    between atoms: C15_19  and  O3_20 
REMARK    9  A    between atoms: O3_20  and  C16_21 
REMARK   10  A    between atoms: C20_28  and  O4_29 
REMARK   11  A    between atoms: C21_31  and  O5_32 
REMARK   12  A    between atoms: C22_34  and  O6_35 
ROOT
HETATM    1  C13 UNL     1       1.177  -1.658   0.318  1.00  0.00     0.156 C 
HETATM    2  C14 UNL     1       1.615  -0.359   0.979  1.00  0.00     0.069 C 
HETATM    3  C15 UNL     1       2.935   0.010   0.349  1.00  0.00     0.155 C 
HETATM    4  C20 UNL     1       3.884  -1.100   0.135  1.00  0.00     0.178 C 
HETATM    5  C21 UNL     1       3.434  -2.486   0.307  1.00  0.00     0.180 C 
HETATM    6  C22 UNL     1       2.079  -2.680   0.939  1.00  0.00     0.178 C 
ENDROOT
BRANCH   1   7
HETATM    7  O2  UNL     1      -0.165  -1.930   0.388  1.00  0.00    -0.373 OA
BRANCH   7   8
HETATM    8  C12 UNL     1      -0.782  -1.907  -0.845  1.00  0.00     0.152 C 
HETATM    9  C7  UNL     1      -2.006  -1.068  -0.951  1.00  0.00    -0.036 C 
HETATM   10  C8  UNL     1      -3.162  -1.620  -1.681  1.00  0.00     0.038 C 
HETATM   11  C9  UNL     1      -3.026  -2.809  -2.545  1.00  0.00     0.004 C 
HETATM   12  C10 UNL     1      -1.592  -3.190  -2.747  1.00  0.00     0.003 C 
HETATM   13  C11 UNL     1      -1.042  -3.341  -1.313  1.00  0.00     0.036 C 
BRANCH   9  14
HETATM   14  C6  UNL     1      -2.417  -0.407   0.310  1.00  0.00     0.096 C 
BRANCH  14  15
HETATM   15  N1  UNL     1      -3.247   0.718   0.341  1.00  0.00    -0.357 N 
BRANCH  15  16
HETATM   16  C2  UNL     1      -4.583   0.733   0.026  1.00  0.00     0.080 C 
HETATM   17  C1  UNL     1      -5.481   0.647   1.312  1.00  0.00     0.032 C 
HETATM   18  C3  UNL     1      -5.077   2.022  -0.609  1.00  0.00     0.032 C 
ENDBRANCH  15  16
BRANCH  15  19
HETATM   19  C4  UNL     1      -2.630   1.756   1.069  1.00  0.00     0.161 C 
BRANCH  19  20
HETATM   20  C5  UNL     1      -2.200   2.988   0.458  1.00  0.00     0.270 C 
HETATM   21  N2  UNL     1      -2.212   3.342  -0.897  1.00  0.00    -0.057 NA
HETATM   22  O1  UNL     1      -1.722   3.915   1.231  1.00  0.00    -0.270 OA
ENDBRANCH  19  20
ENDBRANCH  15  19
ENDBRANCH  14  15
ENDBRANCH   9  14
ENDBRANCH   7   8
ENDBRANCH   1   7
BRANCH   6  23
HETATM   23  O6  UNL     1       1.678  -3.977   0.861  1.00  0.00    -0.390 OA
ATOM     24  H6  UNL     1       2.250  -4.625   1.255  1.00  0.00     0.210 HD
ENDBRANCH   6  23
BRANCH   3  25
HETATM   25  O3  UNL     1       3.585   1.033   1.007  1.00  0.00    -0.376 OA
BRANCH  25  26
HETATM   26  C16 UNL     1       3.705   2.198   0.287  1.00  0.00     0.149 C 
HETATM   27  C17 UNL     1       3.243   3.413   1.088  1.00  0.00     0.061 C 
HETATM   28  C18 UNL     1       4.361   3.548   2.075  1.00  0.00     0.235 C 
HETATM   29  N3  UNL     1       5.537   2.912   1.517  1.00  0.00    -0.073 N 
HETATM   30  C19 UNL     1       5.187   2.506   0.160  1.00  0.00     0.264 C 
ATOM     31  H32 UNL     1       6.371   3.498   1.560  1.00  0.00     0.277 HD
ATOM     32  H31 UNL     1       5.890   2.145   2.089  1.00  0.00     0.277 HD
ENDBRANCH  25  26
ENDBRANCH   3  25
BRANCH   5  33
HETATM   33  O5  UNL     1       3.411  -3.165  -0.934  1.00  0.00    -0.390 OA
ATOM     34  H5  UNL     1       3.120  -4.062  -0.823  1.00  0.00     0.210 HD
ENDBRANCH   5  33
BRANCH   4  35
HETATM   35  O4  UNL     1       5.020  -0.919   0.971  1.00  0.00    -0.390 OA
ATOM     36  H4  UNL     1       5.631  -1.633   0.833  1.00  0.00     0.210 HD
ENDBRANCH   4  35
TORSDOF 12
