REMARK  13 active torsions:
REMARK  status: ('A' for Active; 'I' for Inactive)
REMARK    1  A    between atoms: C1_2  and  C2_3 
REMARK       I    between atoms: C1_2  and  N1_25 
REMARK    2  A    between atoms: C2_3  and  C3_4 
REMARK    3  A    between atoms: C3_4  and  C4_5 
REMARK    4  A    between atoms: C5_6  and  O2_7 
REMARK    5  A    between atoms: C7_10  and  O3_11 
REMARK    6  A    between atoms: C8_13  and  C9_14 
REMARK    7  A    between atoms: C10_15  and  C11_16 
REMARK    8  A    between atoms: C11_16  and  O4_17 
REMARK    9  A    between atoms: C11_16  and  C12_19 
REMARK   10  A    between atoms: N1_25  and  C17_27 
REMARK   11  A    between atoms: C17_27  and  C18_28 
REMARK   12  A    between atoms: C18_28  and  N2_29 
REMARK   13  A    between atoms: C22_33  and  O6_34 
ROOT
HETATM    1  C4  UNL     1       1.382  -1.850   0.355  1.00  0.00     0.025 C 
HETATM    2  C5  UNL     1       1.285  -3.324   0.504  1.00  0.00     0.125 C 
HETATM    3  C6  UNL     1       1.426  -3.976  -0.828  1.00  0.00     0.064 C 
HETATM    4  C7  UNL     1       2.069  -2.942  -1.686  1.00  0.00     0.128 C 
HETATM    5  C8  UNL     1       2.238  -1.681  -0.873  1.00  0.00     0.043 C 
ENDROOT
BRANCH   1   6
HETATM    6  C3  UNL     1       0.095  -1.117   0.304  1.00  0.00     0.017 C 
BRANCH   6   7
HETATM    7  C2  UNL     1      -0.820  -1.480  -0.796  1.00  0.00     0.103 C 
BRANCH   7   8
HETATM    8  C1  UNL     1      -2.066  -0.645  -0.694  1.00  0.00     0.217 C 
HETATM    9  O1  UNL     1      -2.118   0.177   0.253  1.00  0.00    -0.274 OA
HETATM   10  N1  UNL     1      -3.114  -0.798  -1.635  1.00  0.00    -0.359 N 
ATOM     11  H1  UNL     1      -3.024  -1.477  -2.391  1.00  0.00     0.162 HD
BRANCH  10  12
HETATM   12  C17 UNL     1      -4.303   0.000  -1.528  1.00  0.00     0.152 C 
BRANCH  12  13
HETATM   13  C18 UNL     1      -5.011  -0.245  -0.244  1.00  0.00     0.292 C 
BRANCH  13  14
HETATM   14  N2  UNL     1      -6.206   0.618  -0.255  1.00  0.00     0.092 N 
HETATM   15  C19 UNL     1      -6.888   0.368   1.006  1.00  0.00     0.272 C 
HETATM   16  C20 UNL     1      -8.210   1.101   1.073  1.00  0.00     0.033 C 
HETATM   17  C21 UNL     1      -8.173   2.335   0.167  1.00  0.00     0.035 C 
HETATM   18  C22 UNL     1      -6.789   2.914   0.260  1.00  0.00     0.146 C 
HETATM   19  C23 UNL     1      -5.816   1.986  -0.403  1.00  0.00     0.303 C 
BRANCH  18  20
HETATM   20  O6  UNL     1      -6.750   4.161  -0.375  1.00  0.00    -0.394 OA
ATOM     21  H6  UNL     1      -5.875   4.527  -0.316  1.00  0.00     0.210 HD
ENDBRANCH  18  20
ENDBRANCH  13  14
ENDBRANCH  12  13
ENDBRANCH  10  12
ENDBRANCH   7   8
ENDBRANCH   6   7
ENDBRANCH   1   6
BRANCH   2  22
HETATM   22  O2  UNL     1       0.150  -3.738   1.199  1.00  0.00    -0.395 OA
ATOM     23  H2  UNL     1       0.088  -4.681   1.294  1.00  0.00     0.210 HD
ENDBRANCH   2  22
BRANCH   5  24
HETATM   24  C9  UNL     1       3.665  -1.587  -0.462  1.00  0.00    -0.021 C 
HETATM   25  C10 UNL     1       4.457  -0.594  -0.786  1.00  0.00     0.003 C 
BRANCH  25  26
HETATM   26  C11 UNL     1       5.881  -0.500  -0.376  1.00  0.00     0.169 C 
BRANCH  26  27
HETATM   27  O4  UNL     1       6.659  -0.690  -1.512  1.00  0.00    -0.389 OA
ATOM     28  H4  UNL     1       7.570  -0.630  -1.250  1.00  0.00     0.210 HD
ENDBRANCH  26  27
BRANCH  26  29
HETATM   29  C12 UNL     1       6.229   0.842   0.198  1.00  0.00     0.153 C 
HETATM   30  C13 UNL     1       5.532   1.111   1.517  1.00  0.00     0.035 C 
HETATM   31  C14 UNL     1       5.653   2.619   1.775  1.00  0.00     0.005 C 
HETATM   32  C15 UNL     1       6.951   3.080   1.121  1.00  0.00     0.026 C 
HETATM   33  C16 UNL     1       6.844   2.926  -0.369  1.00  0.00     0.168 C 
HETATM   34  O5  UNL     1       5.984   1.883  -0.696  1.00  0.00    -0.383 OA
ENDBRANCH  26  29
ENDBRANCH  25  26
ENDBRANCH   5  24
BRANCH   4  35
HETATM   35  O3  UNL     1       3.302  -3.427  -2.119  1.00  0.00    -0.395 OA
ATOM     36  H3  UNL     1       3.712  -2.768  -2.666  1.00  0.00     0.210 HD
ENDBRANCH   4  35
TORSDOF 13
