REMARK  13 active torsions:
REMARK  status: ('A' for Active; 'I' for Inactive)
REMARK    1  A    between atoms: O1_2  and  C2_3 
REMARK    2  A    between atoms: C4_5  and  O2_6 
REMARK    3  A    between atoms: O2_6  and  C5_7 
REMARK    4  A    between atoms: C8_10  and  O3_11 
REMARK    5  A    between atoms: C9_13  and  C10_14 
REMARK    6  A    between atoms: C10_14  and  O4_15 
REMARK    7  A    between atoms: O4_15  and  C11_16 
REMARK    8  A    between atoms: C13_18  and  C14_19 
REMARK    9  A    between atoms: C14_19  and  O5_20 
REMARK   10  A    between atoms: C15_22  and  O6_23 
REMARK   11  A    between atoms: C17_26  and  N1_27 
REMARK   12  A    between atoms: C19_33  and  O8_34 
REMARK   13  A    between atoms: C21_36  and  O9_37 
ROOT
HETATM    1  C5  UNL     1      -1.332   1.971  -0.043  1.00  0.00     0.267 C 
HETATM    2  C6  UNL     1      -1.103   3.385  -0.539  1.00  0.00     0.064 C 
HETATM    3  C7  UNL     1       0.018   3.382  -1.549  1.00  0.00     0.039 C 
HETATM    4  C8  UNL     1       1.242   2.670  -1.017  1.00  0.00     0.149 C 
HETATM    5  C9  UNL     1       0.888   2.189   0.374  1.00  0.00     0.177 C 
HETATM    6  O7  UNL     1      -0.149   1.301   0.259  1.00  0.00    -0.351 OA
ENDROOT
BRANCH   5   7
HETATM    7  C10 UNL     1       2.088   1.573   1.065  1.00  0.00     0.203 C 
BRANCH   7   8
HETATM    8  O4  UNL     1       2.545   0.480   0.345  1.00  0.00    -0.381 OA
BRANCH   8   9
HETATM    9  C11 UNL     1       3.640  -0.108   0.940  1.00  0.00     0.152 C 
HETATM   10  C12 UNL     1       3.339  -1.505   1.387  1.00  0.00     0.043 C 
HETATM   11  C13 UNL     1       4.658  -2.198   1.643  1.00  0.00     0.040 C 
HETATM   12  C15 UNL     1       5.349  -2.446   0.322  1.00  0.00     0.126 C 
HETATM   13  C16 UNL     1       5.290  -1.254  -0.593  1.00  0.00     0.067 C 
HETATM   14  C17 UNL     1       4.891   0.014   0.102  1.00  0.00     0.214 C 
BRANCH  11  15
HETATM   15  C14 UNL     1       4.328  -3.552   2.276  1.00  0.00     0.171 C 
BRANCH  15  16
HETATM   16  O5  UNL     1       5.560  -4.168   2.502  1.00  0.00    -0.400 OA
ATOM     17  H5  UNL     1       5.355  -5.008   2.895  1.00  0.00     0.209 HD
ENDBRANCH  15  16
ENDBRANCH  11  15
BRANCH  12  18
HETATM   18  O6  UNL     1       6.634  -2.910   0.539  1.00  0.00    -0.395 OA
ATOM     19  H6  UNL     1       7.068  -3.066  -0.291  1.00  0.00     0.210 HD
ENDBRANCH  12  18
BRANCH  14  20
HETATM   20  N1  UNL     1       6.000   0.595   0.837  1.00  0.00    -0.072 N 
ATOM     21  H13 UNL     1       5.740   1.495   1.241  1.00  0.00     0.274 HD
ATOM     22  H12 UNL     1       6.183   0.076   1.696  1.00  0.00     0.274 HD
ATOM     23  H11 UNL     1       6.845   0.677   0.271  1.00  0.00     0.274 HD
ENDBRANCH  14  20
ENDBRANCH   8   9
ENDBRANCH   7   8
ENDBRANCH   5   7
BRANCH   4  24
HETATM   24  O3  UNL     1       1.583   1.605  -1.846  1.00  0.00    -0.393 OA
ATOM     25  H3  UNL     1       2.352   1.158  -1.512  1.00  0.00     0.210 HD
ENDBRANCH   4  24
BRANCH   1  26
HETATM   26  O2  UNL     1      -2.012   1.185  -0.981  1.00  0.00    -0.320 OA
BRANCH  26  27
HETATM   27  C4  UNL     1      -3.212   0.554  -0.864  1.00  0.00     0.077 A 
HETATM   28  C3  UNL     1      -4.032   0.566   0.247  1.00  0.00     0.076 A 
HETATM   29  C2  UNL     1      -5.239  -0.096   0.299  1.00  0.00     0.106 A 
HETATM   30  C21 UNL     1      -5.616  -0.792  -0.826  1.00  0.00     0.135 A 
HETATM   31  C19 UNL     1      -4.840  -0.834  -1.947  1.00  0.00     0.106 A 
HETATM   32  C18 UNL     1      -3.641  -0.168  -1.979  1.00  0.00     0.076 A 
BRANCH  29  33
HETATM   33  O1  UNL     1      -6.087  -0.108   1.392  1.00  0.00    -0.353 OA
HETATM   34  C1  UNL     1      -5.743   0.593   2.570  1.00  0.00     0.210 C 
ENDBRANCH  29  33
BRANCH  30  35
HETATM   35  O9  UNL     1      -6.823  -1.475  -0.821  1.00  0.00    -0.351 OA
HETATM   36  C22 UNL     1      -7.979  -0.751  -1.268  1.00  0.00     0.210 C 
ENDBRANCH  30  35
BRANCH  31  37
HETATM   37  O8  UNL     1      -5.260  -1.559  -3.082  1.00  0.00    -0.353 OA
HETATM   38  C20 UNL     1      -4.440  -1.588  -4.234  1.00  0.00     0.210 C 
ENDBRANCH  31  37
ENDBRANCH  26  27
ENDBRANCH   1  26
TORSDOF 13
