REMARK  12 active torsions:
REMARK  status: ('A' for Active; 'I' for Inactive)
REMARK    1  A    between atoms: C2_2  and  C4_4 
REMARK    2  A    between atoms: C5_5  and  O1_6 
REMARK    3  A    between atoms: C7_9  and  O2_10 
REMARK    4  A    between atoms: O2_10  and  C8_11 
REMARK    5  A    between atoms: C11_14  and  N1_15 
REMARK    6  A    between atoms: C13_21  and  O4_22 
REMARK    7  A    between atoms: O4_22  and  C14_23 
REMARK    8  A    between atoms: C14_23  and  C15_24 
REMARK    9  A    between atoms: C14_23  and  C16_30 
REMARK   10  A    between atoms: C15_24  and  O5_25 
REMARK   11  A    between atoms: O5_25  and  S1_26 
REMARK   12  A    between atoms: C16_30  and  O9_32 
ROOT
HETATM    1  C4  UNL     1       0.015  -0.729   2.632  1.00  0.00     0.052 C 
HETATM    2  C5  UNL     1       1.547  -0.714   2.593  1.00  0.00     0.152 C 
HETATM    3  C6  UNL     1       1.903  -0.279   1.212  1.00  0.00     0.040 C 
HETATM    4  C7  UNL     1       1.094  -0.272   0.186  1.00  0.00     0.077 C 
HETATM    5  C13 UNL     1      -0.360  -0.717   0.263  1.00  0.00     0.183 C 
HETATM    6  C18 UNL     1      -0.373  -1.622   1.491  1.00  0.00     0.028 C 
HETATM    7  C19 UNL     1      -1.584  -2.446   1.651  1.00  0.00     0.014 C 
ENDROOT
BRANCH   5   8
HETATM    8  O4  UNL     1      -1.103   0.396   0.553  1.00  0.00    -0.369 OA
BRANCH   8   9
HETATM    9  C14 UNL     1      -2.075   0.746  -0.374  1.00  0.00     0.176 C 
BRANCH   9  10
HETATM   10  C15 UNL     1      -3.451   0.783   0.187  1.00  0.00     0.227 C 
BRANCH  10  11
HETATM   11  O5  UNL     1      -4.363   1.129  -0.782  1.00  0.00    -0.254 OA
BRANCH  11  12
HETATM   12  S1  UNL     1      -5.933   1.187  -0.216  1.00  0.00     0.251 S 
HETATM   13  O6  UNL     1      -6.013   2.061   0.993  1.00  0.00    -0.572 OA
HETATM   14  O7  UNL     1      -6.485  -0.182   0.044  1.00  0.00    -0.572 OA
HETATM   15  O8  UNL     1      -6.867   1.940  -1.419  1.00  0.00    -0.572 OA
ENDBRANCH  11  12
ENDBRANCH  10  11
ENDBRANCH   9  10
BRANCH   9  16
HETATM   16  C16 UNL     1      -1.697   2.067  -1.060  1.00  0.00     0.145 C 
HETATM   17  C17 UNL     1      -2.650   2.436  -2.165  1.00  0.00     0.042 C 
BRANCH  16  18
HETATM   18  O9  UNL     1      -1.596   3.116  -0.182  1.00  0.00    -0.393 OA
ATOM     19  H9  UNL     1      -1.362   3.933  -0.606  1.00  0.00     0.210 HD
ENDBRANCH  16  18
ENDBRANCH   9  16
ENDBRANCH   8   9
ENDBRANCH   5   8
BRANCH   4  20
HETATM   20  O2  UNL     1       1.552   0.154  -1.031  1.00  0.00    -0.322 OA
BRANCH  20  21
HETATM   21  C8  UNL     1       2.529  -0.463  -1.827  1.00  0.00     0.266 C 
HETATM   22  C9  UNL     1       2.684   0.388  -3.070  1.00  0.00     0.063 C 
HETATM   23  C10 UNL     1       3.917   0.102  -3.858  1.00  0.00     0.040 C 
HETATM   24  C11 UNL     1       5.120  -0.236  -3.012  1.00  0.00     0.207 C 
HETATM   25  C12 UNL     1       4.654  -1.244  -1.980  1.00  0.00     0.203 C 
HETATM   26  O3  UNL     1       3.712  -0.671  -1.159  1.00  0.00    -0.359 OA
BRANCH  24  27
HETATM   27  N1  UNL     1       5.715   0.928  -2.392  1.00  0.00    -0.073 N 
ATOM     28  H13 UNL     1       5.946   1.635  -3.090  1.00  0.00     0.274 HD
ATOM     29  H12 UNL     1       5.023   1.448  -1.852  1.00  0.00     0.274 HD
ATOM     30  H11 UNL     1       6.528   0.700  -1.820  1.00  0.00     0.274 HD
ENDBRANCH  24  27
ENDBRANCH  20  21
ENDBRANCH   4  20
BRANCH   1  31
HETATM   31  C2  UNL     1      -0.553  -1.004   3.939  1.00  0.00    -0.086 C 
HETATM   32  C1  UNL     1       0.122  -1.316   5.024  1.00  0.00     0.014 C 
HETATM   33  C3  UNL     1      -2.051  -0.896   4.100  1.00  0.00     0.043 C 
ENDBRANCH   1  31
BRANCH   2  34
HETATM   34  O1  UNL     1       2.078  -1.977   2.823  1.00  0.00    -0.391 OA
ATOM     35  H1  UNL     1       3.028  -1.968   2.799  1.00  0.00     0.210 HD
ENDBRANCH   2  34
TORSDOF 12
