REMARK  15 active torsions:
REMARK  status: ('A' for Active; 'I' for Inactive)
REMARK    1  A    between atoms: C2_2  and  C3_3 
REMARK    2  A    between atoms: C3_3  and  C4_4 
REMARK    3  A    between atoms: C4_4  and  C5_5 
REMARK    4  A    between atoms: C5_5  and  C6_6 
REMARK    5  A    between atoms: C6_6  and  C7_7 
REMARK    6  A    between atoms: C7_7  and  O1_8 
REMARK    7  A    between atoms: O1_8  and  C8_9 
REMARK    8  A    between atoms: C10_11  and  O2_12 
REMARK    9  A    between atoms: O2_12  and  C11_13 
REMARK   10  A    between atoms: C12_15  and  O4_16 
REMARK   11  A    between atoms: C13_18  and  O5_19 
REMARK   12  A    between atoms: C14_21  and  O6_22 
REMARK   13  A    between atoms: C15_24  and  O7_25 
REMARK   14  A    between atoms: C16_28  and  O9_29 
REMARK   15  A    between atoms: C19_33  and  O10_34 
ROOT
HETATM    1  C11 UNL     1      -3.538  -0.198  -0.093  1.00  0.00     0.281 C 
HETATM    2  O3  UNL     1      -4.117  -0.949   0.946  1.00  0.00    -0.328 OA
HETATM    3  C12 UNL     1      -5.443  -1.246   0.674  1.00  0.00     0.291 C 
HETATM    4  C13 UNL     1      -6.252  -0.106   0.153  1.00  0.00     0.213 C 
HETATM    5  C14 UNL     1      -5.552   1.185   0.404  1.00  0.00     0.150 C 
HETATM    6  C15 UNL     1      -6.181   2.304  -0.446  1.00  0.00     0.297 C 
HETATM    7  O8  UNL     1      -5.826   1.876  -1.720  1.00  0.00    -0.328 OA
HETATM    8  C16 UNL     1      -4.517   1.420  -1.674  1.00  0.00     0.272 C 
HETATM    9  C17 UNL     1      -4.183   1.138  -0.238  1.00  0.00     0.139 C 
ENDROOT
BRANCH   1  10
HETATM   10  O2  UNL     1      -2.173  -0.107   0.173  1.00  0.00    -0.320 OA
BRANCH  10  11
HETATM   11  C10 UNL     1      -1.142  -0.766  -0.431  1.00  0.00     0.077 A 
HETATM   12  C9  UNL     1       0.138  -0.452   0.049  1.00  0.00     0.074 A 
HETATM   13  C8  UNL     1       1.267  -1.059  -0.487  1.00  0.00     0.080 A 
HETATM   14  C20 UNL     1       1.072  -1.966  -1.492  1.00  0.00     0.005 A 
HETATM   15  C19 UNL     1      -0.171  -2.309  -1.999  1.00  0.00     0.077 A 
HETATM   16  C21 UNL     1       2.244  -2.641  -2.113  1.00  0.00     0.054 C 
HETATM   17  C18 UNL     1      -1.268  -1.684  -1.441  1.00  0.00     0.074 A 
BRANCH  13  18
HETATM   18  O1  UNL     1       2.544  -0.762  -0.021  1.00  0.00    -0.350 OA
BRANCH  18  19
HETATM   19  C7  UNL     1       2.662   0.196   1.006  1.00  0.00     0.175 C 
BRANCH  19  20
HETATM   20  C6  UNL     1       4.140   0.363   1.414  1.00  0.00     0.027 C 
BRANCH  20  21
HETATM   21  C5  UNL     1       4.875   0.776   0.211  1.00  0.00     0.002 C 
BRANCH  21  22
HETATM   22  C4  UNL     1       6.293   1.120   0.238  1.00  0.00     0.000 C 
BRANCH  22  23
HETATM   23  C3  UNL     1       7.306   0.179   0.741  1.00  0.00    -0.000 C 
BRANCH  23  24
HETATM   24  C2  UNL     1       7.248  -0.082   2.212  1.00  0.00    -0.005 C 
HETATM   25  C1  UNL     1       7.470   1.293   2.887  1.00  0.00     0.005 C 
ENDBRANCH  23  24
ENDBRANCH  22  23
ENDBRANCH  21  22
ENDBRANCH  20  21
ENDBRANCH  19  20
ENDBRANCH  18  19
ENDBRANCH  13  18
BRANCH  15  26
HETATM   26  O10 UNL     1      -0.311  -3.238  -3.024  1.00  0.00    -0.360 OA
ATOM     27  H10 UNL     1       0.444  -3.668  -3.408  1.00  0.00     0.217 HD
ENDBRANCH  15  26
ENDBRANCH  10  11
ENDBRANCH   1  10
BRANCH   3  28
HETATM   28  O4  UNL     1      -6.020  -1.699   1.860  1.00  0.00    -0.368 OA
ATOM     29  H4  UNL     1      -6.929  -1.903   1.674  1.00  0.00     0.212 HD
ENDBRANCH   3  28
BRANCH   5  30
HETATM   30  O6  UNL     1      -5.526   1.525   1.735  1.00  0.00    -0.381 OA
ATOM     31  H6  UNL     1      -5.080   2.348   1.895  1.00  0.00     0.211 HD
ENDBRANCH   5  30
BRANCH   8  32
HETATM   32  O9  UNL     1      -3.651   2.354  -2.247  1.00  0.00    -0.370 OA
ATOM     33  H9  UNL     1      -2.754   2.042  -2.215  1.00  0.00     0.212 HD
ENDBRANCH   8  32
BRANCH   4  34
HETATM   34  O5  UNL     1      -7.505  -0.116   0.773  1.00  0.00    -0.387 OA
ATOM     35  H5  UNL     1      -8.020   0.610   0.441  1.00  0.00     0.210 HD
ENDBRANCH   4  34
BRANCH   6  36
HETATM   36  O7  UNL     1      -7.568   2.289  -0.318  1.00  0.00    -0.368 OA
ATOM     37  H7  UNL     1      -7.956   2.979  -0.842  1.00  0.00     0.212 HD
ENDBRANCH   6  36
TORSDOF 15
