REMARK  6 active torsions:
REMARK  status: ('A' for Active; 'I' for Inactive)
REMARK    1  A    between atoms: C2_2  and  N1_4 
REMARK       I    between atoms: N1_4  and  C4_5 
REMARK    2  A    between atoms: N1_4  and  C15_26 
REMARK       I    between atoms: C4_5  and  N2_7 
REMARK    3  A    between atoms: N2_7  and  C5_9 
REMARK    4  A    between atoms: C5_9  and  C6_10 
REMARK    5  A    between atoms: C9_15  and  O4_16 
REMARK    6  A    between atoms: O4_16  and  C10_17 
ROOT
HETATM    1  C6  UNL     1       0.886  -0.696   0.643  1.00  0.00     0.036 C 
HETATM    2  C7  UNL     1       0.434  -2.010   0.174  1.00  0.00     0.178 C 
HETATM    3  O2  UNL     1       1.661  -2.739   0.074  1.00  0.00    -0.360 OA
HETATM    4  C8  UNL     1       2.350  -2.414   1.236  1.00  0.00     0.267 C 
HETATM    5  O3  UNL     1       3.666  -2.231   0.945  1.00  0.00    -0.331 OA
HETATM    6  C9  UNL     1       3.894  -0.877   0.728  1.00  0.00     0.273 C 
HETATM    7  C13 UNL     1       3.053  -0.214   1.800  1.00  0.00     0.071 C 
HETATM    8  C14 UNL     1       1.845  -1.129   1.783  1.00  0.00     0.053 C 
ENDROOT
BRANCH   1   9
HETATM    9  C5  UNL     1      -0.096   0.187   1.270  1.00  0.00     0.131 C 
BRANCH   9  10
HETATM   10  N2  UNL     1      -1.223   0.643   0.545  1.00  0.00    -0.343 N 
HETATM   11  C4  UNL     1      -2.314  -0.085   0.103  1.00  0.00     0.319 C 
HETATM   12  N1  UNL     1      -3.357   0.553  -0.650  1.00  0.00    -0.326 N 
HETATM   13  O1  UNL     1      -2.472  -1.318   0.320  1.00  0.00    -0.247 OA
ATOM     14  H2  UNL     1      -1.232   1.638   0.319  1.00  0.00     0.164 HD
BRANCH  12  15
HETATM   15  C2  UNL     1      -3.369   1.945  -1.005  1.00  0.00     0.081 C 
HETATM   16  C1  UNL     1      -2.252   2.366  -1.913  1.00  0.00     0.032 C 
HETATM   17  C3  UNL     1      -3.458   2.886   0.167  1.00  0.00     0.032 C 
ENDBRANCH  12  15
BRANCH  12  18
HETATM   18  C15 UNL     1      -4.475  -0.283  -1.078  1.00  0.00     0.081 C 
HETATM   19  C16 UNL     1      -5.135  -0.860   0.166  1.00  0.00     0.032 C 
HETATM   20  C17 UNL     1      -3.983  -1.411  -1.943  1.00  0.00     0.032 C 
ENDBRANCH  12  18
ENDBRANCH   9  10
ENDBRANCH   1   9
BRANCH   6  21
HETATM   21  O4  UNL     1       5.274  -0.674   0.934  1.00  0.00    -0.284 OA
BRANCH  21  22
HETATM   22  C10 UNL     1       6.018  -0.133  -0.101  1.00  0.00     0.273 A 
HETATM   23  N3  UNL     1       7.352   0.116  -0.041  1.00  0.00    -0.291 N 
HETATM   24  C11 UNL     1       7.763   0.641  -1.211  1.00  0.00     0.214 A 
ATOM     25  H3  UNL     1       7.950  -0.066   0.765  1.00  0.00     0.172 HD
HETATM   26  F1  UNL     1       8.999   1.038  -1.598  1.00  0.00    -0.184 F 
HETATM   27  C12 UNL     1       6.627   0.705  -1.991  1.00  0.00     0.207 A 
HETATM   28  O5  UNL     1       5.622   0.240  -1.300  1.00  0.00    -0.281 OA
ENDBRANCH  21  22
ENDBRANCH   6  21
TORSDOF 6
