REMARK  5 active torsions:
REMARK  status: ('A' for Active; 'I' for Inactive)
REMARK    1  A    between atoms: O1_1  and  C1_3 
REMARK    2  A    between atoms: C1_3  and  C2_4 
REMARK    3  A    between atoms: C2_4  and  C3_5 
REMARK    4  A    between atoms: C10_13  and  C11_14 
REMARK    5  A    between atoms: C14_19  and  N3_20 
ROOT
HETATM    1  C11 UNL     1       0.449  -0.537   0.140  1.00  0.00    -0.028 A 
HETATM    2  C12 UNL     1       1.350   0.357  -0.412  1.00  0.00     0.059 A 
HETATM    3  C13 UNL     1       2.621   0.055   0.010  1.00  0.00     0.128 A 
HETATM    4  N2  UNL     1       3.869   0.548  -0.181  1.00  0.00    -0.176 N 
ATOM      5  H2  UNL     1       3.975   1.360  -0.789  1.00  0.00     0.186 HD
HETATM    6  C14 UNL     1       4.975   0.033   0.381  1.00  0.00     0.682 A 
HETATM    7  N4  UNL     1       4.779  -1.052   1.186  1.00  0.00    -0.187 N 
ATOM      8  H4  UNL     1       5.590  -1.477   1.635  1.00  0.00     0.185 HD
HETATM    9  C18 UNL     1       3.568  -1.585   1.414  1.00  0.00     0.207 A 
HETATM   10  N5  UNL     1       2.522  -1.011   0.815  1.00  0.00    -0.303 N 
HETATM   11  C19 UNL     1       1.212  -1.381   0.904  1.00  0.00     0.107 A 
ENDROOT
BRANCH   1  12
HETATM   12  C10 UNL     1      -1.027  -0.509  -0.102  1.00  0.00     0.009 C 
HETATM   13  C6  UNL     1      -1.794  -1.567   0.544  1.00  0.00     0.005 C 
HETATM   14  C5  UNL     1      -2.962  -1.222   1.392  1.00  0.00     0.050 C 
HETATM   15  C7  UNL     1      -2.298  -2.534  -0.543  1.00  0.00     0.006 C 
HETATM   16  C4  UNL     1      -3.252   0.228   1.584  1.00  0.00     0.064 C 
HETATM   17  N1  UNL     1      -2.946   0.949   0.438  1.00  0.00    -0.369 N 
HETATM   18  C3  UNL     1      -3.699   1.925  -0.144  1.00  0.00     0.088 C 
HETATM   19  C20 UNL     1      -1.549   0.892   0.056  1.00  0.00     0.142 C 
HETATM   20  C8  UNL     1      -2.431  -1.635  -1.728  1.00  0.00     0.002 C 
HETATM   21  C9  UNL     1      -1.163  -0.809  -1.609  1.00  0.00     0.016 C 
BRANCH  18  22
HETATM   22  C2  UNL     1      -4.929   1.777  -0.908  1.00  0.00     0.016 C 
BRANCH  22  23
HETATM   23  C1  UNL     1      -6.147   1.179  -0.352  1.00  0.00     0.192 C 
BRANCH  23  24
HETATM   24  O1  UNL     1      -6.044  -0.140  -0.036  1.00  0.00    -0.397 OA
ATOM     25  H1  UNL     1      -6.833  -0.527   0.324  1.00  0.00     0.209 HD
ENDBRANCH  23  24
ENDBRANCH  22  23
ENDBRANCH  18  22
ENDBRANCH   1  12
BRANCH   6  26
HETATM   26  N3  UNL     1       6.274   0.566   0.173  1.00  0.00    -0.212 N 
HETATM   27  C15 UNL     1       6.876   1.661  -0.532  1.00  0.00     0.180 A 
HETATM   28  C16 UNL     1       8.252   1.268  -0.049  1.00  0.00     0.207 A 
HETATM   29  F1  UNL     1       8.819   2.132   0.880  1.00  0.00    -0.246 F 
HETATM   30  C17 UNL     1       7.588   0.131   0.651  1.00  0.00     0.180 A 
ENDBRANCH   6  26
TORSDOF 5
