REMARK  7 active torsions:
REMARK  status: ('A' for Active; 'I' for Inactive)
REMARK    1  A    between atoms: C2_2  and  C3_3 
REMARK    2  A    between atoms: C3_3  and  C5_5 
REMARK    3  A    between atoms: C7_7  and  N1_8 
REMARK    4  A    between atoms: N3_17  and  C15_18 
REMARK    5  A    between atoms: C15_18  and  C16_19 
REMARK    6  A    between atoms: C16_19  and  N4_20 
REMARK    7  A    between atoms: C16_19  and  C17_24 
ROOT
HETATM    1  C5  UNL     1       0.067   1.030  -0.630  1.00  0.00     0.089 C 
HETATM    2  C6  UNL     1      -1.342   1.227  -0.126  1.00  0.00     0.061 C 
HETATM    3  C7  UNL     1      -1.757   0.418   1.038  1.00  0.00     0.226 C 
HETATM    4  C13 UNL     1      -0.638  -0.116   1.865  1.00  0.00     0.055 C 
HETATM    5  C14 UNL     1       0.548   0.762   1.724  1.00  0.00     0.124 C 
HETATM    6  N3  UNL     1       1.018   0.872   0.379  1.00  0.00    -0.386 N 
ENDROOT
BRANCH   6   7
HETATM    7  C15 UNL     1       2.335   0.506   0.142  1.00  0.00     0.099 C 
BRANCH   7   8
HETATM    8  C16 UNL     1       2.636  -0.886  -0.339  1.00  0.00     0.295 C 
BRANCH   8   9
HETATM    9  N4  UNL     1       2.182  -1.880   0.629  1.00  0.00    -0.063 N 
ATOM     10  H43 UNL     1       2.572  -1.709   1.556  1.00  0.00     0.275 HD
ATOM     11  H42 UNL     1       1.194  -1.764   0.853  1.00  0.00     0.275 HD
ATOM     12  H41 UNL     1       2.386  -2.825   0.303  1.00  0.00     0.275 HD
ENDBRANCH   8   9
BRANCH   8  13
HETATM   13  C17 UNL     1       4.136  -1.062  -0.353  1.00  0.00     0.159 A 
HETATM   14  N5  UNL     1       5.109  -0.164  -0.432  1.00  0.00    -0.346 N 
HETATM   15  C18 UNL     1       6.284  -0.800  -0.406  1.00  0.00     0.122 A 
ATOM     16  H5  UNL     1       4.981   0.846  -0.501  1.00  0.00     0.167 HD
HETATM   17  C19 UNL     1       6.038  -2.123  -0.307  1.00  0.00     0.066 A 
HETATM   18  C20 UNL     1       7.018  -3.227  -0.243  1.00  0.00     0.078 C 
HETATM   19  O1  UNL     1       4.726  -2.248  -0.278  1.00  0.00    -0.298 OA
ENDBRANCH   8  13
ENDBRANCH   7   8
ENDBRANCH   6   7
BRANCH   1  20
HETATM   20  C3  UNL     1       0.318   2.154  -1.605  1.00  0.00     0.004 C 
HETATM   21  C4  UNL     1       1.490   2.001  -2.506  1.00  0.00     0.012 C 
BRANCH  20  22
HETATM   22  C2  UNL     1       0.277   3.531  -1.045  1.00  0.00     0.002 C 
HETATM   23  C1  UNL     1       0.160   4.581  -2.163  1.00  0.00     0.005 C 
ENDBRANCH  20  22
ENDBRANCH   1  20
BRANCH   3  24
HETATM   24  N1  UNL     1      -2.690  -0.632   0.666  1.00  0.00     0.096 N 
HETATM   25  C8  UNL     1      -3.075  -1.406   1.806  1.00  0.00     0.303 C 
HETATM   26  C9  UNL     1      -4.217  -2.353   1.524  1.00  0.00     0.302 C 
HETATM   27  N2  UNL     1      -5.006  -1.978   0.401  1.00  0.00     0.087 N 
HETATM   28  C10 UNL     1      -6.302  -2.569   0.345  1.00  0.00     0.310 C 
HETATM   29  C11 UNL     1      -5.150  -0.532   0.442  1.00  0.00     0.302 C 
HETATM   30  C12 UNL     1      -3.816   0.044   0.040  1.00  0.00     0.303 C 
ENDBRANCH   3  24
TORSDOF 7
