REMARK  6 active torsions:
REMARK  status: ('A' for Active; 'I' for Inactive)
REMARK    1  A    between atoms: C4_6  and  N2_7 
REMARK    2  A    between atoms: C8_11  and  C9_12 
REMARK    3  A    between atoms: C9_12  and  O1_13 
REMARK    4  A    between atoms: C11_18  and  C12_19 
REMARK    5  A    between atoms: C12_19  and  C13_20 
REMARK    6  A    between atoms: C13_20  and  N4_21 
ROOT
HETATM    1  C1  UNL     1      -3.108   4.292  -0.794  1.00  0.00     0.071 C 
HETATM    2  C2  UNL     1      -1.782   3.602  -0.727  1.00  0.00     0.044 A 
HETATM    3  N1  UNL     1      -1.648   2.338  -0.296  1.00  0.00    -0.353 N 
ATOM      4  H1  UNL     1      -2.485   1.831  -0.008  1.00  0.00     0.166 HD
HETATM    5  C3  UNL     1      -0.464   1.710  -0.227  1.00  0.00     0.104 A 
HETATM    6  C4  UNL     1      -0.263   0.435   0.197  1.00  0.00     0.134 A 
HETATM    7  N3  UNL     1       1.006  -0.086   0.215  1.00  0.00    -0.330 N 
ATOM      8  H3  UNL     1       1.145  -1.044   0.536  1.00  0.00     0.168 HD
HETATM    9  C11 UNL     1       2.055   0.622  -0.173  1.00  0.00     0.084 A 
HETATM   10  N5  UNL     1       1.845   1.881  -0.590  1.00  0.00    -0.344 N 
ATOM     11  H5  UNL     1       2.650   2.430  -0.890  1.00  0.00     0.167 HD
HETATM   12  C16 UNL     1       0.638   2.453  -0.633  1.00  0.00     0.067 A 
HETATM   13  C17 UNL     1       0.535   3.754  -1.082  1.00  0.00     0.076 A 
HETATM   14  C18 UNL     1      -0.697   4.363  -1.138  1.00  0.00     0.140 A 
HETATM   15  F1  UNL     1      -0.833   5.643  -1.572  1.00  0.00    -0.204 F 
ENDROOT
BRANCH   6  16
HETATM   16  N2  UNL     1      -1.365  -0.352   0.622  1.00  0.00    -0.365 N 
HETATM   17  C5  UNL     1      -2.096   0.036   1.774  1.00  0.00     0.124 C 
HETATM   18  C6  UNL     1      -3.509  -0.493   1.816  1.00  0.00     0.020 C 
HETATM   19  C7  UNL     1      -3.915  -1.113   0.511  1.00  0.00     0.010 C 
HETATM   20  C8  UNL     1      -2.909  -2.216   0.213  1.00  0.00     0.027 C 
HETATM   21  C10 UNL     1      -1.637  -1.521  -0.198  1.00  0.00     0.131 C 
BRANCH  20  22
HETATM   22  C9  UNL     1      -3.431  -3.115  -0.875  1.00  0.00     0.170 C 
BRANCH  22  23
HETATM   23  O1  UNL     1      -4.632  -3.708  -0.501  1.00  0.00    -0.400 OA
ATOM     24  H1  UNL     1      -4.962  -4.276  -1.188  1.00  0.00     0.209 HD
ENDBRANCH  22  23
ENDBRANCH  20  22
ENDBRANCH   6  16
BRANCH   9  25
HETATM   25  C12 UNL     1       3.459   0.129  -0.182  1.00  0.00     0.096 C 
BRANCH  25  26
HETATM   26  C13 UNL     1       3.552  -1.287   0.321  1.00  0.00     0.123 C 
BRANCH  26  27
HETATM   27  N4  UNL     1       4.860  -1.830   0.346  1.00  0.00    -0.420 N 
HETATM   28  C14 UNL     1       5.781  -1.274   1.272  1.00  0.00     0.142 C 
HETATM   29  C15 UNL     1       5.457  -2.043  -0.927  1.00  0.00     0.142 C 
ENDBRANCH  26  27
ENDBRANCH  25  26
ENDBRANCH   9  25
TORSDOF 6
