REMARK  6 active torsions:
REMARK  status: ('A' for Active; 'I' for Inactive)
REMARK    1  A    between atoms: C2_2  and  O1_3 
REMARK    2  A    between atoms: O1_3  and  C3_4 
REMARK    3  A    between atoms: C3_4  and  C4_6 
REMARK    4  A    between atoms: N1_8  and  C6_9 
REMARK    5  A    between atoms: C6_9  and  C7_10 
REMARK       I    between atoms: C7_10  and  N2_12 
REMARK    6  A    between atoms: N2_12  and  C8_14 
ROOT
HETATM    1  C7  UNL     1      -0.502   2.370  -0.800  1.00  0.00     0.238 C 
HETATM    2  O3  UNL     1      -1.514   3.088  -0.713  1.00  0.00    -0.272 OA
HETATM    3  N2  UNL     1      -0.495   0.998  -0.558  1.00  0.00    -0.350 N 
ATOM      4  H2  UNL     1       0.378   0.480  -0.653  1.00  0.00     0.163 HD
ENDROOT
BRANCH   1   5
HETATM    5  C6  UNL     1       0.764   3.084  -1.195  1.00  0.00     0.252 C 
BRANCH   5   6
HETATM    6  N1  UNL     1       1.846   2.130  -1.229  1.00  0.00    -0.278 N 
HETATM    7  C5  UNL     1       2.669   1.800  -0.214  1.00  0.00     0.149 A 
HETATM    8  C4  UNL     1       3.560   0.852  -0.671  1.00  0.00     0.141 A 
HETATM    9  N4  UNL     1       3.232   0.645  -1.964  1.00  0.00    -0.279 N 
HETATM   10  N3  UNL     1       2.213   1.413  -2.276  1.00  0.00    -0.240 N 
ATOM     11  H4  UNL     1       3.700  -0.004  -2.597  1.00  0.00     0.189 HD
ATOM     12  H3  UNL     1       1.769   1.450  -3.194  1.00  0.00     0.208 HD
BRANCH   8  13
HETATM   13  C3  UNL     1       4.639   0.189   0.053  1.00  0.00     0.312 C 
HETATM   14  O2  UNL     1       4.846   0.469   1.261  1.00  0.00    -0.258 OA
BRANCH  13  15
HETATM   15  O1  UNL     1       5.428  -0.736  -0.573  1.00  0.00    -0.317 OA
BRANCH  15  16
HETATM   16  C2  UNL     1       6.495  -1.426   0.052  1.00  0.00     0.175 C 
HETATM   17  C1  UNL     1       5.918  -2.203   1.214  1.00  0.00     0.034 C 
ENDBRANCH  15  16
ENDBRANCH  13  15
ENDBRANCH   8  13
ENDBRANCH   5   6
ENDBRANCH   1   5
BRANCH   3  18
HETATM   18  C8  UNL     1      -1.699   0.291  -0.175  1.00  0.00     0.034 C 
HETATM   19  C9  UNL     1      -1.360  -1.205  -0.001  1.00  0.00     0.035 C 
HETATM   20  C10 UNL     1      -2.598  -1.888   0.481  1.00  0.00    -0.012 C 
HETATM   21  C11 UNL     1      -3.645  -1.804  -0.610  1.00  0.00     0.009 C 
HETATM   22  C15 UNL     1      -3.187  -1.307   1.726  1.00  0.00     0.009 C 
HETATM   23  C12 UNL     1      -3.956  -0.355  -0.863  1.00  0.00    -0.012 C 
HETATM   24  C13 UNL     1      -4.468   0.329   0.406  1.00  0.00     0.009 C 
HETATM   25  C17 UNL     1      -2.705   0.402  -1.266  1.00  0.00     0.035 C 
HETATM   26  C14 UNL     1      -3.483   0.166   1.519  1.00  0.00    -0.012 C 
HETATM   27  C16 UNL     1      -2.157   0.814   1.161  1.00  0.00     0.035 C 
ENDBRANCH   3  18
TORSDOF 6
