REMARK  5 active torsions:
REMARK  status: ('A' for Active; 'I' for Inactive)
REMARK    1  A    between atoms: O1_2  and  C2_3 
REMARK       I    between atoms: N2_8  and  C6_9 
REMARK       I    between atoms: C6_9  and  N3_11 
REMARK    2  A    between atoms: N3_11  and  C7_13 
REMARK    3  A    between atoms: C10_18  and  O3_19 
REMARK    4  A    between atoms: O3_19  and  C11_20 
REMARK    5  A    between atoms: C11_20  and  C12_21 
ROOT
HETATM    1  C2  UNL     1       4.287  -3.843   0.607  1.00  0.00     0.151 C 
HETATM    2  C3  UNL     1       4.168  -4.826   1.670  1.00  0.00     0.098 C 
HETATM    3  N1  UNL     1       4.087  -5.607   2.512  1.00  0.00    -0.194 NA
HETATM    4  C4  UNL     1       4.509  -2.492   1.261  1.00  0.00     0.074 C 
HETATM    5  C5  UNL     1       3.215  -1.783   1.598  1.00  0.00     0.131 C 
HETATM    6  N2  UNL     1       2.483  -1.589   0.377  1.00  0.00    -0.334 N 
HETATM    7  C6  UNL     1       1.462  -0.596   0.315  1.00  0.00     0.322 C 
HETATM    8  O2  UNL     1       0.890  -0.486  -0.788  1.00  0.00    -0.247 OA
HETATM    9  N3  UNL     1       1.158   0.172   1.427  1.00  0.00    -0.307 N 
ATOM     10  H3  UNL     1       1.690   0.003   2.281  1.00  0.00     0.170 HD
HETATM   11  C17 UNL     1       2.823  -2.443  -0.766  1.00  0.00     0.131 C 
HETATM   12  C18 UNL     1       2.977  -3.837  -0.182  1.00  0.00     0.074 C 
ENDROOT
BRANCH   1  13
HETATM   13  O1  UNL     1       5.313  -4.045  -0.252  1.00  0.00    -0.370 OA
HETATM   14  C1  UNL     1       5.379  -5.188  -0.972  1.00  0.00     0.204 C 
ENDBRANCH   1  13
BRANCH   9  15
HETATM   15  C7  UNL     1       0.163   1.173   1.460  1.00  0.00     0.054 A 
HETATM   16  C8  UNL     1       0.284   2.199   2.429  1.00  0.00     0.117 A 
HETATM   17  N4  UNL     1      -0.650   3.128   2.480  1.00  0.00    -0.370 N 
HETATM   18  C9  UNL     1      -1.723   3.142   1.641  1.00  0.00     0.124 A 
ATOM     19  H4  UNL     1      -0.566   3.868   3.177  1.00  0.00     0.164 HD
HETATM   20  C10 UNL     1      -1.863   2.163   0.697  1.00  0.00     0.086 A 
HETATM   21  C16 UNL     1      -0.894   1.153   0.606  1.00  0.00     0.069 A 
BRANCH  20  22
HETATM   22  O3  UNL     1      -2.949   2.122  -0.201  1.00  0.00    -0.349 OA
BRANCH  22  23
HETATM   23  C11 UNL     1      -3.933   3.150  -0.117  1.00  0.00     0.182 C 
BRANCH  23  24
HETATM   24  C12 UNL     1      -4.982   2.877  -1.172  1.00  0.00     0.036 C 
HETATM   25  C13 UNL     1      -6.043   3.928  -1.138  1.00  0.00     0.035 C 
HETATM   26  C14 UNL     1      -6.228   4.204  -2.624  1.00  0.00     0.168 C 
HETATM   27  O4  UNL     1      -4.989   3.952  -3.191  1.00  0.00    -0.391 OA
HETATM   28  C15 UNL     1      -4.390   2.914  -2.528  1.00  0.00     0.174 C 
ENDBRANCH  23  24
ENDBRANCH  22  23
ENDBRANCH  20  22
ENDBRANCH   9  15
TORSDOF 5
