REMARK  5 active torsions:
REMARK  status: ('A' for Active; 'I' for Inactive)
REMARK    1  A    between atoms: C2_5  and  O2_6 
REMARK    2  A    between atoms: O2_6  and  C3_7 
REMARK    3  A    between atoms: C3_7  and  C4_8 
REMARK    4  A    between atoms: C9_14  and  N2_15 
REMARK    5  A    between atoms: C12_18  and  C13_19 
ROOT
HETATM    1  O1  UNL     1      -1.064  -4.324   2.860  1.00  0.00    -0.265 OA
HETATM    2  C1  UNL     1      -1.091  -3.346   2.052  1.00  0.00     0.288 A 
HETATM    3  N1  UNL     1      -2.228  -3.004   1.472  1.00  0.00    -0.301 N 
ATOM      4  H1  UNL     1      -3.062  -3.547   1.697  1.00  0.00     0.171 HD
HETATM    5  C2  UNL     1      -2.359  -1.946   0.571  1.00  0.00     0.147 A 
HETATM    6  C8  UNL     1      -1.167  -1.255   0.319  1.00  0.00     0.088 A 
HETATM    7  C9  UNL     1       0.037  -1.575   0.900  1.00  0.00     0.079 A 
HETATM    8  C18 UNL     1       0.050  -2.639   1.775  1.00  0.00     0.210 A 
HETATM    9  F1  UNL     1       1.209  -3.005   2.381  1.00  0.00    -0.198 F 
ENDROOT
BRANCH   7  10
HETATM   10  N2  UNL     1       1.235  -0.839   0.615  1.00  0.00    -0.378 N 
HETATM   11  C10 UNL     1       1.877  -0.173   1.737  1.00  0.00     0.123 C 
HETATM   12  C11 UNL     1       2.865   0.820   1.118  1.00  0.00     0.031 C 
HETATM   13  C12 UNL     1       3.910  -0.021   0.426  1.00  0.00     0.046 C 
HETATM   14  C16 UNL     1       3.303  -0.757  -0.718  1.00  0.00     0.031 C 
HETATM   15  C17 UNL     1       1.797  -0.748  -0.705  1.00  0.00     0.123 C 
BRANCH  13  16
HETATM   16  C13 UNL     1       4.980   0.924  -0.065  1.00  0.00     0.054 A 
HETATM   17  N3  UNL     1       4.882   1.871  -0.983  1.00  0.00    -0.363 N 
HETATM   18  C14 UNL     1       5.915   2.593  -1.279  1.00  0.00     0.095 A 
ATOM     19  H3  UNL     1       3.993   2.032  -1.457  1.00  0.00     0.165 HD
HETATM   20  C15 UNL     1       7.086   2.330  -0.606  1.00  0.00     0.068 A 
HETATM   21  S1  UNL     1       6.612   1.046   0.417  1.00  0.00    -0.087 SA
ENDBRANCH  13  16
ENDBRANCH   7  10
BRANCH   5  22
HETATM   22  O2  UNL     1      -3.534  -1.679   0.047  1.00  0.00    -0.335 OA
BRANCH  22  23
HETATM   23  C3  UNL     1      -4.323  -0.983  -0.711  1.00  0.00     0.184 C 
BRANCH  23  24
HETATM   24  C4  UNL     1      -4.628   0.460  -0.480  1.00  0.00     0.036 C 
HETATM   25  C5  UNL     1      -3.520   1.434  -0.518  1.00  0.00     0.035 C 
HETATM   26  C6  UNL     1      -4.205   2.700  -1.052  1.00  0.00     0.168 C 
HETATM   27  O3  UNL     1      -5.317   2.299  -1.745  1.00  0.00    -0.391 OA
HETATM   28  C7  UNL     1      -5.545   0.960  -1.609  1.00  0.00     0.174 C 
ENDBRANCH  23  24
ENDBRANCH  22  23
ENDBRANCH   5  22
TORSDOF 5
