REMARK  6 active torsions:
REMARK  status: ('A' for Active; 'I' for Inactive)
REMARK    1  A    between atoms: C2_2  and  N1_3 
REMARK    2  A    between atoms: N1_3  and  C3_5 
REMARK    3  A    between atoms: C4_8  and  N3_9 
REMARK    4  A    between atoms: N4_12  and  C7_13 
REMARK    5  A    between atoms: C7_13  and  C8_14 
REMARK    6  A    between atoms: C8_14  and  O1_15 
ROOT
HETATM    1  C3  UNL     1       3.573  -0.125   0.452  1.00  0.00     0.147 A 
HETATM    2  N2  UNL     1       2.269  -0.390   0.430  1.00  0.00    -0.322 N 
ATOM      3  H2  UNL     1       1.848  -0.667   1.317  1.00  0.00     0.169 HD
HETATM    4  C4  UNL     1       1.443  -0.334  -0.632  1.00  0.00     0.129 A 
HETATM    5  C12 UNL     1       1.810   0.011  -1.894  1.00  0.00     0.106 A 
HETATM    6 CL1  UNL     1       0.647   0.106  -3.241  1.00  0.00    -0.078 Cl
HETATM    7  C13 UNL     1       3.109   0.363  -2.292  1.00  0.00     0.100 A 
HETATM    8  S1  UNL     1       3.481   0.768  -3.829  1.00  0.00    -0.070 SA
HETATM    9  S2  UNL     1       4.254   0.333  -1.038  1.00  0.00    -0.041 SA
ENDROOT
BRANCH   4  10
HETATM   10  N3  UNL     1       0.079  -0.654  -0.342  1.00  0.00    -0.362 N 
HETATM   11  C5  UNL     1      -0.929  -1.043  -1.291  1.00  0.00     0.154 C 
HETATM   12  C6  UNL     1      -1.965  -1.898  -0.513  1.00  0.00     0.292 C 
HETATM   13  N4  UNL     1      -2.688  -1.098   0.447  1.00  0.00     0.093 N 
HETATM   14  C10 UNL     1      -1.873  -0.055   0.940  1.00  0.00     0.292 C 
HETATM   15  C11 UNL     1      -0.408  -0.555   1.055  1.00  0.00     0.154 C 
BRANCH  13  16
HETATM   16  C7  UNL     1      -4.001  -0.855   0.018  1.00  0.00     0.298 C 
BRANCH  16  17
HETATM   17  C8  UNL     1      -4.893  -0.069   0.919  1.00  0.00     0.197 C 
BRANCH  17  18
HETATM   18  O1  UNL     1      -4.533   1.223   1.190  1.00  0.00    -0.394 OA
HETATM   19  C9  UNL     1      -4.559   2.063   0.087  1.00  0.00     0.201 C 
ENDBRANCH  17  18
ENDBRANCH  16  17
ENDBRANCH  13  16
ENDBRANCH   4  10
BRANCH   1  20
HETATM   20  N1  UNL     1       4.299  -0.199   1.525  1.00  0.00    -0.371 N 
ATOM     21  H1  UNL     1       3.872  -0.471   2.411  1.00  0.00     0.161 HD
BRANCH  20  22
HETATM   22  C2  UNL     1       5.710   0.103   1.468  1.00  0.00     0.117 C 
HETATM   23  C1  UNL     1       6.031   1.435   0.878  1.00  0.00     0.026 C 
ENDBRANCH  20  22
ENDBRANCH   1  20
TORSDOF 6
