REMARK  5 active torsions:
REMARK  status: ('A' for Active; 'I' for Inactive)
REMARK    1  A    between atoms: C2_2  and  C4_4 
REMARK    2  A    between atoms: C2_2  and  N2_7 
REMARK       I    between atoms: N2_7  and  C6_9 
REMARK    3  A    between atoms: C6_9  and  C7_11 
REMARK    4  A    between atoms: C8_15  and  C9_16 
REMARK       I    between atoms: N4_20  and  C13_21 
REMARK    5  A    between atoms: C13_21  and  C14_23 
ROOT
HETATM    1  C4  UNL     1       5.086   0.698  -2.036  1.00  0.00     0.154 C 
HETATM    2  C5  UNL     1       4.784   2.013  -2.488  1.00  0.00     0.061 C 
HETATM    3  N1  UNL     1       4.563   3.073  -2.886  1.00  0.00    -0.197 NA
ENDROOT
BRANCH   1   4
HETATM    4  C2  UNL     1       4.841   0.341  -0.609  1.00  0.00     0.038 C 
HETATM    5  C1  UNL     1       5.335  -1.156  -0.564  1.00  0.00     0.039 C 
HETATM    6  C3  UNL     1       5.741   1.083   0.322  1.00  0.00     0.039 C 
BRANCH   4   7
HETATM    7  N2  UNL     1       3.486   0.298  -0.176  1.00  0.00    -0.345 N 
HETATM    8  C6  UNL     1       2.640   1.365   0.115  1.00  0.00     0.288 C 
HETATM    9  O1  UNL     1       2.999   2.545   0.037  1.00  0.00    -0.264 OA
ATOM     10  H2  UNL     1       3.083  -0.633  -0.065  1.00  0.00     0.163 HD
BRANCH   8  11
HETATM   11  C7  UNL     1       1.268   1.111   0.531  1.00  0.00     0.196 A 
HETATM   12  N3  UNL     1       0.301   2.012   0.854  1.00  0.00    -0.238 N 
HETATM   13  O2  UNL     1      -0.796   1.386   1.175  1.00  0.00    -0.220 OA
ATOM     14  H3  UNL     1       0.417   3.025   0.846  1.00  0.00     0.196 HD
HETATM   15  C8  UNL     1      -0.619   0.090   1.084  1.00  0.00     0.171 A 
HETATM   16  N5  UNL     1       0.654  -0.089   0.687  1.00  0.00    -0.317 N 
ATOM     17  H5  UNL     1       1.094  -0.995   0.527  1.00  0.00     0.169 HD
BRANCH  15  18
HETATM   18  C9  UNL     1      -1.645  -0.977   1.370  1.00  0.00     0.164 C 
HETATM   19  C10 UNL     1      -1.939  -1.035   2.856  1.00  0.00     0.035 C 
HETATM   20  C11 UNL     1      -3.295  -1.702   2.870  1.00  0.00     0.022 C 
HETATM   21  C12 UNL     1      -3.969  -1.131   1.664  1.00  0.00     0.127 C 
HETATM   22  N4  UNL     1      -2.926  -0.668   0.770  1.00  0.00    -0.337 N 
HETATM   23  C13 UNL     1      -3.122  -0.030  -0.461  1.00  0.00     0.259 C 
HETATM   24  O3  UNL     1      -2.131   0.326  -1.148  1.00  0.00    -0.270 OA
BRANCH  23  25
HETATM   25  C14 UNL     1      -4.468   0.258  -1.018  1.00  0.00     0.176 C 
HETATM   26  C15 UNL     1      -5.257  -0.996  -1.276  1.00  0.00     0.062 C 
HETATM   27  C16 UNL     1      -4.378   1.099  -2.278  1.00  0.00     0.062 C 
HETATM   28  F1  UNL     1      -5.215   1.025  -0.112  1.00  0.00    -0.233 F 
ENDBRANCH  23  25
ENDBRANCH  15  18
ENDBRANCH   8  11
ENDBRANCH   4   7
ENDBRANCH   1   4
TORSDOF 5
