REMARK  6 active torsions:
REMARK  status: ('A' for Active; 'I' for Inactive)
REMARK    1  A    between atoms: C4_6  and  C5_7 
REMARK    2  A    between atoms: C5_7  and  N2_8 
REMARK    3  A    between atoms: C6_9  and  N3_10 
REMARK    4  A    between atoms: N3_10  and  C7_12 
REMARK    5  A    between atoms: C7_12  and  C8_13 
REMARK    6  A    between atoms: C8_13  and  N4_14 
ROOT
HETATM    1  N2  UNL     1      -0.542   0.140   0.985  1.00  0.00    -0.160 N 
HETATM    2  C6  UNL     1       0.719  -0.047   0.454  1.00  0.00     0.686 A 
HETATM    3  N5  UNL     1       0.723  -1.220  -0.204  1.00  0.00    -0.184 N 
ATOM      4  H5  UNL     1       1.523  -1.617  -0.697  1.00  0.00     0.184 HD
HETATM    5  C11 UNL     1      -0.504  -1.792  -0.110  1.00  0.00     0.133 A 
HETATM    6  C12 UNL     1      -1.012  -2.974  -0.605  1.00  0.00     0.155 A 
HETATM    7  F1  UNL     1      -0.275  -3.840  -1.339  1.00  0.00    -0.203 F 
HETATM    8  C13 UNL     1      -2.331  -3.254  -0.321  1.00  0.00     0.001 A 
HETATM    9  C14 UNL     1      -2.942  -4.505  -0.822  1.00  0.00     0.054 C 
HETATM   10  C15 UNL     1      -3.077  -2.378   0.422  1.00  0.00     0.016 A 
HETATM   11  C16 UNL     1      -4.510  -2.687   0.725  1.00  0.00     0.069 C 
HETATM   12  N6  UNL     1      -2.540  -1.240   0.882  1.00  0.00    -0.343 N 
ATOM     13  H6  UNL     1      -3.118  -0.605   1.432  1.00  0.00     0.167 HD
HETATM   14  C17 UNL     1      -1.252  -0.912   0.636  1.00  0.00     0.155 A 
ENDROOT
BRANCH   1  15
HETATM   15  C5  UNL     1      -0.949   1.283   1.757  1.00  0.00     0.216 C 
BRANCH  15  16
HETATM   16  C4  UNL     1      -1.511   2.323   0.850  1.00  0.00     0.089 A 
HETATM   17  C3  UNL     1      -0.898   3.333   0.179  1.00  0.00     0.124 A 
HETATM   18  N1  UNL     1      -1.873   3.988  -0.504  1.00  0.00    -0.348 N 
HETATM   19  C2  UNL     1      -3.050   3.385  -0.250  1.00  0.00     0.119 A 
ATOM     20  H1  UNL     1      -1.737   4.799  -1.107  1.00  0.00     0.167 HD
HETATM   21  C1  UNL     1      -4.394   3.785  -0.802  1.00  0.00     0.098 C 
HETATM   22  O1  UNL     1      -2.802   2.394   0.562  1.00  0.00    -0.299 OA
ENDBRANCH  15  16
ENDBRANCH   1  15
BRANCH   2  23
HETATM   23  N3  UNL     1       1.637   0.793   0.614  1.00  0.00    -0.203 N 
ATOM     24  H3  UNL     1       1.288   1.574   1.170  1.00  0.00     0.183 HD
BRANCH  23  25
HETATM   25  C7  UNL     1       2.963   1.018   0.291  1.00  0.00     0.108 C 
BRANCH  25  26
HETATM   26  C8  UNL     1       3.575  -0.071  -0.522  1.00  0.00     0.316 C 
BRANCH  26  27
HETATM   27  N4  UNL     1       4.963   0.174  -0.854  1.00  0.00     0.084 N 
HETATM   28  C9  UNL     1       5.123   1.272  -1.775  1.00  0.00     0.309 C 
HETATM   29  C10 UNL     1       5.834   0.232   0.270  1.00  0.00     0.309 C 
ENDBRANCH  26  27
ENDBRANCH  25  26
ENDBRANCH  23  25
ENDBRANCH   2  23
TORSDOF 6
