REMARK  13 active torsions:
REMARK  status: ('A' for Active; 'I' for Inactive)
REMARK    1  A    between atoms: O1_2  and  C2_3 
REMARK    2  A    between atoms: C3_4  and  O2_5 
REMARK    3  A    between atoms: C6_9  and  O3_10 
REMARK    4  A    between atoms: C7_12  and  O4_13 
REMARK    5  A    between atoms: O4_13  and  C8_14 
REMARK    6  A    between atoms: C8_14  and  O5_15 
REMARK    7  A    between atoms: C11_20  and  S1_21 
REMARK    8  A    between atoms: S1_21  and  C12_22 
REMARK    9  A    between atoms: C12_22  and  C13_23 
REMARK   10  A    between atoms: N2_25  and  C15_26 
REMARK   11  A    between atoms: C15_26  and  O6_27 
REMARK   12  A    between atoms: C17_42  and  C18_43 
REMARK   13  A    between atoms: C18_43  and  O7_44 
ROOT
HETATM    1  C2  UNL     1      -4.174   0.793  -0.306  1.00  0.00     0.138 A 
HETATM    2  C3  UNL     1      -2.790   0.945  -0.032  1.00  0.00     0.115 A 
HETATM    3  C4  UNL     1      -2.235   0.125   0.886  1.00  0.00     0.038 A 
HETATM    4  C5  UNL     1      -2.965  -0.845   1.558  1.00  0.00    -0.005 A 
HETATM    5  C6  UNL     1      -4.308  -0.983   1.283  1.00  0.00     0.109 A 
HETATM    6  C7  UNL     1      -4.894  -0.158   0.351  1.00  0.00     0.141 A 
HETATM    7  C9  UNL     1      -2.420  -1.760   2.552  1.00  0.00     0.063 A 
HETATM    8  C10 UNL     1      -1.005  -1.613   2.870  1.00  0.00     0.136 A 
HETATM    9  N1  UNL     1      -0.299  -0.605   2.152  1.00  0.00    -0.325 N 
HETATM   10  C11 UNL     1       1.000  -0.309   2.275  1.00  0.00     0.147 A 
HETATM   11  N9  UNL     1       1.286   0.677   1.451  1.00  0.00    -0.336 N 
ATOM     12  H9  UNL     1       2.209   1.098   1.343  1.00  0.00     0.168 HD
HETATM   13  C17 UNL     1       0.159   1.059   0.755  1.00  0.00     0.063 A 
HETATM   14  C19 UNL     1      -0.816   0.237   1.216  1.00  0.00     0.075 A 
ENDROOT
BRANCH  10  15
HETATM   15  S1  UNL     1       2.180  -1.101   3.365  1.00  0.00    -0.087 SA
BRANCH  15  16
HETATM   16  C12 UNL     1       2.915  -2.501   2.444  1.00  0.00     0.142 C 
BRANCH  16  17
HETATM   17  C13 UNL     1       3.715  -1.957   1.321  1.00  0.00     0.054 A 
HETATM   18  C14 UNL     1       3.335  -1.669   0.030  1.00  0.00     0.145 A 
HETATM   19  N2  UNL     1       4.416  -1.192  -0.628  1.00  0.00    -0.211 N 
HETATM   20  N7  UNL     1       5.403  -1.197   0.249  1.00  0.00    -0.235 N 
HETATM   21  N8  UNL     1       5.015  -1.649   1.421  1.00  0.00    -0.288 N 
ATOM     22  H7  UNL     1       6.353  -0.887   0.042  1.00  0.00     0.208 HD
ATOM     23  H8  UNL     1       5.597  -1.747   2.253  1.00  0.00     0.188 HD
BRANCH  19  24
HETATM   24  C15 UNL     1       4.504  -0.756  -2.006  1.00  0.00     0.422 C 
HETATM   25  N3  UNL     1       5.737  -1.188  -2.583  1.00  0.00     0.010 N 
HETATM   26  C16 UNL     1       6.580  -0.073  -2.892  1.00  0.00     0.371 C 
ATOM     27  H32 UNL     1       6.213  -1.865  -1.988  1.00  0.00     0.286 HD
ATOM     28  H31 UNL     1       5.583  -1.780  -3.399  1.00  0.00     0.286 HD
HETATM   29  N4  UNL     1       6.552   0.923  -1.846  1.00  0.00    -0.102 NA
HETATM   30  N5  UNL     1       5.280   1.450  -1.643  1.00  0.00    -0.032 NA
HETATM   31  N6  UNL     1       4.261   0.663  -2.135  1.00  0.00    -0.040 NA
BRANCH  24  32
HETATM   32  O6  UNL     1       3.459  -1.408  -2.694  1.00  0.00    -0.333 OA
ATOM     33  H6  UNL     1       3.517  -1.122  -3.598  1.00  0.00     0.216 HD
ENDBRANCH  24  32
ENDBRANCH  19  24
ENDBRANCH  16  17
ENDBRANCH  15  16
ENDBRANCH  10  15
BRANCH  13  34
HETATM   34  C18 UNL     1       0.251   2.137  -0.218  1.00  0.00     0.223 C 
BRANCH  34  35
HETATM   35  O7  UNL     1       1.609   2.629  -0.248  1.00  0.00    -0.395 OA
ATOM     36  H7  UNL     1       1.669   3.333  -0.883  1.00  0.00     0.209 HD
ENDBRANCH  34  35
ENDBRANCH  13  34
BRANCH   2  37
HETATM   37  O2  UNL     1      -2.222   1.910  -0.747  1.00  0.00    -0.357 OA
ATOM     38  H2  UNL     1      -1.295   2.012  -0.564  1.00  0.00     0.217 HD
ENDBRANCH   2  37
BRANCH   5  39
HETATM   39  O3  UNL     1      -5.086  -1.936   1.924  1.00  0.00    -0.357 OA
ATOM     40  H3  UNL     1      -6.012  -2.031   1.734  1.00  0.00     0.217 HD
ENDBRANCH   5  39
BRANCH   1  41
HETATM   41  O1  UNL     1      -4.750   1.634  -1.255  1.00  0.00    -0.351 OA
HETATM   42  C1  UNL     1      -5.263   2.905  -1.027  1.00  0.00     0.210 C 
ENDBRANCH   1  41
BRANCH   6  43
HETATM   43  O4  UNL     1      -6.239  -0.322   0.101  1.00  0.00    -0.321 OA
BRANCH  43  44
HETATM   44  C8  UNL     1      -7.248   0.286   0.854  1.00  0.00     0.341 C 
BRANCH  44  45
HETATM   45  O5  UNL     1      -7.236  -0.062   2.209  1.00  0.00    -0.377 OA
ATOM     46  H5  UNL     1      -7.922   0.351   2.721  1.00  0.00     0.212 HD
ENDBRANCH  44  45
ENDBRANCH  43  44
ENDBRANCH   6  43
TORSDOF 13
