REMARK  14 active torsions:
REMARK  status: ('A' for Active; 'I' for Inactive)
REMARK    1  A    between atoms: N1_1  and  C1_4 
REMARK    2  A    between atoms: C2_7  and  N3_8 
REMARK    3  A    between atoms: N3_8  and  N4_10 
REMARK    4  A    between atoms: C3_13  and  C4_14 
REMARK    5  A    between atoms: C4_14  and  N6_15 
REMARK    6  A    between atoms: C4_14  and  C5_19 
REMARK    7  A    between atoms: C6_24  and  C7_25 
REMARK    8  A    between atoms: C8_28  and  C9_29 
REMARK    9  A    between atoms: C10_34  and  C11_35 
REMARK   10  A    between atoms: C11_35  and  O3_36 
REMARK   11  A    between atoms: C11_35  and  C12_38 
REMARK   12  A    between atoms: C12_38  and  O4_39 
REMARK   13  A    between atoms: C12_38  and  C13_41 
REMARK   14  A    between atoms: C13_41  and  O5_42 
ROOT
HETATM    1  N4  UNL     1      -2.962  -0.099  -0.246  1.00  0.00    -0.174 N 
HETATM    2  N5  UNL     1      -3.745  -1.187  -0.286  1.00  0.00    -0.263 N 
ATOM      3  H5  UNL     1      -4.764  -1.192  -0.318  1.00  0.00     0.190 HD
HETATM    4  C3  UNL     1      -2.965  -2.249  -0.277  1.00  0.00     0.141 A 
HETATM    5  N7  UNL     1      -1.676  -1.849  -0.231  1.00  0.00    -0.324 N 
ATOM      6  H7  UNL     1      -0.851  -2.449  -0.213  1.00  0.00     0.169 HD
HETATM    7  C6  UNL     1      -1.693  -0.498  -0.213  1.00  0.00     0.181 A 
ENDROOT
BRANCH   7   8
HETATM    8  C7  UNL     1      -0.484   0.355  -0.173  1.00  0.00     0.122 A 
HETATM    9  N8  UNL     1       0.775  -0.097  -0.154  1.00  0.00    -0.344 N 
HETATM   10  C8  UNL     1       1.763   0.721  -0.114  1.00  0.00     0.085 A 
ATOM     11  H8  UNL     1       0.951  -1.101  -0.171  1.00  0.00     0.167 HD
HETATM   12  C14 UNL     1       1.467   2.074  -0.090  1.00  0.00     0.085 A 
HETATM   13  S1  UNL     1      -0.234   2.030  -0.129  1.00  0.00    -0.078 SA
BRANCH  10  14
HETATM   14  C9  UNL     1       3.185   0.308  -0.108  1.00  0.00     0.149 A 
HETATM   15  N9  UNL     1       3.586  -0.983  -0.165  1.00  0.00    -0.282 N 
HETATM   16  N10 UNL     1       4.924  -1.018  -0.160  1.00  0.00    -0.285 N 
ATOM     17  H9  UNL     1       2.970  -1.795  -0.205  1.00  0.00     0.188 HD
HETATM   18  C10 UNL     1       5.372   0.248  -0.101  1.00  0.00     0.129 A 
ATOM     19  H10 UNL     1       5.502  -1.858  -0.195  1.00  0.00     0.188 HD
HETATM   20  N11 UNL     1       4.292   1.039  -0.069  1.00  0.00    -0.326 N 
ATOM     21  H11 UNL     1       4.317   2.058  -0.021  1.00  0.00     0.169 HD
BRANCH  18  22
HETATM   22  C11 UNL     1       6.795   0.667  -0.089  1.00  0.00     0.217 C 
BRANCH  22  23
HETATM   23  O3  UNL     1       6.942   1.772  -0.962  1.00  0.00    -0.385 OA
ATOM     24  H3  UNL     1       7.853   2.040  -0.954  1.00  0.00     0.210 HD
ENDBRANCH  22  23
BRANCH  22  25
HETATM   25  C12 UNL     1       7.689  -0.465  -0.587  1.00  0.00     0.177 C 
BRANCH  25  26
HETATM   26  O4  UNL     1       7.289  -0.830  -1.869  1.00  0.00    -0.390 OA
ATOM     27  H4  UNL     1       7.846  -1.535  -2.179  1.00  0.00     0.210 HD
ENDBRANCH  25  26
BRANCH  25  28
HETATM   28  C13 UNL     1       9.141   0.024  -0.640  1.00  0.00     0.198 C 
BRANCH  28  29
HETATM   29  O5  UNL     1       9.573   0.396   0.628  1.00  0.00    -0.398 OA
ATOM     30  H5  UNL     1      10.473   0.699   0.595  1.00  0.00     0.209 HD
ENDBRANCH  28  29
ENDBRANCH  25  28
ENDBRANCH  22  25
ENDBRANCH  18  22
ENDBRANCH  10  14
ENDBRANCH   7   8
BRANCH   1  31
HETATM   31  N3  UNL     1      -3.490   1.190  -0.214  1.00  0.00    -0.260 N 
ATOM     32  H3  UNL     1      -2.785   1.924  -0.284  1.00  0.00     0.191 HD
BRANCH  31  33
HETATM   33  C2  UNL     1      -4.789   1.671  -0.105  1.00  0.00     0.170 A 
HETATM   34  N2  UNL     1      -4.971   3.012  -0.419  1.00  0.00    -0.173 N 
HETATM   35  C1  UNL     1      -6.158   3.607  -0.317  1.00  0.00     0.679 A 
ATOM     36  H2  UNL     1      -4.170   3.558  -0.738  1.00  0.00     0.186 HD
HETATM   37  N14 UNL     1      -7.223   2.935   0.092  1.00  0.00    -0.173 N 
HETATM   38  C16 UNL     1      -7.126   1.647   0.411  1.00  0.00     0.175 A 
ATOM     39  H14 UNL     1      -8.124   3.408   0.163  1.00  0.00     0.186 HD
HETATM   40  C15 UNL     1      -5.885   0.997   0.312  1.00  0.00     0.148 A 
HETATM   41  N13 UNL     1      -7.991   0.715   0.862  1.00  0.00    -0.223 N 
HETATM   42  N12 UNL     1      -6.124  -0.239   0.707  1.00  0.00    -0.234 N 
HETATM   43  O6  UNL     1      -7.351  -0.390   1.024  1.00  0.00    -0.155 OA
ATOM     44  H12 UNL     1      -5.421  -0.977   0.753  1.00  0.00     0.197 HD
ATOM     45  H13 UNL     1      -8.984   0.861   1.044  1.00  0.00     0.198 HD
BRANCH  35  46
HETATM   46  N1  UNL     1      -6.204   4.873  -0.637  1.00  0.00    -0.234 N 
ATOM     47  H12 UNL     1      -5.384   5.391  -0.952  1.00  0.00     0.174 HD
ATOM     48  H11 UNL     1      -7.113   5.329  -0.559  1.00  0.00     0.174 HD
ENDBRANCH  35  46
ENDBRANCH  31  33
ENDBRANCH   1  31
BRANCH   4  49
HETATM   49  C4  UNL     1      -3.454  -3.677  -0.323  1.00  0.00     0.351 C 
BRANCH  49  50
HETATM   50  N6  UNL     1      -2.904  -4.337   0.832  1.00  0.00    -0.058 N 
ATOM     51  H63 UNL     1      -1.889  -4.260   0.895  1.00  0.00     0.275 HD
ATOM     52  H62 UNL     1      -3.122  -3.864   1.709  1.00  0.00     0.275 HD
ATOM     53  H61 UNL     1      -3.234  -5.302   0.801  1.00  0.00     0.275 HD
ENDBRANCH  49  50
BRANCH  49  54
HETATM   54  C5  UNL     1      -4.926  -3.662  -0.332  1.00  0.00     0.212 C 
HETATM   55  O1  UNL     1      -5.587  -4.137   0.615  1.00  0.00    -0.646 OA
HETATM   56  O2  UNL     1      -5.604  -3.115  -1.406  1.00  0.00    -0.646 OA
ENDBRANCH  49  54
ENDBRANCH   4  49
TORSDOF 14
