REMARK  14 active torsions:
REMARK  status: ('A' for Active; 'I' for Inactive)
REMARK    1  A    between atoms: N1_1  and  C1_4 
REMARK    2  A    between atoms: C2_10  and  N4_11 
REMARK    3  A    between atoms: C3_16  and  C4_17 
REMARK       I    between atoms: C4_17  and  N7_19 
REMARK    4  A    between atoms: N7_19  and  N8_21 
REMARK    5  A    between atoms: C5_23  and  C6_24 
REMARK       I    between atoms: C6_24  and  N9_26 
REMARK    6  A    between atoms: N9_26  and  N10_28 
REMARK    7  A    between atoms: N10_28  and  C7_29 
REMARK    8  A    between atoms: C7_29  and  C8_31 
REMARK    9  A    between atoms: C9_32  and  O4_33 
REMARK   10  A    between atoms: C10_35  and  S2_36 
REMARK   11  A    between atoms: S2_36  and  C11_37 
REMARK   12  A    between atoms: C11_37  and  N11_38 
REMARK   13  A    between atoms: C11_37  and  N12_42 
REMARK   14  A    between atoms: C13_50  and  O6_51 
ROOT
HETATM    1  C6  UNL     1       0.130  -0.992  -2.238  1.00  0.00     0.286 C 
HETATM    2  O3  UNL     1      -0.548  -1.849  -2.871  1.00  0.00    -0.264 OA
HETATM    3  N9  UNL     1      -0.499   0.306  -2.068  1.00  0.00    -0.197 N 
ATOM      4  H9  UNL     1       0.046   1.000  -1.556  1.00  0.00     0.205 HD
ENDROOT
BRANCH   1   5
HETATM    5  C5  UNL     1       1.446  -1.297  -1.718  1.00  0.00     0.183 C 
HETATM    6  N8  UNL     1       2.086  -0.408  -1.102  1.00  0.00    -0.304 N 
ATOM      7  H8  UNL     1       1.611   0.491  -1.017  1.00  0.00     0.186 HD
BRANCH   6   8
HETATM    8  N7  UNL     1       3.339  -0.470  -0.523  1.00  0.00    -0.263 N 
HETATM    9  C4  UNL     1       4.160   0.678  -0.509  1.00  0.00     0.306 C 
HETATM   10  O2  UNL     1       3.731   1.734  -1.029  1.00  0.00    -0.262 OA
ATOM     11  H7  UNL     1       3.669  -1.341  -0.108  1.00  0.00     0.190 HD
BRANCH   9  12
HETATM   12  C3  UNL     1       5.491   0.685   0.090  1.00  0.00     0.208 A 
HETATM   13  N6  UNL     1       6.345   1.725   0.122  1.00  0.00    -0.264 N 
HETATM   14  N5  UNL     1       7.446   1.367   0.754  1.00  0.00    -0.218 N 
ATOM     15  H6  UNL     1       6.168   2.646  -0.280  1.00  0.00     0.190 HD
HETATM   16  N4  UNL     1       7.320   0.099   1.138  1.00  0.00    -0.158 N 
ATOM     17  H5  UNL     1       8.258   1.962   0.920  1.00  0.00     0.210 HD
HETATM   18  N14 UNL     1       6.134  -0.304   0.730  1.00  0.00    -0.255 N 
ATOM     19  H14 UNL     1       5.756  -1.240   0.880  1.00  0.00     0.191 HD
BRANCH  16  20
HETATM   20  C2  UNL     1       8.339  -0.615   1.861  1.00  0.00     0.214 A 
HETATM   21  C1  UNL     1       8.974  -0.093   2.966  1.00  0.00     0.171 A 
HETATM   22  N2  UNL     1       9.844  -1.036   3.359  1.00  0.00    -0.222 N 
HETATM   23  O1  UNL     1       9.735  -2.051   2.543  1.00  0.00    -0.153 OA
ATOM     24  H2  UNL     1      10.479  -0.972   4.155  1.00  0.00     0.198 HD
HETATM   25  N3  UNL     1       8.835  -1.823   1.633  1.00  0.00    -0.219 N 
ATOM     26  H3  UNL     1       8.561  -2.457   0.882  1.00  0.00     0.198 HD
BRANCH  21  27
HETATM   27  N1  UNL     1       8.814   1.050   3.550  1.00  0.00    -0.381 N 
ATOM     28  H12 UNL     1       9.284   1.437   4.368  1.00  0.00     0.157 HD
ATOM     29  H11 UNL     1       8.153   1.767   3.251  1.00  0.00     0.157 HD
ENDBRANCH  21  27
ENDBRANCH  16  20
ENDBRANCH   9  12
ENDBRANCH   6   8
ENDBRANCH   1   5
BRANCH   3  30
HETATM   30  N10 UNL     1      -1.656   0.694  -2.480  1.00  0.00    -0.314 NA
BRANCH  30  31
HETATM   31  C7  UNL     1      -2.727   1.047  -2.853  1.00  0.00     0.195 C 
HETATM   32  S1  UNL     1      -2.778   2.181  -4.292  1.00  0.00    -0.014 SA
BRANCH  31  33
HETATM   33  C8  UNL     1      -4.038   0.683  -2.280  1.00  0.00     0.089 A 
HETATM   34  C9  UNL     1      -4.135  -0.158  -1.181  1.00  0.00     0.116 A 
HETATM   35  C10 UNL     1      -5.359  -0.524  -0.630  1.00  0.00     0.110 A 
HETATM   36  N13 UNL     1      -6.475  -0.028  -1.205  1.00  0.00    -0.313 N 
HETATM   37  C12 UNL     1      -6.406   0.789  -2.271  1.00  0.00     0.280 A 
ATOM     38  H13 UNL     1      -7.388  -0.278  -0.824  1.00  0.00     0.170 HD
HETATM   39  O5  UNL     1      -7.464   1.253  -2.809  1.00  0.00    -0.265 OA
HETATM   40  C13 UNL     1      -5.206   1.160  -2.828  1.00  0.00     0.151 A 
BRANCH  34  41
HETATM   41  O4  UNL     1      -3.008  -0.669  -0.580  1.00  0.00    -0.357 OA
ATOM     42  H4  UNL     1      -3.074  -1.245   0.173  1.00  0.00     0.217 HD
ENDBRANCH  34  41
BRANCH  35  43
HETATM   43  S2  UNL     1      -5.413  -1.623   0.774  1.00  0.00    -0.049 SA
BRANCH  43  44
HETATM   44  C11 UNL     1      -5.427  -0.598   2.279  1.00  0.00     0.446 C 
BRANCH  44  45
HETATM   45  N11 UNL     1      -6.701   0.132   2.287  1.00  0.00    -0.041 N 
ATOM     46 3H11 UNL     1      -6.861   0.669   1.435  1.00  0.00     0.277 HD
ATOM     47 2H11 UNL     1      -7.514  -0.479   2.210  1.00  0.00     0.277 HD
ATOM     48 1H11 UNL     1      -6.709   0.706   3.130  1.00  0.00     0.277 HD
ENDBRANCH  44  45
BRANCH  44  49
HETATM   49  N12 UNL     1      -5.320  -1.438   3.467  1.00  0.00    -0.041 N 
ATOM     50 3H12 UNL     1      -6.043  -2.157   3.490  1.00  0.00     0.277 HD
ATOM     51 2H12 UNL     1      -4.502  -2.047   3.430  1.00  0.00     0.277 HD
ATOM     52 1H12 UNL     1      -5.328  -0.864   4.310  1.00  0.00     0.277 HD
ENDBRANCH  44  49
ENDBRANCH  43  44
ENDBRANCH  35  43
BRANCH  40  53
HETATM   53  O6  UNL     1      -5.120   2.003  -3.928  1.00  0.00    -0.355 OA
ATOM     54  H6  UNL     1      -5.927   2.332  -4.306  1.00  0.00     0.218 HD
ENDBRANCH  40  53
ENDBRANCH  31  33
ENDBRANCH  30  31
ENDBRANCH   3  30
TORSDOF 14
