REMARK  9 active torsions:
REMARK  status: ('A' for Active; 'I' for Inactive)
REMARK    1  A    between atoms: C3_3  and  N1_4 
REMARK    2  A    between atoms: N1_4  and  C4_6 
REMARK    3  A    between atoms: N3_10  and  C6_12 
REMARK    4  A    between atoms: N5_21  and  C12_22 
REMARK    5  A    between atoms: C14_24  and  C15_25 
REMARK    6  A    between atoms: C15_25  and  O2_26 
REMARK    7  A    between atoms: O2_26  and  C16_27 
REMARK    8  A    between atoms: C19_30  and  C20_31 
REMARK    9  A    between atoms: C20_31  and  O3_32 
ROOT
HETATM    1  C1  UNL     1      -2.231   7.052  -0.323  1.00  0.00     0.014 C 
HETATM    2  C2  UNL     1      -2.537   5.893  -0.400  1.00  0.00    -0.097 C 
HETATM    3  C3  UNL     1      -2.900   4.479  -0.471  1.00  0.00     0.231 C 
ENDROOT
BRANCH   3   4
HETATM    4  N1  UNL     1      -1.721   3.680  -0.271  1.00  0.00    -0.216 N 
ATOM      5  H1  UNL     1      -0.804   4.126  -0.279  1.00  0.00     0.178 HD
BRANCH   4   6
HETATM    6  C4  UNL     1      -1.809   2.407  -0.082  1.00  0.00     0.682 A 
HETATM    7  N2  UNL     1      -3.009   1.812  -0.071  1.00  0.00    -0.175 N 
HETATM    8  C5  UNL     1      -3.183   0.472   0.122  1.00  0.00     0.148 A 
ATOM      9  H2  UNL     1      -3.837   2.391  -0.214  1.00  0.00     0.186 HD
HETATM   10  N3  UNL     1      -4.333  -0.038   0.124  1.00  0.00    -0.367 N 
HETATM   11  C10 UNL     1      -2.018  -0.275   0.314  1.00  0.00     0.123 A 
ATOM     12  H3  UNL     1      -5.097   0.620  -0.026  1.00  0.00     0.161 HD
HETATM   13  N4  UNL     1      -1.781  -1.572   0.529  1.00  0.00    -0.346 N 
HETATM   14  C21 UNL     1      -0.778   0.342   0.302  1.00  0.00     0.157 A 
HETATM   15  C11 UNL     1      -0.483  -1.787   0.648  1.00  0.00     0.188 A 
ATOM     16  H4  UNL     1      -2.500  -2.293   0.592  1.00  0.00     0.167 HD
HETATM   17  N5  UNL     1       0.145  -0.612   0.510  1.00  0.00    -0.299 N 
HETATM   18  N6  UNL     1      -0.691   1.669   0.105  1.00  0.00    -0.174 N 
ATOM     19  H6  UNL     1       0.223   2.122   0.097  1.00  0.00     0.186 HD
BRANCH  10  20
HETATM   20  C6  UNL     1      -4.727  -1.379   0.302  1.00  0.00     0.109 C 
HETATM   21  C7  UNL     1      -6.151  -1.599  -0.270  1.00  0.00     0.053 C 
HETATM   22  C8  UNL     1      -6.530  -2.845   0.504  1.00  0.00     0.169 C 
HETATM   23  O1  UNL     1      -5.954  -2.756   1.739  1.00  0.00    -0.389 OA
HETATM   24  C9  UNL     1      -5.026  -1.741   1.742  1.00  0.00     0.192 C 
ENDBRANCH  10  20
BRANCH  17  25
HETATM   25  C12 UNL     1       1.607  -0.418   0.577  1.00  0.00     0.231 C 
HETATM   26  C13 UNL     1       2.146   0.387  -0.552  1.00  0.00     0.061 C 
HETATM   27  C14 UNL     1       3.376  -0.195  -1.210  1.00  0.00     0.016 C 
HETATM   28  C18 UNL     1       3.323  -1.667  -1.430  1.00  0.00     0.041 C 
HETATM   29  C19 UNL     1       2.379  -2.347  -0.460  1.00  0.00     0.148 C 
HETATM   30  O4  UNL     1       2.218  -1.651   0.708  1.00  0.00    -0.359 OA
BRANCH  27  31
HETATM   31  C15 UNL     1       4.631   0.137  -0.403  1.00  0.00     0.172 C 
BRANCH  31  32
HETATM   32  O2  UNL     1       4.713   1.526  -0.362  1.00  0.00    -0.391 OA
BRANCH  32  33
HETATM   33  C16 UNL     1       5.821   1.964   0.350  1.00  0.00     0.163 C 
HETATM   34  C17 UNL     1       5.798   1.485   1.785  1.00  0.00     0.033 C 
ENDBRANCH  32  33
ENDBRANCH  31  32
ENDBRANCH  27  31
BRANCH  29  35
HETATM   35  C20 UNL     1       2.943  -3.718  -0.094  1.00  0.00     0.196 C 
BRANCH  35  36
HETATM   36  O3  UNL     1       3.146  -4.507  -1.204  1.00  0.00    -0.398 OA
ATOM     37  H3  UNL     1       3.497  -5.360  -0.976  1.00  0.00     0.209 HD
ENDBRANCH  35  36
ENDBRANCH  29  35
ENDBRANCH  17  25
ENDBRANCH   4   6
ENDBRANCH   3   4
TORSDOF 9
