REMARK  10 active torsions:
REMARK  status: ('A' for Active; 'I' for Inactive)
REMARK    1  A    between atoms: C2_2  and  S1_5 
REMARK    2  A    between atoms: S1_5  and  C5_8 
REMARK    3  A    between atoms: C6_9  and  N1_10 
REMARK    4  A    between atoms: C11_17  and  N3_18 
REMARK    5  A    between atoms: N3_18  and  C12_20 
REMARK    6  A    between atoms: C12_20  and  C13_21 
REMARK    7  A    between atoms: C13_21  and  C14_22 
REMARK    8  A    between atoms: C14_22  and  N4_23 
REMARK    9  A    between atoms: C19_30  and  N6_31 
REMARK   10  A    between atoms: N6_31  and  N7_33 
ROOT
HETATM    1  C5  UNL     1      -2.260   1.057  -0.573  1.00  0.00     0.150 A 
HETATM    2  C6  UNL     1      -1.491  -0.041  -0.423  1.00  0.00     0.144 A 
HETATM    3  N2  UNL     1      -0.199   0.070   0.069  1.00  0.00    -0.175 N 
ATOM      4  H2  UNL     1       0.356  -0.779   0.174  1.00  0.00     0.186 HD
HETATM    5  C11 UNL     1       0.347   1.226   0.409  1.00  0.00     0.681 A 
HETATM    6  N5  UNL     1      -0.403   2.339   0.264  1.00  0.00    -0.174 N 
ATOM      7  H5  UNL     1      -0.010   3.245   0.517  1.00  0.00     0.186 HD
HETATM    8  C19 UNL     1      -1.650   2.273  -0.205  1.00  0.00     0.160 A 
ENDROOT
BRANCH   5   9
HETATM    9  N3  UNL     1       1.549   1.306   0.883  1.00  0.00    -0.226 N 
ATOM     10  H3  UNL     1       1.866   2.249   1.109  1.00  0.00     0.177 HD
BRANCH   9  11
HETATM   11  C12 UNL     1       2.483   0.283   1.132  1.00  0.00     0.140 C 
BRANCH  11  12
HETATM   12  C13 UNL     1       3.934   0.685   0.831  1.00  0.00     0.050 C 
BRANCH  12  13
HETATM   13  C14 UNL     1       4.799  -0.509   1.197  1.00  0.00     0.274 C 
BRANCH  13  14
HETATM   14  N4  UNL     1       6.194  -0.299   0.977  1.00  0.00     0.088 N 
HETATM   15  C15 UNL     1       6.597  -0.216  -0.385  1.00  0.00     0.272 C 
HETATM   16  C16 UNL     1       8.010  -0.708  -0.458  1.00  0.00     0.032 C 
HETATM   17  C17 UNL     1       8.144  -1.610   0.743  1.00  0.00     0.032 C 
HETATM   18  C18 UNL     1       6.966  -1.315   1.611  1.00  0.00     0.272 C 
ENDBRANCH  13  14
ENDBRANCH  12  13
ENDBRANCH  11  12
ENDBRANCH   9  11
ENDBRANCH   5   9
BRANCH   2  19
HETATM   19  N1  UNL     1      -1.868  -1.353  -0.788  1.00  0.00    -0.365 N 
HETATM   20  C7  UNL     1      -2.396  -2.362   0.094  1.00  0.00     0.124 C 
HETATM   21  C8  UNL     1      -3.305  -3.200  -0.780  1.00  0.00     0.021 C 
HETATM   22  C9  UNL     1      -2.616  -3.148  -2.133  1.00  0.00     0.021 C 
HETATM   23  C10 UNL     1      -1.721  -1.935  -2.097  1.00  0.00     0.124 C 
ENDBRANCH   2  19
BRANCH   8  24
HETATM   24  N6  UNL     1      -2.331   3.345  -0.366  1.00  0.00    -0.290 N 
ATOM     25  H6  UNL     1      -3.276   3.300  -0.747  1.00  0.00     0.188 HD
BRANCH  24  26
HETATM   26  N7  UNL     1      -1.774   4.572  -0.018  1.00  0.00    -0.344 N 
ATOM     27  H72 UNL     1      -0.828   4.600   0.362  1.00  0.00     0.176 HD
ATOM     28  H71 UNL     1      -2.317   5.426  -0.146  1.00  0.00     0.176 HD
ENDBRANCH  24  26
ENDBRANCH   8  24
BRANCH   1  29
HETATM   29  S1  UNL     1      -3.860   1.129  -1.129  1.00  0.00     0.190 S 
HETATM   30  O1  UNL     1      -4.048   2.429  -1.970  1.00  0.00    -0.222 OA
HETATM   31  O2  UNL     1      -4.200   0.060  -2.167  1.00  0.00    -0.222 OA
BRANCH  29  32
HETATM   32  C2  UNL     1      -5.164   1.113   0.025  1.00  0.00     0.058 C 
HETATM   33  C1  UNL     1      -5.083   2.279   0.997  1.00  0.00     0.031 C 
HETATM   34  C3  UNL     1      -6.510   1.353  -0.733  1.00  0.00     0.031 C 
HETATM   35  C4  UNL     1      -5.387  -0.142   0.787  1.00  0.00     0.031 C 
ENDBRANCH  29  32
ENDBRANCH   1  29
TORSDOF 10
