REMARK  9 active torsions:
REMARK  status: ('A' for Active; 'I' for Inactive)
REMARK    1  A    between atoms: C2_3  and  N2_4 
REMARK    2  A    between atoms: N2_4  and  C3_6 
REMARK    3  A    between atoms: C4_9  and  N4_10 
REMARK    4  A    between atoms: N4_10  and  C5_12 
REMARK    5  A    between atoms: C9_16  and  N5_17 
REMARK    6  A    between atoms: N5_17  and  C10_19 
REMARK    7  A    between atoms: N6_22  and  C13_23 
REMARK    8  A    between atoms: C13_23  and  C14_24 
REMARK    9  A    between atoms: C14_24  and  N7_25 
ROOT
HETATM    1  N1  UNL     1      -6.564  -2.501  -2.286  1.00  0.00    -0.195 NA
HETATM    2  C1  UNL     1      -6.209  -2.491  -1.174  1.00  0.00     0.091 C 
HETATM    3  C2  UNL     1      -5.751  -2.459   0.234  1.00  0.00     0.136 A 
HETATM    4  C21 UNL     1      -6.066  -3.729   1.037  1.00  0.00     0.051 A 
HETATM    5  C22 UNL     1      -6.838  -2.477   1.268  1.00  0.00     0.051 A 
ENDROOT
BRANCH   3   6
HETATM    6  N2  UNL     1      -4.450  -1.967   0.473  1.00  0.00    -0.204 N 
ATOM      7  H2  UNL     1      -3.834  -2.640   0.930  1.00  0.00     0.179 HD
BRANCH   6   8
HETATM    8  C3  UNL     1      -3.902  -0.863   0.233  1.00  0.00     0.682 A 
HETATM    9  N3  UNL     1      -4.561   0.135  -0.361  1.00  0.00    -0.177 N 
HETATM   10  C4  UNL     1      -3.973   1.309  -0.615  1.00  0.00     0.120 A 
ATOM     11  H3  UNL     1      -5.536  -0.001  -0.627  1.00  0.00     0.185 HD
HETATM   12  C8  UNL     1      -2.635   1.507  -0.252  1.00  0.00     0.097 A 
HETATM   13  C9  UNL     1      -1.935   0.464   0.372  1.00  0.00     0.120 A 
HETATM   14  N8  UNL     1      -2.595  -0.669   0.586  1.00  0.00    -0.177 N 
ATOM     15  H8  UNL     1      -2.099  -1.437   1.039  1.00  0.00     0.185 HD
BRANCH  10  16
HETATM   16  N4  UNL     1      -4.684   2.351  -1.249  1.00  0.00    -0.371 N 
ATOM     17  H4  UNL     1      -4.213   3.236  -1.437  1.00  0.00     0.161 HD
BRANCH  16  18
HETATM   18  C5  UNL     1      -6.056   2.190  -1.634  1.00  0.00     0.083 A 
HETATM   19  C6  UNL     1      -7.143   2.056  -0.571  1.00  0.00     0.027 A 
HETATM   20  C7  UNL     1      -6.996   3.330  -1.376  1.00  0.00     0.027 A 
ENDBRANCH  16  18
ENDBRANCH  10  16
BRANCH  13  21
HETATM   21  N5  UNL     1      -0.712   0.700   0.679  1.00  0.00    -0.371 N 
ATOM     22  H5  UNL     1      -0.325   1.616   0.454  1.00  0.00     0.161 HD
BRANCH  21  23
HETATM   23  C10 UNL     1       0.138  -0.258   1.322  1.00  0.00     0.086 C 
HETATM   24  C11 UNL     1       1.059   0.403   2.336  1.00  0.00     0.055 C 
HETATM   25  C12 UNL     1       2.262   1.030   1.681  1.00  0.00     0.274 C 
HETATM   26  N6  UNL     1       2.961  -0.043   0.955  1.00  0.00     0.090 N 
HETATM   27  C19 UNL     1       2.067  -0.287  -0.198  1.00  0.00     0.274 C 
HETATM   28  C20 UNL     1       0.900  -1.083   0.316  1.00  0.00     0.055 C 
BRANCH  26  29
HETATM   29  C13 UNL     1       4.203   0.536   0.480  1.00  0.00     0.291 C 
BRANCH  29  30
HETATM   30  C14 UNL     1       5.068  -0.542  -0.136  1.00  0.00     0.147 C 
BRANCH  30  31
HETATM   31  N7  UNL     1       6.271   0.093  -0.616  1.00  0.00    -0.407 N 
HETATM   32  C15 UNL     1       7.138   0.615   0.378  1.00  0.00     0.143 C 
HETATM   33  C16 UNL     1       8.483   0.908  -0.291  1.00  0.00     0.187 C 
HETATM   34  O1  UNL     1       9.042  -0.322  -0.542  1.00  0.00    -0.388 OA
HETATM   35  C17 UNL     1       8.308  -1.066  -1.441  1.00  0.00     0.187 C 
HETATM   36  C18 UNL     1       6.913  -0.627  -1.671  1.00  0.00     0.143 C 
ENDBRANCH  30  31
ENDBRANCH  29  30
ENDBRANCH  26  29
ENDBRANCH  21  23
ENDBRANCH  13  21
ENDBRANCH   6   8
ENDBRANCH   3   6
TORSDOF 9
