REMARK  11 active torsions:
REMARK  status: ('A' for Active; 'I' for Inactive)
REMARK    1  A    between atoms: C3_3  and  N1_4 
REMARK    2  A    between atoms: N1_4  and  C5_6 
REMARK    3  A    between atoms: C5_6  and  C6_7 
REMARK    4  A    between atoms: C6_7  and  O1_8 
REMARK    5  A    between atoms: C8_11  and  O2_12 
REMARK    6  A    between atoms: C9_14  and  O3_15 
REMARK    7  A    between atoms: C10_17  and  O4_18 
REMARK    8  A    between atoms: O4_18  and  C11_19 
REMARK    9  A    between atoms: C16_24  and  O5_25 
REMARK   10  A    between atoms: O5_25  and  C17_26 
REMARK       I    between atoms: C17_26  and  N2_28 
REMARK   11  A    between atoms: C20_31  and  O7_32 
ROOT
HETATM    1  C1  UNL     1      -5.448  -3.146   1.570  1.00  0.00     0.018 C 
HETATM    2  C2  UNL     1      -5.057  -2.067   1.910  1.00  0.00    -0.072 C 
HETATM    3  C3  UNL     1      -4.584  -0.727   2.315  1.00  0.00     0.153 C 
ENDROOT
BRANCH   3   4
HETATM    4  N1  UNL     1      -4.385   0.035   1.156  1.00  0.00    -0.364 N 
HETATM    5  C4  UNL     1      -5.554   0.383   0.454  1.00  0.00     0.155 C 
BRANCH   4   6
HETATM    6  C5  UNL     1      -3.162   0.547   0.772  1.00  0.00     0.104 C 
BRANCH   6   7
HETATM    7  C6  UNL     1      -2.104  -0.471   0.314  1.00  0.00     0.120 C 
HETATM    8  C7  UNL     1      -2.571  -1.330  -0.778  1.00  0.00     0.080 C 
HETATM    9  C8  UNL     1      -2.048  -1.120  -2.144  1.00  0.00     0.152 C 
HETATM   10  C9  UNL     1      -1.162   0.084  -2.310  1.00  0.00     0.178 C 
HETATM   11  C10 UNL     1      -0.143   0.027  -1.207  1.00  0.00     0.185 C 
HETATM   12  C20 UNL     1      -0.814   0.286   0.102  1.00  0.00     0.192 C 
BRANCH   7  13
HETATM   13  O1  UNL     1      -1.914  -1.292   1.437  1.00  0.00    -0.382 OA
ATOM     14  H1  UNL     1      -1.260  -1.921   1.154  1.00  0.00     0.211 HD
ENDBRANCH   7  13
BRANCH   9  15
HETATM   15  O2  UNL     1      -3.046  -1.067  -3.131  1.00  0.00    -0.393 OA
ATOM     16  H2  UNL     1      -2.710  -0.932  -4.009  1.00  0.00     0.210 HD
ENDBRANCH   9  15
BRANCH  10  17
HETATM   17  O3  UNL     1      -1.837   1.276  -2.426  1.00  0.00    -0.390 OA
ATOM     18  H3  UNL     1      -1.277   2.036  -2.531  1.00  0.00     0.210 HD
ENDBRANCH  10  17
BRANCH  11  19
HETATM   19  O4  UNL     1       0.965   0.757  -1.390  1.00  0.00    -0.373 OA
BRANCH  19  20
HETATM   20  C11 UNL     1       2.155   0.135  -1.563  1.00  0.00     0.152 C 
HETATM   21  C12 UNL     1       2.742   0.387  -2.964  1.00  0.00     0.034 C 
HETATM   22  C13 UNL     1       3.724   1.528  -2.941  1.00  0.00     0.003 C 
HETATM   23  C14 UNL     1       3.130   2.601  -2.057  1.00  0.00     0.003 C 
HETATM   24  C15 UNL     1       3.264   2.148  -0.618  1.00  0.00     0.035 C 
HETATM   25  C16 UNL     1       3.174   0.643  -0.585  1.00  0.00     0.162 C 
BRANCH  25  26
HETATM   26  O5  UNL     1       3.031   0.110   0.695  1.00  0.00    -0.296 OA
BRANCH  26  27
HETATM   27  C17 UNL     1       4.006  -0.662   1.296  1.00  0.00     0.362 C 
HETATM   28  O6  UNL     1       5.054  -0.866   0.618  1.00  0.00    -0.238 OA
HETATM   29  N2  UNL     1       3.849  -1.205   2.612  1.00  0.00    -0.337 N 
HETATM   30  C18 UNL     1       4.924  -2.003   3.154  1.00  0.00     0.154 C 
HETATM   31  C19 UNL     1       2.643  -0.942   3.341  1.00  0.00     0.154 C 
ENDBRANCH  26  27
ENDBRANCH  25  26
ENDBRANCH  19  20
ENDBRANCH  11  19
BRANCH  12  32
HETATM   32  O7  UNL     1      -0.987   1.638   0.388  1.00  0.00    -0.385 OA
HETATM   33  C21 UNL     1      -0.240   2.073   1.481  1.00  0.00     0.202 C 
ENDBRANCH  12  32
ENDBRANCH   6   7
ENDBRANCH   4   6
ENDBRANCH   3   4
TORSDOF 11
