REMARK  8 active torsions:
REMARK  status: ('A' for Active; 'I' for Inactive)
REMARK    1  A    between atoms: C2_2  and  N1_3 
REMARK    2  A    between atoms: N2_6  and  C4_7 
REMARK    3  A    between atoms: C8_13  and  N4_14 
REMARK    4  A    between atoms: N4_14  and  C9_16 
REMARK    5  A    between atoms: C9_16  and  C10_17 
REMARK    6  A    between atoms: C10_17  and  N5_18 
REMARK    7  A    between atoms: C13_23  and  C14_24 
REMARK    8  A    between atoms: C15_25  and  C16_26 
ROOT
HETATM    1  N1  UNL     1      -2.931   0.139  -0.390  1.00  0.00    -0.294 N 
HETATM    2  C3  UNL     1      -2.950  -1.231  -0.342  1.00  0.00     0.331 A 
HETATM    3  O1  UNL     1      -3.969  -1.977  -0.423  1.00  0.00    -0.246 OA
HETATM    4  N2  UNL     1      -1.706  -1.706  -0.193  1.00  0.00    -0.279 N 
HETATM    5  C7  UNL     1      -0.873  -0.655  -0.142  1.00  0.00     0.157 A 
HETATM    6  N3  UNL     1       0.454  -0.615  -0.002  1.00  0.00    -0.174 N 
ATOM      7  H3  UNL     1       0.990  -1.479   0.086  1.00  0.00     0.186 HD
HETATM    8  C8  UNL     1       1.074   0.572   0.022  1.00  0.00     0.680 A 
HETATM    9  N6  UNL     1       0.341   1.687  -0.096  1.00  0.00    -0.181 N 
ATOM     10  H6  UNL     1       0.823   2.586  -0.077  1.00  0.00     0.185 HD
HETATM   11  C13 UNL     1      -1.020   1.685  -0.241  1.00  0.00     0.133 A 
HETATM   12  C17 UNL     1      -1.638   0.488  -0.265  1.00  0.00     0.120 A 
ENDROOT
BRANCH   8  13
HETATM   13  N4  UNL     1       2.355   0.597   0.158  1.00  0.00    -0.224 N 
ATOM     14  H4  UNL     1       2.851   1.488   0.179  1.00  0.00     0.177 HD
BRANCH  13  15
HETATM   15  C9  UNL     1       3.086  -0.644   0.280  1.00  0.00     0.168 C 
BRANCH  15  16
HETATM   16  C10 UNL     1       4.353  -0.472   1.089  1.00  0.00     0.291 C 
BRANCH  16  17
HETATM   17  N5  UNL     1       5.177   0.504   0.408  1.00  0.00     0.081 N 
HETATM   18  C11 UNL     1       6.420   0.741   1.106  1.00  0.00     0.309 C 
HETATM   19  C12 UNL     1       5.391   0.081  -0.951  1.00  0.00     0.309 C 
ENDBRANCH  16  17
ENDBRANCH  15  16
ENDBRANCH  13  15
ENDBRANCH   8  13
BRANCH  11  20
HETATM   20  C14 UNL     1      -1.732   2.924  -0.355  1.00  0.00    -0.043 C 
HETATM   21  C15 UNL     1      -2.304   4.007  -0.444  1.00  0.00    -0.068 C 
BRANCH  21  22
HETATM   22  C16 UNL     1      -2.960   5.298  -0.562  1.00  0.00     0.316 C 
HETATM   23  F1  UNL     1      -2.131   6.337  -0.193  1.00  0.00    -0.242 F 
ENDBRANCH  21  22
ENDBRANCH  11  20
BRANCH   4  24
HETATM   24  C4  UNL     1      -1.305  -3.099  -0.099  1.00  0.00     0.088 C 
HETATM   25  C5  UNL     1      -2.041  -3.786   1.024  1.00  0.00     0.032 C 
HETATM   26  C6  UNL     1      -1.651  -3.733  -1.447  1.00  0.00     0.032 C 
ENDBRANCH   4  24
BRANCH   1  27
HETATM   27  C2  UNL     1      -4.111   0.921  -0.544  1.00  0.00     0.130 C 
HETATM   28  C1  UNL     1      -4.673   1.252   0.827  1.00  0.00     0.027 C 
ENDBRANCH   1  27
TORSDOF 8
