REMARK  5 active torsions:
REMARK  status: ('A' for Active; 'I' for Inactive)
REMARK    1  A    between atoms: C2_2  and  O1_3 
REMARK    2  A    between atoms: O1_3  and  C3_4 
REMARK    3  A    between atoms: C4_5  and  N1_6 
REMARK    4  A    between atoms: C11_15  and  O3_16 
REMARK    5  A    between atoms: C13_18  and  N2_19 
ROOT
HETATM    1  C3  UNL     1       0.246  -0.199   0.155  1.00  0.00     0.127 A 
HETATM    2  C4  UNL     1       1.488  -0.441  -0.442  1.00  0.00     0.105 A 
HETATM    3  C9  UNL     1       1.463  -1.156  -1.630  1.00  0.00     0.148 A 
HETATM    4  F1  UNL     1       2.590  -1.443  -2.312  1.00  0.00    -0.203 F 
HETATM    5  C10 UNL     1       0.286  -1.598  -2.189  1.00  0.00     0.083 A 
HETATM    6  C11 UNL     1      -0.899  -1.329  -1.572  1.00  0.00     0.100 A 
HETATM    7  C13 UNL     1      -0.967  -0.607  -0.363  1.00  0.00     0.100 A 
ENDROOT
BRANCH   7   8
HETATM    8  N2  UNL     1      -2.225  -0.232   0.124  1.00  0.00    -0.373 N 
HETATM    9  C14 UNL     1      -2.370   0.788   1.152  1.00  0.00     0.142 C 
HETATM   10  C15 UNL     1      -3.767   1.468   0.980  1.00  0.00     0.133 C 
HETATM   11  N3  UNL     1      -4.170   1.552  -0.370  1.00  0.00    -0.418 N 
HETATM   12  C16 UNL     1      -4.208   0.294  -1.080  1.00  0.00     0.133 C 
ATOM     13  H3  UNL     1      -4.417   2.437  -0.813  1.00  0.00     0.153 HD
HETATM   14  C17 UNL     1      -3.510  -0.738  -0.240  1.00  0.00     0.142 C 
ENDBRANCH   7   8
BRANCH   1  15
HETATM   15  O1  UNL     1       0.255   0.498   1.395  1.00  0.00    -0.347 OA
BRANCH  15  16
HETATM   16  C2  UNL     1       0.394  -0.413   2.525  1.00  0.00     0.171 C 
HETATM   17  C1  UNL     1       0.399   0.334   3.833  1.00  0.00     0.034 C 
ENDBRANCH  15  16
ENDBRANCH   1  15
BRANCH   6  18
HETATM   18  O3  UNL     1      -2.043  -1.773  -2.147  1.00  0.00    -0.353 OA
HETATM   19  C12 UNL     1      -2.035  -2.500  -3.356  1.00  0.00     0.210 C 
ENDBRANCH   6  18
BRANCH   2  20
HETATM   20  N1  UNL     1       2.689   0.139   0.003  1.00  0.00    -0.372 N 
HETATM   21  C5  UNL     1       2.797   1.267   0.947  1.00  0.00     0.149 C 
HETATM   22  C6  UNL     1       4.065   2.027   0.508  1.00  0.00     0.187 C 
HETATM   23  O2  UNL     1       4.255   1.949  -0.874  1.00  0.00    -0.388 OA
HETATM   24  C7  UNL     1       4.676   0.656  -1.229  1.00  0.00     0.187 C 
HETATM   25  C8  UNL     1       4.012  -0.367  -0.376  1.00  0.00     0.149 C 
ENDBRANCH   2  20
TORSDOF 5
