REMARK  7 active torsions:
REMARK  status: ('A' for Active; 'I' for Inactive)
REMARK    1  A    between atoms: N1_2  and  C3_4 
REMARK    2  A    between atoms: C3_4  and  C4_5 
REMARK    3  A    between atoms: C4_5  and  C5_6 
REMARK    4  A    between atoms: C5_6  and  C6_7 
REMARK    5  A    between atoms: C7_10  and  N3_11 
REMARK    6  A    between atoms: C8_16  and  N5_17 
REMARK    7  A    between atoms: N5_17  and  C9_19 
ROOT
HETATM    1  C6  UNL     1      -1.755  -1.394  -0.584  1.00  0.00     0.113 A 
HETATM    2  N2  UNL     1      -1.639  -1.686   0.723  1.00  0.00    -0.180 N 
ATOM      3  H2  UNL     1      -2.450  -2.082   1.199  1.00  0.00     0.185 HD
HETATM    4  C7  UNL     1      -0.531  -1.490   1.434  1.00  0.00     0.691 A 
HETATM    5  N4  UNL     1       0.549  -0.967   0.810  1.00  0.00    -0.023 N 
ATOM      6  H4  UNL     1       1.411  -0.808   1.332  1.00  0.00     0.203 HD
HETATM    7  C8  UNL     1       0.490  -0.652  -0.513  1.00  0.00     0.694 A 
HETATM    8  N6  UNL     1      -0.675  -0.875  -1.189  1.00  0.00    -0.180 N 
ATOM      9  H6  UNL     1      -0.726  -0.641  -2.180  1.00  0.00     0.185 HD
ENDROOT
BRANCH   7  10
HETATM   10  N5  UNL     1       1.496  -0.152  -1.146  1.00  0.00    -0.221 N 
ATOM     11  H5  UNL     1       1.395   0.063  -2.138  1.00  0.00     0.178 HD
BRANCH  10  12
HETATM   12  C9  UNL     1       2.747   0.111  -0.508  1.00  0.00     0.099 C 
HETATM   13  C10 UNL     1       3.588   1.116  -1.304  1.00  0.00     0.026 C 
HETATM   14  C11 UNL     1       4.342   2.037  -0.381  1.00  0.00     0.002 C 
HETATM   15  C12 UNL     1       5.645   1.478   0.082  1.00  0.00     0.000 C 
HETATM   16  C13 UNL     1       5.761  -0.014  -0.109  1.00  0.00     0.000 C 
HETATM   17  C14 UNL     1       4.694  -0.766   0.658  1.00  0.00     0.002 C 
HETATM   18  C15 UNL     1       3.605  -1.115  -0.334  1.00  0.00     0.026 C 
ENDBRANCH  10  12
ENDBRANCH   7  10
BRANCH   4  19
HETATM   19  N3  UNL     1      -0.447  -1.779   2.688  1.00  0.00    -0.234 N 
ATOM     20  H32 UNL     1      -1.261  -2.173   3.159  1.00  0.00     0.174 HD
ATOM     21  H31 UNL     1       0.402  -1.629   3.233  1.00  0.00     0.174 HD
ENDBRANCH   4  19
BRANCH   1  22
HETATM   22  C5  UNL     1      -3.004  -1.636  -1.300  1.00  0.00     0.079 C 
BRANCH  22  23
HETATM   23  C4  UNL     1      -3.975  -0.478  -1.312  1.00  0.00     0.027 C 
BRANCH  23  24
HETATM   24  C3  UNL     1      -4.353  -0.127   0.064  1.00  0.00     0.116 C 
BRANCH  24  25
HETATM   25  N1  UNL     1      -5.266   0.936   0.245  1.00  0.00    -0.421 N 
HETATM   26  C1  UNL     1      -5.598   1.235   1.598  1.00  0.00     0.142 C 
HETATM   27  C2  UNL     1      -6.251   1.164  -0.720  1.00  0.00     0.142 C 
ENDBRANCH  24  25
ENDBRANCH  23  24
ENDBRANCH  22  23
ENDBRANCH   1  22
TORSDOF 7
