REMARK  6 active torsions:
REMARK  status: ('A' for Active; 'I' for Inactive)
REMARK    1  A    between atoms: C2_2  and  C3_3 
REMARK    2  A    between atoms: C5_10  and  N4_11 
REMARK    3  A    between atoms: C10_16  and  O1_17 
REMARK    4  A    between atoms: O1_17  and  C11_18 
REMARK    5  A    between atoms: C11_18  and  C12_19 
REMARK    6  A    between atoms: C12_19  and  O2_20 
ROOT
HETATM    1  C3  UNL     1      -3.525   1.245   0.613  1.00  0.00     0.097 A 
HETATM    2  N1  UNL     1      -3.930  -0.033   0.751  1.00  0.00    -0.333 N 
ATOM      3  H1  UNL     1      -4.897  -0.353   0.805  1.00  0.00     0.168 HD
HETATM    4  C4  UNL     1      -2.836  -0.811   0.805  1.00  0.00     0.102 A 
HETATM    5  N2  UNL     1      -1.743  -0.038   0.701  1.00  0.00    -0.255 N 
HETATM    6  N3  UNL     1      -2.189   1.209   0.585  1.00  0.00    -0.283 N 
ATOM      7  H3  UNL     1      -1.591   2.030   0.488  1.00  0.00     0.188 HD
HETATM    8  C5  UNL     1      -0.380  -0.532   0.722  1.00  0.00     0.208 C 
HETATM    9  C14 UNL     1      -0.283  -1.958   1.158  1.00  0.00     0.049 C 
HETATM   10  C15 UNL     1      -1.498  -2.465   1.901  1.00  0.00     0.011 C 
HETATM   11  C16 UNL     1      -2.674  -2.279   0.952  1.00  0.00     0.078 C 
ENDROOT
BRANCH   8  12
HETATM   12  N4  UNL     1       0.331  -0.345  -0.476  1.00  0.00    -0.368 N 
HETATM   13  C6  UNL     1      -0.062  -1.015  -1.639  1.00  0.00     0.060 C 
HETATM   14  C7  UNL     1       0.521  -0.458  -2.909  1.00  0.00     0.044 C 
HETATM   15  C8  UNL     1       2.011  -0.321  -2.890  1.00  0.00     0.008 C 
HETATM   16  C9  UNL     1       2.685  -0.909  -1.700  1.00  0.00     0.034 C 
HETATM   17  C10 UNL     1       2.669   0.099  -0.581  1.00  0.00     0.139 C 
HETATM   18  C13 UNL     1       1.275   0.701  -0.552  1.00  0.00     0.155 C 
BRANCH  17  19
HETATM   19  O1  UNL     1       3.560   1.126  -0.753  1.00  0.00    -0.382 OA
BRANCH  19  20
HETATM   20  C11 UNL     1       4.508   1.269   0.218  1.00  0.00     0.194 C 
BRANCH  20  21
HETATM   21  C12 UNL     1       3.998   1.525   1.599  1.00  0.00     0.190 C 
BRANCH  21  22
HETATM   22  O2  UNL     1       5.118   1.644   2.455  1.00  0.00    -0.399 OA
ATOM     23  H2  UNL     1       4.794   1.807   3.333  1.00  0.00     0.209 HD
ENDBRANCH  21  22
ENDBRANCH  20  21
ENDBRANCH  19  20
ENDBRANCH  17  19
ENDBRANCH   8  12
BRANCH   1  24
HETATM   24  C2  UNL     1      -4.397   2.462   0.512  1.00  0.00     0.073 C 
HETATM   25  C1  UNL     1      -5.853   2.098   0.588  1.00  0.00     0.013 C 
ENDBRANCH   1  24
TORSDOF 6
