REMARK  5 active torsions:
REMARK  status: ('A' for Active; 'I' for Inactive)
REMARK    1  A    between atoms: C2_2  and  N1_3 
REMARK    2  A    between atoms: C4_7  and  C5_8 
REMARK    3  A    between atoms: C5_8  and  N3_9 
REMARK    4  A    between atoms: N3_9  and  C6_11 
REMARK    5  A    between atoms: C12_20  and  N5_21 
ROOT
HETATM    1  N1  UNL     1      -2.663   2.222   0.905  1.00  0.00    -0.277 N 
HETATM    2  N2  UNL     1      -1.663   3.054   1.245  1.00  0.00    -0.307 N 
ATOM      3  H2  UNL     1      -1.786   3.970   1.677  1.00  0.00     0.186 HD
HETATM    4  C3  UNL     1      -0.482   2.504   0.933  1.00  0.00     0.120 A 
HETATM    5  C4  UNL     1      -0.791   1.276   0.377  1.00  0.00     0.021 A 
HETATM    6  C12 UNL     1      -2.154   1.105   0.361  1.00  0.00     0.129 A 
ENDROOT
BRANCH   5   7
HETATM    7  C5  UNL     1       0.245   0.327  -0.104  1.00  0.00     0.158 C 
BRANCH   7   8
HETATM    8  N3  UNL     1       1.559   0.879   0.093  1.00  0.00    -0.413 N 
ATOM      9  H3  UNL     1       1.710   1.796   0.514  1.00  0.00     0.153 HD
BRANCH   8  10
HETATM   10  C6  UNL     1       2.636   0.050  -0.344  1.00  0.00     0.078 C 
HETATM   11  C7  UNL     1       2.676  -1.236   0.434  1.00  0.00     0.026 C 
HETATM   12  C8  UNL     1       3.853  -2.101   0.003  1.00  0.00     0.029 C 
HETATM   13  C9  UNL     1       5.094  -1.574   0.681  1.00  0.00     0.232 C 
HETATM   14  N4  UNL     1       5.879  -0.738  -0.206  1.00  0.00    -0.075 N 
HETATM   15  C10 UNL     1       5.065   0.210  -0.943  1.00  0.00     0.234 C 
ATOM     16  H42 UNL     1       6.625  -0.263   0.302  1.00  0.00     0.277 HD
ATOM     17  H41 UNL     1       6.445  -1.304  -0.838  1.00  0.00     0.277 HD
HETATM   18  C11 UNL     1       3.956   0.771  -0.096  1.00  0.00     0.052 C 
ENDBRANCH   8  10
ENDBRANCH   7   8
ENDBRANCH   5   7
BRANCH   6  19
HETATM   19  N5  UNL     1      -2.841  -0.014  -0.123  1.00  0.00    -0.362 N 
HETATM   20  C13 UNL     1      -3.769   0.036  -1.269  1.00  0.00     0.150 C 
HETATM   21  C14 UNL     1      -3.833  -1.358  -1.869  1.00  0.00     0.187 C 
HETATM   22  O1  UNL     1      -2.575  -1.950  -1.911  1.00  0.00    -0.388 OA
HETATM   23  C15 UNL     1      -2.295  -2.375  -0.609  1.00  0.00     0.187 C 
HETATM   24  C16 UNL     1      -2.721  -1.371   0.438  1.00  0.00     0.150 C 
ENDBRANCH   6  19
BRANCH   1  25
HETATM   25  C2  UNL     1      -4.041   2.527   1.117  1.00  0.00     0.146 C 
HETATM   26  C1  UNL     1      -4.510   2.056   2.498  1.00  0.00     0.028 C 
ENDBRANCH   1  25
TORSDOF 5
