REMARK  6 active torsions:
REMARK  status: ('A' for Active; 'I' for Inactive)
REMARK    1  A    between atoms: C5_10  and  O1_11 
REMARK    2  A    between atoms: O1_11  and  C6_12 
REMARK    3  A    between atoms: C6_12  and  C7_13 
REMARK    4  A    between atoms: C7_13  and  O2_14 
REMARK    5  A    between atoms: C7_13  and  C8_16 
REMARK    6  A    between atoms: C8_16  and  N4_17 
ROOT
HETATM    1  C1  UNL     1      -5.511  -3.017   1.966  1.00  0.00     0.090 C 
HETATM    2  C2  UNL     1      -4.590  -2.028   1.299  1.00  0.00     0.093 A 
HETATM    3  N1  UNL     1      -4.867  -0.767   1.017  1.00  0.00    -0.333 N 
ATOM      4  H1  UNL     1      -5.740  -0.275   1.208  1.00  0.00     0.168 HD
HETATM    5  C3  UNL     1      -3.756  -0.255   0.422  1.00  0.00     0.107 A 
HETATM    6  N2  UNL     1      -2.836  -1.205   0.355  1.00  0.00    -0.276 N 
HETATM    7  N3  UNL     1      -3.361  -2.305   0.902  1.00  0.00    -0.286 N 
ATOM      8  H3  UNL     1      -2.892  -3.206   0.997  1.00  0.00     0.188 HD
HETATM    9  C4  UNL     1      -1.509  -1.082  -0.205  1.00  0.00     0.182 C 
HETATM   10  C5  UNL     1      -1.123   0.322  -0.513  1.00  0.00     0.142 C 
HETATM   11  C13 UNL     1      -1.978   1.357   0.162  1.00  0.00     0.050 C 
HETATM   12  C14 UNL     1      -3.428   1.091  -0.124  1.00  0.00     0.015 C 
HETATM   13  C15 UNL     1      -4.311   2.108   0.563  1.00  0.00     0.023 C 
HETATM   14  C16 UNL     1      -3.760   1.120  -1.585  1.00  0.00     0.023 C 
ENDROOT
BRANCH  10  15
HETATM   15  O1  UNL     1       0.221   0.490  -0.298  1.00  0.00    -0.381 OA
BRANCH  15  16
HETATM   16  C6  UNL     1       0.937   0.797  -1.451  1.00  0.00     0.205 C 
BRANCH  16  17
HETATM   17  C7  UNL     1       2.389   0.946  -1.029  1.00  0.00     0.180 C 
BRANCH  17  18
HETATM   18  O2  UNL     1       2.406   1.979  -0.095  1.00  0.00    -0.388 OA
ATOM     19  H2  UNL     1       3.314   2.072   0.169  1.00  0.00     0.210 HD
ENDBRANCH  17  18
BRANCH  17  20
HETATM   20  C8  UNL     1       2.813  -0.385  -0.463  1.00  0.00     0.101 C 
BRANCH  20  21
HETATM   21  N4  UNL     1       4.075  -0.480   0.072  1.00  0.00    -0.352 N 
HETATM   22  C9  UNL     1       5.235  -0.395  -0.711  1.00  0.00     0.068 C 
HETATM   23  C10 UNL     1       6.372  -0.105   0.234  1.00  0.00     0.050 C 
HETATM   24  C11 UNL     1       5.775   0.005   1.607  1.00  0.00     0.050 C 
HETATM   25  C12 UNL     1       4.371  -0.532   1.428  1.00  0.00     0.068 C 
ENDBRANCH  20  21
ENDBRANCH  17  20
ENDBRANCH  16  17
ENDBRANCH  15  16
ENDBRANCH  10  15
TORSDOF 6
