REMARK  6 active torsions:
REMARK  status: ('A' for Active; 'I' for Inactive)
REMARK    1  A    between atoms: O1_2  and  C2_3 
REMARK    2  A    between atoms: N1_6  and  C5_7 
REMARK    3  A    between atoms: C5_7  and  C6_8 
REMARK    4  A    between atoms: C6_8  and  O2_9 
REMARK    5  A    between atoms: O2_9  and  C7_10 
REMARK    6  A    between atoms: C8_13  and  N3_14 
ROOT
HETATM    1  N3  UNL     1       5.449   1.981   0.067  1.00  0.00    -0.126 N 
ATOM      2  H3  UNL     1       6.441   1.938  -0.166  1.00  0.00     0.197 HD
HETATM    3  C9  UNL     1       4.920   3.143   0.635  1.00  0.00     0.196 C 
HETATM    4  N4  UNL     1       4.463   4.111   1.117  1.00  0.00    -0.171 NA
ENDROOT
BRANCH   1   5
HETATM    5  C8  UNL     1       4.695   0.968  -0.163  1.00  0.00     0.693 A 
HETATM    6  N2  UNL     1       3.392   1.046   0.152  1.00  0.00    -0.169 N 
HETATM    7  C7  UNL     1       2.515   0.050  -0.047  1.00  0.00     0.165 A 
ATOM      8  H2  UNL     1       3.049   1.913   0.567  1.00  0.00     0.186 HD
HETATM    9  C12 UNL     1       2.978  -1.118  -0.604  1.00  0.00     0.012 A 
HETATM   10  C10 UNL     1       4.307  -1.207  -0.929  1.00  0.00     0.033 A 
HETATM   11  C13 UNL     1       2.109  -2.291  -0.872  1.00  0.00     0.055 C 
HETATM   12  N5  UNL     1       5.131  -0.173  -0.704  1.00  0.00    -0.194 N 
HETATM   13  C11 UNL     1       4.892  -2.433  -1.538  1.00  0.00     0.069 C 
ATOM     14  H5  UNL     1       6.116  -0.260  -0.952  1.00  0.00     0.184 HD
BRANCH   7  15
HETATM   15  O2  UNL     1       1.159   0.182   0.301  1.00  0.00    -0.330 OA
BRANCH  15  16
HETATM   16  C6  UNL     1       0.749   1.392   0.866  1.00  0.00     0.221 C 
BRANCH  16  17
HETATM   17  C5  UNL     1      -0.702   1.399   1.187  1.00  0.00     0.084 C 
BRANCH  17  18
HETATM   18  N1  UNL     1      -1.551   1.241   0.088  1.00  0.00    -0.391 N 
HETATM   19  C4  UNL     1      -1.677   0.035  -0.607  1.00  0.00     0.124 C 
HETATM   20  C3  UNL     1      -2.743  -0.893   0.005  1.00  0.00     0.051 C 
HETATM   21  C2  UNL     1      -4.036  -0.147   0.158  1.00  0.00     0.123 C 
HETATM   22  C15 UNL     1      -3.937   1.242  -0.417  1.00  0.00     0.051 C 
HETATM   23  C14 UNL     1      -2.798   1.990   0.193  1.00  0.00     0.124 C 
BRANCH  21  24
HETATM   24  O1  UNL     1      -5.127  -0.848  -0.330  1.00  0.00    -0.391 OA
HETATM   25  C1  UNL     1      -6.072  -1.177   0.607  1.00  0.00     0.202 C 
ENDBRANCH  21  24
ENDBRANCH  17  18
ENDBRANCH  16  17
ENDBRANCH  15  16
ENDBRANCH   7  15
ENDBRANCH   1   5
TORSDOF 6
