REMARK  8 active torsions:
REMARK  status: ('A' for Active; 'I' for Inactive)
REMARK    1  A    between atoms: N1_2  and  C3_4 
REMARK    2  A    between atoms: C3_4  and  C4_5 
REMARK    3  A    between atoms: C4_5  and  C5_6 
REMARK    4  A    between atoms: C5_6  and  N2_7 
REMARK    5  A    between atoms: N2_7  and  C6_9 
REMARK    6  A    between atoms: C9_14  and  N4_15 
REMARK    7  A    between atoms: N4_15  and  C10_17 
REMARK    8  A    between atoms: C10_17  and  C11_18 
ROOT
HETATM    1  C6  UNL     1       0.329   0.330   0.614  1.00  0.00     0.118 A 
HETATM    2  C7  UNL     1       0.216   0.151  -0.754  1.00  0.00     0.066 A 
HETATM    3  C8  UNL     1      -0.900   0.564  -1.452  1.00  0.00     0.110 A 
HETATM    4  N3  UNL     1      -1.892   1.159  -0.736  1.00  0.00    -0.202 N 
ATOM      5  H3  UNL     1      -2.727   1.473  -1.229  1.00  0.00     0.183 HD
HETATM    6  C9  UNL     1      -1.821   1.350   0.585  1.00  0.00     0.679 A 
HETATM    7  N5  UNL     1      -0.704   0.928   1.232  1.00  0.00    -0.177 N 
ATOM      8  H5  UNL     1      -0.646   1.072   2.240  1.00  0.00     0.185 HD
ENDROOT
BRANCH   6   9
HETATM    9  N4  UNL     1      -2.784   1.919   1.215  1.00  0.00    -0.222 N 
ATOM     10  H4  UNL     1      -2.697   2.048   2.223  1.00  0.00     0.178 HD
BRANCH   9  11
HETATM   11  C10 UNL     1      -3.981   2.383   0.564  1.00  0.00     0.176 C 
BRANCH  11  12
HETATM   12  C11 UNL     1      -4.880   1.243   0.276  1.00  0.00    -0.040 A 
HETATM   13  C12 UNL     1      -4.625   0.030   0.872  1.00  0.00     0.009 A 
HETATM   14  C13 UNL     1      -5.438  -1.081   0.634  1.00  0.00     0.001 A 
HETATM   15  C14 UNL     1      -6.508  -0.929  -0.218  1.00  0.00     0.000 A 
HETATM   16  C15 UNL     1      -6.769   0.285  -0.819  1.00  0.00     0.001 A 
HETATM   17  C16 UNL     1      -5.972   1.384  -0.588  1.00  0.00     0.009 A 
ENDBRANCH  11  12
ENDBRANCH   9  11
ENDBRANCH   6   9
BRANCH   1  18
HETATM   18  N2  UNL     1       1.380  -0.062   1.252  1.00  0.00    -0.376 N 
ATOM     19  H2  UNL     1       1.449   0.077   2.260  1.00  0.00     0.161 HD
BRANCH  18  20
HETATM   20  C5  UNL     1       2.461  -0.700   0.531  1.00  0.00     0.123 C 
BRANCH  20  21
HETATM   21  C4  UNL     1       3.575  -1.146   1.413  1.00  0.00     0.050 C 
BRANCH  21  22
HETATM   22  C3  UNL     1       4.633  -1.791   0.558  1.00  0.00     0.273 C 
BRANCH  22  23
HETATM   23  N1  UNL     1       5.164  -0.876  -0.434  1.00  0.00     0.080 N 
HETATM   24  C1  UNL     1       6.171  -1.471  -1.255  1.00  0.00     0.309 C 
HETATM   25  C2  UNL     1       5.576   0.383   0.105  1.00  0.00     0.309 C 
ENDBRANCH  22  23
ENDBRANCH  21  22
ENDBRANCH  20  21
ENDBRANCH  18  20
ENDBRANCH   1  18
TORSDOF 8
