REMARK  8 active torsions:
REMARK  status: ('A' for Active; 'I' for Inactive)
REMARK    1  A    between atoms: C3_3  and  C4_4 
REMARK    2  A    between atoms: C4_4  and  C5_5 
REMARK    3  A    between atoms: C5_5  and  C6_6 
REMARK    4  A    between atoms: C6_6  and  C7_7 
REMARK    5  A    between atoms: C13_15  and  N2_16 
REMARK    6  A    between atoms: N2_16  and  C14_18 
REMARK    7  A    between atoms: C14_18  and  C15_19 
REMARK    8  A    between atoms: C15_19  and  O1_20 
ROOT
HETATM    1  C1  UNL     1      -0.233  -2.804   1.254  1.00  0.00     0.056 C 
HETATM    2  C2  UNL     1      -1.187  -1.795   0.723  1.00  0.00     0.030 A 
HETATM    3  C3  UNL     1      -0.903  -0.989  -0.351  1.00  0.00     0.038 A 
HETATM    4  N1  UNL     1      -1.840  -0.111  -0.746  1.00  0.00    -0.195 N 
ATOM      5  H1  UNL     1      -1.640   0.493  -1.543  1.00  0.00     0.184 HD
HETATM    6  C13 UNL     1      -3.044   0.005  -0.126  1.00  0.00     0.681 A 
HETATM    7  N3  UNL     1      -3.358  -0.769   0.931  1.00  0.00    -0.156 N 
ATOM      8  H3  UNL     1      -4.259  -0.690   1.402  1.00  0.00     0.187 HD
HETATM    9  C16 UNL     1      -2.427  -1.651   1.335  1.00  0.00     0.267 A 
HETATM   10  O2  UNL     1      -2.682  -2.397   2.324  1.00  0.00    -0.267 OA
ENDROOT
BRANCH   3  11
HETATM   11  C4  UNL     1       0.381  -1.074  -1.048  1.00  0.00     0.058 C 
BRANCH  11  12
HETATM   12  C5  UNL     1       1.513  -0.413  -0.284  1.00  0.00     0.011 C 
BRANCH  12  13
HETATM   13  C6  UNL     1       2.768  -0.574  -1.121  1.00  0.00     0.039 C 
BRANCH  13  14
HETATM   14  C7  UNL     1       3.897   0.065  -0.392  1.00  0.00    -0.058 A 
HETATM   15  C8  UNL     1       4.138   1.398  -0.645  1.00  0.00     0.007 A 
HETATM   16  C9  UNL     1       5.161   2.089  -0.023  1.00  0.00     0.001 A 
HETATM   17  C10 UNL     1       5.940   1.393   0.869  1.00  0.00     0.000 A 
HETATM   18  C11 UNL     1       5.703   0.075   1.120  1.00  0.00     0.001 A 
HETATM   19  C12 UNL     1       4.680  -0.627   0.502  1.00  0.00     0.007 A 
ENDBRANCH  13  14
ENDBRANCH  12  13
ENDBRANCH  11  12
ENDBRANCH   3  11
BRANCH   6  20
HETATM   20  N2  UNL     1      -3.926   0.856  -0.525  1.00  0.00    -0.224 N 
ATOM     21  H2  UNL     1      -3.684   1.440  -1.326  1.00  0.00     0.177 HD
BRANCH  20  22
HETATM   22  C14 UNL     1      -5.212   1.049   0.061  1.00  0.00     0.164 C 
BRANCH  22  23
HETATM   23  C15 UNL     1      -5.863   2.330  -0.475  1.00  0.00     0.184 C 
BRANCH  23  24
HETATM   24  O1  UNL     1      -5.049   3.417  -0.162  1.00  0.00    -0.399 OA
ATOM     25  H1  UNL     1      -5.452   4.211  -0.494  1.00  0.00     0.209 HD
ENDBRANCH  23  24
ENDBRANCH  22  23
ENDBRANCH  20  22
ENDBRANCH   6  20
TORSDOF 8
