REMARK  7 active torsions:
REMARK  status: ('A' for Active; 'I' for Inactive)
REMARK    1  A    between atoms: C3_3  and  N1_4 
REMARK    2  A    between atoms: C5_9  and  C6_10 
REMARK    3  A    between atoms: C5_9  and  N3_15 
REMARK    4  A    between atoms: C6_10  and  C7_11 
REMARK    5  A    between atoms: C7_11  and  C8_12 
REMARK    6  A    between atoms: C8_12  and  C9_13 
REMARK    7  A    between atoms: N3_15  and  C11_17 
ROOT
HETATM    1  C1  UNL     1       4.885   2.230  -1.150  1.00  0.00     0.098 C 
HETATM    2  C2  UNL     1       3.818   2.648  -0.719  1.00  0.00    -0.167 C 
HETATM    3  C3  UNL     1       2.545   3.123  -0.199  1.00  0.00     0.216 C 
ENDROOT
BRANCH   3   4
HETATM    4  N1  UNL     1       1.627   2.019   0.087  1.00  0.00    -0.256 N 
HETATM    5  C4  UNL     1       1.576   1.369   1.359  1.00  0.00     0.328 C 
HETATM    6  O1  UNL     1       2.299   1.655   2.371  1.00  0.00    -0.247 OA
HETATM    7  N2  UNL     1       0.574   0.366   1.246  1.00  0.00    -0.308 N 
HETATM    8  C5  UNL     1       0.364   0.080  -0.153  1.00  0.00     0.192 C 
ATOM      9  H2  UNL     1       0.085  -0.077   2.024  1.00  0.00     0.167 HD
HETATM   10  C14 UNL     1       0.673   1.419  -0.776  1.00  0.00     0.278 C 
HETATM   11  O2  UNL     1       0.217   1.925  -1.816  1.00  0.00    -0.268 OA
BRANCH   8  12
HETATM   12  C6  UNL     1      -1.033  -0.347  -0.499  1.00  0.00     0.065 C 
BRANCH  12  13
HETATM   13  C7  UNL     1      -2.068   0.708  -0.150  1.00  0.00     0.008 C 
BRANCH  13  14
HETATM   14  C8  UNL     1      -3.419   0.107  -0.567  1.00  0.00     0.026 C 
BRANCH  14  15
HETATM   15  C9  UNL     1      -4.534   1.021  -0.288  1.00  0.00    -0.037 C 
HETATM   16  C10 UNL     1      -5.509   0.658   0.528  1.00  0.00     0.007 C 
ENDBRANCH  14  15
ENDBRANCH  13  14
ENDBRANCH  12  13
ENDBRANCH   8  12
BRANCH   8  17
HETATM   17  N3  UNL     1       1.306  -0.900  -0.571  1.00  0.00    -0.341 N 
ATOM     18  H3  UNL     1       1.905  -0.648  -1.357  1.00  0.00     0.164 HD
BRANCH  17  19
HETATM   19  C11 UNL     1       1.484  -2.055  -0.073  1.00  0.00     0.119 A 
HETATM   20  C12 UNL     1       2.459  -2.957  -0.574  1.00  0.00     0.068 A 
HETATM   21  C13 UNL     1       2.356  -4.081   0.204  1.00  0.00     0.111 A 
HETATM   22  N4  UNL     1       1.385  -3.882   1.119  1.00  0.00    -0.310 N 
HETATM   23  N5  UNL     1       0.869  -2.670   0.946  1.00  0.00    -0.286 N 
ATOM     24  H4  UNL     1       1.094  -4.554   1.829  1.00  0.00     0.186 HD
ATOM     25  H5  UNL     1       0.117  -2.268   1.505  1.00  0.00     0.188 HD
ENDBRANCH  17  19
ENDBRANCH   8  17
ENDBRANCH   3   4
TORSDOF 7
