REMARK  7 active torsions:
REMARK  status: ('A' for Active; 'I' for Inactive)
REMARK    1  A    between atoms: N1_4  and  C4_5 
REMARK    2  A    between atoms: C4_5  and  C5_6 
REMARK    3  A    between atoms: C5_6  and  C6_7 
REMARK    4  A    between atoms: C6_7  and  C7_8 
REMARK    5  A    between atoms: C7_8  and  C8_9 
REMARK    6  A    between atoms: C8_9  and  N2_10 
REMARK    7  A    between atoms: C14_16  and  O1_17 
ROOT
HETATM    1  C1  UNL     1      -3.283   3.544   0.019  1.00  0.00     0.021 C 
HETATM    2  C2  UNL     1      -3.261   2.350  -0.081  1.00  0.00    -0.041 C 
HETATM    3  C3  UNL     1      -3.210   0.921  -0.199  1.00  0.00     0.168 A 
HETATM    4  N1  UNL     1      -2.213   0.129   0.211  1.00  0.00    -0.304 N 
HETATM    5  C14 UNL     1      -2.555  -1.139  -0.084  1.00  0.00     0.187 A 
HETATM    6  C15 UNL     1      -3.810  -1.111  -0.698  1.00  0.00     0.171 A 
HETATM    7  N3  UNL     1      -4.529  -2.243  -1.164  1.00  0.00    -0.078 NA
HETATM    8  N4  UNL     1      -4.199   0.172  -0.760  1.00  0.00    -0.315 N 
HETATM    9  C16 UNL     1      -5.436   0.690  -1.315  1.00  0.00     0.160 C 
ENDROOT
BRANCH   4  10
HETATM   10  C4  UNL     1      -1.004   0.594   0.851  1.00  0.00     0.133 C 
BRANCH  10  11
HETATM   11  C5  UNL     1       0.095   0.906  -0.139  1.00  0.00     0.020 C 
BRANCH  11  12
HETATM   12  C6  UNL     1       1.287   1.379   0.659  1.00  0.00     0.003 C 
BRANCH  12  13
HETATM   13  C7  UNL     1       1.824   0.401   1.636  1.00  0.00     0.020 C 
BRANCH  13  14
HETATM   14  C8  UNL     1       2.356  -0.873   1.091  1.00  0.00     0.128 C 
BRANCH  14  15
HETATM   15  N2  UNL     1       3.469  -0.783   0.214  1.00  0.00    -0.366 N 
HETATM   16  C9  UNL     1       4.708  -0.808   0.754  1.00  0.00     0.090 A 
HETATM   17  C10 UNL     1       5.847  -0.735  -0.026  1.00  0.00     0.017 A 
HETATM   18  C11 UNL     1       5.705  -0.633  -1.390  1.00  0.00     0.003 A 
HETATM   19  C12 UNL     1       4.449  -0.608  -1.937  1.00  0.00     0.017 A 
HETATM   20  C13 UNL     1       3.325  -0.685  -1.105  1.00  0.00     0.090 A 
ENDBRANCH  14  15
ENDBRANCH  13  14
ENDBRANCH  12  13
ENDBRANCH  11  12
ENDBRANCH  10  11
ENDBRANCH   4  10
BRANCH   5  21
HETATM   21  O1  UNL     1      -1.766  -2.246   0.192  1.00  0.00    -0.343 OA
ATOM     22  H1  UNL     1      -2.007  -3.141  -0.016  1.00  0.00     0.219 HD
ENDBRANCH   5  21
TORSDOF 7
