REMARK  10 active torsions:
REMARK  status: ('A' for Active; 'I' for Inactive)
REMARK    1  A    between atoms: C3_10  and  C4_11 
REMARK    2  A    between atoms: C4_11  and  C5_12 
REMARK    3  A    between atoms: C5_12  and  N4_13 
REMARK    4  A    between atoms: N4_13  and  C6_15 
REMARK    5  A    between atoms: C9_20  and  O1_21 
REMARK    6  A    between atoms: O1_21  and  C10_22 
REMARK    7  A    between atoms: C10_22  and  C11_23 
REMARK    8  A    between atoms: C11_23  and  C12_24 
REMARK    9  A    between atoms: C12_24  and  C13_25 
REMARK   10  A    between atoms: C19_31  and  N6_32 
ROOT
HETATM    1  C6  UNL     1       1.788  -0.295   0.152  1.00  0.00     0.067 A 
HETATM    2  C7  UNL     1       2.285  -0.285   1.434  1.00  0.00     0.049 A 
HETATM    3  C8  UNL     1       1.438  -0.293   2.545  1.00  0.00     0.092 A 
HETATM    4  N5  UNL     1       0.118  -0.310   2.351  1.00  0.00    -0.345 N 
ATOM      5  H5  UNL     1      -0.500  -0.316   3.162  1.00  0.00     0.167 HD
HETATM    6  C9  UNL     1      -0.431  -0.320   1.104  1.00  0.00     0.178 A 
HETATM    7  C19 UNL     1       0.387  -0.313  -0.000  1.00  0.00     0.179 A 
ENDROOT
BRANCH   1   8
HETATM    8  N4  UNL     1       2.524  -0.289  -0.898  1.00  0.00    -0.387 N 
ATOM      9  H4  UNL     1       2.095  -0.297  -1.823  1.00  0.00     0.159 HD
BRANCH   8  10
HETATM   10  C5  UNL     1       3.960  -0.271  -0.768  1.00  0.00     0.127 C 
BRANCH  10  11
HETATM   11  C4  UNL     1       4.372   1.153  -0.533  1.00  0.00     0.096 C 
BRANCH  11  12
HETATM   12  C3  UNL     1       5.860   1.280  -0.384  1.00  0.00     0.099 A 
HETATM   13  N3  UNL     1       6.419   2.488  -0.154  1.00  0.00    -0.341 N 
HETATM   14  C2  UNL     1       7.753   2.605  -0.021  1.00  0.00     0.199 A 
ATOM     15  H3  UNL     1       5.827   3.315  -0.081  1.00  0.00     0.167 HD
HETATM   16  N2  UNL     1       8.569   1.534  -0.112  1.00  0.00    -0.188 N 
HETATM   17  C1  UNL     1       8.034   0.322  -0.340  1.00  0.00     0.678 A 
ATOM     18  H2  UNL     1       9.578   1.643  -0.009  1.00  0.00     0.185 HD
HETATM   19  N1  UNL     1       8.773  -0.731  -0.434  1.00  0.00    -0.234 N 
HETATM   20  N7  UNL     1       6.686   0.232  -0.470  1.00  0.00    -0.181 N 
ATOM     21  H12 UNL     1       9.786  -0.663  -0.336  1.00  0.00     0.174 HD
ATOM     22  H11 UNL     1       8.367  -1.651  -0.607  1.00  0.00     0.174 HD
ATOM     23  H7  UNL     1       6.280  -0.687  -0.643  1.00  0.00     0.185 HD
ENDBRANCH  11  12
ENDBRANCH  10  11
ENDBRANCH   8  10
ENDBRANCH   1   8
BRANCH   7  24
HETATM   24  N6  UNL     1      -0.144  -0.319  -1.316  1.00  0.00    -0.109 N 
HETATM   25  O2  UNL     1      -0.131   0.722  -2.002  1.00  0.00    -0.532 OA
HETATM   26  O3  UNL     1      -0.672  -1.470  -1.830  1.00  0.00    -0.532 OA
ENDBRANCH   7  24
BRANCH   6  27
HETATM   27  O1  UNL     1      -1.808  -0.338   1.019  1.00  0.00    -0.334 OA
BRANCH  27  28
HETATM   28  C10 UNL     1      -2.577  -1.520   1.105  1.00  0.00     0.178 C 
BRANCH  28  29
HETATM   29  C11 UNL     1      -4.056  -1.227   0.974  1.00  0.00     0.031 C 
BRANCH  29  30
HETATM   30  C12 UNL     1      -4.281  -0.582  -0.364  1.00  0.00     0.041 C 
BRANCH  30  31
HETATM   31  C13 UNL     1      -5.688  -0.241  -0.626  1.00  0.00    -0.058 A 
HETATM   32  C14 UNL     1      -6.607  -1.067  -1.225  1.00  0.00     0.007 A 
HETATM   33  C15 UNL     1      -7.906  -0.656  -1.428  1.00  0.00     0.001 A 
HETATM   34  C16 UNL     1      -8.343   0.604  -1.038  1.00  0.00     0.000 A 
HETATM   35  C17 UNL     1      -7.431   1.444  -0.435  1.00  0.00     0.001 A 
HETATM   36  C18 UNL     1      -6.139   1.009  -0.244  1.00  0.00     0.007 A 
ENDBRANCH  30  31
ENDBRANCH  29  30
ENDBRANCH  28  29
ENDBRANCH  27  28
ENDBRANCH   6  27
TORSDOF 10
