REMARK  10 active torsions:
REMARK  status: ('A' for Active; 'I' for Inactive)
REMARK    1  A    between atoms: C2_2  and  C3_3 
REMARK    2  A    between atoms: N1_5  and  C5_6 
REMARK    3  A    between atoms: C5_6  and  C6_7 
REMARK    4  A    between atoms: C6_7  and  N2_8 
REMARK    5  A    between atoms: N2_8  and  C7_11 
REMARK    6  A    between atoms: C7_11  and  C8_12 
REMARK    7  A    between atoms: C8_12  and  C9_13 
REMARK    8  A    between atoms: C9_13  and  N3_14 
REMARK    9  A    between atoms: C16_21  and  C17_22 
REMARK   10  A    between atoms: C18_28  and  N6_29 
ROOT
HETATM    1  C3  UNL     1      -2.740  -2.687  -1.825  1.00  0.00     0.169 C 
HETATM    2  C4  UNL     1      -1.724  -1.614  -2.124  1.00  0.00     0.159 C 
HETATM    3  N1  UNL     1      -1.725  -0.556  -1.176  1.00  0.00    -0.374 N 
HETATM    4  C14 UNL     1      -2.936  -0.293  -0.429  1.00  0.00     0.065 A 
HETATM    5  C15 UNL     1      -3.257   0.961  -0.053  1.00  0.00     0.046 A 
HETATM    6  C16 UNL     1      -4.421   1.248   0.678  1.00  0.00    -0.001 A 
HETATM    7  C19 UNL     1      -5.225   0.183   0.995  1.00  0.00     0.017 A 
HETATM    8  C20 UNL     1      -4.906  -1.130   0.611  1.00  0.00     0.040 A 
HETATM    9  C21 UNL     1      -3.767  -1.373  -0.098  1.00  0.00     0.096 A 
HETATM   10  O2  UNL     1      -3.322  -2.600  -0.542  1.00  0.00    -0.338 OA
ENDROOT
BRANCH   3  11
HETATM   11  C5  UNL     1      -0.611   0.246  -0.848  1.00  0.00     0.150 C 
BRANCH  11  12
HETATM   12  C6  UNL     1       0.343  -0.678  -0.076  1.00  0.00     0.252 C 
BRANCH  12  13
HETATM   13  N2  UNL     1       1.455   0.048   0.474  1.00  0.00    -0.074 N 
ATOM     14  H22 UNL     1       1.977   0.588  -0.216  1.00  0.00     0.277 HD
ATOM     15  H21 UNL     1       1.183   0.837   1.060  1.00  0.00     0.277 HD
BRANCH  13  16
HETATM   16  C7  UNL     1       2.266  -0.963   1.176  1.00  0.00     0.234 C 
BRANCH  16  17
HETATM   17  C8  UNL     1       3.221  -0.359   2.121  1.00  0.00     0.057 C 
BRANCH  17  18
HETATM   18  C9  UNL     1       4.176   0.612   1.601  1.00  0.00     0.274 C 
BRANCH  18  19
HETATM   19  N3  UNL     1       5.129   0.220   0.626  1.00  0.00     0.088 N 
HETATM   20  C10 UNL     1       6.075   1.355   0.511  1.00  0.00     0.272 C 
HETATM   21  C11 UNL     1       6.420   1.533  -0.916  1.00  0.00     0.032 C 
HETATM   22  C12 UNL     1       5.921   0.261  -1.566  1.00  0.00     0.032 C 
HETATM   23  C13 UNL     1       4.673  -0.026  -0.697  1.00  0.00     0.272 C 
ENDBRANCH  18  19
ENDBRANCH  17  18
ENDBRANCH  16  17
ENDBRANCH  13  16
ENDBRANCH  12  13
ENDBRANCH  11  12
ENDBRANCH   3  11
BRANCH   1  24
HETATM   24  C2  UNL     1      -2.049  -3.994  -1.919  1.00  0.00    -0.003 C 
HETATM   25  C1  UNL     1      -2.079  -4.717  -3.019  1.00  0.00     0.009 C 
ENDBRANCH   1  24
BRANCH   6  26
HETATM   26  C17 UNL     1      -4.689   2.632   1.054  1.00  0.00     0.112 A 
HETATM   27  N4  UNL     1      -4.563   3.677   0.171  1.00  0.00    -0.237 N 
HETATM   28  O1  UNL     1      -4.860   4.798   0.772  1.00  0.00    -0.155 OA
ATOM     29  H4  UNL     1      -4.281   3.591  -0.805  1.00  0.00     0.197 HD
HETATM   30  N5  UNL     1      -5.172   4.518   2.011  1.00  0.00    -0.224 N 
HETATM   31  C18 UNL     1      -5.079   3.193   2.226  1.00  0.00     0.151 A 
ATOM     32  H5  UNL     1      -5.446   5.205   2.713  1.00  0.00     0.198 HD
BRANCH  31  33
HETATM   33  N6  UNL     1      -5.303   2.522   3.312  1.00  0.00    -0.382 N 
ATOM     34  H62 UNL     1      -5.233   1.518   3.475  1.00  0.00     0.157 HD
ATOM     35  H61 UNL     1      -5.596   2.944   4.193  1.00  0.00     0.157 HD
ENDBRANCH  31  33
ENDBRANCH   6  26
TORSDOF 10
