REMARK  11 active torsions:
REMARK  status: ('A' for Active; 'I' for Inactive)
REMARK    1  A    between atoms: C3_4  and  C4_5 
REMARK    2  A    between atoms: C4_5  and  N1_6 
REMARK    3  A    between atoms: N1_6  and  C5_8 
REMARK    4  A    between atoms: C6_11  and  N3_12 
REMARK    5  A    between atoms: C11_19  and  N5_20 
REMARK    6  A    between atoms: N5_20  and  C12_22 
REMARK    7  A    between atoms: C12_22  and  C13_23 
REMARK    8  A    between atoms: C13_23  and  C14_24 
REMARK    9  A    between atoms: C14_24  and  N6_25 
REMARK   10  A    between atoms: N6_25  and  C15_28 
REMARK   11  A    between atoms: C15_28  and  C16_29 
ROOT
HETATM    1  C5  UNL     1      -2.280  -0.819   0.108  1.00  0.00     0.707 A 
HETATM    2  N2  UNL     1      -2.876   0.378   0.382  1.00  0.00    -0.021 N 
ATOM      3  H2  UNL     1      -3.742   0.391   0.920  1.00  0.00     0.203 HD
HETATM    4  C6  UNL     1      -2.350   1.538  -0.039  1.00  0.00     0.709 A 
HETATM    5  N4  UNL     1      -1.212   1.476  -0.742  1.00  0.00    -0.021 N 
ATOM      6  H4  UNL     1      -0.805   2.354  -1.066  1.00  0.00     0.203 HD
HETATM    7  C11 UNL     1      -0.567   0.333  -1.051  1.00  0.00     0.707 A 
HETATM    8  N7  UNL     1      -1.133  -0.804  -0.607  1.00  0.00    -0.022 N 
ATOM      9  H7  UNL     1      -0.678  -1.692  -0.819  1.00  0.00     0.203 HD
ENDROOT
BRANCH   7  10
HETATM   10  N5  UNL     1       0.518   0.400  -1.733  1.00  0.00    -0.225 N 
ATOM     11  H5  UNL     1       0.844   1.326  -2.011  1.00  0.00     0.177 HD
BRANCH  10  12
HETATM   12  C12 UNL     1       1.309  -0.731  -2.134  1.00  0.00     0.139 C 
BRANCH  12  13
HETATM   13  C13 UNL     1       2.498  -0.808  -1.168  1.00  0.00     0.048 C 
BRANCH  13  14
HETATM   14  C14 UNL     1       3.264   0.483  -1.309  1.00  0.00     0.234 C 
BRANCH  14  15
HETATM   15  N6  UNL     1       4.395   0.494  -0.440  1.00  0.00    -0.069 N 
ATOM     16  H62 UNL     1       4.778   1.437  -0.369  1.00  0.00     0.277 HD
ATOM     17  H61 UNL     1       4.101   0.350   0.526  1.00  0.00     0.277 HD
BRANCH  15  18
HETATM   18  C15 UNL     1       5.424  -0.434  -0.789  1.00  0.00     0.296 C 
BRANCH  18  19
HETATM   19  C16 UNL     1       6.564  -0.344   0.160  1.00  0.00     0.078 A 
HETATM   20  C17 UNL     1       6.684   0.501   1.240  1.00  0.00     0.036 A 
HETATM   21  C18 UNL     1       7.914   0.197   1.793  1.00  0.00     0.027 A 
HETATM   22  C19 UNL     1       8.480  -0.806   1.034  1.00  0.00     0.142 A 
HETATM   23  O2  UNL     1       7.639  -1.087   0.082  1.00  0.00    -0.325 OA
ENDBRANCH  18  19
ENDBRANCH  15  18
ENDBRANCH  14  15
ENDBRANCH  13  14
ENDBRANCH  12  13
ENDBRANCH  10  12
ENDBRANCH   7  10
BRANCH   4  24
HETATM   24  N3  UNL     1      -2.998   2.776   0.261  1.00  0.00    -0.217 N 
HETATM   25  C7  UNL     1      -4.218   2.915   1.006  1.00  0.00     0.141 C 
HETATM   26  C8  UNL     1      -4.360   4.400   1.230  1.00  0.00     0.022 C 
HETATM   27  C9  UNL     1      -3.703   4.984  -0.008  1.00  0.00     0.022 C 
HETATM   28  C10 UNL     1      -2.501   4.073  -0.154  1.00  0.00     0.141 C 
ENDBRANCH   4  24
BRANCH   1  29
HETATM   29  N1  UNL     1      -2.813  -1.894   0.528  1.00  0.00    -0.219 N 
ATOM     30  H1  UNL     1      -3.676  -1.776   1.058  1.00  0.00     0.178 HD
BRANCH  29  31
HETATM   31  C4  UNL     1      -2.378  -3.236   0.364  1.00  0.00     0.203 C 
BRANCH  31  32
HETATM   32  C3  UNL     1      -3.557  -4.170   0.214  1.00  0.00     0.070 A 
HETATM   33  O1  UNL     1      -3.542  -5.465   0.084  1.00  0.00    -0.325 OA
HETATM   34  C2  UNL     1      -4.755  -5.946  -0.023  1.00  0.00     0.142 A 
HETATM   35  C1  UNL     1      -5.667  -4.891   0.040  1.00  0.00     0.027 A 
HETATM   36  C20 UNL     1      -4.886  -3.768   0.191  1.00  0.00     0.036 A 
ENDBRANCH  31  32
ENDBRANCH  29  31
ENDBRANCH   1  29
TORSDOF 11
