REMARK  2 active torsions:
REMARK  status: ('A' for Active; 'I' for Inactive)
REMARK    1  A    between atoms: C8_8  and  C9_9 
REMARK    2  A    between atoms: C9_9  and  N1_11 
ROOT
HETATM    1  C9  UNL     1       0.224  -1.233  -0.776  1.00  0.00     0.084 C 
HETATM    2  C10 UNL     1       0.008  -2.443   0.118  1.00  0.00     0.033 C 
ENDROOT
BRANCH   1   3
HETATM    3  C8  UNL     1      -0.932  -0.284  -0.600  1.00  0.00     0.017 A 
HETATM    4  C6  UNL     1      -1.291   0.363   0.676  1.00  0.00    -0.003 A 
HETATM    5  C5  UNL     1      -1.864   1.743   0.526  1.00  0.00     0.005 C 
HETATM    6  C7  UNL     1      -2.069  -0.767   0.251  1.00  0.00     0.000 A 
HETATM    7  C4  UNL     1      -3.308   1.823   0.218  1.00  0.00     0.001 C 
HETATM    8  C3  UNL     1      -3.772   0.769  -0.766  1.00  0.00     0.005 C 
HETATM    9  C2  UNL     1      -3.499  -0.542  -0.091  1.00  0.00    -0.014 C 
HETATM   10  C1  UNL     1      -4.269  -0.524   1.234  1.00  0.00     0.010 C 
ENDBRANCH   1   3
BRANCH   1  11
HETATM   11  N1  UNL     1       1.500  -0.632  -0.562  1.00  0.00    -0.385 N 
HETATM   12  C11 UNL     1       2.508  -1.417   0.016  1.00  0.00     0.088 C 
HETATM   13  C12 UNL     1       3.869  -0.766  -0.101  1.00  0.00     0.316 C 
HETATM   14  N2  UNL     1       3.823   0.626   0.287  1.00  0.00     0.090 N 
HETATM   15  C13 UNL     1       5.186   1.126   0.211  1.00  0.00     0.310 C 
HETATM   16  C14 UNL     1       2.974   1.302  -0.691  1.00  0.00     0.292 C 
HETATM   17  C15 UNL     1       1.562   0.766  -0.391  1.00  0.00     0.152 C 
ENDBRANCH   1  11
TORSDOF 2
