REMARK  2 active torsions:
REMARK  status: ('A' for Active; 'I' for Inactive)
REMARK    1  A    between atoms: C7_8  and  C8_9 
REMARK    2  A    between atoms: C7_8  and  C12_15 
ROOT
HETATM    1  C8  UNL     1       1.572   0.721  -0.325  1.00  0.00     0.046 C 
HETATM    2  C9  UNL     1       2.683   0.845   0.292  1.00  0.00     0.123 C 
HETATM    3  C10 UNL     1       3.724   1.708  -0.308  1.00  0.00     0.110 C 
HETATM    4  N2  UNL     1       4.524   2.386  -0.791  1.00  0.00    -0.191 NA
HETATM    5  C11 UNL     1       3.062   0.239   1.503  1.00  0.00     0.110 C 
HETATM    6  N3  UNL     1       3.418  -0.258   2.517  1.00  0.00    -0.191 NA
ENDROOT
BRANCH   1   7
HETATM    7  C7  UNL     1       0.318  -0.026  -0.061  1.00  0.00     0.152 C 
HETATM    8  N1  UNL     1      -0.839   0.743  -0.543  1.00  0.00    -0.062 N 
HETATM    9  C1  UNL     1      -0.519   1.690  -1.583  1.00  0.00     0.273 C 
HETATM   10  C2  UNL     1      -1.881  -0.100  -1.089  1.00  0.00     0.273 C 
HETATM   11  C3  UNL     1      -1.436   1.475   0.577  1.00  0.00     0.238 C 
HETATM   12  C4  UNL     1      -2.177   0.492   1.457  1.00  0.00     0.028 C 
HETATM   13  C5  UNL     1      -1.205  -0.550   1.898  1.00  0.00     0.004 C 
HETATM   14  C6  UNL     1       0.202  -0.316   1.387  1.00  0.00     0.044 C 
BRANCH   7  15
HETATM   15  C12 UNL     1       0.362  -1.232  -0.967  1.00  0.00     0.026 A 
HETATM   16  C13 UNL     1       1.423  -2.296  -0.804  1.00  0.00     0.008 A 
HETATM   17  C14 UNL     1      -0.062  -2.575  -0.626  1.00  0.00     0.008 A 
ENDBRANCH   7  15
ENDBRANCH   1   7
TORSDOF 2
