REMARK  3 active torsions:
REMARK  status: ('A' for Active; 'I' for Inactive)
REMARK    1  A    between atoms: C7_8  and  O1_9 
REMARK    2  A    between atoms: O1_9  and  C8_10 
REMARK    3  A    between atoms: C8_10  and  C9_12 
ROOT
HETATM    1  C1  UNL     1      -3.723   0.665  -1.797  1.00  0.00     0.272 C 
HETATM    2  N1  UNL     1      -2.858   0.196  -0.751  1.00  0.00    -0.068 N 
HETATM    3  C2  UNL     1      -3.327   0.676   0.531  1.00  0.00     0.237 C 
HETATM    4  C3  UNL     1      -2.633  -0.025   1.682  1.00  0.00     0.035 C 
HETATM    5  C4  UNL     1      -1.388  -0.674   1.080  1.00  0.00     0.020 C 
HETATM    6  C5  UNL     1      -1.935  -1.812   0.253  1.00  0.00     0.035 C 
HETATM    7  C6  UNL     1      -2.863  -1.273  -0.786  1.00  0.00     0.237 C 
HETATM    8  C7  UNL     1      -0.714   0.383   0.242  1.00  0.00     0.162 C 
HETATM    9  C14 UNL     1      -1.480   0.583  -1.008  1.00  0.00     0.269 C 
ENDROOT
BRANCH   8  10
HETATM   10  O1  UNL     1       0.658   0.238   0.127  1.00  0.00    -0.314 OA
BRANCH  10  11
HETATM   11  C8  UNL     1       1.628   1.072   0.607  1.00  0.00     0.263 C 
HETATM   12  O2  UNL     1       1.193   2.078   1.218  1.00  0.00    -0.265 OA
BRANCH  11  13
HETATM   13  C9  UNL     1       3.043   0.796   0.412  1.00  0.00     0.085 C 
HETATM   14  C10 UNL     1       3.462   0.716  -1.039  1.00  0.00     0.014 C 
HETATM   15  C11 UNL     1       4.696  -0.163  -1.029  1.00  0.00     0.001 C 
HETATM   16  C12 UNL     1       4.880  -0.625   0.402  1.00  0.00     0.001 C 
HETATM   17  C13 UNL     1       3.451  -0.598   0.904  1.00  0.00     0.014 C 
ENDBRANCH  11  13
ENDBRANCH  10  11
ENDBRANCH   8  10
TORSDOF 3
