REMARK  3 active torsions:
REMARK  status: ('A' for Active; 'I' for Inactive)
REMARK    1  A    between atoms: C2_2  and  N1_5 
REMARK    2  A    between atoms: N1_5  and  C5_7 
REMARK    3  A    between atoms: C5_7  and  N2_9 
ROOT
HETATM    1  C5  UNL     1      -0.039  -0.580   0.066  1.00  0.00     0.170 C 
HETATM    2  S1  UNL     1       0.551  -2.109  -0.116  1.00  0.00    -0.041 SA
ENDROOT
BRANCH   1   3
HETATM    3  N1  UNL     1       0.893   0.443   0.347  1.00  0.00    -0.359 N 
ATOM      4  H1  UNL     1       0.563   1.401   0.466  1.00  0.00     0.162 HD
BRANCH   3   5
HETATM    5  C2  UNL     1       2.296   0.163   0.468  1.00  0.00     0.021 C 
HETATM    6  C1  UNL     1       2.606  -0.816   1.565  1.00  0.00     0.037 C 
HETATM    7  C3  UNL     1       3.056   1.460   0.759  1.00  0.00     0.037 C 
HETATM    8  C4  UNL     1       2.812  -0.337  -0.868  1.00  0.00     0.037 C 
ENDBRANCH   3   5
ENDBRANCH   1   3
BRANCH   1   9
HETATM    9  N2  UNL     1      -1.431  -0.316  -0.056  1.00  0.00    -0.353 N 
HETATM   10  C6  UNL     1      -2.030   0.989   0.089  1.00  0.00     0.151 C 
HETATM   11  C7  UNL     1      -3.491   0.928   0.357  1.00  0.00     0.189 C 
HETATM   12  O1  UNL     1      -4.197   0.034  -0.391  1.00  0.00    -0.367 OA
HETATM   13  C8  UNL     1      -3.468  -0.844  -1.140  1.00  0.00     0.235 C 
HETATM   14 CL1  UNL     1      -2.842   0.029  -2.572  1.00  0.00    -0.094 Cl
HETATM   15  C9  UNL     1      -2.315  -1.420  -0.344  1.00  0.00     0.173 C 
ENDBRANCH   1   9
TORSDOF 3
