REMARK  1 active torsions:
REMARK  status: ('A' for Active; 'I' for Inactive)
REMARK    1  A    between atoms: C10_11  and  O1_12 
ROOT
HETATM    1  C1  UNL     1      -1.605   2.861   0.987  1.00  0.00     0.309 C 
HETATM    2  N1  UNL     1      -1.239   1.468   0.810  1.00  0.00     0.085 N 
HETATM    3  C2  UNL     1      -2.080   0.873  -0.199  1.00  0.00     0.277 C 
HETATM    4  C3  UNL     1      -1.578  -0.478  -0.550  1.00  0.00     0.019 C 
HETATM    5  C4  UNL     1      -2.549  -1.592  -0.375  1.00  0.00     0.007 C 
HETATM    6  C5  UNL     1      -1.651  -2.819  -0.317  1.00  0.00     0.001 C 
HETATM    7  C6  UNL     1      -0.285  -2.310   0.128  1.00  0.00     0.006 C 
HETATM    8  C7  UNL     1      -0.465  -0.882   0.430  1.00  0.00     0.003 C 
HETATM    9  C8  UNL     1       0.659   0.027   0.193  1.00  0.00     0.016 C 
HETATM   10  C9  UNL     1       1.258  -0.052  -1.179  1.00  0.00     0.047 C 
HETATM   11  C10 UNL     1       2.595   0.324  -0.525  1.00  0.00     0.143 C 
HETATM   12  C11 UNL     1       1.989  -0.240   0.771  1.00  0.00     0.069 C 
HETATM   13  C12 UNL     1       2.440   0.610   1.924  1.00  0.00     0.036 C 
HETATM   14 CL1  UNL     1       2.474  -1.909   0.974  1.00  0.00    -0.116 Cl
HETATM   15  C13 UNL     1       0.169   1.451   0.451  1.00  0.00     0.283 C 
ENDROOT
BRANCH  11  16
HETATM   16  O1  UNL     1       3.674  -0.380  -1.004  1.00  0.00    -0.394 OA
ATOM     17  H1  UNL     1       4.501  -0.147  -0.599  1.00  0.00     0.210 HD
ENDBRANCH  11  16
TORSDOF 1
