REMARK  0 active torsions:
REMARK  status: ('A' for Active; 'I' for Inactive)
ROOT
HETATM    1 CL1  UNL     1       1.658  -0.506   2.533  1.00  0.00    -0.102 Cl
HETATM    2  C1  UNL     1       0.418   0.164   1.414  1.00  0.00     0.191 C 
HETATM    3  N1  UNL     1       0.920   1.276   0.720  1.00  0.00    -0.375 N 
HETATM    4  C2  UNL     1       2.326   1.380   0.617  1.00  0.00     0.123 C 
HETATM    5  C3  UNL     1       2.847   0.176  -0.135  1.00  0.00     0.020 C 
HETATM    6  C4  UNL     1       1.921  -0.392  -1.125  1.00  0.00     0.002 C 
HETATM    7  C5  UNL     1       0.707  -1.125  -0.724  1.00  0.00     0.015 C 
HETATM    8  C6  UNL     1      -0.079  -0.838   0.440  1.00  0.00     0.023 C 
HETATM    9  C7  UNL     1      -0.436  -2.219   1.048  1.00  0.00     0.245 C 
HETATM   10  N2  UNL     1      -1.286  -2.690  -0.067  1.00  0.00    -0.074 N 
ATOM     11  H21 UNL     1      -1.893  -3.467   0.193  1.00  0.00     0.277 HD
ATOM     12  H22 UNL     1      -0.760  -3.173  -0.795  1.00  0.00     0.277 HD
HETATM   13  C8  UNL     1      -2.028  -1.520  -0.570  1.00  0.00     0.238 C 
HETATM   14  C9  UNL     1      -1.577  -0.462   0.307  1.00  0.00     0.029 C 
HETATM   15  C10 UNL     1      -1.880   0.926   0.248  1.00  0.00     0.002 A 
HETATM   16  C11 UNL     1      -2.443   1.824  -0.745  1.00  0.00     0.016 A 
HETATM   17  C12 UNL     1      -1.017   1.597  -0.795  1.00  0.00     0.029 A 
HETATM   18  C13 UNL     1       0.114   2.127  -0.027  1.00  0.00     0.065 C 
ENDROOT
TORSDOF 0
