REMARK  1 active torsions:
REMARK  status: ('A' for Active; 'I' for Inactive)
REMARK    1  A    between atoms: O1_1  and  C1_3 
ROOT
HETATM    1  C1  UNL     1      -1.043   0.167  -1.030  1.00  0.00     0.126 C 
HETATM    2  C2  UNL     1      -1.038  -0.937  -0.003  1.00  0.00     0.021 C 
HETATM    3  C3  UNL     1      -0.970  -0.422   1.410  1.00  0.00     0.039 C 
HETATM    4  C4  UNL     1       0.286   0.403   1.539  1.00  0.00     0.124 C 
HETATM    5  C5  UNL     1       0.218   1.595   0.608  1.00  0.00     0.039 C 
HETATM    6  C6  UNL     1       0.100   1.126  -0.806  1.00  0.00     0.021 C 
HETATM    7  C7  UNL     1       1.380   0.336  -1.108  1.00  0.00     0.057 C 
HETATM    8  C8  UNL     1       1.431  -0.779  -0.089  1.00  0.00     0.119 C 
HETATM    9 BR1  UNL     1       3.047  -1.778  -0.390  1.00  0.00    -0.054 Br
HETATM   10  C9  UNL     1       0.266  -1.715  -0.239  1.00  0.00     0.057 C 
HETATM   11  O2  UNL     1       1.434  -0.302   1.208  1.00  0.00    -0.363 OA
ENDROOT
BRANCH   1  12
HETATM   12  O1  UNL     1      -2.260   0.778  -1.186  1.00  0.00    -0.395 OA
ATOM     13  H1  UNL     1      -2.263   1.474  -1.833  1.00  0.00     0.210 HD
ENDBRANCH   1  12
TORSDOF 1
