REMARK  8 active torsions:
REMARK  status: ('A' for Active; 'I' for Inactive)
REMARK    1  A    between atoms: C3_3  and  N1_4 
REMARK       I    between atoms: N1_4  and  C4_6 
REMARK       I    between atoms: C4_6  and  N2_7 
REMARK    2  A    between atoms: N5_12  and  C6_14 
REMARK    3  A    between atoms: C6_14  and  C7_15 
REMARK    4  A    between atoms: C7_15  and  C8_16 
REMARK    5  A    between atoms: C8_16  and  C9_17 
REMARK    6  A    between atoms: C9_17  and  C10_18 
REMARK    7  A    between atoms: C10_18  and  C11_19 
REMARK    8  A    between atoms: C11_19  and  N6_20 
ROOT
HETATM    1  C1  UNL     1       2.707   2.629  -1.353  1.00  0.00     0.014 C 
HETATM    2  C2  UNL     1       3.584   2.167  -0.650  1.00  0.00    -0.097 C 
HETATM    3  C3  UNL     1       4.629   1.606   0.211  1.00  0.00     0.231 C 
ENDROOT
BRANCH   3   4
HETATM    4  N1  UNL     1       4.333   0.259   0.636  1.00  0.00    -0.216 N 
HETATM    5  C4  UNL     1       4.322  -0.830  -0.256  1.00  0.00     0.676 C 
HETATM    6  N2  UNL     1       5.464  -1.352  -0.887  1.00  0.00    -0.166 N 
HETATM    7  N5  UNL     1       3.196  -1.402  -0.523  1.00  0.00    -0.226 N 
HETATM    8  C5  UNL     1       6.660  -1.356  -0.493  1.00  0.00     0.215 C 
ATOM      9  H2  UNL     1       5.301  -1.790  -1.794  1.00  0.00     0.186 HD
HETATM   10  N3  UNL     1       7.047  -0.791   0.738  1.00  0.00    -0.066 NA
HETATM   11  N4  UNL     1       7.645  -1.954  -1.320  1.00  0.00    -0.066 NA
ATOM     12  H5  UNL     1       3.165  -2.193  -1.166  1.00  0.00     0.177 HD
ATOM     13  H1  UNL     1       4.124   0.090   1.620  1.00  0.00     0.178 HD
BRANCH   7  14
HETATM   14  C6  UNL     1       1.988  -0.924   0.086  1.00  0.00     0.138 C 
BRANCH  14  15
HETATM   15  C7  UNL     1       1.097  -2.099   0.322  1.00  0.00     0.020 C 
BRANCH  15  16
HETATM   16  C8  UNL     1      -0.199  -1.709   0.962  1.00  0.00     0.002 C 
BRANCH  16  17
HETATM   17  C9  UNL     1      -0.960  -0.744   0.092  1.00  0.00     0.002 C 
BRANCH  17  18
HETATM   18  C10 UNL     1      -2.261  -0.417   0.819  1.00  0.00     0.019 C 
BRANCH  18  19
HETATM   19  C11 UNL     1      -3.056   0.553  -0.028  1.00  0.00     0.117 C 
BRANCH  19  20
HETATM   20  N6  UNL     1      -4.279   0.864   0.654  1.00  0.00    -0.409 N 
HETATM   21  C12 UNL     1      -5.201  -0.202   0.754  1.00  0.00     0.144 C 
HETATM   22  C13 UNL     1      -6.496  -0.070   0.061  1.00  0.00     0.251 C 
HETATM   23  N7  UNL     1      -6.859   1.224  -0.415  1.00  0.00    -0.072 N 
HETATM   24  C14 UNL     1      -6.287   2.203   0.521  1.00  0.00     0.251 C 
ATOM     25  H72 UNL     1      -6.583   1.387  -1.383  1.00  0.00     0.277 HD
ATOM     26  H71 UNL     1      -7.864   1.335  -0.546  1.00  0.00     0.277 HD
HETATM   27  C15 UNL     1      -4.810   2.147   0.337  1.00  0.00     0.144 C 
ENDBRANCH  19  20
ENDBRANCH  18  19
ENDBRANCH  17  18
ENDBRANCH  16  17
ENDBRANCH  15  16
ENDBRANCH  14  15
ENDBRANCH   7  14
ENDBRANCH   3   4
TORSDOF 8
