REMARK  9 active torsions:
REMARK  status: ('A' for Active; 'I' for Inactive)
REMARK    1  A    between atoms: O1_2  and  C2_3 
REMARK    2  A    between atoms: C2_3  and  C3_5 
REMARK    3  A    between atoms: C3_5  and  C4_6 
REMARK    4  A    between atoms: C4_6  and  N1_7 
REMARK    5  A    between atoms: C7_13  and  O3_14 
REMARK    6  A    between atoms: O3_14  and  C8_15 
REMARK    7  A    between atoms: C9_16  and  N4_17 
REMARK       I    between atoms: N4_17  and  C10_19 
REMARK    8  A    between atoms: C12_30  and  N9_31 
REMARK       I    between atoms: N9_31  and  C13_33 
REMARK    9  A    between atoms: C13_33  and  O6_35 
ROOT
HETATM    1  N1  UNL     1       2.278   0.290  -0.467  1.00  0.00    -0.275 N 
HETATM    2  N2  UNL     1       1.940  -0.569  -1.401  1.00  0.00    -0.285 N 
ATOM      3  H2  UNL     1       2.521  -0.794  -2.208  1.00  0.00     0.188 HD
HETATM    4  C5  UNL     1       0.737  -1.115  -1.165  1.00  0.00     0.166 A 
HETATM    5  C6  UNL     1       0.114  -2.069  -2.033  1.00  0.00     0.122 C 
HETATM    6  N3  UNL     1      -0.409  -2.839  -2.715  1.00  0.00    -0.190 NA
HETATM    7  C7  UNL     1       0.243  -0.569   0.024  1.00  0.00     0.157 A 
HETATM    8  C15 UNL     1       1.270   0.304   0.401  1.00  0.00     0.170 A 
HETATM    9  N10 UNL     1       1.319   1.125   1.571  1.00  0.00    -0.078 NA
ENDROOT
BRANCH   7  10
HETATM   10  O3  UNL     1      -0.937  -0.822   0.674  1.00  0.00    -0.296 OA
BRANCH  10  11
HETATM   11  C8  UNL     1      -2.228  -0.823   0.293  1.00  0.00     0.165 A 
HETATM   12  C9  UNL     1      -2.837  -2.089   0.185  1.00  0.00     0.162 A 
HETATM   13  N6  UNL     1      -4.106  -2.150  -0.199  1.00  0.00    -0.174 N 
HETATM   14  C11 UNL     1      -4.831  -1.070  -0.486  1.00  0.00     0.679 A 
ATOM     15  H6  UNL     1      -4.547  -3.067  -0.278  1.00  0.00     0.186 HD
HETATM   16  N7  UNL     1      -6.078  -1.147  -0.864  1.00  0.00    -0.234 N 
HETATM   17  N8  UNL     1      -4.235   0.155  -0.376  1.00  0.00    -0.174 N 
ATOM     18  H72 UNL     1      -6.523  -2.061  -0.946  1.00  0.00     0.174 HD
ATOM     19  H71 UNL     1      -6.633  -0.320  -1.084  1.00  0.00     0.174 HD
HETATM   20  C12 UNL     1      -2.961   0.321   0.003  1.00  0.00     0.163 A 
ATOM     21  H8  UNL     1      -4.788   0.984  -0.593  1.00  0.00     0.186 HD
BRANCH  12  22
HETATM   22  N4  UNL     1      -2.097  -3.276   0.542  1.00  0.00    -0.294 N 
HETATM   23  C10 UNL     1      -2.689  -4.540   0.440  1.00  0.00     0.334 C 
HETATM   24  N5  UNL     1      -1.943  -5.693   0.794  1.00  0.00    -0.040 NA
HETATM   25  O4  UNL     1      -3.881  -4.669   0.036  1.00  0.00    -0.251 OA
ATOM     26  H4  UNL     1      -1.135  -3.193   0.871  1.00  0.00     0.172 HD
ENDBRANCH  12  22
BRANCH  20  27
HETATM   27  N9  UNL     1      -2.385   1.606   0.142  1.00  0.00    -0.286 N 
HETATM   28  C13 UNL     1      -2.948   2.842  -0.128  1.00  0.00     0.365 C 
HETATM   29  O5  UNL     1      -2.261   3.902   0.096  1.00  0.00    -0.238 OA
ATOM     30  H9  UNL     1      -1.426   1.624   0.488  1.00  0.00     0.172 HD
BRANCH  28  31
HETATM   31  O6  UNL     1      -4.204   3.069  -0.628  1.00  0.00    -0.309 OA
HETATM   32  C14 UNL     1      -4.652   4.383  -0.861  1.00  0.00     0.215 C 
ENDBRANCH  28  31
ENDBRANCH  20  27
ENDBRANCH  10  11
ENDBRANCH   7  10
BRANCH   1  33
HETATM   33  C4  UNL     1       3.527   1.067  -0.419  1.00  0.00     0.160 C 
BRANCH  33  34
HETATM   34  C3  UNL     1       4.553   0.256   0.315  1.00  0.00     0.133 C 
BRANCH  34  35
HETATM   35  C2  UNL     1       5.856   0.971   0.406  1.00  0.00     0.260 C 
HETATM   36  O2  UNL     1       6.085   1.854   1.266  1.00  0.00    -0.265 OA
BRANCH  35  37
HETATM   37  O1  UNL     1       6.907   0.686  -0.483  1.00  0.00    -0.326 OA
HETATM   38  C1  UNL     1       8.155   1.349  -0.424  1.00  0.00     0.213 C 
ENDBRANCH  35  37
ENDBRANCH  34  35
ENDBRANCH  33  34
ENDBRANCH   1  33
TORSDOF 9
