REMARK  11 active torsions:
REMARK  status: ('A' for Active; 'I' for Inactive)
REMARK    1  A    between atoms: C1_2  and  O2_4 
REMARK    2  A    between atoms: O2_4  and  C2_5 
REMARK    3  A    between atoms: C8_12  and  N2_13 
REMARK    4  A    between atoms: N2_13  and  N3_15 
REMARK       I    between atoms: N3_15  and  C9_17 
REMARK    5  A    between atoms: C9_17  and  C10_19 
REMARK    6  A    between atoms: C10_19  and  S1_20 
REMARK    7  A    between atoms: S1_20  and  C11_21 
REMARK    8  A    between atoms: C11_21  and  N4_22 
REMARK    9  A    between atoms: C11_21  and  N5_26 
REMARK   10  A    between atoms: C13_31  and  O5_32 
REMARK   11  A    between atoms: C14_34  and  N6_35 
ROOT
HETATM    1  C2  UNL     1       4.960   0.901   0.242  1.00  0.00     0.158 C 
HETATM    2  C3  UNL     1       4.239  -0.132  -0.091  1.00  0.00     0.023 C 
HETATM    3  C4  UNL     1       4.814  -1.481  -0.365  1.00  0.00     0.128 C 
HETATM    4  C5  UNL     1       3.908  -2.524   0.186  1.00  0.00     0.167 C 
HETATM    5  O3  UNL     1       4.424  -3.511   0.754  1.00  0.00    -0.292 OA
HETATM    6  C6  UNL     1       2.477  -2.407   0.073  1.00  0.00     0.062 A 
HETATM    7  C7  UNL     1       1.887  -1.162  -0.120  1.00  0.00     0.059 A 
HETATM    8  C8  UNL     1       0.535  -0.988  -0.238  1.00  0.00     0.066 A 
HETATM    9  C12 UNL     1      -0.256  -2.159  -0.153  1.00  0.00     0.071 A 
HETATM   10  C13 UNL     1       0.282  -3.398   0.034  1.00  0.00     0.102 A 
HETATM   11  C14 UNL     1       1.647  -3.507   0.145  1.00  0.00     0.150 A 
HETATM   12  C15 UNL     1       2.783  -0.001  -0.203  1.00  0.00     0.194 C 
HETATM   13  O8  UNL     1       2.342   1.146  -0.373  1.00  0.00    -0.287 OA
ENDROOT
BRANCH   8  14
HETATM   14  N2  UNL     1      -0.103   0.248  -0.416  1.00  0.00    -0.297 N 
ATOM     15  H2  UNL     1       0.425   1.120  -0.377  1.00  0.00     0.187 HD
BRANCH  14  16
HETATM   16  N3  UNL     1      -1.511   0.253  -0.653  1.00  0.00    -0.269 N 
HETATM   17  C9  UNL     1      -2.367   1.128   0.049  1.00  0.00     0.245 C 
HETATM   18  O4  UNL     1      -1.875   1.907   0.893  1.00  0.00    -0.271 OA
ATOM     19  H3  UNL     1      -1.905  -0.387  -1.342  1.00  0.00     0.190 HD
BRANCH  17  20
HETATM   20  C10 UNL     1      -3.808   1.121  -0.211  1.00  0.00     0.182 C 
BRANCH  20  21
HETATM   21  S1  UNL     1      -4.732   2.315   0.751  1.00  0.00    -0.100 SA
BRANCH  21  22
HETATM   22  C11 UNL     1      -6.481   2.203   0.276  1.00  0.00     0.440 C 
BRANCH  22  23
HETATM   23  N4  UNL     1      -6.973   0.904   0.700  1.00  0.00    -0.041 N 
ATOM     24  H43 UNL     1      -6.414   0.131   0.338  1.00  0.00     0.277 HD
ATOM     25  H42 UNL     1      -6.820   0.727   1.693  1.00  0.00     0.277 HD
ATOM     26  H41 UNL     1      -7.955   0.841   0.433  1.00  0.00     0.277 HD
ENDBRANCH  22  23
BRANCH  22  27
HETATM   27  N5  UNL     1      -7.278   3.225   0.897  1.00  0.00    -0.041 N 
ATOM     28  H53 UNL     1      -7.169   3.213   1.911  1.00  0.00     0.277 HD
ATOM     29  H52 UNL     1      -6.902   4.154   0.705  1.00  0.00     0.277 HD
ATOM     30  H51 UNL     1      -8.260   3.162   0.630  1.00  0.00     0.277 HD
ENDBRANCH  22  27
ENDBRANCH  21  22
ENDBRANCH  20  21
ENDBRANCH  17  20
ENDBRANCH  14  16
ENDBRANCH   8  14
BRANCH  10  31
HETATM   31  O5  UNL     1      -0.531  -4.546   0.114  1.00  0.00    -0.358 OA
ATOM     32  H5  UNL     1      -0.156  -5.409   0.244  1.00  0.00     0.217 HD
ENDBRANCH  10  31
BRANCH  11  33
HETATM   33  N6  UNL     1       2.229  -4.794   0.339  1.00  0.00    -0.112 N 
HETATM   34  O6  UNL     1       2.783  -5.386  -0.608  1.00  0.00    -0.532 OA
HETATM   35  O7  UNL     1       2.142  -5.351   1.588  1.00  0.00    -0.532 OA
ENDBRANCH  11  33
BRANCH   1  36
HETATM   36  O2  UNL     1       4.579   2.175   0.517  1.00  0.00    -0.275 OA
BRANCH  36  37
HETATM   37  C1  UNL     1       4.544   3.236  -0.394  1.00  0.00     0.377 C 
HETATM   38  N1  UNL     1       4.132   4.543  -0.046  1.00  0.00    -0.032 NA
HETATM   39  O1  UNL     1       4.907   2.968  -1.573  1.00  0.00    -0.242 OA
ENDBRANCH  36  37
ENDBRANCH   1  36
TORSDOF 11
