REMARK  11 active torsions:
REMARK  status: ('A' for Active; 'I' for Inactive)
REMARK    1  A    between atoms: C2_2  and  C3_3 
REMARK    2  A    between atoms: C3_3  and  O1_4 
REMARK    3  A    between atoms: O1_4  and  C4_5 
REMARK    4  A    between atoms: C4_5  and  O2_6 
REMARK    5  A    between atoms: C4_5  and  C5_8 
REMARK    6  A    between atoms: C6_9  and  C7_10 
REMARK    7  A    between atoms: C7_10  and  N1_12 
REMARK    8  A    between atoms: N1_12  and  C9_14 
REMARK    9  A    between atoms: N9_31  and  C11_32 
REMARK   10  A    between atoms: C13_38  and  C14_39 
REMARK   11  A    between atoms: C14_39  and  N12_40 
ROOT
HETATM    1  C5  UNL     1       0.667  -0.117  -0.326  1.00  0.00     0.142 A 
HETATM    2  C6  UNL     1      -0.478  -0.861   0.089  1.00  0.00     0.083 A 
HETATM    3  N7  UNL     1      -0.072  -2.190  -0.081  1.00  0.00    -0.285 N 
ATOM      4  H7  UNL     1      -0.625  -3.027   0.105  1.00  0.00     0.188 HD
HETATM    5  N8  UNL     1       1.111  -2.146  -0.509  1.00  0.00    -0.234 N 
ATOM      6  H8  UNL     1       1.638  -2.995  -0.716  1.00  0.00     0.209 HD
HETATM    7  N9  UNL     1       1.633  -0.953  -0.675  1.00  0.00    -0.226 N 
ENDROOT
BRANCH   2   8
HETATM    8  C7  UNL     1      -1.723  -0.425   0.750  1.00  0.00     0.149 C 
HETATM    9  C8  UNL     1      -2.086  -1.714   1.612  1.00  0.00     0.039 C 
BRANCH   8  10
HETATM   10  N1  UNL     1      -2.796   0.125   0.235  1.00  0.00    -0.214 N 
ATOM     11  H1  UNL     1      -2.604   1.115   0.081  1.00  0.00     0.178 HD
BRANCH  10  12
HETATM   12  C9  UNL     1      -3.965  -0.108  -0.138  1.00  0.00     0.709 A 
HETATM   13  N2  UNL     1      -4.706   0.925  -0.629  1.00  0.00    -0.117 N 
HETATM   14  N3  UNL     1      -5.990   0.782  -0.911  1.00  0.00    -0.214 N 
ATOM     15  H2  UNL     1      -4.260   1.829  -0.783  1.00  0.00     0.207 HD
HETATM   16  N4  UNL     1      -6.639  -0.378  -0.728  1.00  0.00    -0.117 N 
ATOM     17  H3  UNL     1      -6.505   1.581  -1.280  1.00  0.00     0.209 HD
HETATM   18  C10 UNL     1      -5.917  -1.410  -0.252  1.00  0.00     0.706 A 
ATOM     19  H4  UNL     1      -7.632  -0.474  -0.939  1.00  0.00     0.207 HD
HETATM   20  N5  UNL     1      -6.497  -2.548  -0.076  1.00  0.00    -0.233 N 
HETATM   21  N6  UNL     1      -4.599  -1.290   0.044  1.00  0.00    -0.020 N 
ATOM     22  H52 UNL     1      -7.488  -2.638  -0.299  1.00  0.00     0.174 HD
ATOM     23  H51 UNL     1      -5.950  -3.330   0.285  1.00  0.00     0.174 HD
ATOM     24  H6  UNL     1      -4.084  -2.093   0.405  1.00  0.00     0.203 HD
ENDBRANCH  10  12
ENDBRANCH   8  10
ENDBRANCH   2   8
BRANCH   1  25
HETATM   25  C4  UNL     1       0.634   1.310  -0.372  1.00  0.00     0.210 C 
BRANCH  25  26
HETATM   26  O1  UNL     1      -0.043   2.349   0.179  1.00  0.00    -0.329 OA
BRANCH  26  27
HETATM   27  C3  UNL     1       0.338   3.630  -0.196  1.00  0.00     0.177 C 
BRANCH  27  28
HETATM   28  C2  UNL     1      -0.429   4.749   0.435  1.00  0.00     0.022 C 
HETATM   29  C1  UNL     1      -1.860   4.803   0.156  1.00  0.00     0.007 C 
ENDBRANCH  27  28
ENDBRANCH  26  27
ENDBRANCH  25  26
BRANCH  25  30
HETATM   30  O2  UNL     1       1.600   1.831  -1.174  1.00  0.00    -0.339 OA
ATOM     31  H2  UNL     1       2.074   1.104  -1.560  1.00  0.00     0.220 HD
ENDBRANCH  25  30
ENDBRANCH   1  25
BRANCH   7  32
HETATM   32  C11 UNL     1       3.008  -0.728  -0.918  1.00  0.00     0.132 A 
HETATM   33  S1  UNL     1       3.798   0.804  -1.320  1.00  0.00     0.008 SA
HETATM   34  N10 UNL     1       5.383   0.322  -1.270  1.00  0.00    -0.312 N 
HETATM   35  C12 UNL     1       5.313  -0.928  -0.981  1.00  0.00     0.139 A 
ATOM     36  H10 UNL     1       6.218   0.885  -1.431  1.00  0.00     0.175 HD
HETATM   37  N11 UNL     1       6.609  -1.535  -0.679  1.00  0.00    -0.081 NA
HETATM   38  C13 UNL     1       4.107  -1.554  -0.780  1.00  0.00     0.083 A 
BRANCH  38  39
HETATM   39  C14 UNL     1       4.061  -3.008  -0.400  1.00  0.00     0.126 C 
HETATM   40  N13 UNL     1       5.452  -3.690  -0.457  1.00  0.00    -0.082 NA
BRANCH  39  41
HETATM   41  N12 UNL     1       3.252  -3.772  -0.126  1.00  0.00    -0.387 N 
ATOM     42 2H12 UNL     1       2.337  -3.323  -0.088  1.00  0.00     0.157 HD
ATOM     43 1H12 UNL     1       3.221  -4.758   0.132  1.00  0.00     0.157 HD
ENDBRANCH  39  41
ENDBRANCH  38  39
ENDBRANCH   7  32
TORSDOF 11
