REMARK  6 active torsions:
REMARK  status: ('A' for Active; 'I' for Inactive)
REMARK    1  A    between atoms: C2_2  and  C4_5 
REMARK    2  A    between atoms: C4_5  and  O1_6 
REMARK    3  A    between atoms: C4_5  and  C5_8 
REMARK    4  A    between atoms: N1_11  and  C8_12 
REMARK    5  A    between atoms: C8_12  and  C9_13 
REMARK    6  A    between atoms: N2_15  and  C11_16 
ROOT
HETATM    1  C5  UNL     1       3.209   0.203   0.461  1.00  0.00     0.020 C 
HETATM    2  C6  UNL     1       3.518   1.409  -0.368  1.00  0.00     0.037 C 
HETATM    3  C7  UNL     1       2.365   1.620  -1.329  1.00  0.00     0.273 C 
HETATM    4  N1  UNL     1       1.203   0.841  -0.949  1.00  0.00     0.094 N 
HETATM    5  C18 UNL     1       1.453  -0.597  -1.031  1.00  0.00     0.273 C 
HETATM    6  C19 UNL     1       2.833  -0.910  -0.492  1.00  0.00     0.037 C 
ENDROOT
BRANCH   4   7
HETATM    7  C8  UNL     1       0.169   1.127  -1.934  1.00  0.00     0.330 C 
BRANCH   7   8
HETATM    8  C9  UNL     1      -1.082   0.404  -1.681  1.00  0.00     0.054 A 
HETATM    9  C10 UNL     1      -2.111   0.900  -0.902  1.00  0.00     0.119 A 
HETATM   10  N2  UNL     1      -3.121  -0.000  -0.864  1.00  0.00    -0.346 N 
HETATM   11  C17 UNL     1      -2.737  -1.043  -1.603  1.00  0.00     0.183 A 
HETATM   12  N3  UNL     1      -1.510  -0.802  -2.096  1.00  0.00    -0.353 N 
ATOM     13  H3  UNL     1      -0.983  -1.438  -2.695  1.00  0.00     0.166 HD
BRANCH  10  14
HETATM   14  C11 UNL     1      -4.361   0.164  -0.152  1.00  0.00     0.090 C 
HETATM   15  C12 UNL     1      -5.549   0.261  -1.094  1.00  0.00     0.026 C 
HETATM   16  C13 UNL     1      -6.737   0.714  -0.270  1.00  0.00     0.002 C 
HETATM   17  C14 UNL     1      -7.042  -0.334   0.781  1.00  0.00     0.000 C 
HETATM   18  C15 UNL     1      -5.833  -0.587   1.660  1.00  0.00     0.002 C 
HETATM   19  C16 UNL     1      -4.620  -0.955   0.833  1.00  0.00     0.026 C 
ENDBRANCH  10  14
ENDBRANCH   7   8
ENDBRANCH   4   7
BRANCH   1  20
HETATM   20  C4  UNL     1       4.152  -0.158   1.523  1.00  0.00     0.145 C 
BRANCH  20  21
HETATM   21  C2  UNL     1       5.554  -0.473   1.197  1.00  0.00     0.056 C 
HETATM   22  C1  UNL     1       5.752  -1.655   0.289  1.00  0.00     0.035 C 
HETATM   23  C3  UNL     1       6.387   0.672   0.689  1.00  0.00     0.035 C 
HETATM   24 CL1  UNL     1       6.325  -0.954   2.764  1.00  0.00    -0.117 Cl
ENDBRANCH  20  21
BRANCH  20  25
HETATM   25  O1  UNL     1       3.616  -1.299   2.171  1.00  0.00    -0.393 OA
ATOM     26  H1  UNL     1       2.712  -1.096   2.381  1.00  0.00     0.210 HD
ENDBRANCH  20  25
ENDBRANCH   1  20
TORSDOF 6
