REMARK  4 active torsions:
REMARK  status: ('A' for Active; 'I' for Inactive)
REMARK       I    between atoms: C1_2  and  N1_3 
REMARK    1  A    between atoms: C1_2  and  C13_17 
REMARK    2  A    between atoms: N1_3  and  C2_5 
REMARK    3  A    between atoms: N2_8  and  C5_9 
REMARK    4  A    between atoms: C14_21  and  C15_22 
ROOT
HETATM    1  O1  UNL     1       2.492   2.127   0.791  1.00  0.00    -0.266 OA
HETATM    2  C1  UNL     1       2.529   1.301  -0.145  1.00  0.00     0.272 C 
HETATM    3  N1  UNL     1       1.456   0.681  -0.799  1.00  0.00    -0.351 N 
ATOM      4  H1  UNL     1       1.705   0.084  -1.587  1.00  0.00     0.163 HD
ENDROOT
BRANCH   3   5
HETATM    5  C2  UNL     1       0.088   0.771  -0.516  1.00  0.00     0.088 C 
HETATM    6  C3  UNL     1      -0.592   2.013  -0.164  1.00  0.00     0.055 C 
HETATM    7  C4  UNL     1      -1.882   1.628   0.634  1.00  0.00     0.275 C 
HETATM    8  N2  UNL     1      -2.355   0.418   0.117  1.00  0.00     0.093 N 
HETATM    9  C11 UNL     1      -1.535  -0.705   0.571  1.00  0.00     0.275 C 
HETATM   10  C12 UNL     1      -0.130  -0.221   0.726  1.00  0.00     0.055 C 
BRANCH   8  11
HETATM   11  C5  UNL     1      -3.746   0.047   0.423  1.00  0.00     0.223 C 
HETATM   12  C6  UNL     1      -3.849  -1.392  -0.143  1.00  0.00     0.036 C 
HETATM   13  C7  UNL     1      -5.218  -1.962  -0.153  1.00  0.00     0.002 C 
HETATM   14  C8  UNL     1      -6.290  -1.030  -0.574  1.00  0.00     0.000 C 
HETATM   15  C9  UNL     1      -6.129   0.331   0.069  1.00  0.00     0.002 C 
HETATM   16  C10 UNL     1      -4.738   0.844  -0.337  1.00  0.00     0.036 C 
ENDBRANCH   8  11
ENDBRANCH   3   5
BRANCH   2  17
HETATM   17  C13 UNL     1       3.890   0.902  -0.604  1.00  0.00     0.146 A 
HETATM   18  N3  UNL     1       4.270   0.271  -1.734  1.00  0.00    -0.254 N 
HETATM   19  O2  UNL     1       5.505  -0.149  -1.637  1.00  0.00    -0.240 OA
ATOM     20  H3  UNL     1       3.676   0.139  -2.552  1.00  0.00     0.195 HD
HETATM   21  C14 UNL     1       6.024   0.170  -0.452  1.00  0.00     0.104 A 
HETATM   22  C18 UNL     1       5.009   0.852   0.229  1.00  0.00     0.100 A 
HETATM   23 CL1  UNL     1       5.149   1.472   1.861  1.00  0.00    -0.079 Cl
BRANCH  21  24
HETATM   24  C15 UNL     1       7.414  -0.124   0.094  1.00  0.00     0.047 A 
HETATM   25  C16 UNL     1       7.772  -1.582   0.051  1.00  0.00     0.012 A 
HETATM   26  C17 UNL     1       8.269  -0.729  -1.059  1.00  0.00     0.012 A 
ENDBRANCH  21  24
ENDBRANCH   2  17
TORSDOF 4
