REMARK  3 active torsions:
REMARK  status: ('A' for Active; 'I' for Inactive)
REMARK    1  A    between atoms: C3_5  and  N2_6 
REMARK    2  A    between atoms: N2_6  and  O1_7 
REMARK    3  A    between atoms: C4_11  and  C6_13 
ROOT
HETATM    1  C1  UNL     1      -2.495   1.678  -0.409  1.00  0.00     0.063 C 
HETATM    2  C2  UNL     1      -1.246   0.970  -0.042  1.00  0.00    -0.017 C 
HETATM    3  N1  UNL     1      -0.269   1.642   0.453  1.00  0.00    -0.362 N 
ATOM      4  H1  UNL     1      -0.390   2.647   0.577  1.00  0.00     0.162 HD
HETATM    5  C3  UNL     1       0.964   1.066   0.836  1.00  0.00     0.303 C 
HETATM    6  N3  UNL     1       1.244  -0.098   0.059  1.00  0.00    -0.378 N 
ATOM      7  H3  UNL     1       2.137  -0.232  -0.414  1.00  0.00     0.157 HD
HETATM    8  C4  UNL     1       0.199  -1.057  -0.013  1.00  0.00     0.039 C 
HETATM    9  C5  UNL     1       0.246  -1.848   1.298  1.00  0.00     0.039 C 
HETATM   10  C7  UNL     1      -1.165  -0.502  -0.260  1.00  0.00     0.082 C 
ENDROOT
BRANCH   5  11
HETATM   11  N2  UNL     1       2.076   1.995   0.685  1.00  0.00    -0.056 NA
BRANCH  11  12
HETATM   12  O1  UNL     1       2.215   2.403  -0.591  1.00  0.00    -0.293 OA
ATOM     13  H1  UNL     1       2.940   3.009  -0.689  1.00  0.00     0.238 HD
ENDBRANCH  11  12
ENDBRANCH   5  11
BRANCH   8  14
HETATM   14  C6  UNL     1       0.546  -2.024  -1.152  1.00  0.00     0.115 C 
HETATM   15 BR1  UNL     1      -0.778  -3.382  -1.373  1.00  0.00    -0.094 Br
ENDBRANCH   8  14
TORSDOF 3
