REMARK  4 active torsions:
REMARK  status: ('A' for Active; 'I' for Inactive)
REMARK    1  A    between atoms: N1_2  and  C2_4 
REMARK    2  A    between atoms: C2_4  and  N2_6 
REMARK    3  A    between atoms: N2_6  and  N3_8 
REMARK    4  A    between atoms: C3_10  and  C4_11 
ROOT
HETATM    1  N3  UNL     1       1.184   1.338   0.034  1.00  0.00    -0.311 N 
ATOM      2  H3  UNL     1       1.149   1.265   1.051  1.00  0.00     0.185 HD
HETATM    3  C3  UNL     1       0.101   1.130  -0.627  1.00  0.00     0.116 C 
ENDROOT
BRANCH   3   4
HETATM    4  C4  UNL     1      -1.166   0.796   0.007  1.00  0.00     0.195 C 
HETATM    5  O1  UNL     1      -2.265   1.442  -0.616  1.00  0.00    -0.376 OA
HETATM    6  C5  UNL     1      -3.345   1.342   0.251  1.00  0.00     0.169 C 
HETATM    7  C6  UNL     1      -3.808  -0.046   0.524  1.00  0.00     0.031 C 
HETATM    8  C7  UNL     1      -2.698  -1.013   0.867  1.00  0.00     0.045 C 
HETATM    9  C8  UNL     1      -1.533  -0.625   0.042  1.00  0.00     0.022 C 
HETATM   10  C9  UNL     1      -0.880  -1.523  -0.618  1.00  0.00     0.272 C 
HETATM   11  F1  UNL     1      -1.256  -2.831  -0.556  1.00  0.00    -0.173 F 
HETATM   12  F2  UNL     1       0.189  -1.260  -1.399  1.00  0.00    -0.173 F 
ENDBRANCH   3   4
BRANCH   1  13
HETATM   13  N2  UNL     1       2.399   1.657  -0.558  1.00  0.00    -0.277 N 
ATOM     14  H2  UNL     1       2.504   2.574  -0.993  1.00  0.00     0.189 HD
BRANCH  13  15
HETATM   15  C2  UNL     1       3.496   0.768  -0.584  1.00  0.00     0.186 C 
HETATM   16  S1  UNL     1       4.880   1.223  -1.297  1.00  0.00    -0.040 SA
BRANCH  15  17
HETATM   17  N1  UNL     1       3.396  -0.516   0.007  1.00  0.00    -0.370 N 
HETATM   18  C1  UNL     1       4.507  -1.440  -0.009  1.00  0.00     0.148 C 
ATOM     19  H1  UNL     1       2.522  -0.794   0.453  1.00  0.00     0.161 HD
ENDBRANCH  15  17
ENDBRANCH  13  15
ENDBRANCH   1  13
TORSDOF 4
