REMARK  6 active torsions:
REMARK  status: ('A' for Active; 'I' for Inactive)
REMARK    1  A    between atoms: C2_2  and  O1_3 
REMARK    2  A    between atoms: C2_2  and  N1_6 
REMARK    3  A    between atoms: N1_6  and  C3_8 
REMARK    4  A    between atoms: C3_8  and  N2_10 
REMARK    5  A    between atoms: N2_10  and  N3_12 
REMARK    6  A    between atoms: C4_14  and  C5_15 
ROOT
HETATM    1  N2  UNL     1      -1.083  -0.882   2.185  1.00  0.00    -0.277 N 
ATOM      2  H2  UNL     1      -1.227  -0.958   3.192  1.00  0.00     0.189 HD
ENDROOT
BRANCH   1   3
HETATM    3  C3  UNL     1      -2.172  -0.992   1.306  1.00  0.00     0.190 C 
HETATM    4  S1  UNL     1      -3.663  -1.239   1.896  1.00  0.00    -0.039 SA
BRANCH   3   5
HETATM    5  N1  UNL     1      -1.987  -0.890  -0.086  1.00  0.00    -0.308 N 
ATOM      6  H1  UNL     1      -1.043  -0.735  -0.440  1.00  0.00     0.167 HD
BRANCH   5   7
HETATM    7  C2  UNL     1      -3.072  -0.995  -1.041  1.00  0.00     0.282 C 
HETATM    8  C1  UNL     1      -4.125   0.047  -0.850  1.00  0.00     0.111 C 
HETATM    9  F1  UNL     1      -2.530  -0.940  -2.308  1.00  0.00    -0.188 F 
BRANCH   7  10
HETATM   10  O1  UNL     1      -3.614  -2.287  -0.863  1.00  0.00    -0.345 OA
ATOM     11  H1  UNL     1      -2.944  -2.950  -0.984  1.00  0.00     0.215 HD
ENDBRANCH   7  10
ENDBRANCH   5   7
ENDBRANCH   3   5
ENDBRANCH   1   3
BRANCH   1  12
HETATM   12  N3  UNL     1       0.183  -0.671   1.679  1.00  0.00    -0.308 N 
HETATM   13  C4  UNL     1       0.672   0.432   1.307  1.00  0.00     0.136 C 
ATOM     14  H3  UNL     1       0.786  -1.490   1.597  1.00  0.00     0.186 HD
BRANCH  13  15
HETATM   15  C5  UNL     1       2.026   0.499   0.793  1.00  0.00     0.049 A 
HETATM   16  C6  UNL     1       2.600   1.697   0.373  1.00  0.00     0.031 A 
HETATM   17  C7  UNL     1       3.889   1.752  -0.114  1.00  0.00     0.004 A 
HETATM   18  C8  UNL     1       4.607   0.600  -0.181  1.00  0.00     0.017 A 
HETATM   19  C9  UNL     1       4.039  -0.567   0.231  1.00  0.00     0.088 A 
HETATM   20  N4  UNL     1       2.802  -0.609   0.697  1.00  0.00    -0.365 N 
ATOM     21  H4  UNL     1       2.418  -1.506   0.995  1.00  0.00     0.165 HD
ENDBRANCH  13  15
ENDBRANCH   1  12
TORSDOF 6
