REMARK  7 active torsions:
REMARK  status: ('A' for Active; 'I' for Inactive)
REMARK    1  A    between atoms: C4_4  and  C5_5 
REMARK    2  A    between atoms: C5_5  and  C6_6 
REMARK    3  A    between atoms: C6_6  and  C7_7 
REMARK    4  A    between atoms: C7_7  and  N1_8 
REMARK    5  A    between atoms: C7_7  and  N2_12 
REMARK    6  A    between atoms: C7_7  and  C8_16 
REMARK    7  A    between atoms: C8_16  and  C10_18 
ROOT
HETATM    1  C7  UNL     1       0.596  -1.623  -0.136  1.00  0.00     0.288 C 
ENDROOT
BRANCH   1   2
HETATM    2  C6  UNL     1      -0.708  -1.057   0.232  1.00  0.00     0.070 C 
BRANCH   2   3
HETATM    3  C5  UNL     1      -1.106   0.273  -0.280  1.00  0.00     0.009 C 
BRANCH   3   4
HETATM    4  C4  UNL     1      -2.507   0.662   0.188  1.00  0.00    -0.014 C 
HETATM    5  C3  UNL     1      -3.600  -0.261  -0.233  1.00  0.00     0.009 C 
HETATM    6  C2  UNL     1      -4.433   0.991  -0.547  1.00  0.00    -0.018 C 
HETATM    7  C1  UNL     1      -5.066   1.545   0.706  1.00  0.00     0.010 C 
HETATM    8  C14 UNL     1      -3.089   1.698  -0.770  1.00  0.00     0.009 C 
ENDBRANCH   3   4
ENDBRANCH   2   3
ENDBRANCH   1   2
BRANCH   1   9
HETATM    9  N1  UNL     1       0.792  -1.768  -1.569  1.00  0.00    -0.044 N 
ATOM     10  H13 UNL     1       0.035  -2.314  -1.981  1.00  0.00     0.277 HD
ATOM     11  H12 UNL     1       0.641  -0.878  -2.044  1.00  0.00     0.277 HD
ATOM     12  H11 UNL     1       1.698  -2.161  -1.825  1.00  0.00     0.277 HD
ENDBRANCH   1   9
BRANCH   1  13
HETATM   13  N2  UNL     1       0.466  -3.086   0.273  1.00  0.00    -0.044 N 
ATOM     14  H23 UNL     1       0.198  -3.233   1.246  1.00  0.00     0.277 HD
ATOM     15  H22 UNL     1      -0.336  -3.570  -0.130  1.00  0.00     0.277 HD
ATOM     16  H21 UNL     1       1.372  -3.479   0.017  1.00  0.00     0.277 HD
ENDBRANCH   1  13
BRANCH   1  17
HETATM   17  C8  UNL     1       1.836  -1.172   0.533  1.00  0.00     0.078 C 
HETATM   18  C9  UNL     1       2.975  -1.999  -0.095  1.00  0.00     0.017 C 
BRANCH  17  19
HETATM   19  C10 UNL     1       2.121   0.272   0.615  1.00  0.00     0.164 A 
HETATM   20  O1  UNL     1       2.225   0.892  -0.667  1.00  0.00    -0.369 OA
HETATM   21  C11 UNL     1       3.283   1.024   0.289  1.00  0.00     0.081 A 
HETATM   22  C12 UNL     1       4.629   0.578  -0.141  1.00  0.00     0.048 C 
HETATM   23  C13 UNL     1       3.289   2.497   0.770  1.00  0.00     0.048 C 
ENDBRANCH  17  19
ENDBRANCH   1  17
TORSDOF 7
