REMARK  6 active torsions:
REMARK  status: ('A' for Active; 'I' for Inactive)
REMARK    1  A    between atoms: N1_1  and  C1_5 
REMARK    2  A    between atoms: C1_5  and  C2_6 
REMARK    3  A    between atoms: C2_6  and  N2_7 
REMARK    4  A    between atoms: N2_7  and  C3_10 
REMARK    5  A    between atoms: C3_10  and  C4_11 
REMARK    6  A    between atoms: C4_11  and  N3_12 
ROOT
HETATM    1  C4  UNL     1      -0.383  -0.556  -0.291  1.00  0.00     0.052 C 
HETATM    2  C10 UNL     1      -1.184  -1.575  -1.092  1.00  0.00     0.032 C 
HETATM    3  C11 UNL     1      -1.923  -2.574  -0.319  1.00  0.00     0.002 C 
HETATM    4  C12 UNL     1      -1.311  -3.084   0.943  1.00  0.00     0.000 C 
HETATM    5  C13 UNL     1       0.160  -2.695   0.909  1.00  0.00     0.002 C 
HETATM    6  C14 UNL     1       0.120  -1.174   1.006  1.00  0.00     0.032 C 
ENDROOT
BRANCH   1   7
HETATM    7  C3  UNL     1       0.822  -0.276  -1.168  1.00  0.00     0.263 C 
BRANCH   7   8
HETATM    8  N2  UNL     1       1.800   0.593  -0.617  1.00  0.00    -0.071 N 
ATOM      9  H22 UNL     1       2.150   0.244   0.275  1.00  0.00     0.277 HD
ATOM     10  H21 UNL     1       1.384   1.466  -0.292  1.00  0.00     0.277 HD
BRANCH   8  11
HETATM   11  C2  UNL     1       2.901   0.840  -1.571  1.00  0.00     0.259 C 
BRANCH  11  12
HETATM   12  C1  UNL     1       3.839   1.782  -0.809  1.00  0.00     0.257 C 
BRANCH  12  13
HETATM   13  N1  UNL     1       4.255   1.067   0.381  1.00  0.00    -0.078 N 
ATOM     14  H13 UNL     1       3.475   0.730   0.944  1.00  0.00     0.274 HD
ATOM     15  H12 UNL     1       4.669   0.156   0.182  1.00  0.00     0.274 HD
ATOM     16  H11 UNL     1       4.879   1.694   0.888  1.00  0.00     0.274 HD
ENDBRANCH  12  13
ENDBRANCH  11  12
ENDBRANCH   8  11
ENDBRANCH   7   8
ENDBRANCH   1   7
BRANCH   1  17
HETATM   17  N3  UNL     1      -1.066   0.582   0.025  1.00  0.00    -0.397 N 
HETATM   18  C5  UNL     1      -0.534   1.650   0.767  1.00  0.00     0.122 C 
HETATM   19  C6  UNL     1      -1.862   2.371   1.070  1.00  0.00     0.007 C 
HETATM   20  C7  UNL     1      -2.413   2.415  -0.356  1.00  0.00     0.031 C 
HETATM   21  C9  UNL     1      -2.835   1.241   1.267  1.00  0.00     0.031 C 
HETATM   22  C8  UNL     1      -2.389   0.882  -0.171  1.00  0.00     0.081 C 
ENDBRANCH   1  17
TORSDOF 6
