REMARK  4 active torsions:
REMARK  status: ('A' for Active; 'I' for Inactive)
REMARK    1  A    between atoms: C2_2  and  C3_3 
REMARK    2  A    between atoms: C3_3  and  N1_4 
REMARK    3  A    between atoms: N1_4  and  C4_6 
REMARK    4  A    between atoms: C5_9  and  C6_10 
ROOT
HETATM    1  C4  UNL     1      -1.450   0.839  -0.310  1.00  0.00     0.681 A 
HETATM    2  N2  UNL     1      -0.314   0.142  -0.203  1.00  0.00    -0.189 N 
ATOM      3  H2  UNL     1      -0.366  -0.874  -0.131  1.00  0.00     0.184 HD
HETATM    4  C5  UNL     1       0.901   0.734  -0.187  1.00  0.00     0.081 A 
HETATM    5  C11 UNL     1       0.944   2.103  -0.286  1.00  0.00     0.107 A 
HETATM    6  C12 UNL     1      -0.230   2.855  -0.399  1.00  0.00     0.261 A 
HETATM    7  O1  UNL     1      -0.200   4.107  -0.490  1.00  0.00    -0.268 OA
HETATM    8  N4  UNL     1      -1.381   2.171  -0.405  1.00  0.00    -0.156 N 
ATOM      9  H4  UNL     1      -2.253   2.694  -0.486  1.00  0.00     0.187 HD
ENDROOT
BRANCH   4  10
HETATM   10  C6  UNL     1       2.131  -0.034  -0.070  1.00  0.00     0.059 A 
HETATM   11  C7  UNL     1       3.387   0.523  -0.050  1.00  0.00     0.032 A 
HETATM   12  C8  UNL     1       4.554  -0.226   0.062  1.00  0.00     0.004 A 
HETATM   13  C9  UNL     1       4.459  -1.589   0.158  1.00  0.00     0.017 A 
HETATM   14  C10 UNL     1       3.197  -2.145   0.137  1.00  0.00     0.088 A 
HETATM   15  N3  UNL     1       2.087  -1.394   0.028  1.00  0.00    -0.364 N 
ATOM     16  H3  UNL     1       1.179  -1.858   0.018  1.00  0.00     0.165 HD
ENDBRANCH   4  10
BRANCH   1  17
HETATM   17  N1  UNL     1      -2.597   0.279  -0.325  1.00  0.00    -0.223 N 
ATOM     18  H1  UNL     1      -3.414   0.884  -0.410  1.00  0.00     0.178 HD
BRANCH  17  19
HETATM   19  C3  UNL     1      -2.828  -1.140  -0.231  1.00  0.00     0.164 C 
BRANCH  19  20
HETATM   20  C2  UNL     1      -4.186  -1.466   0.258  1.00  0.00    -0.017 C 
HETATM   21  C1  UNL     1      -5.090  -0.560   0.575  1.00  0.00     0.008 C 
ENDBRANCH  19  20
ENDBRANCH  17  19
ENDBRANCH   1  17
TORSDOF 4
