REMARK  4 active torsions:
REMARK  status: ('A' for Active; 'I' for Inactive)
REMARK    1  A    between atoms: N1_1  and  C1_4 
REMARK    2  A    between atoms: C4_7  and  S1_8 
REMARK    3  A    between atoms: S1_8  and  C5_10 
REMARK    4  A    between atoms: C5_10  and  C6_11 
ROOT
HETATM    1  C1  UNL     1       4.456   0.165   0.452  1.00  0.00     0.098 A 
HETATM    2  C2  UNL     1       3.611   1.092  -0.114  1.00  0.00     0.049 A 
HETATM    3  C3  UNL     1       2.256   0.894   0.003  1.00  0.00     0.026 A 
HETATM    4  C4  UNL     1       1.718  -0.191   0.662  1.00  0.00     0.047 A 
HETATM    5  C11 UNL     1       2.601  -1.095   1.214  1.00  0.00     0.110 A 
HETATM    6  N3  UNL     1       3.940  -0.895   1.096  1.00  0.00    -0.351 N 
ATOM      7  H3  UNL     1       4.577  -1.575   1.512  1.00  0.00     0.166 HD
ENDROOT
BRANCH   4   8
HETATM    8  S1  UNL     1       0.015  -0.445   0.812  1.00  0.00     0.056 S 
HETATM    9  O1  UNL     1      -0.648   0.246   2.167  1.00  0.00    -0.252 OA
BRANCH   8  10
HETATM   10  C5  UNL     1      -0.825   0.000  -0.661  1.00  0.00     0.171 C 
BRANCH  10  11
HETATM   11  C6  UNL     1      -2.288  -0.220  -0.525  1.00  0.00     0.021 A 
HETATM   12  C7  UNL     1      -3.053   0.834  -0.042  1.00  0.00     0.026 A 
HETATM   13  C8  UNL     1      -4.418   0.735   0.123  1.00  0.00     0.003 A 
HETATM   14  C9  UNL     1      -5.030  -0.455  -0.206  1.00  0.00     0.017 A 
HETATM   15  C10 UNL     1      -4.227  -1.483  -0.686  1.00  0.00     0.088 A 
HETATM   16  N2  UNL     1      -2.896  -1.355  -0.835  1.00  0.00    -0.368 N 
ATOM     17  H2  UNL     1      -2.350  -2.140  -1.190  1.00  0.00     0.165 HD
ENDBRANCH  10  11
ENDBRANCH   8  10
ENDBRANCH   4   8
BRANCH   1  18
HETATM   18  N1  UNL     1       5.755   0.308   0.369  1.00  0.00    -0.385 N 
ATOM     19  H12 UNL     1       6.147   1.113  -0.120  1.00  0.00     0.157 HD
ATOM     20  H11 UNL     1       6.381  -0.379   0.789  1.00  0.00     0.157 HD
ENDBRANCH   1  18
TORSDOF 4
