REMARK  5 active torsions:
REMARK  status: ('A' for Active; 'I' for Inactive)
REMARK    1  A    between atoms: O1_2  and  C2_3 
REMARK    2  A    between atoms: C2_3  and  N1_5 
REMARK    3  A    between atoms: N1_5  and  C4_7 
REMARK    4  A    between atoms: C5_12  and  C6_13 
REMARK    5  A    between atoms: C6_13  and  C7_14 
ROOT
HETATM    1  C4  UNL     1      -1.245  -0.022   0.494  1.00  0.00     0.696 A 
HETATM    2  N2  UNL     1      -1.067  -1.253  -0.018  1.00  0.00    -0.131 N 
ATOM      3  H2  UNL     1      -1.742  -1.791  -0.562  1.00  0.00     0.205 HD
HETATM    4  N3  UNL     1       0.140  -1.625   0.318  1.00  0.00    -0.274 N 
ATOM      5  H3  UNL     1       0.561  -2.520   0.069  1.00  0.00     0.189 HD
HETATM    6  C5  UNL     1       0.750  -0.668   1.036  1.00  0.00     0.116 A 
HETATM    7  N4  UNL     1      -0.128   0.345   1.146  1.00  0.00    -0.178 N 
ATOM      8  H4  UNL     1       0.025   1.228   1.634  1.00  0.00     0.185 HD
ENDROOT
BRANCH   6   9
HETATM    9  C6  UNL     1       2.124  -0.737   1.589  1.00  0.00     0.116 C 
BRANCH   9  10
HETATM   10  C7  UNL     1       3.134  -0.211   0.641  1.00  0.00    -0.051 A 
HETATM   11  C8  UNL     1       3.464   1.126   0.673  1.00  0.00     0.007 A 
HETATM   12  C9  UNL     1       4.408   1.661  -0.202  1.00  0.00     0.001 A 
HETATM   13  C10 UNL     1       5.047   0.868  -1.133  1.00  0.00     0.000 A 
HETATM   14  C11 UNL     1       4.713  -0.469  -1.161  1.00  0.00     0.001 A 
HETATM   15  C12 UNL     1       3.769  -1.010  -0.289  1.00  0.00     0.007 A 
ENDBRANCH   9  10
ENDBRANCH   6   9
BRANCH   1  16
HETATM   16  N1  UNL     1      -2.319   0.720   0.390  1.00  0.00    -0.199 N 
ATOM     17  H1  UNL     1      -2.332   1.643   0.824  1.00  0.00     0.180 HD
BRANCH  16  18
HETATM   18  C2  UNL     1      -3.484   0.260  -0.326  1.00  0.00     0.233 C 
HETATM   19  C3  UNL     1      -3.280   0.429  -1.818  1.00  0.00     0.063 C 
BRANCH  18  20
HETATM   20  O1  UNL     1      -4.653   0.826   0.117  1.00  0.00    -0.371 OA
HETATM   21  C1  UNL     1      -5.556  -0.074   0.639  1.00  0.00     0.204 C 
ENDBRANCH  18  20
ENDBRANCH  16  18
ENDBRANCH   1  16
TORSDOF 5
