REMARK  2 active torsions:
REMARK  status: ('A' for Active; 'I' for Inactive)
REMARK    1  A    between atoms: C6_7  and  C7_8 
REMARK    2  A    between atoms: C8_9  and  C9_10 
ROOT
HETATM    1  N1  UNL     1      -4.544   3.195  -0.834  1.00  0.00    -0.190 NA
HETATM    2  C1  UNL     1      -3.961   2.256  -0.481  1.00  0.00     0.117 C 
HETATM    3  C2  UNL     1      -3.247   1.080  -0.054  1.00  0.00     0.114 A 
HETATM    4  C3  UNL     1      -3.957   0.012   0.456  1.00  0.00     0.041 A 
HETATM    5  C4  UNL     1      -3.290  -1.139   0.877  1.00  0.00     0.006 A 
HETATM    6  C5  UNL     1      -1.910  -1.191   0.775  1.00  0.00     0.039 A 
HETATM    7  C6  UNL     1      -1.230  -0.105   0.261  1.00  0.00     0.088 A 
HETATM    8  N4  UNL     1      -1.890   0.999  -0.142  1.00  0.00    -0.341 N 
ATOM      9  H4  UNL     1      -1.364   1.787  -0.519  1.00  0.00     0.167 HD
ENDROOT
BRANCH   7  10
HETATM   10  C7  UNL     1       0.203  -0.166   0.158  1.00  0.00    -0.043 C 
HETATM   11  C8  UNL     1       1.407  -0.197   0.066  1.00  0.00    -0.057 C 
BRANCH  11  12
HETATM   12  C9  UNL     1       2.836  -0.208  -0.041  1.00  0.00     0.051 A 
HETATM   13  C10 UNL     1       3.623  -1.327  -0.196  1.00  0.00     0.129 A 
HETATM   14  N2  UNL     1       4.926  -0.930  -0.260  1.00  0.00    -0.311 N 
HETATM   15  N3  UNL     1       4.982   0.383  -0.151  1.00  0.00    -0.311 N 
ATOM     16  H2  UNL     1       5.728  -1.549  -0.374  1.00  0.00     0.186 HD
HETATM   17  C11 UNL     1       3.728   0.843  -0.018  1.00  0.00     0.129 A 
ATOM     18  H3  UNL     1       5.830   0.950  -0.165  1.00  0.00     0.186 HD
ENDBRANCH  11  12
ENDBRANCH   7  10
TORSDOF 2
