REMARK  3 active torsions:
REMARK  status: ('A' for Active; 'I' for Inactive)
REMARK    1  A    between atoms: O1_2  and  C2_3 
REMARK    2  A    between atoms: C6_7  and  C7_8 
REMARK    3  A    between atoms: C8_9  and  C9_10 
ROOT
HETATM    1  C7  UNL     1       1.100  -0.220  -0.253  1.00  0.00    -0.058 C 
HETATM    2  C8  UNL     1       2.283  -0.334  -0.021  1.00  0.00    -0.023 C 
ENDROOT
BRANCH   1   3
HETATM    3  C6  UNL     1      -0.303  -0.084  -0.508  1.00  0.00     0.020 A 
HETATM    4  C5  UNL     1      -0.873  -0.349  -1.728  1.00  0.00     0.021 A 
HETATM    5  C4  UNL     1      -2.228  -0.217  -1.971  1.00  0.00     0.004 A 
HETATM    6  C3  UNL     1      -3.001   0.197  -0.923  1.00  0.00     0.037 A 
HETATM    7  C2  UNL     1      -2.466   0.473   0.319  1.00  0.00     0.069 A 
HETATM    8  C11 UNL     1      -1.108   0.330   0.522  1.00  0.00     0.057 A 
BRANCH   7   9
HETATM    9  O1  UNL     1      -3.280   0.889   1.352  1.00  0.00    -0.356 OA
HETATM   10  C1  UNL     1      -4.652   1.031   1.136  1.00  0.00     0.210 C 
ENDBRANCH   7   9
ENDBRANCH   1   3
BRANCH   2  11
HETATM   11  C9  UNL     1       3.694  -0.493   0.247  1.00  0.00     0.177 A 
HETATM   12  N1  UNL     1       4.302  -0.302   1.422  1.00  0.00    -0.329 N 
HETATM   13  C10 UNL     1       5.617  -0.548   1.271  1.00  0.00     0.199 A 
ATOM     14  H1  UNL     1       3.846  -0.017   2.289  1.00  0.00     0.168 HD
HETATM   15  N2  UNL     1       5.840  -0.897  -0.002  1.00  0.00    -0.294 N 
HETATM   16  N3  UNL     1       4.662  -0.859  -0.614  1.00  0.00    -0.277 N 
ATOM     17  H2  UNL     1       6.737  -1.143  -0.419  1.00  0.00     0.187 HD
ATOM     18  H3  UNL     1       4.512  -1.077  -1.599  1.00  0.00     0.189 HD
ENDBRANCH   2  11
TORSDOF 3
