REMARK  1 active torsions:
REMARK  status: ('A' for Active; 'I' for Inactive)
REMARK    1  A    between atoms: C4_7  and  C5_8 
ROOT
HETATM    1  C5  UNL     1       1.067  -0.604   0.002  1.00  0.00    -0.048 C 
HETATM    2  C6  UNL     1       0.247   0.419   0.060  1.00  0.00    -0.007 C 
HETATM    3  C7  UNL     1      -1.237   0.196   0.254  1.00  0.00     0.003 A 
HETATM    4  C8  UNL     1      -1.383  -0.743   1.422  1.00  0.00     0.015 C 
HETATM    5  C9  UNL     1      -0.577  -1.986   1.285  1.00  0.00     0.006 C 
HETATM    6  C10 UNL     1       0.384  -1.932   0.105  1.00  0.00     0.039 C 
HETATM    7  C11 UNL     1      -1.916   1.487   0.658  1.00  0.00     0.042 A 
HETATM    8  C12 UNL     1      -2.990   1.732  -0.340  1.00  0.00     0.233 A 
HETATM    9  N2  UNL     1      -2.988   0.664  -1.289  1.00  0.00    -0.074 N 
ATOM     10  H21 UNL     1      -2.947   1.003  -2.250  1.00  0.00     0.277 HD
ATOM     11  H22 UNL     1      -3.890   0.191  -1.339  1.00  0.00     0.277 HD
HETATM   12  C13 UNL     1      -1.928  -0.233  -0.990  1.00  0.00     0.245 A 
ENDROOT
BRANCH   1  13
HETATM   13  C4  UNL     1       2.540  -0.508  -0.189  1.00  0.00     0.000 A 
HETATM   14  C2  UNL     1       3.296   0.560  -0.550  1.00  0.00     0.023 A 
HETATM   15  C1  UNL     1       2.777   1.933  -0.976  1.00  0.00     0.069 C 
HETATM   16  N1  UNL     1       4.628   0.398  -0.578  1.00  0.00    -0.330 N 
HETATM   17  S1  UNL     1       4.895  -1.171  -0.130  1.00  0.00    -0.026 SA
ATOM     18  H1  UNL     1       5.329   1.097  -0.824  1.00  0.00     0.174 HD
HETATM   19  C3  UNL     1       3.279  -1.650   0.105  1.00  0.00     0.082 A 
ENDBRANCH   1  13
TORSDOF 1
