REMARK  1 active torsions:
REMARK  status: ('A' for Active; 'I' for Inactive)
REMARK    1  A    between atoms: C6_7  and  C7_8 
ROOT
HETATM    1  C1  UNL     1      -3.705  -0.180   0.422  1.00  0.00     0.000 C 
HETATM    2  C2  UNL     1      -4.122   0.493  -0.877  1.00  0.00     0.000 C 
HETATM    3  C3  UNL     1      -2.966   0.962  -1.691  1.00  0.00     0.001 C 
HETATM    4  C4  UNL     1      -1.855  -0.061  -1.661  1.00  0.00     0.017 C 
HETATM    5  C5  UNL     1      -0.799   0.367  -0.695  1.00  0.00     0.076 C 
HETATM    6  S1  UNL     1       0.851  -0.176  -1.326  1.00  0.00    -0.108 SA
HETATM    7  C6  UNL     1       1.507  -0.532   0.301  1.00  0.00     0.074 C 
HETATM    8  N2  UNL     1       0.520  -0.622   1.057  1.00  0.00    -0.380 N 
ATOM      9  H2  UNL     1       0.664  -0.823   2.047  1.00  0.00     0.160 HD
HETATM   10  C11 UNL     1      -0.779  -0.453   0.574  1.00  0.00     0.096 C 
HETATM   11  C12 UNL     1      -1.568   0.224   1.682  1.00  0.00     0.026 C 
HETATM   12  C13 UNL     1      -2.871   0.793   1.189  1.00  0.00     0.002 C 
ENDROOT
BRANCH   7  13
HETATM   13  C7  UNL     1       2.943  -0.681   0.639  1.00  0.00     0.241 C 
HETATM   14  C8  UNL     1       3.708   0.588   0.320  1.00  0.00     0.041 C 
HETATM   15  C9  UNL     1       4.490   0.273  -0.918  1.00  0.00     0.030 C 
HETATM   16  C10 UNL     1       4.683  -1.220  -0.811  1.00  0.00     0.233 C 
HETATM   17  N1  UNL     1       3.569  -1.749  -0.095  1.00  0.00    -0.065 N 
ATOM     18  H12 UNL     1       3.826  -2.535   0.502  1.00  0.00     0.278 HD
ATOM     19  H11 UNL     1       2.914  -2.242  -0.702  1.00  0.00     0.278 HD
ENDBRANCH   7  13
TORSDOF 1
