REMARK  1 active torsions:
REMARK  status: ('A' for Active; 'I' for Inactive)
REMARK    1  A    between atoms: N3_9  and  C4_10 
ROOT
HETATM    1  C1  UNL     1       2.917   1.515  -0.723  1.00  0.00     0.091 C 
HETATM    2  C2  UNL     1       2.828   0.282   0.071  1.00  0.00     0.097 A 
HETATM    3  N1  UNL     1       3.865  -0.312   0.741  1.00  0.00    -0.287 N 
ATOM      4  H1  UNL     1       4.823   0.037   0.751  1.00  0.00     0.188 HD
HETATM    5  N2  UNL     1       3.460  -1.390   1.368  1.00  0.00    -0.275 N 
ATOM      6  H2  UNL     1       4.031  -2.014   1.939  1.00  0.00     0.189 HD
HETATM    7  C3  UNL     1       2.152  -1.512   1.113  1.00  0.00     0.195 A 
HETATM    8  S1  UNL     1       1.270  -2.728   1.733  1.00  0.00    -0.039 SA
HETATM    9  N3  UNL     1       1.749  -0.479   0.308  1.00  0.00    -0.302 N 
ENDROOT
BRANCH   9  10
HETATM   10  C4  UNL     1       0.395  -0.363  -0.122  1.00  0.00     0.038 C 
HETATM   11  C5  UNL     1      -0.069  -1.727  -0.641  1.00  0.00     0.039 C 
HETATM   12  C6  UNL     1       0.160   0.576  -1.276  1.00  0.00     0.031 C 
HETATM   13  C7  UNL     1      -1.262   0.521  -1.803  1.00  0.00     0.008 C 
HETATM   14  C8  UNL     1      -2.279   0.402  -0.746  1.00  0.00    -0.005 A 
HETATM   15  C9  UNL     1      -2.475   1.583   0.134  1.00  0.00     0.015 A 
HETATM   16  C10 UNL     1      -1.914   0.272   0.630  1.00  0.00    -0.038 A 
HETATM   17  C11 UNL     1      -2.892  -0.469   1.549  1.00  0.00     0.015 C 
HETATM   18  C12 UNL     1      -0.486   0.130   1.004  1.00  0.00     0.040 C 
ENDBRANCH   9  10
TORSDOF 1
