REMARK  1 active torsions:
REMARK  status: ('A' for Active; 'I' for Inactive)
REMARK    1  A    between atoms: C4_8  and  C5_9 
ROOT
HETATM    1  C1  UNL     1       2.648  -1.977  -0.053  1.00  0.00     0.069 C 
HETATM    2  C2  UNL     1       2.791  -0.445  -0.017  1.00  0.00     0.020 A 
HETATM    3  N1  UNL     1       3.944   0.136  -0.071  1.00  0.00    -0.344 N 
ATOM      4  H1  UNL     1       4.791  -0.406  -0.240  1.00  0.00     0.167 HD
HETATM    5  C3  UNL     1       4.007   1.464   0.099  1.00  0.00     0.143 A 
HETATM    6  S1  UNL     1       5.312   2.459   0.047  1.00  0.00    -0.052 SA
HETATM    7  S2  UNL     1       2.341   1.868   0.351  1.00  0.00    -0.063 SA
HETATM    8  C4  UNL     1       1.677   0.310   0.207  1.00  0.00     0.013 A 
ENDROOT
BRANCH   8   9
HETATM    9  C5  UNL     1       0.258  -0.119   0.081  1.00  0.00     0.058 C 
HETATM   10  C6  UNL     1      -0.579   0.257   1.278  1.00  0.00     0.047 C 
HETATM   11  C7  UNL     1      -1.794   0.975   0.780  1.00  0.00     0.223 C 
HETATM   12  C8  UNL     1      -3.056   0.225   1.202  1.00  0.00     0.037 C 
HETATM   13  N2  UNL     1      -1.738   0.946  -0.650  1.00  0.00     0.093 N 
HETATM   14  C9  UNL     1      -3.647  -0.228  -0.105  1.00  0.00     0.032 C 
HETATM   15  C10 UNL     1      -2.425  -0.285  -0.989  1.00  0.00     0.273 C 
HETATM   16  C11 UNL     1      -0.374   0.817  -1.022  1.00  0.00     0.282 C 
ENDBRANCH   8   9
TORSDOF 1
