REMARK  3 active torsions:
REMARK  status: ('A' for Active; 'I' for Inactive)
REMARK       I    between atoms: C2_2  and  N1_4 
REMARK    1  A    between atoms: N1_4  and  C3_5 
REMARK    2  A    between atoms: N1_4  and  C9_14 
REMARK    3  A    between atoms: C7_10  and  C8_11 
ROOT
HETATM    1  C3  UNL     1       0.214   0.598   0.640  1.00  0.00     0.093 A 
HETATM    2  S1  UNL     1       0.402   1.146   2.242  1.00  0.00    -0.083 SA
HETATM    3  C4  UNL     1       2.078   0.913   2.426  1.00  0.00     0.059 A 
HETATM    4  C5  UNL     1       2.452   0.405   1.211  1.00  0.00    -0.040 A 
HETATM    5  C6  UNL     1       3.919   0.061   0.989  1.00  0.00     0.049 C 
HETATM    6  C7  UNL     1       1.491   0.241   0.286  1.00  0.00     0.040 A 
ENDROOT
BRANCH   1   7
HETATM    7  N1  UNL     1      -1.013   0.551  -0.099  1.00  0.00    -0.303 N 
HETATM    8  C2  UNL     1      -1.415   1.705  -0.814  1.00  0.00     0.221 C 
HETATM    9  C1  UNL     1      -0.656   2.981  -0.813  1.00  0.00     0.117 C 
HETATM   10  O1  UNL     1      -2.472   1.689  -1.500  1.00  0.00    -0.273 OA
BRANCH   7  11
HETATM   11  C9  UNL     1      -1.793  -0.643  -0.091  1.00  0.00     0.030 C 
HETATM   12  C10 UNL     1      -1.961  -1.255  -1.465  1.00  0.00     0.038 C 
HETATM   13  C11 UNL     1      -1.281  -1.710   0.848  1.00  0.00     0.038 C 
HETATM   14  C12 UNL     1      -3.239  -0.367   0.371  1.00  0.00     0.038 C 
ENDBRANCH   7  11
ENDBRANCH   1   7
BRANCH   6  15
HETATM   15  C8  UNL     1       1.807  -0.306  -1.063  1.00  0.00     0.126 C 
HETATM   16  N2  UNL     1       1.864  -1.702  -1.230  1.00  0.00    -0.089 NA
HETATM   17  S2  UNL     1       2.093   0.653  -2.331  1.00  0.00    -0.063 SA
ENDBRANCH   6  15
TORSDOF 3
