REMARK  3 active torsions:
REMARK  status: ('A' for Active; 'I' for Inactive)
REMARK       I    between atoms: C2_2  and  N1_4 
REMARK    1  A    between atoms: N1_4  and  C3_6 
REMARK    2  A    between atoms: C3_6  and  C4_7 
REMARK    3  A    between atoms: C7_11  and  C8_12 
ROOT
HETATM    1  C3  UNL     1      -1.914  -0.259   0.442  1.00  0.00     0.121 C 
HETATM    2  C6  UNL     1      -0.768  -0.689  -0.396  1.00  0.00     0.074 C 
HETATM    3  C7  UNL     1       0.339   0.214   0.115  1.00  0.00     0.129 C 
HETATM    4  O3  UNL     1       0.011   0.445   1.446  1.00  0.00    -0.378 OA
HETATM    5  C14 UNL     1      -1.361   0.618   1.490  1.00  0.00     0.153 C 
HETATM    6  C15 UNL     1      -1.621   2.089   1.387  1.00  0.00     0.042 C 
ENDROOT
BRANCH   1   7
HETATM    7  N1  UNL     1      -3.030   0.245  -0.317  1.00  0.00    -0.343 N 
HETATM    8  C2  UNL     1      -3.045   1.272  -1.256  1.00  0.00     0.214 C 
HETATM    9  C1  UNL     1      -4.348   1.638  -1.922  1.00  0.00     0.117 C 
HETATM   10  O1  UNL     1      -2.067   1.971  -1.642  1.00  0.00    -0.274 OA
ATOM     11  H1  UNL     1      -3.926  -0.210  -0.143  1.00  0.00     0.163 HD
ENDBRANCH   1   7
BRANCH   1  12
HETATM   12  C4  UNL     1      -2.408  -1.500   1.193  1.00  0.00     0.153 C 
HETATM   13  C5  UNL     1      -1.493  -2.259   2.072  1.00  0.00     0.093 C 
HETATM   14  O2  UNL     1      -3.556  -1.876   1.075  1.00  0.00    -0.296 OA
ENDBRANCH   1  12
BRANCH   3  15
HETATM   15  C8  UNL     1       1.683  -0.495   0.120  1.00  0.00     0.015 C 
HETATM   16  C9  UNL     1       2.102  -0.955  -1.227  1.00  0.00     0.007 C 
HETATM   17  C10 UNL     1       3.429  -0.475  -1.686  1.00  0.00     0.000 C 
HETATM   18  C11 UNL     1       4.501  -0.478  -0.649  1.00  0.00     0.000 C 
HETATM   19  C12 UNL     1       4.067  -0.045   0.706  1.00  0.00     0.000 C 
HETATM   20  C13 UNL     1       2.662   0.474   0.752  1.00  0.00     0.007 C 
ENDBRANCH   3  15
TORSDOF 3
