REMARK  2 active torsions:
REMARK  status: ('A' for Active; 'I' for Inactive)
REMARK    1  A    between atoms: C2_2  and  S1_4 
REMARK    2  A    between atoms: S1_4  and  C4_5 
ROOT
HETATM    1  C4  UNL     1       1.085  -0.170   0.443  1.00  0.00     0.064 C 
HETATM    2  C5  UNL     1       0.972  -0.366  -0.984  1.00  0.00     0.068 C 
HETATM    3  C6  UNL     1      -0.439  -0.535  -1.583  1.00  0.00    -0.013 C 
HETATM    4  C7  UNL     1      -0.903  -1.857  -1.221  1.00  0.00     0.057 C 
HETATM    5  C8  UNL     1      -1.426  -2.053   0.211  1.00  0.00    -0.001 C 
HETATM    6  C9  UNL     1      -0.283  -2.153   1.178  1.00  0.00     0.014 C 
HETATM    7  C10 UNL     1      -0.000  -0.703   1.343  1.00  0.00     0.036 C 
HETATM    8  C11 UNL     1      -1.237  -0.018   0.947  1.00  0.00     0.079 A 
HETATM    9  O1  UNL     1      -1.075   1.344   0.901  1.00  0.00    -0.362 OA
HETATM   10  C12 UNL     1      -2.369   1.403   0.455  1.00  0.00     0.097 C 
HETATM   11  C13 UNL     1      -3.198   2.546   0.862  1.00  0.00     0.052 C 
HETATM   12  C14 UNL     1      -2.269   1.113  -1.039  1.00  0.00     0.098 C 
HETATM   13  N1  UNL     1      -1.102   0.643  -1.562  1.00  0.00    -0.373 N 
ATOM     14  H1  UNL     1      -0.597   1.369  -2.070  1.00  0.00     0.164 HD
HETATM   15  C15 UNL     1      -2.521   0.121   1.321  1.00  0.00     0.068 A 
HETATM   16  C16 UNL     1      -2.246  -0.907   0.447  1.00  0.00     0.036 A 
ENDROOT
BRANCH   1  17
HETATM   17  S1  UNL     1       2.655  -0.885   1.031  1.00  0.00    -0.130 SA
BRANCH  17  18
HETATM   18  C2  UNL     1       4.052   0.015   0.398  1.00  0.00    -0.035 C 
HETATM   19  C1  UNL     1       5.282  -0.363   0.698  1.00  0.00     0.026 C 
HETATM   20  C3  UNL     1       3.818   1.207  -0.484  1.00  0.00     0.055 C 
ENDBRANCH  17  18
ENDBRANCH   1  17
TORSDOF 2
