REMARK  15 active torsions:
REMARK  status: ('A' for Active; 'I' for Inactive)
REMARK    1  A    between atoms: C2_2  and  C3_3 
REMARK    2  A    between atoms: C3_3  and  N1_4 
REMARK    3  A    between atoms: N1_4  and  C4_5 
REMARK       I    between atoms: N1_4  and  C7_8 
REMARK    4  A    between atoms: C4_5  and  C5_6 
REMARK       I    between atoms: C7_8  and  N2_10 
REMARK    5  A    between atoms: N2_10  and  C8_12 
REMARK    6  A    between atoms: C8_12  and  C9_13 
REMARK    7  A    between atoms: C9_13  and  N3_14 
REMARK       I    between atoms: N3_14  and  C10_16 
REMARK    8  A    between atoms: C10_16  and  C11_18 
REMARK    9  A    between atoms: C11_18  and  N4_19 
REMARK   10  A    between atoms: C11_18  and  C19_29 
REMARK   11  A    between atoms: N4_19  and  C12_22 
REMARK       I    between atoms: C19_29  and  N5_31 
REMARK   12  A    between atoms: C26_38  and  C27_39 
REMARK       I    between atoms: C27_39  and  N6_41 
REMARK   13  A    between atoms: N6_41  and  C28_43 
REMARK   14  A    between atoms: C28_43  and  C29_44 
REMARK   15  A    between atoms: C28_43  and  C31_46 
ROOT
HETATM    1  C11 UNL     1       1.159  -2.176  -0.502  1.00  0.00     0.368 C 
ENDROOT
BRANCH   1   2
HETATM    2  C10 UNL     1       2.528  -1.650  -0.540  1.00  0.00     0.258 C 
HETATM    3  N3  UNL     1       2.894  -0.385  -0.020  1.00  0.00    -0.357 N 
ATOM      4  H3  UNL     1       2.182   0.202   0.414  1.00  0.00     0.162 HD
HETATM    5  O2  UNL     1       3.442  -2.369  -1.070  1.00  0.00    -0.271 OA
BRANCH   3   6
HETATM    6  C9  UNL     1       4.272   0.096  -0.093  1.00  0.00     0.142 C 
BRANCH   6   7
HETATM    7  C8  UNL     1       4.354   1.460   0.556  1.00  0.00     0.144 C 
BRANCH   7   8
HETATM    8  N2  UNL     1       5.718   1.946   0.462  1.00  0.00    -0.341 N 
HETATM    9  C7  UNL     1       6.069   3.206   1.009  1.00  0.00     0.318 C 
HETATM   10  N1  UNL     1       7.390   3.727   0.938  1.00  0.00    -0.334 N 
HETATM   11  O1  UNL     1       5.166   3.886   1.581  1.00  0.00    -0.247 OA
ATOM     12  H2  UNL     1       6.428   1.378  -0.000  1.00  0.00     0.164 HD
BRANCH  10  13
HETATM   13  C3  UNL     1       7.631   5.009   1.542  1.00  0.00     0.127 C 
BRANCH  13  14
HETATM   14  C2  UNL     1       7.385   6.162   0.642  1.00  0.00     0.015 C 
HETATM   15  C1  UNL     1       8.267   6.116  -0.574  1.00  0.00     0.006 C 
ENDBRANCH  13  14
ENDBRANCH  10  13
BRANCH  10  16
HETATM   16  C4  UNL     1       8.439   2.958   0.283  1.00  0.00     0.127 C 
BRANCH  16  17
HETATM   17  C5  UNL     1       9.126   2.034   1.285  1.00  0.00     0.015 C 
HETATM   18  C6  UNL     1      10.202   1.255   0.573  1.00  0.00     0.006 C 
ENDBRANCH  16  17
ENDBRANCH  10  16
ENDBRANCH   7   8
ENDBRANCH   6   7
ENDBRANCH   3   6
ENDBRANCH   1   2
BRANCH   1  19
HETATM   19  N4  UNL     1       1.139  -3.604  -0.868  1.00  0.00    -0.049 N 
ATOM     20  H42 UNL     1       0.184  -3.913  -1.050  1.00  0.00     0.279 HD
ATOM     21  H41 UNL     1       1.545  -3.742  -1.794  1.00  0.00     0.279 HD
BRANCH  19  22
HETATM   22  C12 UNL     1       1.767  -4.458   0.085  1.00  0.00     0.187 C 
HETATM   23  C13 UNL     1       1.022  -4.425   1.412  1.00  0.00     0.033 C 
HETATM   24  C14 UNL     1       0.782  -5.779   1.990  1.00  0.00     0.002 C 
HETATM   25  C15 UNL     1      -0.368  -6.522   1.334  1.00  0.00     0.000 C 
HETATM   26  C16 UNL     1       0.121  -7.394   0.203  1.00  0.00     0.000 C 
HETATM   27  C17 UNL     1       0.647  -6.489  -0.898  1.00  0.00     0.002 C 
HETATM   28  C18 UNL     1       1.929  -5.832  -0.474  1.00  0.00     0.033 C 
ENDBRANCH  19  22
ENDBRANCH   1  19
BRANCH   1  29
HETATM   29  C19 UNL     1       0.266  -1.532  -1.482  1.00  0.00     0.260 C 
HETATM   30  O3  UNL     1       0.294  -1.950  -2.685  1.00  0.00    -0.270 OA
HETATM   31  N5  UNL     1      -0.607  -0.489  -1.145  1.00  0.00    -0.350 N 
HETATM   32  C20 UNL     1      -0.799   0.093   0.159  1.00  0.00     0.126 C 
HETATM   33  C35 UNL     1      -1.460   0.138  -2.190  1.00  0.00     0.126 C 
HETATM   34  C21 UNL     1      -2.224   0.495   0.328  1.00  0.00     0.029 C 
HETATM   35  C22 UNL     1      -3.218  -0.301  -0.468  1.00  0.00    -0.037 C 
HETATM   36  C23 UNL     1      -3.327  -1.669   0.124  1.00  0.00     0.010 C 
HETATM   37  C33 UNL     1      -4.553   0.388  -0.335  1.00  0.00     0.023 C 
HETATM   38  C34 UNL     1      -2.879  -0.328  -1.941  1.00  0.00     0.029 C 
HETATM   39  C24 UNL     1      -4.369  -2.524  -0.545  1.00  0.00     0.002 C 
HETATM   40  C25 UNL     1      -5.688  -1.837  -0.579  1.00  0.00     0.014 C 
HETATM   41  C26 UNL     1      -5.684  -0.400  -0.939  1.00  0.00     0.078 C 
BRANCH  41  42
HETATM   42  C27 UNL     1      -6.938   0.228  -0.458  1.00  0.00     0.222 C 
HETATM   43  O4  UNL     1      -7.772  -0.492   0.145  1.00  0.00    -0.273 OA
HETATM   44  N6  UNL     1      -7.226   1.607  -0.655  1.00  0.00    -0.356 N 
ATOM     45  H6  UNL     1      -6.537   2.176  -1.148  1.00  0.00     0.162 HD
BRANCH  44  46
HETATM   46  C28 UNL     1      -8.427   2.244  -0.202  1.00  0.00     0.083 C 
BRANCH  46  47
HETATM   47  C29 UNL     1      -9.195   2.780  -1.363  1.00  0.00     0.021 C 
HETATM   48  C30 UNL     1     -10.476   3.468  -0.924  1.00  0.00     0.007 C 
ENDBRANCH  46  47
BRANCH  46  49
HETATM   49  C31 UNL     1      -8.154   3.294   0.852  1.00  0.00     0.021 C 
HETATM   50  C32 UNL     1      -7.247   4.385   0.325  1.00  0.00     0.007 C 
ENDBRANCH  46  49
ENDBRANCH  44  46
ENDBRANCH  41  42
ENDBRANCH   1  29
TORSDOF 15
