REMARK  10 active torsions:
REMARK  status: ('A' for Active; 'I' for Inactive)
REMARK    1  A    between atoms: C2_2  and  C3_3 
REMARK    2  A    between atoms: C3_3  and  O1_4 
REMARK    3  A    between atoms: O1_4  and  C4_5 
REMARK    4  A    between atoms: C4_5  and  C5_7 
REMARK    5  A    between atoms: C5_7  and  C6_8 
REMARK    6  A    between atoms: C6_8  and  C7_9 
REMARK    7  A    between atoms: C7_9  and  C8_10 
REMARK    8  A    between atoms: C8_10  and  C10_12 
REMARK    9  A    between atoms: C13_15  and  C14_16 
REMARK   10  A    between atoms: C14_16  and  C17_19 
ROOT
HETATM    1  C10 UNL     1      -0.566  -1.101  -0.511  1.00  0.00    -0.034 A 
HETATM    2  C11 UNL     1      -1.259  -0.413  -1.517  1.00  0.00     0.012 A 
HETATM    3  C12 UNL     1      -2.464   0.207  -1.310  1.00  0.00     0.009 A 
HETATM    4  C13 UNL     1      -3.051   0.174  -0.068  1.00  0.00    -0.050 A 
HETATM    5  C19 UNL     1      -2.389  -0.492   0.933  1.00  0.00     0.009 A 
HETATM    6  C20 UNL     1      -1.167  -1.122   0.723  1.00  0.00     0.012 A 
ENDROOT
BRANCH   1   7
HETATM    7  C8  UNL     1       0.733  -1.744  -0.818  1.00  0.00    -0.073 C 
HETATM    8  C9  UNL     1       0.932  -3.098  -0.305  1.00  0.00     0.044 C 
BRANCH   7   9
HETATM    9  C7  UNL     1       1.894  -0.768  -0.645  1.00  0.00     0.035 C 
BRANCH   9  10
HETATM   10  C6  UNL     1       2.341  -0.569   0.747  1.00  0.00     0.014 C 
BRANCH  10  11
HETATM   11  C5  UNL     1       3.375   0.481   0.954  1.00  0.00     0.111 C 
BRANCH  11  12
HETATM   12  C4  UNL     1       4.563   0.285   0.145  1.00  0.00     0.259 C 
HETATM   13  O2  UNL     1       4.636   0.931  -0.964  1.00  0.00    -0.265 OA
BRANCH  12  14
HETATM   14  O1  UNL     1       5.598  -0.533   0.493  1.00  0.00    -0.318 OA
BRANCH  14  15
HETATM   15  C3  UNL     1       6.785  -0.621  -0.368  1.00  0.00     0.205 C 
BRANCH  15  16
HETATM   16  C2  UNL     1       7.435   0.724  -0.355  1.00  0.00    -0.011 C 
HETATM   17  C1  UNL     1       7.605   1.446  -1.417  1.00  0.00     0.009 C 
ENDBRANCH  15  16
ENDBRANCH  14  15
ENDBRANCH  12  14
ENDBRANCH  11  12
ENDBRANCH  10  11
ENDBRANCH   9  10
ENDBRANCH   7   9
ENDBRANCH   1   7
BRANCH   4  18
HETATM   18  C14 UNL     1      -4.351   0.824   0.249  1.00  0.00    -0.021 C 
HETATM   19  C15 UNL     1      -4.025   2.091   1.026  1.00  0.00     0.020 C 
HETATM   20  C16 UNL     1      -5.117  -0.145   1.131  1.00  0.00     0.020 C 
BRANCH  18  21
HETATM   21  C17 UNL     1      -5.173   1.076  -0.978  1.00  0.00     0.009 C 
HETATM   22  C18 UNL     1      -6.474   1.721  -0.577  1.00  0.00     0.006 C 
ENDBRANCH  18  21
ENDBRANCH   4  18
TORSDOF 10
