REMARK  11 active torsions:
REMARK  status: ('A' for Active; 'I' for Inactive)
REMARK    1  A    between atoms: C2_2  and  C3_3 
REMARK    2  A    between atoms: C4_4  and  C5_5 
REMARK    3  A    between atoms: C10_10  and  C11_11 
REMARK    4  A    between atoms: C11_11  and  C12_12 
REMARK    5  A    between atoms: C12_12  and  C13_13 
REMARK    6  A    between atoms: C13_13  and  C14_14 
REMARK    7  A    between atoms: C14_14  and  C15_15 
REMARK    8  A    between atoms: C15_15  and  C16_16 
REMARK    9  A    between atoms: C15_15  and  C19_19 
REMARK   10  A    between atoms: C16_16  and  C17_17 
REMARK   11  A    between atoms: C19_19  and  O2_21 
ROOT
HETATM    1  C11 UNL     1       1.197   0.631  -0.825  1.00  0.00     0.039 C 
ENDROOT
BRANCH   1   2
HETATM    2  C10 UNL     1       2.057   0.964   0.318  1.00  0.00    -0.048 A 
HETATM    3  C5  UNL     1       3.413   0.617   0.220  1.00  0.00    -0.030 A 
HETATM    4  C6  UNL     1       4.219   0.941   1.291  1.00  0.00     0.012 A 
HETATM    5  C7  UNL     1       3.728   1.582   2.421  1.00  0.00     0.001 A 
HETATM    6  C8  UNL     1       2.404   1.920   2.512  1.00  0.00     0.001 A 
HETATM    7  C9  UNL     1       1.582   1.601   1.445  1.00  0.00     0.008 A 
BRANCH   3   8
HETATM    8  C4  UNL     1       3.894  -0.017  -0.983  1.00  0.00     0.008 C 
HETATM    9  C3  UNL     1       5.165  -0.336  -1.143  1.00  0.00    -0.026 C 
BRANCH   9  10
HETATM   10  C2  UNL     1       5.652  -0.993  -2.401  1.00  0.00     0.022 C 
HETATM   11  C1  UNL     1       6.276  -2.312  -1.972  1.00  0.00     0.009 C 
ENDBRANCH   9  10
ENDBRANCH   3   8
ENDBRANCH   1   2
BRANCH   1  12
HETATM   12  C12 UNL     1      -0.254   0.789  -0.499  1.00  0.00     0.005 C 
BRANCH  12  13
HETATM   13  C13 UNL     1      -0.820  -0.122   0.532  1.00  0.00     0.001 C 
BRANCH  13  14
HETATM   14  C14 UNL     1      -2.296   0.214   0.791  1.00  0.00     0.014 C 
BRANCH  14  15
HETATM   15  C15 UNL     1      -3.138   0.067  -0.422  1.00  0.00     0.085 C 
BRANCH  15  16
HETATM   16  C16 UNL     1      -4.595   0.429  -0.107  1.00  0.00     0.014 C 
BRANCH  16  17
HETATM   17  C17 UNL     1      -4.725   1.847   0.374  1.00  0.00    -0.004 C 
HETATM   18  C18 UNL     1      -6.204   2.082   0.631  1.00  0.00     0.005 C 
ENDBRANCH  16  17
ENDBRANCH  15  16
BRANCH  15  19
HETATM   19  C19 UNL     1      -3.089  -1.367  -0.859  1.00  0.00     0.262 C 
HETATM   20  O1  UNL     1      -2.551  -1.680  -1.941  1.00  0.00    -0.265 OA
BRANCH  19  21
HETATM   21  O2  UNL     1      -3.634  -2.376  -0.083  1.00  0.00    -0.326 OA
HETATM   22  C20 UNL     1      -3.618  -3.741  -0.446  1.00  0.00     0.213 C 
ENDBRANCH  19  21
ENDBRANCH  15  19
ENDBRANCH  14  15
ENDBRANCH  13  14
ENDBRANCH  12  13
ENDBRANCH   1  12
TORSDOF 11
