REMARK  11 active torsions:
REMARK  status: ('A' for Active; 'I' for Inactive)
REMARK    1  A    between atoms: C1_4  and  C2_5 
REMARK    2  A    between atoms: C1_4  and  O7_23 
REMARK    3  A    between atoms: C3_6  and  O1_7 
REMARK    4  A    between atoms: O1_7  and  C4_8 
REMARK    5  A    between atoms: C5_10  and  C6_11 
REMARK    6  A    between atoms: C6_11  and  O3_12 
REMARK    7  A    between atoms: C7_14  and  O4_15 
REMARK    8  A    between atoms: C8_17  and  O5_18 
REMARK    9  A    between atoms: C9_20  and  O6_21 
REMARK   10  A    between atoms: O7_23  and  C10_24 
REMARK   11  A    between atoms: C12_26  and  N2_27 
ROOT
HETATM    1  C2  UNL     1       0.667  -0.214  -0.343  1.00  0.00     0.080 C 
HETATM    2  C3  UNL     1      -0.326  -0.927   0.149  1.00  0.00     0.142 C 
ENDROOT
BRANCH   2   3
HETATM    3  O1  UNL     1      -1.518  -0.956  -0.554  1.00  0.00    -0.329 OA
BRANCH   3   4
HETATM    4  C4  UNL     1      -2.174   0.230  -0.973  1.00  0.00     0.297 C 
HETATM    5  O2  UNL     1      -2.465   0.960   0.148  1.00  0.00    -0.348 OA
HETATM    6  C5  UNL     1      -3.779   1.374   0.248  1.00  0.00     0.179 C 
HETATM    7  C7  UNL     1      -4.624   0.116   0.252  1.00  0.00     0.180 C 
HETATM    8  C8  UNL     1      -4.615  -0.371  -1.175  1.00  0.00     0.183 C 
HETATM    9  C9  UNL     1      -3.317  -0.136  -1.845  1.00  0.00     0.205 C 
BRANCH   6  10
HETATM   10  C6  UNL     1      -4.000   2.078   1.547  1.00  0.00     0.198 C 
BRANCH  10  11
HETATM   11  O3  UNL     1      -3.723   1.238   2.621  1.00  0.00    -0.398 OA
ATOM     12  H3  UNL     1      -3.864   1.686   3.447  1.00  0.00     0.209 HD
ENDBRANCH  10  11
ENDBRANCH   6  10
BRANCH   7  13
HETATM   13  O4  UNL     1      -5.895   0.478   0.679  1.00  0.00    -0.390 OA
ATOM     14  H4  UNL     1      -6.425  -0.311   0.682  1.00  0.00     0.210 HD
ENDBRANCH   7  13
BRANCH   8  15
HETATM   15  O5  UNL     1      -5.658   0.298  -1.835  1.00  0.00    -0.390 OA
ATOM     16  H5  UNL     1      -5.652  -0.009  -2.734  1.00  0.00     0.210 HD
ENDBRANCH   8  15
BRANCH   9  17
HETATM   17  O6  UNL     1      -3.007  -1.300  -2.587  1.00  0.00    -0.388 OA
ATOM     18  H6  UNL     1      -3.739  -1.534  -3.145  1.00  0.00     0.210 HD
ENDBRANCH   9  17
ENDBRANCH   3   4
ENDBRANCH   2   3
BRANCH   1  19
HETATM   19  C1  UNL     1       1.931  -0.167   0.376  1.00  0.00     0.140 C 
HETATM   20  N1  UNL     1       2.036  -0.826   1.474  1.00  0.00    -0.380 N 
ATOM     21  H12 UNL     1       1.266  -1.376   1.854  1.00  0.00     0.158 HD
ATOM     22  H11 UNL     1       2.922  -0.793   1.978  1.00  0.00     0.158 HD
BRANCH  19  23
HETATM   23  O7  UNL     1       2.974   0.578  -0.138  1.00  0.00    -0.305 OA
BRANCH  23  24
HETATM   24  C10 UNL     1       4.293   0.222   0.257  1.00  0.00     0.270 C 
HETATM   25  C11 UNL     1       4.646  -1.180  -0.126  1.00  0.00     0.096 C 
HETATM   26  C12 UNL     1       6.155  -1.041  -0.362  1.00  0.00     0.211 C 
HETATM   27  C13 UNL     1       6.168   0.368  -0.956  1.00  0.00     0.203 C 
HETATM   28  O8  UNL     1       5.213   1.078  -0.286  1.00  0.00    -0.359 OA
BRANCH  26  29
HETATM   29  N2  UNL     1       6.793  -0.989   0.920  1.00  0.00    -0.073 N 
ATOM     30  H23 UNL     1       6.416  -0.256   1.521  1.00  0.00     0.274 HD
ATOM     31  H22 UNL     1       6.556  -1.784   1.513  1.00  0.00     0.274 HD
ATOM     32  H21 UNL     1       7.797  -0.897   0.763  1.00  0.00     0.274 HD
ENDBRANCH  26  29
ENDBRANCH  23  24
ENDBRANCH  19  23
ENDBRANCH   1  19
TORSDOF 11
