REMARK  11 active torsions:
REMARK  status: ('A' for Active; 'I' for Inactive)
REMARK    1  A    between atoms: C1_2  and  O2_4 
REMARK    2  A    between atoms: O2_4  and  C2_5 
REMARK    3  A    between atoms: C2_5  and  C3_6 
REMARK    4  A    between atoms: C5_8  and  O3_9 
REMARK    5  A    between atoms: O3_9  and  C6_10 
REMARK    6  A    between atoms: C6_10  and  C7_11 
REMARK    7  A    between atoms: C8_13  and  O5_14 
REMARK    8  A    between atoms: C9_16  and  N2_17 
REMARK    9  A    between atoms: C10_21  and  O6_22 
REMARK   10  A    between atoms: C11_24  and  N3_25 
REMARK   11  A    between atoms: C12_29  and  O7_30 
ROOT
HETATM    1  C3  UNL     1       2.637   0.384   0.499  1.00  0.00     0.151 C 
HETATM    2  C4  UNL     1       1.335   0.962   0.093  1.00  0.00     0.068 C 
HETATM    3  C5  UNL     1       0.353   0.061  -0.556  1.00  0.00     0.159 C 
HETATM    4  C11 UNL     1       0.773  -1.376  -0.692  1.00  0.00     0.266 C 
HETATM    5  C12 UNL     1       2.282  -1.407  -0.943  1.00  0.00     0.290 C 
HETATM    6  O8  UNL     1       2.864  -0.928   0.197  1.00  0.00    -0.352 OA
ENDROOT
BRANCH   3   7
HETATM    7  O3  UNL     1      -0.870   0.212   0.063  1.00  0.00    -0.381 OA
BRANCH   7   8
HETATM    8  C6  UNL     1      -1.861   0.726  -0.742  1.00  0.00     0.203 C 
BRANCH   8   9
HETATM    9  C7  UNL     1      -3.125   0.823   0.098  1.00  0.00     0.179 C 
HETATM   10  O4  UNL     1      -4.189   1.327  -0.606  1.00  0.00    -0.349 OA
HETATM   11  C8  UNL     1      -5.055   0.304  -0.906  1.00  0.00     0.290 C 
HETATM   12  C9  UNL     1      -5.011  -0.547   0.360  1.00  0.00     0.269 C 
HETATM   13  C10 UNL     1      -3.527  -0.506   0.675  1.00  0.00     0.184 C 
BRANCH  11  14
HETATM   14  O5  UNL     1      -4.607  -0.449  -1.967  1.00  0.00    -0.369 OA
ATOM     15  H5  UNL     1      -5.206  -1.157  -2.175  1.00  0.00     0.212 HD
ENDBRANCH  11  14
BRANCH  12  16
HETATM   16  N2  UNL     1      -5.701   0.186   1.388  1.00  0.00    -0.068 N 
ATOM     17  H23 UNL     1      -5.331   1.127   1.525  1.00  0.00     0.275 HD
ATOM     18  H22 UNL     1      -6.648   0.455   1.120  1.00  0.00     0.275 HD
ATOM     19  H21 UNL     1      -5.672  -0.383   2.234  1.00  0.00     0.275 HD
ENDBRANCH  12  16
BRANCH  13  20
HETATM   20  O6  UNL     1      -3.249  -0.649   2.010  1.00  0.00    -0.391 OA
ATOM     21  H6  UNL     1      -3.503  -1.489   2.375  1.00  0.00     0.210 HD
ENDBRANCH  13  20
ENDBRANCH   8   9
ENDBRANCH   7   8
ENDBRANCH   3   7
BRANCH   4  22
HETATM   22  N3  UNL     1       0.531  -2.161   0.485  1.00  0.00    -0.068 N 
ATOM     23  H33 UNL     1       0.971  -1.733   1.300  1.00  0.00     0.275 HD
ATOM     24  H32 UNL     1      -0.448  -2.097   0.766  1.00  0.00     0.275 HD
ATOM     25  H31 UNL     1       0.816  -3.136   0.393  1.00  0.00     0.275 HD
ENDBRANCH   4  22
BRANCH   1  26
HETATM   26  C2  UNL     1       3.835   1.194  -0.021  1.00  0.00     0.212 C 
BRANCH  26  27
HETATM   27  O2  UNL     1       4.990   0.705   0.634  1.00  0.00    -0.304 OA
BRANCH  27  28
HETATM   28  C1  UNL     1       6.256   1.187   0.424  1.00  0.00     0.372 C 
HETATM   29  N1  UNL     1       7.390   0.674   1.097  1.00  0.00    -0.032 NA
HETATM   30  O1  UNL     1       6.395   2.134  -0.414  1.00  0.00    -0.242 OA
ENDBRANCH  27  28
ENDBRANCH  26  27
ENDBRANCH   1  26
BRANCH   5  31
HETATM   31  O7  UNL     1       2.662  -2.739  -1.100  1.00  0.00    -0.369 OA
ATOM     32  H7  UNL     1       3.599  -2.758  -1.256  1.00  0.00     0.212 HD
ENDBRANCH   5  31
TORSDOF 11
