REMARK  9 active torsions:
REMARK  status: ('A' for Active; 'I' for Inactive)
REMARK    1  A    between atoms: O1_2  and  C2_3 
REMARK    2  A    between atoms: C6_9  and  C7_10 
REMARK    3  A    between atoms: C7_10  and  O4_11 
REMARK    4  A    between atoms: O4_11  and  C8_12 
REMARK    5  A    between atoms: C9_13  and  N1_14 
REMARK    6  A    between atoms: C10_19  and  O6_20 
REMARK    7  A    between atoms: C11_22  and  O7_23 
REMARK    8  A    between atoms: C12_25  and  O8_26 
REMARK    9  A    between atoms: C13_28  and  O9_29 
ROOT
HETATM    1  C8  UNL     1      -2.328  -0.432  -0.187  1.00  0.00     0.209 C 
HETATM    2  C9  UNL     1      -3.166  -0.410  -1.431  1.00  0.00     0.352 C 
HETATM    3  O5  UNL     1      -3.855   0.756  -1.634  1.00  0.00    -0.324 OA
HETATM    4  C10 UNL     1      -4.752   0.992  -0.601  1.00  0.00     0.290 C 
HETATM    5  C11 UNL     1      -3.955   1.304   0.634  1.00  0.00     0.204 C 
HETATM    6  C12 UNL     1      -2.905   0.320   0.963  1.00  0.00     0.185 C 
ENDROOT
BRANCH   1   7
HETATM    7  O4  UNL     1      -1.057   0.036  -0.507  1.00  0.00    -0.376 OA
BRANCH   7   8
HETATM    8  C7  UNL     1      -0.099  -0.958  -0.341  1.00  0.00     0.203 C 
BRANCH   8   9
HETATM    9  C6  UNL     1       1.289  -0.462  -0.685  1.00  0.00     0.182 C 
HETATM   10  O3  UNL     1       2.151  -1.535  -0.481  1.00  0.00    -0.346 OA
HETATM   11  C3  UNL     1       3.482  -1.151  -0.560  1.00  0.00     0.160 C 
HETATM   12  O2  UNL     1       3.659   0.148  -0.922  1.00  0.00    -0.324 OA
HETATM   13  C4  UNL     1       4.078  -1.354   0.815  1.00  0.00     0.078 C 
HETATM   14  C5  UNL     1       4.215  -2.087  -1.499  1.00  0.00     0.078 C 
HETATM   15  C2  UNL     1       3.090   1.081  -0.119  1.00  0.00     0.293 C 
HETATM   16  C13 UNL     1       1.648   0.738   0.118  1.00  0.00     0.204 C 
BRANCH  15  17
HETATM   17  O1  UNL     1       3.789   1.290   1.067  1.00  0.00    -0.363 OA
HETATM   18  C1  UNL     1       4.220   2.582   1.243  1.00  0.00     0.204 C 
ENDBRANCH  15  17
BRANCH  16  19
HETATM   19  O9  UNL     1       0.782   1.782  -0.210  1.00  0.00    -0.388 OA
ATOM     20  H9  UNL     1      -0.131   1.565  -0.060  1.00  0.00     0.210 HD
ENDBRANCH  16  19
ENDBRANCH   8   9
ENDBRANCH   7   8
ENDBRANCH   1   7
BRANCH   2  21
HETATM   21  N1  UNL     1      -4.044  -1.566  -1.459  1.00  0.00    -0.050 N 
ATOM     22  H13 UNL     1      -3.528  -2.440  -1.361  1.00  0.00     0.277 HD
ATOM     23  H12 UNL     1      -4.614  -1.634  -0.616  1.00  0.00     0.277 HD
ATOM     24  H11 UNL     1      -4.614  -1.551  -2.305  1.00  0.00     0.277 HD
ENDBRANCH   2  21
BRANCH   6  25
HETATM   25  O8  UNL     1      -3.402  -0.546   1.950  1.00  0.00    -0.390 OA
ATOM     26  H8  UNL     1      -3.770  -0.067   2.683  1.00  0.00     0.210 HD
ENDBRANCH   6  25
BRANCH   5  27
HETATM   27  O7  UNL     1      -4.889   1.455   1.685  1.00  0.00    -0.388 OA
ATOM     28  H7  UNL     1      -4.385   1.652   2.466  1.00  0.00     0.210 HD
ENDBRANCH   5  27
BRANCH   4  29
HETATM   29  O6  UNL     1      -5.679  -0.004  -0.428  1.00  0.00    -0.368 OA
ATOM     30  H6  UNL     1      -6.293   0.157   0.279  1.00  0.00     0.212 HD
ENDBRANCH   4  29
TORSDOF 9
