REMARK  8 active torsions:
REMARK  status: ('A' for Active; 'I' for Inactive)
REMARK    1  A    between atoms: C3_7  and  N4_8 
REMARK    2  A    between atoms: C4_14  and  O1_15 
REMARK    3  A    between atoms: O1_15  and  C5_16 
REMARK    4  A    between atoms: C5_16  and  C6_17 
REMARK    5  A    between atoms: C6_17  and  N6_18 
REMARK    6  A    between atoms: N6_18  and  C7_21 
REMARK    7  A    between atoms: C7_21  and  C8_22 
REMARK    8  A    between atoms: C8_22  and  N7_23 
ROOT
HETATM    1  C1  UNL     1      -1.731  -2.241   0.070  1.00  0.00     0.048 C 
HETATM    2  C2  UNL     1      -2.373  -1.156   0.451  1.00  0.00     0.087 C 
HETATM    3  N1  UNL     1      -3.762  -1.311   0.713  1.00  0.00    -0.284 N 
ATOM      4  H1  UNL     1      -4.116  -2.265   0.788  1.00  0.00     0.184 HD
HETATM    5  N2  UNL     1      -4.702  -0.260   0.880  1.00  0.00    -0.027 NA
HETATM    6  N3  UNL     1      -4.357   0.843   0.103  1.00  0.00    -0.072 NA
HETATM    7  C3  UNL     1      -3.421   1.725   0.737  1.00  0.00     0.396 C 
HETATM    8  N5  UNL     1      -2.059   1.261   0.678  1.00  0.00    -0.328 N 
ATOM      9  H5  UNL     1      -1.354   1.995   0.740  1.00  0.00     0.165 HD
HETATM   10  C4  UNL     1      -1.588   0.066   0.559  1.00  0.00     0.168 C 
ENDROOT
BRANCH  10  11
HETATM   11  O1  UNL     1      -0.186  -0.075   0.531  1.00  0.00    -0.333 OA
BRANCH  11  12
HETATM   12  C5  UNL     1       0.539   1.059   0.154  1.00  0.00     0.204 C 
BRANCH  12  13
HETATM   13  C6  UNL     1       2.026   0.841   0.145  1.00  0.00     0.259 C 
BRANCH  13  14
HETATM   14  N6  UNL     1       2.466  -0.183  -0.746  1.00  0.00    -0.072 N 
ATOM     15  H62 UNL     1       2.000  -1.075  -0.580  1.00  0.00     0.277 HD
ATOM     16  H61 UNL     1       2.145  -0.036  -1.703  1.00  0.00     0.277 HD
BRANCH  14  17
HETATM   17  C7  UNL     1       3.906  -0.280  -0.650  1.00  0.00     0.259 C 
BRANCH  17  18
HETATM   18  C8  UNL     1       4.470  -1.341  -1.559  1.00  0.00     0.257 C 
BRANCH  18  19
HETATM   19  N7  UNL     1       5.911  -1.344  -1.375  1.00  0.00    -0.078 N 
ATOM     20  H73 UNL     1       6.334  -0.427  -1.521  1.00  0.00     0.274 HD
ATOM     21  H72 UNL     1       6.189  -1.464  -0.401  1.00  0.00     0.274 HD
ATOM     22  H71 UNL     1       6.293  -2.062  -1.990  1.00  0.00     0.274 HD
ENDBRANCH  18  19
ENDBRANCH  17  18
ENDBRANCH  14  17
ENDBRANCH  13  14
ENDBRANCH  12  13
ENDBRANCH  11  12
ENDBRANCH  10  11
BRANCH   7  23
HETATM   23  N4  UNL     1      -3.867   2.013   2.076  1.00  0.00    -0.043 N 
ATOM     24  H43 UNL     1      -4.818   2.381   2.095  1.00  0.00     0.278 HD
ATOM     25  H42 UNL     1      -4.028   1.165   2.620  1.00  0.00     0.278 HD
ATOM     26  H41 UNL     1      -3.201   2.640   2.527  1.00  0.00     0.278 HD
ENDBRANCH   7  23
TORSDOF 8
