REMARK  7 active torsions:
REMARK  status: ('A' for Active; 'I' for Inactive)
REMARK    1  A    between atoms: N1_1  and  C1_4 
REMARK    2  A    between atoms: N3_8  and  C3_9 
REMARK    3  A    between atoms: C3_9  and  C4_10 
REMARK    4  A    between atoms: C4_10  and  C5_11 
REMARK    5  A    between atoms: C5_11  and  C6_12 
REMARK    6  A    between atoms: C6_12  and  N4_13 
REMARK    7  A    between atoms: C8_22  and  N8_23 
ROOT
HETATM    1  C1  UNL     1      -2.882   1.988  -0.272  1.00  0.00     0.705 A 
HETATM    2  N2  UNL     1      -1.762   1.318  -0.598  1.00  0.00    -0.019 N 
ATOM      3  H2  UNL     1      -0.994   1.817  -1.047  1.00  0.00     0.203 HD
HETATM    4  C2  UNL     1      -1.633   0.004  -0.344  1.00  0.00     0.738 A 
HETATM    5  N3  UNL     1      -0.651  -0.888  -0.559  1.00  0.00    -0.151 N 
HETATM    6  C7  UNL     1      -1.039  -2.110  -0.103  1.00  0.00     0.225 A 
HETATM    7  N5  UNL     1      -0.227  -3.275  -0.179  1.00  0.00    -0.061 NA
HETATM    8  N6  UNL     1      -2.274  -1.950   0.394  1.00  0.00    -0.237 N 
ATOM      9  H6  UNL     1      -2.841  -2.687   0.813  1.00  0.00     0.191 HD
HETATM   10  N7  UNL     1      -2.641  -0.688   0.256  1.00  0.00     0.093 N 
HETATM   11  C8  UNL     1      -3.762  -0.024   0.584  1.00  0.00     0.727 A 
HETATM   12  N9  UNL     1      -3.881   1.290   0.326  1.00  0.00    -0.020 N 
ATOM     13  H9  UNL     1      -4.741   1.773   0.585  1.00  0.00     0.203 HD
ENDROOT
BRANCH   5  14
HETATM   14  C3  UNL     1       0.617  -0.549  -1.188  1.00  0.00     0.151 C 
BRANCH  14  15
HETATM   15  C4  UNL     1       1.565  -0.140  -0.088  1.00  0.00     0.022 C 
BRANCH  15  16
HETATM   16  C5  UNL     1       2.927   0.237  -0.627  1.00  0.00     0.029 C 
BRANCH  16  17
HETATM   17  C6  UNL     1       3.782   0.627   0.582  1.00  0.00     0.229 C 
BRANCH  17  18
HETATM   18  N4  UNL     1       5.108   1.010   0.216  1.00  0.00    -0.079 N 
ATOM     19  H43 UNL     1       5.562   0.280  -0.334  1.00  0.00     0.274 HD
ATOM     20  H42 UNL     1       5.095   1.756  -0.480  1.00  0.00     0.274 HD
ATOM     21  H41 UNL     1       5.678   1.270   1.021  1.00  0.00     0.274 HD
ENDBRANCH  17  18
ENDBRANCH  16  17
ENDBRANCH  15  16
ENDBRANCH  14  15
ENDBRANCH   5  14
BRANCH   1  22
HETATM   22  N1  UNL     1      -3.014   3.257  -0.514  1.00  0.00    -0.234 N 
ATOM     23  H12 UNL     1      -2.263   3.781  -0.963  1.00  0.00     0.174 HD
ATOM     24  H11 UNL     1      -3.863   3.765  -0.267  1.00  0.00     0.174 HD
ENDBRANCH   1  22
BRANCH  11  25
HETATM   25  N8  UNL     1      -4.722  -0.676   1.154  1.00  0.00    -0.232 N 
ATOM     26  H82 UNL     1      -4.632  -1.673   1.350  1.00  0.00     0.174 HD
ATOM     27  H81 UNL     1      -5.573  -0.172   1.403  1.00  0.00     0.174 HD
ENDBRANCH  11  25
TORSDOF 7
