REMARK  8 active torsions:
REMARK  status: ('A' for Active; 'I' for Inactive)
REMARK    1  A    between atoms: C2_2  and  N1_3 
REMARK    2  A    between atoms: N1_3  and  C3_5 
REMARK    3  A    between atoms: C3_5  and  C4_6 
REMARK    4  A    between atoms: C4_6  and  N2_7 
REMARK    5  A    between atoms: N2_7  and  C5_9 
REMARK    6  A    between atoms: C6_14  and  C7_15 
REMARK    7  A    between atoms: C7_15  and  N5_16 
REMARK    8  A    between atoms: C8_20  and  O1_21 
ROOT
HETATM    1  C5  UNL     1      -0.288  -0.441   0.068  1.00  0.00     0.109 C 
HETATM    2  N3  UNL     1      -0.687   0.762   0.384  1.00  0.00    -0.292 N 
ATOM      3  H3  UNL     1      -0.001   1.365   0.838  1.00  0.00     0.188 HD
HETATM    4  N4  UNL     1      -1.932   1.301   0.170  1.00  0.00    -0.324 N 
ATOM      5  H4  UNL     1      -1.990   2.315   0.259  1.00  0.00     0.180 HD
HETATM    6  C6  UNL     1      -3.182   0.631  -0.166  1.00  0.00     0.172 C 
HETATM    7  C8  UNL     1      -3.039  -0.787   0.375  1.00  0.00     0.239 C 
HETATM    8  N6  UNL     1      -2.371  -1.538  -0.656  1.00  0.00    -0.388 N 
ATOM      9  H6  UNL     1      -2.885  -2.015  -1.397  1.00  0.00     0.156 HD
HETATM   10  C9  UNL     1      -0.950  -1.575  -0.578  1.00  0.00     0.194 C 
ENDROOT
BRANCH   1  11
HETATM   11  N2  UNL     1       1.073  -0.690   0.430  1.00  0.00    -0.373 N 
ATOM     12  H2  UNL     1       1.488  -0.223   1.236  1.00  0.00     0.161 HD
BRANCH  11  13
HETATM   13  C4  UNL     1       1.840  -1.600  -0.353  1.00  0.00     0.165 C 
BRANCH  13  14
HETATM   14  C3  UNL     1       3.298  -1.682  -0.068  1.00  0.00     0.075 C 
BRANCH  14  15
HETATM   15  N1  UNL     1       4.031  -0.517  -0.345  1.00  0.00    -0.401 N 
ATOM     16  H1  UNL     1       4.706  -0.484  -1.109  1.00  0.00     0.158 HD
BRANCH  15  17
HETATM   17  C2  UNL     1       3.798   0.599   0.472  1.00  0.00     0.114 C 
HETATM   18  C1  UNL     1       4.906   1.647   0.163  1.00  0.00     0.026 C 
ENDBRANCH  15  17
ENDBRANCH  14  15
ENDBRANCH  13  14
ENDBRANCH  11  13
ENDBRANCH   1  11
BRANCH   6  19
HETATM   19  C7  UNL     1      -4.375   1.298   0.479  1.00  0.00     0.260 C 
BRANCH  19  20
HETATM   20  N5  UNL     1      -4.445   2.688   0.009  1.00  0.00    -0.077 N 
ATOM     21  H53 UNL     1      -3.577   3.199   0.170  1.00  0.00     0.274 HD
ATOM     22  H52 UNL     1      -4.462   2.756  -1.009  1.00  0.00     0.274 HD
ATOM     23  H51 UNL     1      -5.250   3.138   0.444  1.00  0.00     0.274 HD
ENDBRANCH  19  20
ENDBRANCH   6  19
BRANCH   7  24
HETATM   24  O1  UNL     1      -4.269  -1.309   0.761  1.00  0.00    -0.375 OA
ATOM     25  H1  UNL     1      -4.180  -2.193   1.098  1.00  0.00     0.212 HD
ENDBRANCH   7  24
TORSDOF 8
