REMARK  8 active torsions:
REMARK  status: ('A' for Active; 'I' for Inactive)
REMARK    1  A    between atoms: C2_3  and  N2_4 
REMARK    2  A    between atoms: C3_5  and  N3_6 
REMARK    3  A    between atoms: N3_6  and  C4_8 
REMARK    4  A    between atoms: C4_8  and  C5_9 
REMARK    5  A    between atoms: C5_9  and  N4_10 
REMARK    6  A    between atoms: N4_10  and  C6_13 
REMARK    7  A    between atoms: C6_13  and  C7_14 
REMARK    8  A    between atoms: C7_14  and  N5_15 
ROOT
HETATM    1  N1  UNL     1      -1.271  -3.529  -1.212  1.00  0.00    -0.196 NA
HETATM    2  C1  UNL     1      -1.190  -2.381  -1.078  1.00  0.00     0.080 C 
HETATM    3  C2  UNL     1      -1.064  -0.912  -0.891  1.00  0.00     0.272 C 
ENDROOT
BRANCH   3   4
HETATM    4  N2  UNL     1      -1.592  -0.514   0.381  1.00  0.00    -0.152 N 
HETATM    5  C3  UNL     1      -0.981  -0.411   1.569  1.00  0.00     0.683 A 
HETATM    6  N6  UNL     1      -1.929  -0.035   2.493  1.00  0.00    -0.182 N 
HETATM    7  C8  UNL     1      -3.119   0.100   1.909  1.00  0.00     0.162 A 
ATOM      8  H6  UNL     1      -1.746   0.119   3.485  1.00  0.00     0.184 HD
HETATM    9  C9  UNL     1      -4.387   0.456   2.377  1.00  0.00     0.290 A 
HETATM   10  C11 UNL     1      -2.912  -0.197   0.591  1.00  0.00     0.173 A 
HETATM   11  O1  UNL     1      -4.517   0.719   3.597  1.00  0.00    -0.265 OA
HETATM   12  N7  UNL     1      -5.378   0.489   1.477  1.00  0.00    -0.154 N 
HETATM   13  C10 UNL     1      -5.172   0.196   0.182  1.00  0.00     0.680 A 
ATOM     14  H7  UNL     1      -6.317   0.744   1.784  1.00  0.00     0.187 HD
HETATM   15  N8  UNL     1      -6.141   0.230  -0.691  1.00  0.00    -0.234 N 
HETATM   16  N9  UNL     1      -3.951  -0.148  -0.276  1.00  0.00    -0.174 N 
ATOM     17  H82 UNL     1      -7.064   0.490  -0.345  1.00  0.00     0.174 HD
ATOM     18  H81 UNL     1      -5.985   0.008  -1.674  1.00  0.00     0.174 HD
ATOM     19  H9  UNL     1      -3.812  -0.368  -1.262  1.00  0.00     0.186 HD
BRANCH   5  20
HETATM   20  N3  UNL     1       0.373  -0.573   1.948  1.00  0.00    -0.224 N 
ATOM     21  H3  UNL     1       0.549  -0.552   2.953  1.00  0.00     0.177 HD
BRANCH  20  22
HETATM   22  C4  UNL     1       1.521  -0.760   1.137  1.00  0.00     0.165 C 
BRANCH  22  23
HETATM   23  C5  UNL     1       2.077   0.514   0.523  1.00  0.00     0.252 C 
BRANCH  23  24
HETATM   24  N4  UNL     1       3.233   0.128  -0.262  1.00  0.00    -0.072 N 
ATOM     25  H42 UNL     1       3.911  -0.395   0.293  1.00  0.00     0.277 HD
ATOM     26  H41 UNL     1       3.004  -0.595  -0.944  1.00  0.00     0.277 HD
BRANCH  24  27
HETATM   27  C6  UNL     1       3.838   1.301  -0.896  1.00  0.00     0.259 C 
BRANCH  27  28
HETATM   28  C7  UNL     1       5.045   0.903  -1.717  1.00  0.00     0.257 C 
BRANCH  28  29
HETATM   29  N5  UNL     1       6.064   0.273  -0.916  1.00  0.00    -0.078 N 
ATOM     30  H53 UNL     1       6.332   0.863  -0.128  1.00  0.00     0.274 HD
ATOM     31  H52 UNL     1       5.689  -0.524  -0.401  1.00  0.00     0.274 HD
ATOM     32  H51 UNL     1       6.878   0.005  -1.469  1.00  0.00     0.274 HD
ENDBRANCH  28  29
ENDBRANCH  27  28
ENDBRANCH  24  27
ENDBRANCH  23  24
ENDBRANCH  22  23
ENDBRANCH  20  22
ENDBRANCH   5  20
ENDBRANCH   3   4
TORSDOF 8
