REMARK  10 active torsions:
REMARK  status: ('A' for Active; 'I' for Inactive)
REMARK    1  A    between atoms: C2_6  and  N2_7 
REMARK    2  A    between atoms: N2_7  and  C3_9 
REMARK    3  A    between atoms: C3_9  and  C4_10 
REMARK    4  A    between atoms: C4_10  and  C5_11 
REMARK    5  A    between atoms: C5_11  and  N3_12 
REMARK    6  A    between atoms: C6_18  and  N5_19 
REMARK    7  A    between atoms: N5_19  and  C7_21 
REMARK    8  A    between atoms: C7_21  and  C8_22 
REMARK    9  A    between atoms: C8_22  and  N6_23 
REMARK   10  A    between atoms: C9_27  and  N7_28 
ROOT
HETATM    1  N1  UNL     1      -0.903  -0.042   4.138  1.00  0.00    -0.391 N 
ATOM      2  H11 UNL     1      -0.279   0.370   4.832  1.00  0.00     0.157 HD
ATOM      3  H12 UNL     1      -1.809  -0.327   4.511  1.00  0.00     0.157 HD
HETATM    4  C1  UNL     1      -0.626  -0.217   2.869  1.00  0.00     0.108 A 
HETATM    5  S1  UNL     1      -1.665  -0.902   1.715  1.00  0.00    -0.034 SA
HETATM    6  C2  UNL     1      -0.951  -0.963   0.155  1.00  0.00     0.148 A 
HETATM    7  N4  UNL     1       0.293  -0.479   0.052  1.00  0.00    -0.321 N 
ATOM      8  H4  UNL     1       0.731  -0.508  -0.869  1.00  0.00     0.169 HD
HETATM    9  C6  UNL     1       1.018   0.046   1.069  1.00  0.00     0.139 A 
HETATM   10  C9  UNL     1       0.611   0.172   2.360  1.00  0.00     0.179 A 
ENDROOT
BRANCH   6  11
HETATM   11  N2  UNL     1      -1.571  -1.446  -0.872  1.00  0.00    -0.370 N 
ATOM     12  H2  UNL     1      -1.106  -1.462  -1.780  1.00  0.00     0.161 HD
BRANCH  11  13
HETATM   13  C3  UNL     1      -2.898  -1.957  -0.751  1.00  0.00     0.123 C 
BRANCH  13  14
HETATM   14  C4  UNL     1      -3.941  -0.867  -0.712  1.00  0.00     0.047 C 
BRANCH  14  15
HETATM   15  C5  UNL     1      -3.915  -0.022  -1.968  1.00  0.00     0.231 C 
BRANCH  15  16
HETATM   16  N3  UNL     1      -2.616   0.604  -2.123  1.00  0.00    -0.079 N 
ATOM     17  H33 UNL     1      -2.350   1.140  -1.297  1.00  0.00     0.274 HD
ATOM     18  H32 UNL     1      -1.859  -0.080  -2.108  1.00  0.00     0.274 HD
ATOM     19  H31 UNL     1      -2.598   1.173  -2.969  1.00  0.00     0.274 HD
ENDBRANCH  15  16
ENDBRANCH  14  15
ENDBRANCH  13  14
ENDBRANCH  11  13
ENDBRANCH   6  11
BRANCH   9  20
HETATM   20  N5  UNL     1       2.341   0.500   0.689  1.00  0.00    -0.372 N 
ATOM     21  H5  UNL     1       2.939   0.907   1.408  1.00  0.00     0.161 HD
BRANCH  20  22
HETATM   22  C7  UNL     1       2.846   0.407  -0.635  1.00  0.00     0.148 C 
BRANCH  22  23
HETATM   23  C8  UNL     1       4.244   0.979  -0.680  1.00  0.00     0.249 C 
BRANCH  23  24
HETATM   24  N6  UNL     1       4.809   0.910  -2.014  1.00  0.00    -0.078 N 
ATOM     25  H63 UNL     1       4.785  -0.042  -2.379  1.00  0.00     0.274 HD
ATOM     26  H62 UNL     1       4.201   1.359  -2.699  1.00  0.00     0.274 HD
ATOM     27  H61 UNL     1       5.753   1.296  -2.044  1.00  0.00     0.274 HD
ENDBRANCH  23  24
ENDBRANCH  22  23
ENDBRANCH  20  22
ENDBRANCH   9  20
BRANCH  10  28
HETATM   28  N7  UNL     1       1.516   0.754   3.287  1.00  0.00    -0.109 N 
HETATM   29  O1  UNL     1       2.089   0.053   4.117  1.00  0.00    -0.532 OA
HETATM   30  O2  UNL     1       1.739   2.092   3.244  1.00  0.00    -0.532 OA
ENDBRANCH  10  28
TORSDOF 10
