REMARK  11 active torsions:
REMARK  status: ('A' for Active; 'I' for Inactive)
REMARK    1  A    between atoms: C2_3  and  C3_4 
REMARK    2  A    between atoms: C3_4  and  N2_5 
REMARK    3  A    between atoms: N2_5  and  C4_6 
REMARK    4  A    between atoms: N2_5  and  C7_11 
REMARK    5  A    between atoms: C4_6  and  C5_7 
REMARK    6  A    between atoms: C5_7  and  C6_8 
REMARK    7  A    between atoms: C6_8  and  O1_9 
REMARK    8  A    between atoms: C8_14  and  N4_15 
REMARK    9  A    between atoms: N4_15  and  N5_17 
REMARK   10  A    between atoms: N5_17  and  C9_19 
REMARK   11  A    between atoms: C10_25  and  N8_26 
ROOT
HETATM    1  N1  UNL     1      -2.356  -4.728  -1.424  1.00  0.00    -0.197 NA
HETATM    2  C1  UNL     1      -2.083  -3.605  -1.504  1.00  0.00     0.060 C 
HETATM    3  C2  UNL     1      -1.718  -2.170  -1.589  1.00  0.00     0.144 C 
ENDROOT
BRANCH   3   4
HETATM    4  C3  UNL     1      -1.292  -1.749  -0.216  1.00  0.00     0.155 C 
BRANCH   4   5
HETATM    5  N2  UNL     1      -0.899  -0.351  -0.134  1.00  0.00    -0.216 N 
BRANCH   5   6
HETATM    6  C4  UNL     1      -1.922   0.648  -0.302  1.00  0.00     0.143 C 
BRANCH   6   7
HETATM    7  C5  UNL     1      -2.890   0.641   0.870  1.00  0.00     0.046 C 
BRANCH   7   8
HETATM    8  C6  UNL     1      -3.936   1.722   0.624  1.00  0.00     0.165 C 
BRANCH   8   9
HETATM    9  O1  UNL     1      -3.328   2.978   0.520  1.00  0.00    -0.401 OA
ATOM     10  H1  UNL     1      -3.980   3.652   0.367  1.00  0.00     0.209 HD
ENDBRANCH   8   9
ENDBRANCH   7   8
ENDBRANCH   6   7
ENDBRANCH   5   6
BRANCH   5  11
HETATM   11  C7  UNL     1       0.472  -0.020   0.123  1.00  0.00     0.709 A 
HETATM   12  N3  UNL     1       1.377  -1.022   0.270  1.00  0.00    -0.020 N 
HETATM   13  C8  UNL     1       2.679  -0.758   0.525  1.00  0.00     0.726 A 
ATOM     14  H3  UNL     1       1.069  -1.991   0.187  1.00  0.00     0.203 HD
HETATM   15  N7  UNL     1       3.121   0.509   0.642  1.00  0.00    -0.020 N 
HETATM   16  C10 UNL     1       2.234   1.505   0.499  1.00  0.00     0.705 A 
ATOM     17  H7  UNL     1       4.103   0.706   0.834  1.00  0.00     0.203 HD
HETATM   18  N9  UNL     1       0.937   1.227   0.244  1.00  0.00    -0.022 N 
ATOM     19  H9  UNL     1       0.284   2.003   0.139  1.00  0.00     0.203 HD
BRANCH  13  20
HETATM   20  N4  UNL     1       3.524  -1.723   0.662  1.00  0.00    -0.130 N 
ATOM     21  H4  UNL     1       3.163  -2.672   0.569  1.00  0.00     0.205 HD
BRANCH  20  22
HETATM   22  N5  UNL     1       4.860  -1.589   0.921  1.00  0.00    -0.282 N 
ATOM     23  H5  UNL     1       5.180  -1.799   1.866  1.00  0.00     0.188 HD
BRANCH  22  24
HETATM   24  C9  UNL     1       5.747  -1.217   0.059  1.00  0.00     0.191 C 
HETATM   25  N6  UNL     1       6.571  -0.419  -0.543  1.00  0.00    -0.394 N 
ATOM     26  H62 UNL     1       6.404   0.417   0.017  1.00  0.00     0.156 HD
ATOM     27  H61 UNL     1       7.271  -0.125  -1.224  1.00  0.00     0.156 HD
ENDBRANCH  22  24
ENDBRANCH  20  22
ENDBRANCH  13  20
BRANCH  16  28
HETATM   28  N8  UNL     1       2.617   2.725   0.600  1.00  0.00    -0.234 N 
ATOM     29  H82 UNL     1       3.596   2.935   0.793  1.00  0.00     0.174 HD
ATOM     30  H81 UNL     1       1.943   3.482   0.491  1.00  0.00     0.174 HD
ENDBRANCH  16  28
ENDBRANCH   5  11
ENDBRANCH   4   5
ENDBRANCH   3   4
TORSDOF 11
