REMARK  9 active torsions:
REMARK  status: ('A' for Active; 'I' for Inactive)
REMARK    1  A    between atoms: N1_1  and  C1_4 
REMARK    2  A    between atoms: C2_7  and  N3_8 
REMARK    3  A    between atoms: N3_8  and  C3_9 
REMARK    4  A    between atoms: N3_8  and  C5_13 
REMARK    5  A    between atoms: C3_9  and  C4_10 
REMARK    6  A    between atoms: C4_10  and  O1_11 
REMARK    7  A    between atoms: C5_13  and  C6_14 
REMARK    8  A    between atoms: C6_14  and  N4_15 
REMARK    9  A    between atoms: C10_23  and  N7_24 
ROOT
HETATM    1  C1  UNL     1      -3.493  -0.088  -1.556  1.00  0.00     0.705 A 
HETATM    2  N2  UNL     1      -2.376  -0.626  -1.002  1.00  0.00    -0.022 N 
ATOM      3  H2  UNL     1      -2.123  -1.587  -1.230  1.00  0.00     0.203 HD
HETATM    4  C2  UNL     1      -1.597   0.072  -0.164  1.00  0.00     0.709 A 
HETATM    5  N6  UNL     1      -1.937   1.341   0.134  1.00  0.00    -0.022 N 
ATOM      6  H6  UNL     1      -1.349   1.878   0.771  1.00  0.00     0.203 HD
HETATM    7  C10 UNL     1      -3.041   1.918  -0.394  1.00  0.00     0.705 A 
HETATM    8  N8  UNL     1      -3.782   1.182  -1.222  1.00  0.00    -0.022 N 
ATOM      9  H8  UNL     1      -4.617   1.607  -1.626  1.00  0.00     0.203 HD
ENDROOT
BRANCH   4  10
HETATM   10  N3  UNL     1      -0.405  -0.506   0.418  1.00  0.00    -0.213 N 
BRANCH  10  11
HETATM   11  C3  UNL     1      -0.578  -1.243   1.644  1.00  0.00     0.167 C 
BRANCH  11  12
HETATM   12  C4  UNL     1      -0.347  -2.719   1.522  1.00  0.00     0.184 C 
BRANCH  12  13
HETATM   13  O1  UNL     1       0.925  -3.076   1.104  1.00  0.00    -0.399 OA
ATOM     14  H1  UNL     1       1.071  -4.011   1.027  1.00  0.00     0.209 HD
ENDBRANCH  12  13
ENDBRANCH  11  12
ENDBRANCH  10  11
BRANCH  10  15
HETATM   15  C5  UNL     1       0.881  -0.328  -0.219  1.00  0.00     0.161 C 
BRANCH  15  16
HETATM   16  C6  UNL     1       1.774   0.558   0.620  1.00  0.00     0.149 C 
BRANCH  16  17
HETATM   17  N4  UNL     1       3.078   0.739  -0.025  1.00  0.00    -0.350 N 
HETATM   18  C7  UNL     1       4.176  -0.025   0.135  1.00  0.00     0.108 A 
HETATM   19  C8  UNL     1       5.183   0.467  -0.635  1.00  0.00     0.106 A 
HETATM   20  N5  UNL     1       4.667   1.557  -1.273  1.00  0.00    -0.361 N 
HETATM   21  C9  UNL     1       3.386   1.719  -0.900  1.00  0.00     0.182 A 
ATOM     22  H5  UNL     1       5.172   2.153  -1.928  1.00  0.00     0.166 HD
ENDBRANCH  16  17
ENDBRANCH  15  16
ENDBRANCH  10  15
ENDBRANCH   4  10
BRANCH   1  23
HETATM   23  N1  UNL     1      -4.238  -0.782  -2.366  1.00  0.00    -0.234 N 
ATOM     24  H12 UNL     1      -4.019  -1.745  -2.619  1.00  0.00     0.174 HD
ATOM     25  H11 UNL     1      -5.077  -0.378  -2.782  1.00  0.00     0.174 HD
ENDBRANCH   1  23
BRANCH   7  26
HETATM   26  N7  UNL     1      -3.338   3.154  -0.081  1.00  0.00    -0.234 N 
ATOM     27  H72 UNL     1      -2.771   3.717   0.553  1.00  0.00     0.174 HD
ATOM     28  H71 UNL     1      -4.170   3.589  -0.479  1.00  0.00     0.174 HD
ENDBRANCH   7  26
TORSDOF 9
