REMARK  4 active torsions:
REMARK  status: ('A' for Active; 'I' for Inactive)
REMARK    1  A    between atoms: C2_7  and  N3_8 
REMARK    2  A    between atoms: N3_8  and  C3_10 
REMARK    3  A    between atoms: C3_10  and  O1_11 
REMARK    4  A    between atoms: C3_10  and  C4_13 
ROOT
HETATM    1  N1  UNL     1      -1.668   3.436   0.465  1.00  0.00    -0.233 N 
ATOM      2  H11 UNL     1      -2.543   3.882   0.189  1.00  0.00     0.174 HD
ATOM      3  H12 UNL     1      -0.885   4.009   0.781  1.00  0.00     0.174 HD
HETATM    4  C1  UNL     1      -1.496   2.157   0.434  1.00  0.00     0.692 A 
HETATM    5  N2  UNL     1      -0.273   1.534   0.820  1.00  0.00    -0.172 N 
ATOM      6  H2  UNL     1       0.505   2.113   1.135  1.00  0.00     0.186 HD
HETATM    7  C2  UNL     1      -0.118   0.141   0.775  1.00  0.00     0.165 A 
HETATM    8  C5  UNL     1      -1.137  -0.588   0.365  1.00  0.00     0.174 A 
HETATM    9  N5  UNL     1      -1.016  -2.021   0.306  1.00  0.00    -0.334 N 
ATOM     10  H5  UNL     1      -0.139  -2.462   0.583  1.00  0.00     0.168 HD
HETATM   11  C6  UNL     1      -1.997  -2.756  -0.091  1.00  0.00     0.183 A 
HETATM   12  N6  UNL     1      -3.221  -2.161  -0.480  1.00  0.00    -0.347 N 
ATOM     13  H6  UNL     1      -3.977  -2.771  -0.791  1.00  0.00     0.167 HD
HETATM   14  C7  UNL     1      -3.431  -0.895  -0.463  1.00  0.00     0.210 A 
HETATM   15  N7  UNL     1      -2.398  -0.024  -0.038  1.00  0.00    -0.217 N 
HETATM   16  N8  UNL     1      -2.590   1.357  -0.007  1.00  0.00    -0.123 N 
ATOM     17  H8  UNL     1      -3.476   1.777  -0.288  1.00  0.00     0.206 HD
ENDROOT
BRANCH   7  18
HETATM   18  N3  UNL     1       1.117  -0.489   1.164  1.00  0.00    -0.339 N 
ATOM     19  H3  UNL     1       1.103  -1.344   1.721  1.00  0.00     0.164 HD
BRANCH  18  20
HETATM   20  C3  UNL     1       2.378   0.095   0.762  1.00  0.00     0.310 C 
BRANCH  20  21
HETATM   21  O1  UNL     1       3.425  -0.624   1.267  1.00  0.00    -0.368 OA
ATOM     22  H1  UNL     1       4.253  -0.240   1.003  1.00  0.00     0.212 HD
ENDBRANCH  20  21
BRANCH  20  23
HETATM   23  C4  UNL     1       2.473   0.158  -0.710  1.00  0.00     0.279 C 
HETATM   24  N4  UNL     1       3.555  -0.486  -1.359  1.00  0.00    -0.058 NA
HETATM   25  O2  UNL     1       1.620   0.766  -1.401  1.00  0.00    -0.272 OA
ENDBRANCH  20  23
ENDBRANCH  18  20
ENDBRANCH   7  18
TORSDOF 4
