REMARK  1 active torsions:
REMARK  status: ('A' for Active; 'I' for Inactive)
REMARK    1  A    between atoms: O1_1  and  N1_3 
ROOT
HETATM    1  N1  UNL     1      -0.994   1.509   0.160  1.00  0.00    -0.235 N 
HETATM    2  C1  UNL     1      -2.240   1.018   0.122  1.00  0.00     0.123 A 
HETATM    3  C2  UNL     1      -2.456  -0.335  -0.011  1.00  0.00     0.021 A 
HETATM    4  C3  UNL     1      -1.378  -1.191  -0.106  1.00  0.00     0.015 A 
HETATM    5  C4  UNL     1      -0.080  -0.700  -0.069  1.00  0.00    -0.007 A 
HETATM    6  C5  UNL     1       1.016  -1.544  -0.163  1.00  0.00     0.014 A 
HETATM    7  C6  UNL     1       2.295  -1.044  -0.125  1.00  0.00     0.001 A 
HETATM    8  C7  UNL     1       2.443   0.321   0.009  1.00  0.00     0.002 A 
HETATM    9  C8  UNL     1       1.357   1.165   0.104  1.00  0.00     0.033 A 
HETATM   10  C9  UNL     1       0.054   0.666   0.066  1.00  0.00     0.072 A 
ENDROOT
BRANCH   1  11
HETATM   11  O1  UNL     1      -0.836   2.864   0.294  1.00  0.00    -0.283 OA
ATOM     12  H1  UNL     1       0.047   3.212   0.321  1.00  0.00     0.245 HD
ENDBRANCH   1  11
TORSDOF 1
