REMARK  0 active torsions:
REMARK  status: ('A' for Active; 'I' for Inactive)
ROOT
HETATM    1  C1  UNL     1      -1.123  -3.643   0.176  1.00  0.00     0.019 C 
HETATM    2  C2  UNL     1      -1.176  -2.439   0.105  1.00  0.00    -0.059 C 
HETATM    3  C3  UNL     1      -1.222  -0.989   0.023  1.00  0.00     0.097 A 
HETATM    4  N1  UNL     1      -2.393  -0.327  -0.044  1.00  0.00    -0.358 N 
ATOM      5  H1  UNL     1      -3.267  -0.852  -0.037  1.00  0.00     0.166 HD
HETATM    6  C4  UNL     1      -2.429   1.016  -0.120  1.00  0.00     0.090 A 
HETATM    7  C5  UNL     1      -1.288   1.786  -0.133  1.00  0.00     0.029 A 
HETATM    8  C6  UNL     1      -0.065   1.145  -0.066  1.00  0.00    -0.022 A 
HETATM    9  C7  UNL     1       1.102   1.883  -0.077  1.00  0.00     0.012 A 
HETATM   10  C8  UNL     1       2.299   1.201  -0.009  1.00  0.00     0.001 A 
HETATM   11  C9  UNL     1       2.290  -0.176   0.068  1.00  0.00     0.001 A 
HETATM   12  C10 UNL     1       1.126  -0.919   0.079  1.00  0.00     0.015 A 
HETATM   13  C11 UNL     1      -0.068  -0.244   0.011  1.00  0.00     0.010 A 
ENDROOT
TORSDOF 0
