REMARK  5 active torsions:
REMARK  status: ('A' for Active; 'I' for Inactive)
REMARK    1  A    between atoms: N1_2  and  C2_3 
REMARK    2  A    between atoms: N1_2  and  C14_19 
REMARK    3  A    between atoms: C2_3  and  C3_4 
REMARK    4  A    between atoms: C3_4  and  N2_5 
REMARK       I    between atoms: N2_5  and  C4_7 
REMARK    5  A    between atoms: C4_7  and  C5_9 
ROOT
HETATM    1  N2  UNL     1       0.316   0.384  -0.710  1.00  0.00    -0.359 N 
ATOM      2  H2  UNL     1      -0.467   0.953  -0.388  1.00  0.00     0.162 HD
HETATM    3  C4  UNL     1       0.079  -0.992  -0.896  1.00  0.00     0.221 C 
HETATM    4  O1  UNL     1       1.013  -1.728  -1.294  1.00  0.00    -0.273 OA
ENDROOT
BRANCH   3   5
HETATM    5  C5  UNL     1      -1.259  -1.613  -0.636  1.00  0.00     0.078 C 
HETATM    6  C6  UNL     1      -1.673  -1.357   0.796  1.00  0.00     0.015 C 
HETATM    7  C7  UNL     1      -3.166  -1.583   0.871  1.00  0.00     0.012 C 
HETATM    8  C8  UNL     1      -3.843  -0.469   0.149  1.00  0.00    -0.017 C 
HETATM    9  C9  UNL     1      -5.352  -0.596   0.137  1.00  0.00     0.038 C 
HETATM   10  C11 UNL     1      -3.672   0.799   0.964  1.00  0.00     0.177 C 
HETATM   11  C12 UNL     1      -3.282  -0.212  -1.223  1.00  0.00     0.012 C 
HETATM   12  C10 UNL     1      -5.777   0.818   0.452  1.00  0.00     0.168 C 
HETATM   13  O2  UNL     1      -4.642   1.621   0.353  1.00  0.00    -0.390 OA
HETATM   14  C13 UNL     1      -2.268  -1.218  -1.654  1.00  0.00     0.015 C 
ENDBRANCH   3   5
BRANCH   1  15
HETATM   15  C3  UNL     1       1.573   1.059  -0.936  1.00  0.00     0.142 C 
BRANCH  15  16
HETATM   16  C2  UNL     1       2.689   0.557  -0.091  1.00  0.00     0.138 C 
BRANCH  16  17
HETATM   17  N1  UNL     1       3.933   1.212  -0.288  1.00  0.00    -0.395 N 
HETATM   18  C1  UNL     1       4.030   2.560   0.136  1.00  0.00     0.145 C 
BRANCH  17  19
HETATM   19  C14 UNL     1       5.108   0.421  -0.150  1.00  0.00     0.098 C 
HETATM   20  C15 UNL     1       4.952  -0.949  -0.743  1.00  0.00     0.056 C 
HETATM   21  C16 UNL     1       5.591   0.264   1.268  1.00  0.00     0.056 C 
HETATM   22 CL1  UNL     1       6.423   1.245  -1.048  1.00  0.00    -0.097 Cl
ENDBRANCH  17  19
ENDBRANCH  16  17
ENDBRANCH  15  16
ENDBRANCH   1  15
TORSDOF 5
