REMARK  4 active torsions:
REMARK  status: ('A' for Active; 'I' for Inactive)
REMARK    1  A    between atoms: C2_2  and  C4_4 
REMARK    2  A    between atoms: C4_4  and  N1_5 
REMARK       I    between atoms: N1_5  and  C5_7 
REMARK    3  A    between atoms: C5_7  and  C6_9 
REMARK    4  A    between atoms: N3_15  and  C11_16 
ROOT
HETATM    1  C6  UNL     1      -0.219  -1.422  -1.186  1.00  0.00     0.342 C 
HETATM    2  C7  UNL     1      -0.414  -2.896  -1.148  1.00  0.00     0.317 C 
HETATM    3  N2  UNL     1      -0.725  -3.400   0.177  1.00  0.00     0.088 N 
HETATM    4  C8  UNL     1      -0.856  -4.836   0.074  1.00  0.00     0.310 C 
HETATM    5  C9  UNL     1       0.370  -3.117   1.090  1.00  0.00     0.302 C 
HETATM    6  C10 UNL     1       1.223  -1.981   0.568  1.00  0.00     0.304 C 
HETATM    7  N3  UNL     1       0.350  -0.937   0.083  1.00  0.00     0.111 N 
ENDROOT
BRANCH   1   8
HETATM    8  C5  UNL     1      -1.505  -0.734  -1.492  1.00  0.00     0.253 C 
HETATM    9  N1  UNL     1      -2.126   0.150  -0.589  1.00  0.00    -0.359 N 
ATOM     10  H1  UNL     1      -1.679   0.329   0.310  1.00  0.00     0.162 HD
HETATM   11  O1  UNL     1      -2.036  -0.969  -2.603  1.00  0.00    -0.271 OA
BRANCH   9  12
HETATM   12  C4  UNL     1      -3.383   0.818  -0.893  1.00  0.00     0.126 C 
BRANCH  12  13
HETATM   13  C2  UNL     1      -3.807   1.689   0.239  1.00  0.00    -0.005 C 
HETATM   14  C1  UNL     1      -5.135   2.351  -0.155  1.00  0.00     0.011 C 
HETATM   15  C3  UNL     1      -2.781   2.763   0.434  1.00  0.00     0.011 C 
ENDBRANCH  12  13
ENDBRANCH   9  12
ENDBRANCH   1   8
BRANCH   7  16
HETATM   16  C11 UNL     1       1.057   0.307  -0.145  1.00  0.00     0.242 C 
HETATM   17  C12 UNL     1       2.271   0.223  -0.992  1.00  0.00     0.038 C 
HETATM   18  C13 UNL     1       2.975   1.569  -0.977  1.00  0.00     0.006 C 
HETATM   19  C14 UNL     1       3.322   2.079   0.375  1.00  0.00    -0.017 C 
HETATM   20  C15 UNL     1       4.820   2.300   0.552  1.00  0.00     0.010 C 
HETATM   21  C16 UNL     1       2.798   1.156   1.431  1.00  0.00     0.026 C 
HETATM   22  C17 UNL     1       1.304   1.002   1.151  1.00  0.00     0.116 C 
HETATM   23 CL1  UNL     1       0.575   0.184   2.537  1.00  0.00    -0.123 Cl
ENDBRANCH   7  16
TORSDOF 4
