REMARK  2 active torsions:
REMARK  status: ('A' for Active; 'I' for Inactive)
REMARK    1  A    between atoms: C2_2  and  C3_3 
REMARK    2  A    between atoms: C3_3  and  N1_4 
REMARK       I    between atoms: C4_6  and  N3_8 
ROOT
HETATM    1  N1  UNL     1      -1.321   1.076  -0.323  1.00  0.00    -0.361 N 
ATOM      2  H1  UNL     1      -1.952   1.795  -0.678  1.00  0.00     0.162 HD
HETATM    3  C4  UNL     1      -0.051   1.257  -0.440  1.00  0.00     0.186 C 
HETATM    4  N2  UNL     1       0.466   2.431  -1.049  1.00  0.00    -0.064 NA
HETATM    5  N3  UNL     1       0.914   0.305   0.027  1.00  0.00    -0.356 N 
HETATM    6  C5  UNL     1       1.837   0.609   1.096  1.00  0.00     0.125 C 
HETATM    7  C6  UNL     1       2.396  -0.754   1.449  1.00  0.00     0.021 C 
HETATM    8  C7  UNL     1       2.514  -1.358   0.050  1.00  0.00     0.021 C 
HETATM    9  C8  UNL     1       1.106  -1.036  -0.470  1.00  0.00     0.125 C 
ENDROOT
BRANCH   1  10
HETATM   10  C3  UNL     1      -1.882  -0.090   0.283  1.00  0.00     0.148 C 
BRANCH  10  11
HETATM   11  C2  UNL     1      -3.270   0.160   0.760  1.00  0.00    -0.018 C 
HETATM   12  C1  UNL     1      -4.311  -0.514   0.326  1.00  0.00     0.008 C 
ENDBRANCH  10  11
ENDBRANCH   1  10
TORSDOF 2
