REMARK  4 active torsions:
REMARK  status: ('A' for Active; 'I' for Inactive)
REMARK    1  A    between atoms: N1_1  and  N2_4 
REMARK    2  A    between atoms: N2_4  and  C1_5 
REMARK    3  A    between atoms: C1_5  and  C2_6 
REMARK       I    between atoms: C2_6  and  N3_8 
REMARK    4  A    between atoms: N3_8  and  C3_10 
ROOT
HETATM    1  C2  UNL     1       1.776  -0.607   0.348  1.00  0.00     0.272 C 
HETATM    2  O1  UNL     1       1.785  -1.583   1.118  1.00  0.00    -0.266 OA
HETATM    3  N3  UNL     1       0.563   0.050   0.061  1.00  0.00    -0.351 N 
ATOM      4  H3  UNL     1       0.564   0.849  -0.573  1.00  0.00     0.163 HD
ENDROOT
BRANCH   1   5
HETATM    5  C1  UNL     1       3.006  -0.143  -0.257  1.00  0.00     0.282 C 
BRANCH   5   6
HETATM    6  N2  UNL     1       3.244  -0.238  -1.484  1.00  0.00    -0.340 NA
BRANCH   6   7
HETATM    7  N1  UNL     1       3.747  -0.626  -2.537  1.00  0.00    -0.281 N 
ATOM      8  H12 UNL     1       4.372  -1.318  -2.124  1.00  0.00     0.191 HD
ATOM      9  H11 UNL     1       3.941  -0.703  -3.535  1.00  0.00     0.191 HD
ENDBRANCH   6   7
ENDBRANCH   5   6
ENDBRANCH   1   5
BRANCH   3  10
HETATM   10  C3  UNL     1      -0.685  -0.390   0.651  1.00  0.00     0.084 C 
HETATM   11  C4  UNL     1      -1.542   0.779   1.151  1.00  0.00     0.025 C 
HETATM   12  C5  UNL     1      -2.052   0.892  -0.286  1.00  0.00     0.004 C 
HETATM   13  C6  UNL     1      -1.731  -0.600  -0.425  1.00  0.00     0.025 C 
ENDBRANCH   3  10
TORSDOF 4
