REMARK  8 active torsions:
REMARK  status: ('A' for Active; 'I' for Inactive)
REMARK    1  A    between atoms: N1_1  and  N2_4 
REMARK       I    between atoms: N2_4  and  C1_6 
REMARK    2  A    between atoms: C1_6  and  C2_8 
REMARK    3  A    between atoms: C2_8  and  N3_9 
REMARK    4  A    between atoms: C4_11  and  C5_12 
REMARK    5  A    between atoms: C9_16  and  N4_17 
REMARK       I    between atoms: N4_17  and  C10_19 
REMARK    6  A    between atoms: C10_19  and  C11_21 
REMARK       I    between atoms: C11_21  and  N5_23 
REMARK    7  A    between atoms: N5_23  and  N6_25 
REMARK       I    between atoms: N6_25  and  C12_27 
REMARK    8  A    between atoms: C12_27  and  C13_29 
ROOT
HETATM    1  C5  UNL     1       3.505  -0.407   0.672  1.00  0.00    -0.005 A 
HETATM    2  C6  UNL     1       4.049  -1.372   1.461  1.00  0.00     0.014 A 
HETATM    3  C7  UNL     1       3.310  -2.259   2.202  1.00  0.00     0.003 A 
HETATM    4  C8  UNL     1       1.947  -2.151   2.130  1.00  0.00     0.029 A 
HETATM    5  C9  UNL     1       1.325  -1.177   1.334  1.00  0.00     0.036 A 
HETATM    6  C18 UNL     1       2.106  -0.320   0.618  1.00  0.00     0.043 A 
ENDROOT
BRANCH   5   7
HETATM    7  N4  UNL     1      -0.075  -1.112   1.327  1.00  0.00    -0.319 N 
HETATM    8  C10 UNL     1      -0.870  -0.534   0.324  1.00  0.00     0.315 C 
HETATM    9  O2  UNL     1      -0.372  -0.014  -0.690  1.00  0.00    -0.262 OA
ATOM     10  H4  UNL     1      -0.561  -1.522   2.124  1.00  0.00     0.169 HD
BRANCH   8  11
HETATM   11  C11 UNL     1      -2.316  -0.535   0.459  1.00  0.00     0.328 C 
HETATM   12  O3  UNL     1      -2.840  -1.053   1.467  1.00  0.00    -0.261 OA
HETATM   13  N5  UNL     1      -3.141   0.042  -0.533  1.00  0.00    -0.259 N 
ATOM     14  H5  UNL     1      -2.698   0.463  -1.350  1.00  0.00     0.190 HD
BRANCH  13  15
HETATM   15  N6  UNL     1      -4.527   0.062  -0.446  1.00  0.00    -0.267 N 
HETATM   16  C12 UNL     1      -5.200   1.235  -0.038  1.00  0.00     0.240 C 
HETATM   17  O4  UNL     1      -4.599   2.299   0.261  1.00  0.00    -0.271 OA
ATOM     18  H6  UNL     1      -5.062  -0.775  -0.678  1.00  0.00     0.190 HD
BRANCH  16  19
HETATM   19  C13 UNL     1      -6.700   1.262   0.060  1.00  0.00     0.079 C 
HETATM   20  C14 UNL     1      -7.345   0.942  -1.244  1.00  0.00     0.014 C 
HETATM   21  C15 UNL     1      -8.703   0.404  -0.828  1.00  0.00     0.001 C 
HETATM   22  C16 UNL     1      -8.392  -0.433   0.415  1.00  0.00     0.001 C 
HETATM   23  C17 UNL     1      -7.095   0.113   0.958  1.00  0.00     0.014 C 
ENDBRANCH  16  19
ENDBRANCH  13  15
ENDBRANCH   8  11
ENDBRANCH   5   7
BRANCH   1  24
HETATM   24  C4  UNL     1       4.327   0.514  -0.102  1.00  0.00     0.073 A 
HETATM   25  C3  UNL     1       5.704   0.511  -0.146  1.00  0.00     0.139 A 
HETATM   26  N3  UNL     1       6.066   1.510  -0.973  1.00  0.00    -0.276 N 
HETATM   27  N8  UNL     1       4.956   2.095  -1.414  1.00  0.00    -0.020 NA
HETATM   28  N7  UNL     1       3.895   1.503  -0.895  1.00  0.00    -0.282 N 
ATOM     29  H7  UNL     1       2.922   1.754  -1.067  1.00  0.00     0.184 HD
BRANCH  26  30
HETATM   30  C2  UNL     1       7.441   1.850  -1.302  1.00  0.00     0.250 C 
BRANCH  30  31
HETATM   31  C1  UNL     1       7.880   1.102  -2.495  1.00  0.00     0.255 C 
HETATM   32  N2  UNL     1       8.465  -0.164  -2.354  1.00  0.00    -0.275 N 
ATOM     33  H2  UNL     1       8.588  -0.570  -1.426  1.00  0.00     0.189 HD
HETATM   34  O1  UNL     1       7.724   1.606  -3.624  1.00  0.00    -0.270 OA
BRANCH  32  35
HETATM   35  N1  UNL     1       8.883  -0.874  -3.496  1.00  0.00    -0.343 N 
ATOM     36  H12 UNL     1       8.753  -0.454  -4.416  1.00  0.00     0.176 HD
ATOM     37  H11 UNL     1       9.309  -1.795  -3.393  1.00  0.00     0.176 HD
ENDBRANCH  32  35
ENDBRANCH  30  31
ENDBRANCH  26  30
ENDBRANCH   1  24
TORSDOF 8
