REMARK  9 active torsions:
REMARK  status: ('A' for Active; 'I' for Inactive)
REMARK    1  A    between atoms: C2_2  and  C3_3 
REMARK    2  A    between atoms: C3_3  and  O1_4 
REMARK    3  A    between atoms: C3_3  and  C4_6 
REMARK    4  A    between atoms: C4_6  and  C5_7 
REMARK    5  A    between atoms: C5_7  and  C6_9 
REMARK    6  A    between atoms: C6_9  and  C7_10 
REMARK    7  A    between atoms: C6_9  and  C8_13 
REMARK    8  A    between atoms: C13_19  and  O6_20 
REMARK    9  A    between atoms: C14_22  and  C15_23 
ROOT
HETATM    1  C8  UNL     1      -0.375   0.597  -0.705  1.00  0.00     0.182 C 
HETATM    2  O5  UNL     1      -0.784  -0.655  -1.068  1.00  0.00    -0.370 OA
HETATM    3  C9  UNL     1      -1.798  -1.191  -0.310  1.00  0.00     0.061 C 
HETATM    4  C10 UNL     1      -1.773  -2.663  -0.711  1.00  0.00     0.046 C 
HETATM    5  C11 UNL     1      -1.583  -1.165   1.164  1.00  0.00     0.041 C 
HETATM    6  C12 UNL     1      -0.681  -0.122   1.689  1.00  0.00     0.047 C 
HETATM    7  C13 UNL     1      -0.588   1.020   0.686  1.00  0.00     0.129 C 
HETATM    8  C14 UNL     1      -1.790   1.875   0.955  1.00  0.00     0.208 A 
HETATM    9  O9  UNL     1      -2.298   2.408  -0.334  1.00  0.00    -0.355 OA
HETATM   10  C16 UNL     1      -3.062   1.582   0.647  1.00  0.00     0.172 A 
HETATM   11  C17 UNL     1      -3.716   0.470   0.007  1.00  0.00     0.043 C 
HETATM   12  C18 UNL     1      -3.103  -0.637  -0.695  1.00  0.00     0.018 C 
HETATM   13  C19 UNL     1      -4.104  -1.811  -0.789  1.00  0.00     0.013 C 
ENDROOT
BRANCH   1  14
HETATM   14  C6  UNL     1       0.879   1.024  -1.423  1.00  0.00     0.188 C 
BRANCH  14  15
HETATM   15  C5  UNL     1       2.062   0.198  -1.296  1.00  0.00     0.146 C 
HETATM   16  O2  UNL     1       2.491  -0.358  -2.335  1.00  0.00    -0.297 OA
BRANCH  15  17
HETATM   17  C4  UNL     1       2.798  -0.043  -0.052  1.00  0.00     0.111 C 
BRANCH  17  18
HETATM   18  C3  UNL     1       4.010  -0.940  -0.338  1.00  0.00     0.124 C 
BRANCH  18  19
HETATM   19  C2  UNL     1       4.770  -1.191   0.933  1.00  0.00     0.027 C 
HETATM   20  C1  UNL     1       5.359   0.053   1.525  1.00  0.00     0.007 C 
ENDBRANCH  18  19
BRANCH  18  21
HETATM   21  O1  UNL     1       4.828  -0.391  -1.301  1.00  0.00    -0.395 OA
ATOM     22  H1  UNL     1       4.347  -0.232  -2.105  1.00  0.00     0.210 HD
ENDBRANCH  18  21
ENDBRANCH  17  18
ENDBRANCH  15  17
ENDBRANCH  14  15
BRANCH  14  23
HETATM   23  C7  UNL     1       0.520   1.084  -2.888  1.00  0.00     0.187 C 
HETATM   24  O3  UNL     1       0.490   2.174  -3.464  1.00  0.00    -0.647 OA
HETATM   25  O4  UNL     1       0.234  -0.083  -3.547  1.00  0.00    -0.647 OA
ENDBRANCH  14  23
ENDBRANCH   1  14
BRANCH   7  26
HETATM   26  O6  UNL     1       0.575   1.715   1.072  1.00  0.00    -0.383 OA
ATOM     27  H6  UNL     1       0.437   1.988   1.971  1.00  0.00     0.210 HD
ENDBRANCH   7  26
BRANCH   8  28
HETATM   28  C15 UNL     1      -1.471   2.968   1.919  1.00  0.00     0.215 C 
HETATM   29  O7  UNL     1      -1.639   4.172   1.606  1.00  0.00    -0.646 OA
HETATM   30  O8  UNL     1      -0.990   2.682   3.163  1.00  0.00    -0.646 OA
ENDBRANCH   8  28
TORSDOF 9
