REMARK  7 active torsions:
REMARK  status: ('A' for Active; 'I' for Inactive)
REMARK    1  A    between atoms: N1_1  and  C1_4 
REMARK    2  A    between atoms: C3_8  and  C4_9 
REMARK    3  A    between atoms: N3_10  and  N4_12 
REMARK       I    between atoms: N4_12  and  C5_14 
REMARK    4  A    between atoms: C5_14  and  C6_16 
REMARK       I    between atoms: C6_16  and  N5_18 
REMARK       I    between atoms: N5_18  and  C7_20 
REMARK    5  A    between atoms: C7_20  and  C8_22 
REMARK    6  A    between atoms: C11_25  and  N6_26 
REMARK    7  A    between atoms: C15_32  and  C16_33 
ROOT
HETATM    1  N4  UNL     1       0.647   0.267  -2.068  1.00  0.00    -0.262 N 
ATOM      2  H4  UNL     1       0.256  -0.647  -1.840  1.00  0.00     0.190 HD
HETATM    3  C5  UNL     1      -0.124   1.468  -1.825  1.00  0.00     0.328 C 
HETATM    4  O1  UNL     1       0.342   2.585  -2.098  1.00  0.00    -0.261 OA
ENDROOT
BRANCH   1   5
HETATM    5  N3  UNL     1       1.872   0.360  -2.592  1.00  0.00    -0.308 N 
HETATM    6  C4  UNL     1       3.018   0.210  -2.188  1.00  0.00     0.120 C 
ATOM      7  H3  UNL     1       1.846   0.622  -3.577  1.00  0.00     0.186 HD
BRANCH   6   8
HETATM    8  C3  UNL     1       3.457  -0.156  -0.862  1.00  0.00    -0.003 A 
HETATM    9  C2  UNL     1       2.622  -0.401   0.185  1.00  0.00     0.102 A 
HETATM   10  N2  UNL     1       3.118  -0.742   1.409  1.00  0.00    -0.351 N 
HETATM   11  C1  UNL     1       4.437  -0.849   1.626  1.00  0.00     0.116 A 
ATOM     12  H2  UNL     1       2.471  -0.920   2.177  1.00  0.00     0.166 HD
HETATM   13  C15 UNL     1       5.308  -0.605   0.578  1.00  0.00     0.085 A 
HETATM   14  C14 UNL     1       4.830  -0.264  -0.649  1.00  0.00     0.036 A 
BRANCH  11  15
HETATM   15  N1  UNL     1       4.956  -1.168   2.763  1.00  0.00    -0.385 N 
ATOM     16  H12 UNL     1       4.314  -1.348   3.535  1.00  0.00     0.157 HD
ATOM     17  H11 UNL     1       5.959  -1.249   2.928  1.00  0.00     0.157 HD
ENDBRANCH  11  15
BRANCH  13  18
HETATM   18  C16 UNL     1       6.730  -0.716   0.793  1.00  0.00     0.213 C 
HETATM   19  O6  UNL     1       7.522  -0.498  -0.143  1.00  0.00    -0.644 OA
HETATM   20  O7  UNL     1       7.216  -1.060   2.032  1.00  0.00    -0.644 OA
ENDBRANCH  13  18
ENDBRANCH   6   8
ENDBRANCH   1   5
BRANCH   3  21
HETATM   21  C6  UNL     1      -1.444   1.335  -1.257  1.00  0.00     0.317 C 
HETATM   22  O2  UNL     1      -1.892   0.202  -0.990  1.00  0.00    -0.262 OA
HETATM   23  N5  UNL     1      -2.218   2.495  -1.010  1.00  0.00    -0.285 N 
HETATM   24  C7  UNL     1      -3.525   2.449  -0.454  1.00  0.00     0.258 C 
ATOM     25  H5  UNL     1      -1.819   3.405  -1.242  1.00  0.00     0.172 HD
HETATM   26  O3  UNL     1      -4.170   3.535  -0.256  1.00  0.00    -0.267 OA
BRANCH  24  27
HETATM   27  C8  UNL     1      -4.184   1.194  -0.090  1.00  0.00     0.032 A 
HETATM   28  C9  UNL     1      -4.008   0.707   1.210  1.00  0.00     0.019 A 
HETATM   29  C10 UNL     1      -4.632  -0.473   1.550  1.00  0.00     0.037 A 
HETATM   30  C11 UNL     1      -5.413  -1.178   0.661  1.00  0.00     0.102 A 
HETATM   31  C12 UNL     1      -5.592  -0.698  -0.636  1.00  0.00     0.037 A 
HETATM   32  C13 UNL     1      -4.972   0.482  -0.986  1.00  0.00     0.019 A 
BRANCH  30  33
HETATM   33  N6  UNL     1      -6.046  -2.394   1.036  1.00  0.00    -0.116 N 
HETATM   34  O4  UNL     1      -5.884  -2.819   2.194  1.00  0.00    -0.532 OA
HETATM   35  O5  UNL     1      -6.826  -3.110   0.167  1.00  0.00    -0.532 OA
ENDBRANCH  30  33
ENDBRANCH  24  27
ENDBRANCH   3  21
TORSDOF 7
