REMARK  10 active torsions:
REMARK  status: ('A' for Active; 'I' for Inactive)
REMARK    1  A    between atoms: C2_2  and  O1_3 
REMARK    2  A    between atoms: C2_2  and  C3_5 
REMARK    3  A    between atoms: C7_9  and  O2_10 
REMARK    4  A    between atoms: C18_22  and  O3_23 
REMARK    5  A    between atoms: C18_22  and  C19_25 
REMARK    6  A    between atoms: C19_25  and  O4_26 
REMARK    7  A    between atoms: C19_25  and  C20_28 
REMARK    8  A    between atoms: C20_28  and  O5_29 
REMARK    9  A    between atoms: C20_28  and  C21_31 
REMARK   10  A    between atoms: C21_31  and  O6_32 
ROOT
HETATM    1  C3  UNL     1      -5.239   0.364  -0.577  1.00  0.00     0.023 C 
HETATM    2  C4  UNL     1      -4.675  -0.908  -1.259  1.00  0.00     0.014 C 
HETATM    3  C5  UNL     1      -3.614  -0.792  -0.298  1.00  0.00     0.002 C 
HETATM    4  C6  UNL     1      -2.269  -1.330  -0.305  1.00  0.00     0.028 C 
HETATM    5  C7  UNL     1      -1.491  -1.467  -1.546  1.00  0.00     0.123 C 
HETATM    6  C8  UNL     1      -0.182  -0.730  -1.569  1.00  0.00     0.037 C 
HETATM    7  C9  UNL     1       0.695  -1.032  -0.365  1.00  0.00    -0.003 C 
HETATM    8  C10 UNL     1      -0.076  -0.918   0.875  1.00  0.00    -0.001 C 
HETATM    9  C11 UNL     1       0.598   0.169   1.729  1.00  0.00     0.007 C 
HETATM   10  C12 UNL     1       2.014  -0.365   1.894  1.00  0.00     0.013 C 
HETATM   11  C13 UNL     1       2.764   0.113   0.634  1.00  0.00    -0.006 C 
HETATM   12  C14 UNL     1       2.812   1.593   0.781  1.00  0.00     0.019 C 
HETATM   13  C15 UNL     1       1.933  -0.242  -0.548  1.00  0.00     0.001 C 
HETATM   14  C16 UNL     1       2.849  -1.067  -1.471  1.00  0.00     0.009 C 
HETATM   15  C17 UNL     1       3.901  -1.651  -0.544  1.00  0.00     0.042 C 
HETATM   16  C18 UNL     1       4.092  -0.572   0.514  1.00  0.00     0.094 C 
HETATM   17  C22 UNL     1      -1.516  -0.636   0.844  1.00  0.00    -0.034 C 
HETATM   18  C23 UNL     1      -2.076  -1.228   2.159  1.00  0.00     0.016 C 
HETATM   19  C24 UNL     1      -1.792   0.818   0.944  1.00  0.00     0.011 C 
HETATM   20  C25 UNL     1      -3.279   1.195   0.927  1.00  0.00     0.011 C 
HETATM   21  C26 UNL     1      -3.802   0.693  -0.347  1.00  0.00    -0.034 C 
HETATM   22  C27 UNL     1      -3.310   1.506  -1.495  1.00  0.00     0.016 C 
ENDROOT
BRANCH  16  23
HETATM   23  O3  UNL     1       4.267  -1.226   1.740  1.00  0.00    -0.386 OA
ATOM     24  H3  UNL     1       5.109  -1.660   1.664  1.00  0.00     0.210 HD
ENDBRANCH  16  23
BRANCH  16  25
HETATM   25  C19 UNL     1       5.310   0.222   0.303  1.00  0.00     0.184 C 
BRANCH  25  26
HETATM   26  O4  UNL     1       6.386  -0.750   0.379  1.00  0.00    -0.390 OA
ATOM     27  H4  UNL     1       7.174  -0.237   0.243  1.00  0.00     0.210 HD
ENDBRANCH  25  26
BRANCH  25  28
HETATM   28  C20 UNL     1       5.581   0.793  -1.050  1.00  0.00     0.173 C 
BRANCH  28  29
HETATM   29  O5  UNL     1       4.816   1.769  -1.554  1.00  0.00    -0.391 OA
ATOM     30  H5  UNL     1       4.988   2.132  -2.415  1.00  0.00     0.210 HD
ENDBRANCH  28  29
BRANCH  28  31
HETATM   31  C21 UNL     1       7.027   1.320  -1.003  1.00  0.00     0.198 C 
BRANCH  31  32
HETATM   32  O6  UNL     1       7.122   2.449  -0.204  1.00  0.00    -0.398 OA
ATOM     33  H6  UNL     1       8.014   2.774  -0.175  1.00  0.00     0.209 HD
ENDBRANCH  31  32
ENDBRANCH  28  31
ENDBRANCH  25  28
ENDBRANCH  16  25
BRANCH   5  34
HETATM   34  O2  UNL     1      -2.158  -1.085  -2.721  1.00  0.00    -0.395 OA
ATOM     35  H2  UNL     1      -1.656  -1.173  -3.522  1.00  0.00     0.210 HD
ENDBRANCH   5  34
BRANCH   1  36
HETATM   36  C2  UNL     1      -6.151   0.157   0.560  1.00  0.00     0.118 C 
HETATM   37  C1  UNL     1      -6.578   1.546   1.065  1.00  0.00     0.040 C 
BRANCH  36  38
HETATM   38  O1  UNL     1      -7.294  -0.511   0.078  1.00  0.00    -0.396 OA
ATOM     39  H1  UNL     1      -7.030  -1.369  -0.234  1.00  0.00     0.210 HD
ENDBRANCH  36  38
ENDBRANCH   1  36
TORSDOF 10
