REMARK  8 active torsions:
REMARK  status: ('A' for Active; 'I' for Inactive)
REMARK    1  A    between atoms: C2_2  and  O1_3 
REMARK    2  A    between atoms: O1_3  and  C3_4 
REMARK    3  A    between atoms: C3_4  and  O3_6 
REMARK    4  A    between atoms: O3_6  and  C4_7 
REMARK    5  A    between atoms: C6_10  and  O5_12 
REMARK    6  A    between atoms: C8_14  and  O6_15 
REMARK    7  A    between atoms: C9_17  and  O7_18 
REMARK    8  A    between atoms: C10_20  and  O8_21 
ROOT
HETATM    1  C4  UNL     1       0.034  -0.145  -0.083  1.00  0.00     0.302 C 
HETATM    2  O4  UNL     1      -0.653   0.973   0.115  1.00  0.00    -0.355 OA
HETATM    3  C5  UNL     1      -1.585   1.113   1.140  1.00  0.00     0.211 C 
HETATM    4  C6  UNL     1      -2.949   0.539   0.601  1.00  0.00     0.104 C 
HETATM    5  C7  UNL     1      -3.729   1.753   0.055  1.00  0.00     0.051 C 
HETATM    6  C8  UNL     1      -2.652  -0.507  -0.319  1.00  0.00     0.185 C 
HETATM    7  C9  UNL     1      -1.948  -1.412  -1.151  1.00  0.00     0.183 C 
HETATM    8  C10 UNL     1      -0.418  -1.209  -1.042  1.00  0.00     0.205 C 
ENDROOT
BRANCH   1   9
HETATM    9  O3  UNL     1       1.307   0.262  -0.576  1.00  0.00    -0.264 OA
BRANCH   9  10
HETATM   10  C3  UNL     1       2.457   0.091   0.131  1.00  0.00     0.408 C 
HETATM   11  O2  UNL     1       2.390  -0.456   1.281  1.00  0.00    -0.229 OA
BRANCH  10  12
HETATM   12  O1  UNL     1       3.717   0.471  -0.309  1.00  0.00    -0.298 OA
BRANCH  12  13
HETATM   13  C2  UNL     1       4.831   0.239   0.516  1.00  0.00     0.176 C 
HETATM   14  C1  UNL     1       6.118   0.703  -0.095  1.00  0.00     0.034 C 
ENDBRANCH  12  13
ENDBRANCH  10  12
ENDBRANCH   9  10
ENDBRANCH   1   9
BRANCH   8  15
HETATM   15  O8  UNL     1       0.099  -0.946  -2.309  1.00  0.00    -0.388 OA
ATOM     16  H8  UNL     1      -0.187  -1.619  -2.916  1.00  0.00     0.210 HD
ENDBRANCH   8  15
BRANCH   7  17
HETATM   17  O7  UNL     1      -2.202  -2.796  -0.938  1.00  0.00    -0.390 OA
ATOM     18  H7  UNL     1      -1.730  -3.403  -1.496  1.00  0.00     0.210 HD
ENDBRANCH   7  17
BRANCH   4  19
HETATM   19  O5  UNL     1      -3.681   0.220   1.748  1.00  0.00    -0.385 OA
ATOM     20  H5  UNL     1      -4.504  -0.126   1.423  1.00  0.00     0.210 HD
ENDBRANCH   4  19
BRANCH   6  21
HETATM   21  O6  UNL     1      -2.053  -1.196   0.781  1.00  0.00    -0.390 OA
ATOM     22  H6  UNL     1      -1.855  -1.894   0.167  1.00  0.00     0.210 HD
ENDBRANCH   6  21
TORSDOF 8
