REMARK  4 active torsions:
REMARK  status: ('A' for Active; 'I' for Inactive)
REMARK    1  A    between atoms: C1_2  and  C2_4 
REMARK    2  A    between atoms: C2_4  and  N2_5 
REMARK    3  A    between atoms: C2_4  and  C3_9 
REMARK    4  A    between atoms: C6_12  and  C7_13 
ROOT
HETATM    1  C3  UNL     1      -2.037   0.920  -0.126  1.00  0.00    -0.019 A 
HETATM    2  C4  UNL     1      -1.268   0.240   0.773  1.00  0.00     0.011 A 
HETATM    3  C5  UNL     1       0.090  -0.030   0.561  1.00  0.00     0.016 A 
HETATM    4  C6  UNL     1       0.720   0.380  -0.573  1.00  0.00     0.011 A 
HETATM    5  C12 UNL     1      -0.063   1.080  -1.504  1.00  0.00     0.016 A 
HETATM    6  C13 UNL     1      -1.390   1.342  -1.293  1.00  0.00     0.011 A 
ENDROOT
BRANCH   4   7
HETATM    7  C7  UNL     1       2.133   0.136  -0.866  1.00  0.00     0.154 A 
HETATM    8  N3  UNL     1       2.749   0.557  -2.014  1.00  0.00    -0.282 N 
HETATM    9  N4  UNL     1       4.008   0.193  -1.990  1.00  0.00    -0.282 N 
ATOM     10  H3  UNL     1       2.299   1.073  -2.770  1.00  0.00     0.188 HD
HETATM   11  C8  UNL     1       4.271  -0.468  -0.853  1.00  0.00     0.143 A 
ATOM     12  H4  UNL     1       4.687   0.384  -2.727  1.00  0.00     0.188 HD
HETATM   13  C9  UNL     1       5.426  -1.053  -0.346  1.00  0.00     0.053 A 
HETATM   14  N6  UNL     1       3.087  -0.490  -0.171  1.00  0.00    -0.221 N 
HETATM   15  C10 UNL     1       5.331  -1.661   0.881  1.00  0.00     0.022 A 
HETATM   16  C11 UNL     1       4.114  -1.654   1.526  1.00  0.00     0.108 A 
HETATM   17  N5  UNL     1       3.024  -1.084   1.013  1.00  0.00    -0.302 N 
ATOM     18  H5  UNL     1       2.144  -1.105   1.529  1.00  0.00     0.186 HD
ENDBRANCH   4   7
BRANCH   1  19
HETATM   19  C2  UNL     1      -3.480   1.224   0.071  1.00  0.00     0.304 C 
BRANCH  19  20
HETATM   20  C1  UNL     1      -4.107   0.483   1.178  1.00  0.00     0.266 C 
HETATM   21  N1  UNL     1      -5.077  -0.529   0.834  1.00  0.00    -0.060 NA
HETATM   22  O1  UNL     1      -3.848   0.680   2.400  1.00  0.00    -0.274 OA
ENDBRANCH  19  20
BRANCH  19  23
HETATM   23  N2  UNL     1      -4.137   0.867  -1.185  1.00  0.00    -0.063 N 
ATOM     24  H23 UNL     1      -4.139  -0.140  -1.347  1.00  0.00     0.275 HD
ATOM     25  H22 UNL     1      -5.146   1.010  -1.147  1.00  0.00     0.275 HD
ATOM     26  H21 UNL     1      -3.703   1.380  -1.952  1.00  0.00     0.275 HD
ENDBRANCH  19  23
ENDBRANCH   1  19
TORSDOF 4
