REMARK  3 active torsions:
REMARK  status: ('A' for Active; 'I' for Inactive)
REMARK    1  A    between atoms: C3_5  and  N2_6 
REMARK    2  A    between atoms: C9_13  and  N3_14 
REMARK    3  A    between atoms: N3_14  and  N4_16 
ROOT
HETATM    1  C1  UNL     1       0.599  -0.784   1.651  1.00  0.00     0.118 A 
HETATM    2  N1  UNL     1      -0.477  -1.265   2.310  1.00  0.00    -0.371 N 
ATOM      3  H1  UNL     1      -0.339  -1.758   3.192  1.00  0.00     0.164 HD
HETATM    4  C2  UNL     1      -1.743  -1.110   1.828  1.00  0.00     0.117 A 
HETATM    5  C3  UNL     1      -1.956  -0.450   0.642  1.00  0.00     0.048 A 
HETATM    6  C8  UNL     1      -0.844   0.032  -0.013  1.00  0.00     0.063 A 
HETATM    7  C9  UNL     1       0.445  -0.114   0.456  1.00  0.00     0.066 A 
ENDROOT
BRANCH   7   8
HETATM    8  N3  UNL     1       1.557   0.405  -0.264  1.00  0.00    -0.294 N 
ATOM      9  H3  UNL     1       1.370   0.890  -1.141  1.00  0.00     0.187 HD
BRANCH   8  10
HETATM   10  N4  UNL     1       2.857   0.298   0.139  1.00  0.00    -0.283 N 
HETATM   11  C10 UNL     1       3.530  -0.886  -0.187  1.00  0.00     0.115 C 
HETATM   12  C11 UNL     1       5.009  -0.827  -0.158  1.00  0.00     0.279 C 
HETATM   13  N5  UNL     1       5.563   0.486  -0.431  1.00  0.00    -0.066 N 
HETATM   14  C12 UNL     1       5.002   1.358   0.614  1.00  0.00     0.279 C 
ATOM     15  H52 UNL     1       6.582   0.503  -0.481  1.00  0.00     0.277 HD
ATOM     16  H51 UNL     1       5.394   0.817  -1.381  1.00  0.00     0.277 HD
HETATM   17  C13 UNL     1       3.553   1.498   0.341  1.00  0.00     0.115 C 
ENDBRANCH   8  10
ENDBRANCH   7   8
BRANCH   5  18
HETATM   18  N2  UNL     1      -3.274  -0.272   0.119  1.00  0.00    -0.376 N 
HETATM   19  C4  UNL     1      -4.473  -0.670   0.791  1.00  0.00     0.149 C 
HETATM   20  C5  UNL     1      -5.529   0.394   0.454  1.00  0.00     0.187 C 
HETATM   21  O1  UNL     1      -5.817   0.411  -0.894  1.00  0.00    -0.388 OA
HETATM   22  C6  UNL     1      -4.793  -0.009  -1.706  1.00  0.00     0.187 C 
HETATM   23  C7  UNL     1      -3.410   0.350  -1.183  1.00  0.00     0.149 C 
ENDBRANCH   5  18
TORSDOF 3
