REMARK  13 active torsions:
REMARK  status: ('A' for Active; 'I' for Inactive)
REMARK    1  A    between atoms: N1_2  and  C3_4 
REMARK    2  A    between atoms: C3_4  and  C4_5 
REMARK    3  A    between atoms: C5_8  and  N3_9 
REMARK    4  A    between atoms: C7_12  and  C8_13 
REMARK    5  A    between atoms: C8_13  and  O1_14 
REMARK    6  A    between atoms: C9_16  and  C10_17 
REMARK    7  A    between atoms: C10_17  and  N4_18 
REMARK    8  A    between atoms: C10_17  and  O2_22 
REMARK    9  A    between atoms: C12_29  and  C13_30 
REMARK   10  A    between atoms: C13_30  and  N8_32 
REMARK   11  A    between atoms: N8_32  and  O4_34 
REMARK   12  A    between atoms: N9_36  and  N10_37 
REMARK   13  A    between atoms: C15_44  and  O6_45 
ROOT
HETATM    1  N3  UNL     1       0.556   0.155  -1.864  1.00  0.00    -0.174 N 
ATOM      2  H3  UNL     1       0.986   0.606  -2.671  1.00  0.00     0.186 HD
HETATM    3  C6  UNL     1      -0.643   0.467  -1.595  1.00  0.00     0.157 A 
HETATM    4  C7  UNL     1      -1.344   1.411  -2.398  1.00  0.00     0.046 A 
HETATM    5  C9  UNL     1      -2.621   1.698  -2.048  1.00  0.00     0.124 A 
HETATM    6  O3  UNL     1      -3.210   1.115  -0.993  1.00  0.00    -0.276 OA
HETATM    7  C11 UNL     1      -2.575   0.267  -0.279  1.00  0.00     0.276 A 
HETATM    8  N5  UNL     1      -1.309  -0.059  -0.566  1.00  0.00    -0.198 N 
HETATM    9  N6  UNL     1      -0.925  -0.965   0.359  1.00  0.00    -0.270 N 
ATOM     10  H6  UNL     1      -0.008  -1.408   0.410  1.00  0.00     0.189 HD
HETATM   11  C12 UNL     1      -1.945  -1.187   1.199  1.00  0.00     0.189 A 
HETATM   12  N9  UNL     1      -2.986  -0.434   0.826  1.00  0.00    -0.202 N 
ENDROOT
BRANCH   1  13
HETATM   13  C5  UNL     1       1.344  -0.763  -1.141  1.00  0.00     0.687 A 
HETATM   14  N2  UNL     1       2.106  -0.339  -0.100  1.00  0.00    -0.191 N 
HETATM   15  C4  UNL     1       2.863  -1.203   0.591  1.00  0.00     0.093 A 
ATOM     16  H2  UNL     1       2.102   0.648   0.159  1.00  0.00     0.184 HD
HETATM   17  C15 UNL     1       2.860  -2.547   0.229  1.00  0.00     0.160 A 
HETATM   18  C14 UNL     1       2.082  -2.977  -0.832  1.00  0.00     0.294 A 
HETATM   19  N11 UNL     1       1.346  -2.070  -1.487  1.00  0.00    -0.153 N 
HETATM   20  O5  UNL     1       2.071  -4.186  -1.167  1.00  0.00    -0.265 OA
ATOM     21  H11 UNL     1       0.769  -2.375  -2.271  1.00  0.00     0.187 HD
BRANCH  15  22
HETATM   22  C3  UNL     1       3.720  -0.812   1.739  1.00  0.00     0.332 C 
BRANCH  22  23
HETATM   23  N1  UNL     1       3.629   0.616   2.008  1.00  0.00     0.085 N 
HETATM   24  C1  UNL     1       4.497   0.870   3.143  1.00  0.00     0.309 C 
HETATM   25  C2  UNL     1       4.135   1.396   0.897  1.00  0.00     0.309 C 
ENDBRANCH  22  23
ENDBRANCH  15  22
BRANCH  17  26
HETATM   26  O6  UNL     1       3.639  -3.458   0.936  1.00  0.00    -0.354 OA
ATOM     27  H6  UNL     1       3.637  -4.375   0.689  1.00  0.00     0.218 HD
ENDBRANCH  17  26
ENDBRANCH   1  13
BRANCH   4  28
HETATM   28  C8  UNL     1      -0.565   1.887  -3.549  1.00  0.00     0.209 C 
BRANCH  28  29
HETATM   29  O1  UNL     1      -1.110   2.743  -4.441  1.00  0.00    -0.396 OA
ATOM     30  H1  UNL     1      -0.606   3.051  -5.185  1.00  0.00     0.209 HD
ENDBRANCH  28  29
ENDBRANCH   4  28
BRANCH   5  31
HETATM   31  C10 UNL     1      -3.439   2.692  -2.809  1.00  0.00     0.375 C 
BRANCH  31  32
HETATM   32  N4  UNL     1      -2.853   3.982  -2.953  1.00  0.00    -0.047 N 
ATOM     33  H43 UNL     1      -2.607   4.359  -2.038  1.00  0.00     0.277 HD
ATOM     34  H42 UNL     1      -1.925   3.900  -3.369  1.00  0.00     0.277 HD
ATOM     35  H41 UNL     1      -3.411   4.660  -3.472  1.00  0.00     0.277 HD
ENDBRANCH  31  32
BRANCH  31  36
HETATM   36  O2  UNL     1      -4.665   2.865  -2.178  1.00  0.00    -0.365 OA
ATOM     37  H2  UNL     1      -5.185   3.496  -2.661  1.00  0.00     0.212 HD
ENDBRANCH  31  36
ENDBRANCH   5  31
BRANCH  12  38
HETATM   38  N10 UNL     1      -4.247  -0.369   1.438  1.00  0.00    -0.334 N 
ATOM     39 2H10 UNL     1      -5.041   0.205   1.154  1.00  0.00     0.177 HD
ATOM     40 1H10 UNL     1      -4.553  -0.890   2.260  1.00  0.00     0.177 HD
ENDBRANCH  12  38
BRANCH  11  41
HETATM   41  C13 UNL     1      -1.980  -2.097   2.359  1.00  0.00     0.183 C 
HETATM   42  N7  UNL     1      -3.131  -2.235   3.165  1.00  0.00    -0.077 NA
BRANCH  41  43
HETATM   43  N8  UNL     1      -0.932  -2.798   2.662  1.00  0.00    -0.252 N 
ATOM     44  H8  UNL     1      -0.094  -2.707   2.087  1.00  0.00     0.195 HD
BRANCH  43  45
HETATM   45  O4  UNL     1      -0.914  -3.659   3.732  1.00  0.00    -0.288 OA
ATOM     46  H4  UNL     1      -0.146  -4.173   3.954  1.00  0.00     0.244 HD
ENDBRANCH  43  45
ENDBRANCH  41  43
ENDBRANCH  11  41
TORSDOF 13
