REMARK  10 active torsions:
REMARK  status: ('A' for Active; 'I' for Inactive)
REMARK       I    between atoms: C2_2  and  N1_4 
REMARK    1  A    between atoms: N1_4  and  C3_6 
REMARK    2  A    between atoms: C3_6  and  O2_7 
REMARK    3  A    between atoms: C3_6  and  C4_9 
REMARK    4  A    between atoms: N3_12  and  C6_13 
REMARK    5  A    between atoms: C6_13  and  C7_14 
REMARK    6  A    between atoms: C7_14  and  C9_21 
REMARK    7  A    between atoms: N4_15  and  O3_17 
REMARK    8  A    between atoms: O3_17  and  C8_18 
REMARK    9  A    between atoms: C13_32  and  N9_33 
REMARK   10  A    between atoms: C14_38  and  N11_39 
ROOT
HETATM    1  C4  UNL     1       1.830  -0.351  -0.638  1.00  0.00     0.142 A 
HETATM    2  C5  UNL     1       0.512  -0.398  -1.145  1.00  0.00     0.163 A 
HETATM    3  N2  UNL     1       0.156   0.264  -2.348  1.00  0.00    -0.080 NA
HETATM    4  N3  UNL     1      -0.289  -1.107  -0.372  1.00  0.00    -0.161 N 
HETATM    5  C12 UNL     1       0.483  -1.548   0.662  1.00  0.00     0.722 A 
HETATM    6  N8  UNL     1       0.112  -2.339   1.702  1.00  0.00    -0.021 N 
ATOM      7  H8  UNL     1      -0.853  -2.657   1.793  1.00  0.00     0.203 HD
HETATM    8  C13 UNL     1       1.022  -2.689   2.594  1.00  0.00     0.705 A 
HETATM    9  N10 UNL     1       2.282  -2.260   2.452  1.00  0.00    -0.021 N 
ATOM     10  H10 UNL     1       2.985  -2.531   3.139  1.00  0.00     0.203 HD
HETATM   11  C14 UNL     1       2.638  -1.470   1.408  1.00  0.00     0.712 A 
HETATM   12  N12 UNL     1       1.740  -1.100   0.500  1.00  0.00     0.028 N 
ENDROOT
BRANCH   4  13
HETATM   13  C6  UNL     1      -1.722  -1.395  -0.541  1.00  0.00     0.210 C 
BRANCH  13  14
HETATM   14  C7  UNL     1      -2.554  -0.379   0.106  1.00  0.00     0.082 C 
HETATM   15  N4  UNL     1      -1.908   0.605   0.691  1.00  0.00    -0.257 N 
ATOM     16  H4  UNL     1      -0.888   0.619   0.671  1.00  0.00     0.195 HD
BRANCH  15  17
HETATM   17  O3  UNL     1      -2.585   1.613   1.328  1.00  0.00    -0.183 OA
BRANCH  17  18
HETATM   18  C8  UNL     1      -2.492   2.886   0.755  1.00  0.00     0.394 C 
HETATM   19  N5  UNL     1      -3.166   3.976   1.360  1.00  0.00    -0.031 NA
HETATM   20  O4  UNL     1      -1.824   3.082  -0.284  1.00  0.00    -0.240 OA
ENDBRANCH  17  18
ENDBRANCH  15  17
BRANCH  14  21
HETATM   21  C9  UNL     1      -4.000  -0.365   0.153  1.00  0.00     0.106 A 
HETATM   22  N6  UNL     1      -4.768   0.590   0.752  1.00  0.00    -0.238 N 
HETATM   23  O5  UNL     1      -6.014   0.272   0.590  1.00  0.00    -0.156 OA
ATOM     24  H6  UNL     1      -4.421   1.414   1.243  1.00  0.00     0.197 HD
HETATM   25  N7  UNL     1      -6.157  -0.815  -0.065  1.00  0.00    -0.244 N 
HETATM   26  C10 UNL     1      -4.897  -1.260  -0.367  1.00  0.00     0.061 A 
ATOM     27  H7  UNL     1      -7.038  -1.264  -0.315  1.00  0.00     0.196 HD
HETATM   28  C11 UNL     1      -4.582  -2.494  -1.122  1.00  0.00     0.073 C 
ENDBRANCH  14  21
ENDBRANCH  13  14
ENDBRANCH   4  13
BRANCH   1  29
HETATM   29  C3  UNL     1       2.957   0.293  -1.286  1.00  0.00     0.276 C 
BRANCH  29  30
HETATM   30  N1  UNL     1       3.638   1.351  -0.604  1.00  0.00    -0.330 N 
HETATM   31  C2  UNL     1       4.168   2.461  -1.367  1.00  0.00     0.215 C 
HETATM   32  C1  UNL     1       4.870   3.546  -0.639  1.00  0.00     0.117 C 
HETATM   33  O1  UNL     1       4.044   2.513  -2.597  1.00  0.00    -0.274 OA
ATOM     34  H1  UNL     1       3.749   1.323   0.410  1.00  0.00     0.165 HD
ENDBRANCH  29  30
BRANCH  29  35
HETATM   35  O2  UNL     1       3.922  -0.699  -1.693  1.00  0.00    -0.371 OA
ATOM     36  H2  UNL     1       3.470  -1.401  -2.146  1.00  0.00     0.212 HD
ENDBRANCH  29  35
ENDBRANCH   1  29
BRANCH   8  37
HETATM   37  N9  UNL     1       0.730  -3.437   3.602  1.00  0.00    -0.234 N 
ATOM     38  H92 UNL     1      -0.230  -3.764   3.710  1.00  0.00     0.174 HD
ATOM     39  H91 UNL     1       1.432  -3.707   4.291  1.00  0.00     0.174 HD
ENDBRANCH   8  37
BRANCH  11  40
HETATM   40  N11 UNL     1       3.865  -1.144   1.284  1.00  0.00    -0.233 N 
ATOM     41 2H11 UNL     1       4.554  -1.428   1.981  1.00  0.00     0.174 HD
ATOM     42 1H11 UNL     1       4.133  -0.550   0.499  1.00  0.00     0.174 HD
ENDBRANCH  11  40
TORSDOF 10
