REMARK  8 active torsions:
REMARK  status: ('A' for Active; 'I' for Inactive)
REMARK    1  A    between atoms: C2_2  and  O1_3 
REMARK    2  A    between atoms: C2_2  and  C3_5 
REMARK    3  A    between atoms: C4_8  and  C5_9 
REMARK    4  A    between atoms: C6_15  and  N5_16 
REMARK    5  A    between atoms: N5_16  and  N6_18 
REMARK       I    between atoms: N6_18  and  C7_20 
REMARK    6  A    between atoms: C7_20  and  C8_22 
REMARK    7  A    between atoms: C9_25  and  N8_26 
REMARK    8  A    between atoms: C14_39  and  N11_40 
ROOT
HETATM    1  N11 UNL     1      -4.175   2.932  -0.967  1.00  0.00    -0.280 N 
ATOM      2  H11 UNL     1      -3.964   3.330  -1.882  1.00  0.00     0.179 HD
HETATM    3  C15 UNL     1      -4.003   3.648   0.224  1.00  0.00     0.183 C 
HETATM    4  N12 UNL     1      -3.861   4.219   1.231  1.00  0.00    -0.172 NA
ENDROOT
BRANCH   1   5
HETATM    5  C14 UNL     1      -4.668   1.604  -0.804  1.00  0.00     0.134 A 
HETATM    6  C4  UNL     1      -3.931   0.363  -0.966  1.00  0.00     0.208 A 
HETATM    7  N1  UNL     1      -4.703  -0.776  -0.550  1.00  0.00    -0.359 N 
HETATM    8  C3  UNL     1      -5.897  -0.799  -0.137  1.00  0.00     0.121 A 
ATOM      9  H1  UNL     1      -4.228  -1.678  -0.594  1.00  0.00     0.162 HD
HETATM   10  N14 UNL     1      -6.575   0.472  -0.027  1.00  0.00    -0.286 N 
HETATM   11  N13 UNL     1      -5.904   1.596  -0.366  1.00  0.00    -0.285 N 
ATOM     12  H14 UNL     1      -7.540   0.521   0.300  1.00  0.00     0.188 HD
ATOM     13  H13 UNL     1      -6.387   2.490  -0.276  1.00  0.00     0.188 HD
BRANCH   6  14
HETATM   14  C5  UNL     1      -2.569   0.363  -0.455  1.00  0.00     0.103 A 
HETATM   15  N2  UNL     1      -2.151  -0.482   0.546  1.00  0.00    -0.284 N 
HETATM   16  N3  UNL     1      -0.916  -0.222   0.831  1.00  0.00    -0.232 N 
ATOM     17  H2  UNL     1      -2.723  -1.199   0.992  1.00  0.00     0.188 HD
HETATM   18  N4  UNL     1      -0.473   0.760   0.081  1.00  0.00    -0.204 N 
ATOM     19  H3  UNL     1      -0.365  -0.710   1.537  1.00  0.00     0.209 HD
HETATM   20  C6  UNL     1       0.654   1.514  -0.145  1.00  0.00     0.160 A 
HETATM   21  C13 UNL     1      -1.479   1.145  -0.729  1.00  0.00     0.157 A 
HETATM   22  C12 UNL     1       0.260   2.368  -1.148  1.00  0.00     0.141 A 
HETATM   23  N10 UNL     1      -0.999   2.159  -1.504  1.00  0.00    -0.345 N 
ATOM     24  H10 UNL     1      -1.514   2.664  -2.225  1.00  0.00     0.167 HD
BRANCH  20  25
HETATM   25  N5  UNL     1       1.835   1.422   0.574  1.00  0.00    -0.280 N 
ATOM     26  H5  UNL     1       1.766   1.880   1.483  1.00  0.00     0.188 HD
BRANCH  25  27
HETATM   27  N6  UNL     1       3.061   0.875   0.372  1.00  0.00    -0.263 N 
HETATM   28  C7  UNL     1       3.247  -0.560   0.238  1.00  0.00     0.284 C 
HETATM   29  O2  UNL     1       2.223  -1.277   0.262  1.00  0.00    -0.265 OA
ATOM     30  H6  UNL     1       3.874   1.488   0.313  1.00  0.00     0.190 HD
BRANCH  28  31
HETATM   31  C8  UNL     1       4.551  -1.143   0.113  1.00  0.00     0.108 C 
HETATM   32  N7  UNL     1       5.409  -0.819   1.308  1.00  0.00    -0.338 N 
HETATM   33  C9  UNL     1       6.549  -0.255   0.575  1.00  0.00     0.483 C 
ATOM     34  H7  UNL     1       5.249  -0.950   2.307  1.00  0.00     0.163 HD
HETATM   35  N9  UNL     1       6.794  -1.278  -0.416  1.00  0.00    -0.019 N 
HETATM   36  C10 UNL     1       5.404  -1.426  -0.982  1.00  0.00     0.241 C 
ATOM     37  H92 UNL     1       7.531  -1.077  -1.091  1.00  0.00     0.282 HD
ATOM     38  H91 UNL     1       7.230  -2.135  -0.074  1.00  0.00     0.282 HD
HETATM   39  C11 UNL     1       5.402  -0.748  -2.289  1.00  0.00     0.047 C 
BRANCH  33  40
HETATM   40  N8  UNL     1       7.627  -0.027   1.473  1.00  0.00    -0.033 N 
ATOM     41  H83 UNL     1       7.352   0.555   2.264  1.00  0.00     0.278 HD
ATOM     42  H82 UNL     1       7.881  -0.868   1.991  1.00  0.00     0.278 HD
ATOM     43  H81 UNL     1       8.419   0.365   0.964  1.00  0.00     0.278 HD
ENDBRANCH  33  40
ENDBRANCH  28  31
ENDBRANCH  25  27
ENDBRANCH  20  25
ENDBRANCH   6  14
BRANCH   8  44
HETATM   44  C2  UNL     1      -6.576  -2.057   0.259  1.00  0.00     0.182 C 
HETATM   45  C1  UNL     1      -5.698  -3.235   0.017  1.00  0.00     0.047 C 
BRANCH  44  46
HETATM   46  O1  UNL     1      -6.771  -1.979   1.651  1.00  0.00    -0.388 OA
ATOM     47  H1  UNL     1      -7.331  -1.227   1.805  1.00  0.00     0.210 HD
ENDBRANCH  44  46
ENDBRANCH   8  44
ENDBRANCH   1   5
TORSDOF 8
