REMARK  13 active torsions:
REMARK  status: ('A' for Active; 'I' for Inactive)
REMARK    1  A    between atoms: C2_2  and  N1_3 
REMARK    2  A    between atoms: C2_2  and  C12_45 
REMARK    3  A    between atoms: N1_3  and  N2_5 
REMARK    4  A    between atoms: N2_5  and  C3_7 
REMARK    5  A    between atoms: C3_7  and  N3_8 
REMARK    6  A    between atoms: C3_7  and  C4_11 
REMARK    7  A    between atoms: C5_14  and  N5_15 
REMARK    8  A    between atoms: N5_15  and  O1_17 
REMARK    9  A    between atoms: N6_19  and  C6_20 
REMARK   10  A    between atoms: C8_24  and  C9_25 
REMARK       I    between atoms: C9_25  and  N8_27 
REMARK   11  A    between atoms: N8_27  and  N9_29 
REMARK   12  A    between atoms: N10_32  and  C10_33 
REMARK   13  A    between atoms: C12_45  and  O4_49 
ROOT
HETATM    1  C4  UNL     1       1.448  -0.746  -0.135  1.00  0.00     0.182 A 
HETATM    2  N4  UNL     1       1.214  -1.000  -1.435  1.00  0.00    -0.167 N 
ATOM      3  H4  UNL     1       1.936  -1.018  -2.156  1.00  0.00     0.186 HD
HETATM    4  C5  UNL     1      -0.089  -1.227  -1.664  1.00  0.00     0.740 A 
HETATM    5  N6  UNL     1      -0.683  -1.110  -0.463  1.00  0.00     0.094 N 
HETATM    6  N14 UNL     1       0.221  -0.824   0.459  1.00  0.00    -0.246 N 
ATOM      7  H14 UNL     1       0.032  -0.684   1.452  1.00  0.00     0.190 HD
ENDROOT
BRANCH   5   8
HETATM    8  C6  UNL     1      -2.077  -1.276  -0.241  1.00  0.00     0.727 A 
HETATM    9  N7  UNL     1      -2.718  -2.369   0.209  1.00  0.00    -0.197 N 
HETATM   10  C7  UNL     1      -4.034  -2.101   0.272  1.00  0.00     0.142 A 
ATOM     11  H7  UNL     1      -2.279  -3.254   0.461  1.00  0.00     0.183 HD
HETATM   12  C8  UNL     1      -4.229  -0.803  -0.150  1.00  0.00     0.144 A 
HETATM   13  N10 UNL     1      -3.024  -0.319  -0.457  1.00  0.00    -0.117 N 
BRANCH  12  14
HETATM   14  C9  UNL     1      -5.522  -0.133  -0.228  1.00  0.00     0.288 C 
HETATM   15  O2  UNL     1      -5.621   1.056  -0.627  1.00  0.00    -0.264 OA
HETATM   16  N8  UNL     1      -6.723  -0.798   0.142  1.00  0.00    -0.271 N 
ATOM     17  H8  UNL     1      -6.675  -1.763   0.469  1.00  0.00     0.189 HD
BRANCH  16  18
HETATM   18  N9  UNL     1      -7.966  -0.166   0.070  1.00  0.00    -0.342 N 
ATOM     19  H92 UNL     1      -7.996   0.799  -0.259  1.00  0.00     0.176 HD
ATOM     20  H91 UNL     1      -8.828  -0.643   0.335  1.00  0.00     0.176 HD
ENDBRANCH  16  18
ENDBRANCH  12  14
BRANCH  13  21
HETATM   21  C10 UNL     1      -2.761   1.002  -0.941  1.00  0.00     0.196 A 
HETATM   22  N11 UNL     1      -2.850   1.451  -2.214  1.00  0.00    -0.221 N 
HETATM   23  O3  UNL     1      -2.534   2.714  -2.256  1.00  0.00    -0.153 OA
ATOM     24  H11 UNL     1      -3.123   0.886  -3.018  1.00  0.00     0.198 HD
HETATM   25  N12 UNL     1      -2.245   3.104  -1.071  1.00  0.00    -0.222 N 
HETATM   26  C11 UNL     1      -2.364   2.088  -0.187  1.00  0.00     0.168 A 
ATOM     27  H12 UNL     1      -1.963   4.053  -0.827  1.00  0.00     0.198 HD
HETATM   28  N13 UNL     1      -2.168   2.060   1.078  1.00  0.00    -0.381 N 
ATOM     29 2H13 UNL     1      -2.258   1.293   1.745  1.00  0.00     0.157 HD
ATOM     30 1H13 UNL     1      -1.875   2.862   1.635  1.00  0.00     0.157 HD
ENDBRANCH  13  21
ENDBRANCH   5   8
BRANCH   4  31
HETATM   31  N5  UNL     1      -0.728  -1.532  -2.915  1.00  0.00    -0.096 N 
ATOM     32  H5  UNL     1      -0.933  -0.809  -3.605  1.00  0.00     0.213 HD
BRANCH  31  33
HETATM   33  O1  UNL     1      -1.018  -2.729  -3.111  1.00  0.00    -0.276 OA
ATOM     34  H1  UNL     1      -1.440  -2.931  -3.938  1.00  0.00     0.245 HD
ENDBRANCH  31  33
ENDBRANCH   4  31
BRANCH   1  35
HETATM   35  C3  UNL     1       2.722  -0.456   0.503  1.00  0.00     0.160 C 
BRANCH  35  36
HETATM   36  N2  UNL     1       3.890  -0.428  -0.304  1.00  0.00    -0.282 N 
ATOM     37  H2  UNL     1       3.840  -0.036  -1.244  1.00  0.00     0.188 HD
BRANCH  36  38
HETATM   38  N1  UNL     1       5.097  -0.925   0.164  1.00  0.00    -0.299 N 
ATOM     39  H1  UNL     1       5.158  -1.936   0.286  1.00  0.00     0.186 HD
BRANCH  38  40
HETATM   40  C2  UNL     1       6.127  -0.257   0.454  1.00  0.00     0.072 C 
HETATM   41  C1  UNL     1       7.349  -0.979   0.949  1.00  0.00     0.074 C 
BRANCH  40  42
HETATM   42  C12 UNL     1       6.189   1.189   0.331  1.00  0.00     0.157 C 
HETATM   43  N15 UNL     1       5.168   1.837  -0.089  1.00  0.00    -0.379 N 
ATOM     44 2H15 UNL     1       4.326   1.313  -0.329  1.00  0.00     0.158 HD
ATOM     45 1H15 UNL     1       5.212   2.852  -0.175  1.00  0.00     0.158 HD
BRANCH  42  46
HETATM   46  O4  UNL     1       7.334   1.901   0.657  1.00  0.00    -0.345 OA
ATOM     47  H4  UNL     1       7.375   2.847   0.577  1.00  0.00     0.219 HD
ENDBRANCH  42  46
ENDBRANCH  40  42
ENDBRANCH  38  40
ENDBRANCH  36  38
ENDBRANCH  35  36
BRANCH  35  48
HETATM   48  N3  UNL     1       2.749  -0.239   1.762  1.00  0.00    -0.381 N 
ATOM     49  H32 UNL     1       3.643  -0.036   2.210  1.00  0.00     0.157 HD
ATOM     50  H31 UNL     1       1.910  -0.259   2.342  1.00  0.00     0.157 HD
ENDBRANCH  35  48
ENDBRANCH   1  35
TORSDOF 13
