REMARK  9 active torsions:
REMARK  status: ('A' for Active; 'I' for Inactive)
REMARK    1  A    between atoms: C2_2  and  N1_3 
REMARK    2  A    between atoms: N1_3  and  C3_4 
REMARK    3  A    between atoms: N1_3  and  C10_35 
REMARK    4  A    between atoms: C3_4  and  C4_5 
REMARK    5  A    between atoms: C5_11  and  N4_12 
REMARK    6  A    between atoms: N4_12  and  C6_14 
REMARK    7  A    between atoms: C7_17  and  N6_18 
REMARK    8  A    between atoms: N6_18  and  N7_20 
REMARK    9  A    between atoms: C11_38  and  N14_39 
ROOT
HETATM    1  N4  UNL     1      -1.050  -0.117   0.137  1.00  0.00    -0.171 N 
ATOM      2  H4  UNL     1      -0.794  -0.851   0.798  1.00  0.00     0.186 HD
ENDROOT
BRANCH   1   3
HETATM    3  C5  UNL     1      -0.128   0.468  -0.553  1.00  0.00     0.169 A 
HETATM    4  C4  UNL     1       1.259   0.203  -0.502  1.00  0.00     0.099 A 
HETATM    5  N2  UNL     1       1.825   1.036  -1.377  1.00  0.00    -0.240 N 
HETATM    6  O1  UNL     1       0.914   1.743  -1.918  1.00  0.00    -0.155 OA
ATOM      7  H2  UNL     1       2.823   1.097  -1.579  1.00  0.00     0.196 HD
HETATM    8  N3  UNL     1      -0.261   1.441  -1.461  1.00  0.00    -0.223 N 
ATOM      9  H3  UNL     1      -1.140   1.873  -1.746  1.00  0.00     0.198 HD
BRANCH   4  10
HETATM   10  C3  UNL     1       1.816  -0.811   0.380  1.00  0.00     0.204 C 
BRANCH  10  11
HETATM   11  N1  UNL     1       3.218  -0.980   0.341  1.00  0.00    -0.212 N 
BRANCH  11  12
HETATM   12  C2  UNL     1       3.892  -1.995   1.176  1.00  0.00     0.137 C 
HETATM   13  C1  UNL     1       3.831  -1.663   2.631  1.00  0.00     0.027 C 
ENDBRANCH  11  12
BRANCH  11  14
HETATM   14  C10 UNL     1       4.102  -0.210  -0.482  1.00  0.00     0.689 A 
HETATM   15  N13 UNL     1       4.651   0.890  -0.061  1.00  0.00    -0.169 N 
HETATM   16  C11 UNL     1       5.494   1.547  -0.844  1.00  0.00     0.174 A 
ATOM     17  H13 UNL     1       4.434   1.247   0.870  1.00  0.00     0.186 HD
HETATM   18  S1  UNL     1       5.502   0.556  -2.235  1.00  0.00     0.038 SA
HETATM   19  N15 UNL     1       4.423  -0.632  -1.714  1.00  0.00    -0.157 N 
ATOM     20  H15 UNL     1       4.097  -1.461  -2.210  1.00  0.00     0.193 HD
BRANCH  16  21
HETATM   21  N14 UNL     1       6.121   2.651  -0.574  1.00  0.00    -0.378 N 
ATOM     22 2H14 UNL     1       6.116   3.243   0.257  1.00  0.00     0.158 HD
ATOM     23 1H14 UNL     1       6.770   3.157  -1.177  1.00  0.00     0.158 HD
ENDBRANCH  16  21
ENDBRANCH  11  14
ENDBRANCH  10  11
ENDBRANCH   4  10
ENDBRANCH   1   3
BRANCH   1  24
HETATM   24  C6  UNL     1      -2.404   0.243  -0.009  1.00  0.00     0.719 A 
HETATM   25  N5  UNL     1      -2.891   1.218   0.648  1.00  0.00    -0.183 N 
HETATM   26  C7  UNL     1      -4.232   1.697   0.606  1.00  0.00     0.342 A 
ATOM     27  H5  UNL     1      -2.252   1.710   1.272  1.00  0.00     0.181 HD
HETATM   28  N8  UNL     1      -5.045   0.938  -0.301  1.00  0.00    -0.183 N 
HETATM   29  C8  UNL     1      -4.521  -0.150  -1.041  1.00  0.00     0.732 A 
ATOM     30  H8  UNL     1      -6.027   1.189  -0.416  1.00  0.00     0.181 HD
HETATM   31  N9  UNL     1      -5.079  -1.010  -1.947  1.00  0.00    -0.019 N 
HETATM   32  N12 UNL     1      -3.229  -0.493  -0.900  1.00  0.00     0.105 N 
HETATM   33  C9  UNL     1      -4.143  -1.873  -2.361  1.00  0.00     0.706 A 
ATOM     34  H9  UNL     1      -6.051  -0.996  -2.257  1.00  0.00     0.203 HD
HETATM   35  N10 UNL     1      -4.271  -2.848  -3.222  1.00  0.00    -0.233 N 
HETATM   36  N11 UNL     1      -3.027  -1.533  -1.705  1.00  0.00    -0.096 N 
ATOM     37 2H10 UNL     1      -5.121  -3.107  -3.722  1.00  0.00     0.174 HD
ATOM     38 1H10 UNL     1      -3.558  -3.506  -3.537  1.00  0.00     0.174 HD
ATOM     39  H11 UNL     1      -2.132  -2.012  -1.809  1.00  0.00     0.207 HD
BRANCH  26  40
HETATM   40  N6  UNL     1      -4.816   1.557   1.935  1.00  0.00    -0.235 N 
ATOM     41  H6  UNL     1      -5.641   0.978   2.090  1.00  0.00     0.190 HD
BRANCH  40  42
HETATM   42  N7  UNL     1      -4.207   2.242   2.988  1.00  0.00    -0.040 N 
HETATM   43  O2  UNL     1      -3.375   1.640   3.694  1.00  0.00    -0.517 OA
HETATM   44  O3  UNL     1      -4.503   3.555   3.261  1.00  0.00    -0.517 OA
ENDBRANCH  40  42
ENDBRANCH  26  40
ENDBRANCH   1  24
TORSDOF 9
