REMARK  11 active torsions:
REMARK  status: ('A' for Active; 'I' for Inactive)
REMARK    1  A    between atoms: N1_1  and  C1_4 
REMARK    2  A    between atoms: C4_12  and  C5_13 
REMARK    3  A    between atoms: C5_13  and  S1_14 
REMARK    4  A    between atoms: S1_14  and  C6_15 
REMARK    5  A    between atoms: C7_20  and  C8_21 
REMARK    6  A    between atoms: C8_21  and  C9_26 
REMARK    7  A    between atoms: N6_22  and  O2_24 
REMARK    8  A    between atoms: C9_26  and  O3_27 
REMARK    9  A    between atoms: C9_26  and  O4_29 
REMARK   10  A    between atoms: N7_33  and  N8_34 
REMARK   11  A    between atoms: C11_40  and  N11_41 
ROOT
HETATM    1  S1  UNL     1      -0.290  -0.728   3.322  1.00  0.00    -0.083 SA
ENDROOT
BRANCH   1   2
HETATM    2  C5  UNL     1       1.104  -1.766   2.927  1.00  0.00     0.160 C 
BRANCH   2   3
HETATM    3  C4  UNL     1       1.896  -1.197   1.823  1.00  0.00     0.108 A 
HETATM    4  N3  UNL     1       1.771  -1.413   0.503  1.00  0.00    -0.324 N 
HETATM    5  C3  UNL     1       2.725  -0.677  -0.115  1.00  0.00     0.216 A 
ATOM      6  H3  UNL     1       1.086  -2.018   0.051  1.00  0.00     0.169 HD
HETATM    7  C2  UNL     1       2.931  -0.620  -1.477  1.00  0.00     0.306 C 
HETATM    8  N10 UNL     1       3.439  -0.004   0.833  1.00  0.00    -0.062 N 
HETATM    9  N2  UNL     1       4.013  -0.155  -2.154  1.00  0.00    -0.153 N 
HETATM   10  O1  UNL     1       1.997  -1.055  -2.172  1.00  0.00    -0.263 OA
HETATM   11  C1  UNL     1       5.083   0.472  -1.674  1.00  0.00     0.693 C 
ATOM     12  H2  UNL     1       4.003  -0.307  -3.163  1.00  0.00     0.187 HD
HETATM   13  N12 UNL     1       5.256   1.041  -0.466  1.00  0.00    -0.021 N 
HETATM   14  C11 UNL     1       4.475   0.828   0.630  1.00  0.00     0.713 C 
ATOM     15  H12 UNL     1       6.039   1.687  -0.362  1.00  0.00     0.203 HD
HETATM   16  N9  UNL     1       2.916  -0.340   1.976  1.00  0.00    -0.265 N 
ATOM     17  H9  UNL     1       3.242   0.006   2.878  1.00  0.00     0.189 HD
BRANCH  11  18
HETATM   18  N1  UNL     1       6.082   0.543  -2.472  1.00  0.00    -0.234 N 
ATOM     19  H12 UNL     1       5.951   0.112  -3.387  1.00  0.00     0.174 HD
ATOM     20  H11 UNL     1       6.903   1.024  -2.104  1.00  0.00     0.174 HD
ENDBRANCH  11  18
BRANCH  14  21
HETATM   21  N11 UNL     1       4.804   1.560   1.635  1.00  0.00    -0.232 N 
ATOM     22 2H11 UNL     1       4.219   1.401   2.455  1.00  0.00     0.174 HD
ATOM     23 1H11 UNL     1       5.590   2.191   1.481  1.00  0.00     0.174 HD
ENDBRANCH  14  21
ENDBRANCH   2   3
ENDBRANCH   1   2
BRANCH   1  24
HETATM   24  C6  UNL     1      -1.510  -0.619   2.035  1.00  0.00     0.181 A 
HETATM   25  N4  UNL     1      -2.520  -1.524   1.930  1.00  0.00    -0.278 N 
HETATM   26  N5  UNL     1      -3.405  -1.411   0.996  1.00  0.00    -0.294 N 
ATOM     27  H4  UNL     1      -2.579  -2.297   2.593  1.00  0.00     0.189 HD
HETATM   28  C7  UNL     1      -3.437  -0.418   0.045  1.00  0.00     0.117 A 
ATOM     29  H5  UNL     1      -4.141  -2.116   0.961  1.00  0.00     0.187 HD
HETATM   30  C10 UNL     1      -2.430   0.496   0.139  1.00  0.00     0.155 A 
HETATM   31  S2  UNL     1      -2.308   1.721  -0.921  1.00  0.00    -0.056 SA
HETATM   32  N7  UNL     1      -1.505   0.361   1.132  1.00  0.00    -0.226 N 
BRANCH  28  33
HETATM   33  C8  UNL     1      -4.518  -0.427  -0.920  1.00  0.00     0.117 C 
HETATM   34  N6  UNL     1      -5.362  -1.420  -0.864  1.00  0.00    -0.266 N 
ATOM     35  H6  UNL     1      -6.118  -1.412  -1.549  1.00  0.00     0.194 HD
BRANCH  34  36
HETATM   36  O2  UNL     1      -5.345  -2.450  -0.005  1.00  0.00    -0.290 OA
ATOM     37  H2  UNL     1      -5.960  -3.173   0.036  1.00  0.00     0.244 HD
ENDBRANCH  34  36
BRANCH  33  38
HETATM   38  C9  UNL     1      -4.777   0.589  -1.932  1.00  0.00     0.309 C 
BRANCH  38  39
HETATM   39  O3  UNL     1      -5.239   1.819  -1.396  1.00  0.00    -0.366 OA
ATOM     40  H3  UNL     1      -5.408   2.481  -2.056  1.00  0.00     0.213 HD
ENDBRANCH  38  39
BRANCH  38  41
HETATM   41  O4  UNL     1      -5.865   0.152  -2.748  1.00  0.00    -0.366 OA
ATOM     42  H4  UNL     1      -6.034   0.814  -3.408  1.00  0.00     0.213 HD
ENDBRANCH  38  41
ENDBRANCH  33  38
ENDBRANCH  28  33
BRANCH  32  43
HETATM   43  N8  UNL     1      -0.513   1.348   1.180  1.00  0.00    -0.335 N 
ATOM     44  H82 UNL     1       0.179   1.247   1.923  1.00  0.00     0.177 HD
ATOM     45  H81 UNL     1      -0.509   2.098   0.489  1.00  0.00     0.177 HD
ENDBRANCH  32  43
ENDBRANCH   1  24
TORSDOF 11
