REMARK  11 active torsions:
REMARK  status: ('A' for Active; 'I' for Inactive)
REMARK    1  A    between atoms: C2_7  and  N4_8 
REMARK    2  A    between atoms: N4_8  and  C3_10 
REMARK    3  A    between atoms: C3_10  and  O1_11 
REMARK    4  A    between atoms: C3_10  and  C4_13 
REMARK    5  A    between atoms: C9_20  and  N7_21 
REMARK    6  A    between atoms: N7_21  and  C10_23 
REMARK    7  A    between atoms: C12_25  and  N8_26 
REMARK       I    between atoms: N8_26  and  C13_28 
REMARK       I    between atoms: C13_28  and  N9_29 
REMARK       I    between atoms: C13_28  and  N10_33 
REMARK    8  A    between atoms: C15_38  and  C16_39 
REMARK    9  A    between atoms: C16_39  and  O2_40 
REMARK   10  A    between atoms: C16_39  and  O3_42 
REMARK   11  A    between atoms: N11_45  and  N12_46 
ROOT
HETATM    1  C4  UNL     1      -1.560  -1.636   1.519  1.00  0.00     0.066 A 
HETATM    2  C5  UNL     1      -2.245  -2.843   1.752  1.00  0.00     0.065 A 
HETATM    3  N5  UNL     1      -3.483  -2.894   2.440  1.00  0.00    -0.101 NA
HETATM    4  C6  UNL     1      -1.664  -3.995   1.282  1.00  0.00     0.054 A 
HETATM    5  C7  UNL     1      -0.469  -3.998   0.612  1.00  0.00     0.050 A 
HETATM    6  N6  UNL     1       0.110  -5.204   0.135  1.00  0.00    -0.102 NA
HETATM    7  C8  UNL     1       0.209  -2.824   0.381  1.00  0.00     0.057 A 
HETATM    8  C9  UNL     1      -0.343  -1.637   0.840  1.00  0.00     0.052 A 
ENDROOT
BRANCH   8   9
HETATM    9  N7  UNL     1       0.407  -0.469   0.700  1.00  0.00    -0.336 N 
ATOM     10  H7  UNL     1       0.187   0.290   1.345  1.00  0.00     0.168 HD
BRANCH   9  11
HETATM   11  C10 UNL     1       1.440  -0.219  -0.237  1.00  0.00     0.150 A 
HETATM   12  C11 UNL     1       2.109   1.017  -0.180  1.00  0.00     0.085 A 
HETATM   13  C12 UNL     1       3.122   1.360  -1.044  1.00  0.00     0.037 A 
HETATM   14  C14 UNL     1       3.497   0.431  -2.018  1.00  0.00     0.067 A 
HETATM   15  C15 UNL     1       2.814  -0.757  -2.030  1.00  0.00     0.112 A 
HETATM   16  O4  UNL     1       1.859  -1.006  -1.171  1.00  0.00    -0.293 OA
BRANCH  13  17
HETATM   17  N8  UNL     1       3.736   2.493  -0.992  1.00  0.00    -0.341 N 
HETATM   18  C13 UNL     1       3.365   3.457   0.000  1.00  0.00     0.480 C 
HETATM   19  N9  UNL     1       3.951   4.759  -0.314  1.00  0.00    -0.033 N 
HETATM   20  N10 UNL     1       3.906   3.060   1.290  1.00  0.00    -0.033 N 
ATOM     21  H93 UNL     1       4.963   4.703  -0.430  1.00  0.00     0.278 HD
ATOM     22  H92 UNL     1       3.708   5.069  -1.255  1.00  0.00     0.278 HD
ATOM     23  H91 UNL     1       3.687   5.446   0.393  1.00  0.00     0.278 HD
ATOM     24 3H10 UNL     1       3.628   2.114   1.550  1.00  0.00     0.278 HD
ATOM     25 2H10 UNL     1       4.915   2.911   1.255  1.00  0.00     0.278 HD
ATOM     26 1H10 UNL     1       3.642   3.747   1.997  1.00  0.00     0.278 HD
ATOM     27  H8  UNL     1       4.483   2.702  -1.655  1.00  0.00     0.163 HD
ENDBRANCH  13  17
BRANCH  15  28
HETATM   28  C16 UNL     1       3.131  -1.823  -3.030  1.00  0.00     0.312 C 
BRANCH  28  29
HETATM   29  O2  UNL     1       1.939  -2.329  -3.557  1.00  0.00    -0.365 OA
ATOM     30  H2  UNL     1       2.140  -3.006  -4.192  1.00  0.00     0.213 HD
ENDBRANCH  28  29
BRANCH  28  31
HETATM   31  O3  UNL     1       3.784  -2.898  -2.425  1.00  0.00    -0.365 OA
ATOM     32  H3  UNL     1       3.985  -3.575  -3.060  1.00  0.00     0.213 HD
ENDBRANCH  28  31
ENDBRANCH  15  28
ENDBRANCH   9  11
ENDBRANCH   8   9
BRANCH   1  33
HETATM   33  C3  UNL     1      -2.246  -0.456   2.001  1.00  0.00     0.170 C 
BRANCH  33  34
HETATM   34  N4  UNL     1      -1.898   0.888   1.889  1.00  0.00    -0.165 N 
ATOM     35  H4  UNL     1      -1.064   1.165   2.407  1.00  0.00     0.186 HD
BRANCH  34  36
HETATM   36  C2  UNL     1      -2.462   1.816   1.240  1.00  0.00     0.737 A 
HETATM   37  N3  UNL     1      -2.004   3.089   1.226  1.00  0.00    -0.113 N 
HETATM   38  N2  UNL     1      -2.812   3.796   0.457  1.00  0.00    -0.210 N 
ATOM     39  H3  UNL     1      -1.183   3.439   1.720  1.00  0.00     0.207 HD
HETATM   40  N1  UNL     1      -3.762   3.034  -0.018  1.00  0.00    -0.188 N 
ATOM     41  H2  UNL     1      -2.710   4.792   0.262  1.00  0.00     0.210 HD
HETATM   42  C1  UNL     1      -4.850   3.422  -0.902  1.00  0.00     0.204 C 
HETATM   43  N11 UNL     1      -3.541   1.803   0.471  1.00  0.00    -0.008 N 
BRANCH  43  44
HETATM   44  N12 UNL     1      -4.364   0.731   0.166  1.00  0.00    -0.308 N 
ATOM     45 2H12 UNL     1      -5.195   0.721  -0.426  1.00  0.00     0.179 HD
ATOM     46 1H12 UNL     1      -4.196  -0.204   0.537  1.00  0.00     0.179 HD
ENDBRANCH  43  44
ENDBRANCH  34  36
ENDBRANCH  33  34
BRANCH  33  47
HETATM   47  O1  UNL     1      -3.368  -0.613   2.639  1.00  0.00    -0.345 OA
ATOM     48  H1  UNL     1      -3.605  -1.530   2.715  1.00  0.00     0.219 HD
ENDBRANCH  33  47
ENDBRANCH   1  33
TORSDOF 11
