REMARK  6 active torsions:
REMARK  status: ('A' for Active; 'I' for Inactive)
REMARK    1  A    between atoms: C2_2  and  C4_4 
REMARK    2  A    between atoms: C4_4  and  O1_5 
REMARK    3  A    between atoms: C4_4  and  C5_7 
REMARK       I    between atoms: C5_7  and  N1_9 
REMARK    4  A    between atoms: N1_9  and  C6_11 
REMARK    5  A    between atoms: C7_14  and  N3_15 
REMARK    6  A    between atoms: C9_21  and  N5_22 
ROOT
HETATM    1  C6  UNL     1      -0.162  -0.486  -1.214  1.00  0.00     0.153 A 
HETATM    2  N2  UNL     1       0.390  -1.333  -2.123  1.00  0.00    -0.174 N 
ATOM      3  H2  UNL     1      -0.199  -1.776  -2.828  1.00  0.00     0.186 HD
HETATM    4  C7  UNL     1       1.704  -1.587  -2.096  1.00  0.00     0.678 A 
HETATM    5  N4  UNL     1       2.517  -1.007  -1.164  1.00  0.00    -0.186 N 
ATOM      6  H4  UNL     1       3.515  -1.219  -1.167  1.00  0.00     0.184 HD
HETATM    7  C8  UNL     1       2.031  -0.173  -0.255  1.00  0.00     0.123 A 
HETATM    8  C9  UNL     1       2.854   0.402   0.680  1.00  0.00     0.133 A 
HETATM    9  N6  UNL     1       2.302   1.237   1.582  1.00  0.00    -0.337 N 
ATOM     10  H6  UNL     1       2.903   1.671   2.282  1.00  0.00     0.168 HD
HETATM   11  C12 UNL     1       0.985   1.519   1.592  1.00  0.00     0.182 A 
HETATM   12  N7  UNL     1       0.209   0.939   0.661  1.00  0.00    -0.347 N 
ATOM     13  H7  UNL     1      -0.788   1.156   0.670  1.00  0.00     0.167 HD
HETATM   14  C13 UNL     1       0.656   0.095  -0.279  1.00  0.00     0.109 A 
ENDROOT
BRANCH   1  15
HETATM   15  N1  UNL     1      -1.402  -0.257  -1.253  1.00  0.00    -0.308 N 
HETATM   16  C5  UNL     1      -2.187   0.567  -0.432  1.00  0.00     0.252 C 
HETATM   17  O2  UNL     1      -2.338   1.823  -0.627  1.00  0.00    -0.270 OA
ATOM     18  H1  UNL     1      -1.910  -0.744  -1.992  1.00  0.00     0.170 HD
BRANCH  16  19
HETATM   19  C4  UNL     1      -2.906   0.016   0.734  1.00  0.00     0.213 C 
BRANCH  19  20
HETATM   20  C2  UNL     1      -4.398   0.274   0.649  1.00  0.00     0.015 C 
HETATM   21  C1  UNL     1      -5.039  -0.360  -0.540  1.00  0.00     0.012 C 
HETATM   22  C3  UNL     1      -4.648   1.743   0.772  1.00  0.00     0.012 C 
ENDBRANCH  19  20
BRANCH  19  23
HETATM   23  O1  UNL     1      -2.626  -1.341   0.816  1.00  0.00    -0.386 OA
ATOM     24  H1  UNL     1      -1.691  -1.503   0.869  1.00  0.00     0.210 HD
ENDBRANCH  19  23
ENDBRANCH  16  19
ENDBRANCH   1  15
BRANCH   4  25
HETATM   25  N3  UNL     1       2.216  -2.393  -2.964  1.00  0.00    -0.234 N 
ATOM     26  H32 UNL     1       1.609  -2.826  -3.660  1.00  0.00     0.174 HD
ATOM     27  H31 UNL     1       3.217  -2.587  -2.943  1.00  0.00     0.174 HD
ENDBRANCH   4  25
BRANCH   8  28
HETATM   28  N5  UNL     1       4.239   0.192   0.747  1.00  0.00    -0.374 N 
HETATM   29  C10 UNL     1       5.100   0.663  -0.300  1.00  0.00     0.150 C 
HETATM   30  C11 UNL     1       4.815  -0.502   1.870  1.00  0.00     0.150 C 
ENDBRANCH   8  28
TORSDOF 6
