REMARK  5 active torsions:
REMARK  status: ('A' for Active; 'I' for Inactive)
REMARK    1  A    between atoms: C2_2  and  N1_3 
REMARK    2  A    between atoms: N1_3  and  C3_5 
REMARK    3  A    between atoms: C5_10  and  N4_11 
REMARK    4  A    between atoms: C7_17  and  S1_18 
REMARK    5  A    between atoms: S1_18  and  N6_19 
ROOT
HETATM    1  C3  UNL     1       1.469  -0.464   0.068  1.00  0.00     0.132 A 
HETATM    2  N2  UNL     1       1.770  -1.784   0.011  1.00  0.00    -0.327 N 
ATOM      3  H2  UNL     1       2.750  -2.064   0.058  1.00  0.00     0.168 HD
HETATM    4  C4  UNL     1       0.833  -2.740  -0.105  1.00  0.00     0.153 A 
HETATM    5  N3  UNL     1       1.187  -4.125  -0.163  1.00  0.00    -0.080 NA
HETATM    6  C5  UNL     1      -0.483  -2.349  -0.168  1.00  0.00     0.172 A 
HETATM    7  C6  UNL     1      -0.866  -1.017  -0.116  1.00  0.00     0.102 A 
HETATM    8  N5  UNL     1      -2.047  -0.375  -0.156  1.00  0.00    -0.327 N 
ATOM      9  H5  UNL     1      -2.963  -0.816  -0.241  1.00  0.00     0.168 HD
HETATM   10  C7  UNL     1      -1.816   0.944  -0.065  1.00  0.00     0.225 A 
HETATM   11  N7  UNL     1      -0.490   1.120   0.032  1.00  0.00    -0.326 N 
ATOM     12  H7  UNL     1      -0.024   2.023   0.115  1.00  0.00     0.168 HD
HETATM   13  C8  UNL     1       0.138  -0.080   0.004  1.00  0.00     0.108 A 
ENDROOT
BRANCH  10  14
HETATM   14  S1  UNL     1      -3.062   2.194  -0.075  1.00  0.00     0.288 S 
HETATM   15  O3  UNL     1      -2.798   3.068  -1.243  1.00  0.00    -0.198 OA
HETATM   16  O4  UNL     1      -4.408   1.559  -0.210  1.00  0.00    -0.198 OA
BRANCH  14  17
HETATM   17  N6  UNL     1      -2.935   3.064   1.436  1.00  0.00    -0.322 N 
ATOM     18  H62 UNL     1      -2.260   2.873   2.177  1.00  0.00     0.169 HD
ATOM     19  H61 UNL     1      -3.655   3.786   1.430  1.00  0.00     0.169 HD
ENDBRANCH  14  17
ENDBRANCH  10  14
BRANCH   6  20
HETATM   20  N4  UNL     1      -1.548  -3.300  -0.292  1.00  0.00    -0.110 N 
HETATM   21  O1  UNL     1      -1.875  -4.005   0.686  1.00  0.00    -0.532 OA
HETATM   22  O2  UNL     1      -2.212  -3.434  -1.492  1.00  0.00    -0.532 OA
ENDBRANCH   6  20
BRANCH   1  23
HETATM   23  N1  UNL     1       2.402   0.390   0.177  1.00  0.00    -0.375 N 
ATOM     24  H1  UNL     1       3.356   0.030   0.217  1.00  0.00     0.161 HD
BRANCH  23  25
HETATM   25  C2  UNL     1       2.241   1.813   0.249  1.00  0.00     0.116 C 
HETATM   26  C1  UNL     1       3.608   2.491   0.325  1.00  0.00     0.026 C 
ENDBRANCH  23  25
ENDBRANCH   1  23
TORSDOF 5
