REMARK  5 active torsions:
REMARK  status: ('A' for Active; 'I' for Inactive)
REMARK    1  A    between atoms: N1_2  and  C2_4 
REMARK    2  A    between atoms: C5_9  and  C6_10 
REMARK    3  A    between atoms: C6_10  and  O2_12 
REMARK    4  A    between atoms: C9_16  and  C10_17 
REMARK       I    between atoms: C10_17  and  N4_19 
REMARK    5  A    between atoms: N5_21  and  N6_23 
ROOT
HETATM    1  C2  UNL     1      -0.174  -1.837  -0.138  1.00  0.00     0.118 A 
HETATM    2  N2  UNL     1      -1.442  -2.031   0.257  1.00  0.00    -0.345 N 
ATOM      3  H2  UNL     1      -1.740  -2.949   0.587  1.00  0.00     0.167 HD
HETATM    4  C3  UNL     1      -2.333  -0.997   0.217  1.00  0.00     0.025 A 
HETATM    5  C4  UNL     1      -3.716  -1.251   0.660  1.00  0.00     0.069 C 
HETATM    6  C5  UNL     1      -1.987   0.254  -0.216  1.00  0.00     0.087 A 
HETATM    7  C8  UNL     1      -0.672   0.440  -0.622  1.00  0.00     0.084 A 
HETATM    8  N3  UNL     1      -0.273   1.748  -1.085  1.00  0.00    -0.100 NA
HETATM    9  C9  UNL     1       0.225  -0.598  -0.582  1.00  0.00     0.102 A 
ENDROOT
BRANCH   9  10
HETATM   10  C10 UNL     1       1.600  -0.343  -1.024  1.00  0.00     0.276 C 
HETATM   11  O3  UNL     1       1.953   0.793  -1.427  1.00  0.00    -0.266 OA
HETATM   12  N4  UNL     1       2.595  -1.358  -1.017  1.00  0.00    -0.251 N 
HETATM   13  N5  UNL     1       3.498  -1.382  -0.134  1.00  0.00    -0.238 N 
ATOM     14  H4  UNL     1       2.580  -2.080  -1.738  1.00  0.00     0.192 HD
ATOM     15  H5  UNL     1       4.204  -2.118  -0.144  1.00  0.00     0.208 HD
BRANCH  13  16
HETATM   16  N6  UNL     1       3.525  -0.411   0.842  1.00  0.00    -0.261 N 
HETATM   17  C11 UNL     1       4.304   0.586   0.883  1.00  0.00     0.216 C 
HETATM   18  N7  UNL     1       4.233   1.518   1.944  1.00  0.00    -0.065 NA
HETATM   19  N8  UNL     1       5.263   0.789  -0.134  1.00  0.00    -0.065 NA
ATOM     20  H6  UNL     1       2.854  -0.504   1.604  1.00  0.00     0.190 HD
ENDBRANCH  13  16
ENDBRANCH   9  10
BRANCH   1  21
HETATM   21  N1  UNL     1       0.692  -2.802  -0.111  1.00  0.00    -0.380 N 
HETATM   22  C1  UNL     1       0.253  -4.116   0.365  1.00  0.00     0.147 C 
ATOM     23  H1  UNL     1       1.654  -2.650  -0.413  1.00  0.00     0.160 HD
ENDBRANCH   1  21
BRANCH   6  24
HETATM   24  C6  UNL     1      -2.879   1.394  -0.284  1.00  0.00     0.296 C 
HETATM   25  O1  UNL     1      -4.080   1.316   0.062  1.00  0.00    -0.259 OA
BRANCH  24  26
HETATM   26  O2  UNL     1      -2.464   2.644  -0.736  1.00  0.00    -0.322 OA
HETATM   27  C7  UNL     1      -3.319   3.759  -0.807  1.00  0.00     0.213 C 
ENDBRANCH  24  26
ENDBRANCH   6  24
TORSDOF 5
