REMARK  5 active torsions:
REMARK  status: ('A' for Active; 'I' for Inactive)
REMARK    1  A    between atoms: C4_4  and  N1_5 
REMARK    2  A    between atoms: N1_5  and  C5_7 
REMARK    3  A    between atoms: C8_16  and  N5_17 
REMARK    4  A    between atoms: C9_22  and  N7_23 
REMARK    5  A    between atoms: N7_23  and  C10_25 
REMARK       I    between atoms: N8_27  and  C12_28 
ROOT
HETATM    1  C5  UNL     1      -1.748  -1.432   1.147  1.00  0.00     0.125 A 
HETATM    2  N2  UNL     1      -2.369  -2.263   2.031  1.00  0.00    -0.338 N 
ATOM      3  H2  UNL     1      -2.952  -1.834   2.750  1.00  0.00     0.168 HD
HETATM    4  C6  UNL     1      -2.274  -3.589   2.028  1.00  0.00     0.183 A 
HETATM    5  N3  UNL     1      -1.502  -4.151   1.076  1.00  0.00    -0.337 N 
ATOM      6  H3  UNL     1      -1.410  -5.167   1.052  1.00  0.00     0.168 HD
HETATM    7  C7  UNL     1      -0.855  -3.423   0.165  1.00  0.00     0.139 A 
HETATM    8  N4  UNL     1      -0.071  -3.987  -0.753  1.00  0.00    -0.176 N 
ATOM      9  H4  UNL     1       0.017  -5.003  -0.767  1.00  0.00     0.186 HD
HETATM   10  C8  UNL     1       0.611  -3.263  -1.664  1.00  0.00     0.679 A 
HETATM   11  N6  UNL     1       0.484  -1.946  -1.630  1.00  0.00    -0.176 N 
ATOM     12  H6  UNL     1       1.003  -1.404  -2.321  1.00  0.00     0.186 HD
HETATM   13  C9  UNL     1      -0.291  -1.256  -0.738  1.00  0.00     0.140 A 
HETATM   14  C15 UNL     1      -0.967  -2.024   0.180  1.00  0.00     0.097 A 
ENDROOT
BRANCH  13  15
HETATM   15  N7  UNL     1      -0.451   0.115  -0.935  1.00  0.00    -0.326 N 
ATOM     16  H7  UNL     1      -1.207   0.598  -0.449  1.00  0.00     0.169 HD
BRANCH  15  17
HETATM   17  C10 UNL     1       0.411   0.869  -1.797  1.00  0.00     0.124 A 
HETATM   18  C11 UNL     1       1.518   0.516  -2.502  1.00  0.00     0.151 A 
HETATM   19  N8  UNL     1       1.998   1.591  -3.200  1.00  0.00    -0.263 N 
HETATM   20  C12 UNL     1       3.119   1.641  -4.045  1.00  0.00     0.340 C 
HETATM   21  C13 UNL     1       1.181   2.622  -2.924  1.00  0.00     0.089 A 
HETATM   22  N9  UNL     1       3.921   0.463  -4.264  1.00  0.00    -0.039 NA
HETATM   23  O1  UNL     1       3.492   2.677  -4.651  1.00  0.00    -0.250 OA
HETATM   24  C14 UNL     1       1.286   4.017  -3.448  1.00  0.00     0.089 C 
HETATM   25  N10 UNL     1       0.242   2.201  -2.096  1.00  0.00    -0.331 N 
ATOM     26  H10 UNL     1      -0.508   2.786  -1.727  1.00  0.00     0.168 HD
ENDBRANCH  15  17
ENDBRANCH  13  15
BRANCH  10  27
HETATM   27  N5  UNL     1       1.367  -3.871  -2.540  1.00  0.00    -0.234 N 
ATOM     28  H52 UNL     1       1.465  -4.886  -2.566  1.00  0.00     0.174 HD
ATOM     29  H51 UNL     1       1.883  -3.323  -3.229  1.00  0.00     0.174 HD
ENDBRANCH  10  27
BRANCH   1  30
HETATM   30  N1  UNL     1      -1.856  -0.045   1.281  1.00  0.00    -0.327 N 
ATOM     31  H1  UNL     1      -2.014   0.509   0.439  1.00  0.00     0.169 HD
BRANCH  30  32
HETATM   32  C4  UNL     1      -1.765   0.587   2.432  1.00  0.00     0.123 A 
HETATM   33  C3  UNL     1      -1.557   0.079   3.691  1.00  0.00     0.075 A 
HETATM   34  C2  UNL     1      -1.543   1.154   4.581  1.00  0.00     0.025 A 
HETATM   35  C1  UNL     1      -1.351   1.102   6.052  1.00  0.00     0.070 C 
HETATM   36  N12 UNL     1      -1.739   2.268   3.859  1.00  0.00    -0.304 N 
HETATM   37  N11 UNL     1      -1.865   1.919   2.615  1.00  0.00    -0.285 N 
ATOM     38  H12 UNL     1      -1.781   3.220   4.223  1.00  0.00     0.186 HD
ATOM     39  H11 UNL     1      -2.023   2.582   1.856  1.00  0.00     0.188 HD
ENDBRANCH  30  32
ENDBRANCH   1  30
TORSDOF 5
