REMARK  5 active torsions:
REMARK  status: ('A' for Active; 'I' for Inactive)
REMARK    1  A    between atoms: C3_5  and  C4_6 
REMARK    2  A    between atoms: C5_14  and  C6_15 
REMARK    3  A    between atoms: C7_18  and  C8_19 
REMARK    4  A    between atoms: C13_27  and  N8_28 
REMARK    5  A    between atoms: C14_33  and  N10_34 
ROOT
HETATM    1  C6  UNL     1      -0.273   0.144   0.432  1.00  0.00     0.093 A 
HETATM    2  N6  UNL     1       0.327  -0.899   0.981  1.00  0.00    -0.336 N 
ATOM      3  H6  UNL     1      -0.230  -1.691   1.303  1.00  0.00     0.168 HD
HETATM    4  C7  UNL     1       1.682  -0.926   1.121  1.00  0.00     0.141 A 
HETATM    5  N7  UNL     1       2.416   0.116   0.698  1.00  0.00    -0.335 N 
ATOM      6  H7  UNL     1       3.430   0.095   0.803  1.00  0.00     0.168 HD
HETATM    7  C12 UNL     1       1.830   1.183   0.139  1.00  0.00     0.108 A 
HETATM    8  C13 UNL     1       2.569   2.268  -0.312  1.00  0.00     0.144 A 
HETATM    9  N9  UNL     1       1.940   3.326  -0.878  1.00  0.00    -0.175 N 
ATOM     10  H9  UNL     1       2.490   4.120  -1.207  1.00  0.00     0.186 HD
HETATM   11  C14 UNL     1       0.597   3.346  -1.014  1.00  0.00     0.678 A 
HETATM   12  N11 UNL     1      -0.151   2.304  -0.586  1.00  0.00    -0.187 N 
ATOM     13  H11 UNL     1      -1.165   2.326  -0.693  1.00  0.00     0.184 HD
HETATM   14  C15 UNL     1       0.448   1.231  -0.015  1.00  0.00     0.108 A 
ENDROOT
BRANCH   1  15
HETATM   15  C5  UNL     1      -1.747   0.206   0.276  1.00  0.00     0.094 A 
HETATM   16  C3  UNL     1      -2.474  -0.563  -0.595  1.00  0.00     0.110 A 
HETATM   17  N1  UNL     1      -3.761  -0.215  -0.417  1.00  0.00    -0.341 N 
HETATM   18  C2  UNL     1      -3.823   0.732   0.528  1.00  0.00     0.078 A 
ATOM     19  H1  UNL     1      -4.558  -0.607  -0.919  1.00  0.00     0.167 HD
HETATM   20  C1  UNL     1      -5.071   1.406   1.045  1.00  0.00     0.089 C 
HETATM   21  N12 UNL     1      -2.580   0.992   0.954  1.00  0.00    -0.342 N 
ATOM     22  H12 UNL     1      -2.319   1.670   1.669  1.00  0.00     0.167 HD
BRANCH  16  23
HETATM   23  C4  UNL     1      -1.967  -1.581  -1.547  1.00  0.00     0.163 A 
HETATM   24  N2  UNL     1      -0.725  -1.970  -1.755  1.00  0.00    -0.270 N 
HETATM   25  N3  UNL     1      -0.616  -2.893  -2.683  1.00  0.00    -0.225 N 
ATOM     26  H2  UNL     1       0.073  -1.591  -1.245  1.00  0.00     0.190 HD
HETATM   27  N4  UNL     1      -1.886  -3.094  -3.082  1.00  0.00    -0.005 NA
ATOM     28  H3  UNL     1       0.231  -3.350  -3.021  1.00  0.00     0.205 HD
HETATM   29  N5  UNL     1      -2.720  -2.318  -2.415  1.00  0.00    -0.265 N 
ATOM     30  H5  UNL     1      -3.733  -2.277  -2.527  1.00  0.00     0.186 HD
ENDBRANCH  16  23
ENDBRANCH   1  15
BRANCH   4  31
HETATM   31  C8  UNL     1       2.355  -2.076   1.709  1.00  0.00     0.118 A 
HETATM   32  C9  UNL     1       3.704  -2.181   1.892  1.00  0.00     0.043 A 
HETATM   33  C10 UNL     1       3.986  -3.421   2.480  1.00  0.00     0.027 A 
HETATM   34  C11 UNL     1       2.744  -4.010   2.622  1.00  0.00     0.142 A 
HETATM   35  O1  UNL     1       1.822  -3.187   2.158  1.00  0.00    -0.319 OA
ENDBRANCH   4  31
BRANCH   8  36
HETATM   36  N8  UNL     1       3.849   2.295  -0.203  1.00  0.00    -0.383 N 
ATOM     37  H82 UNL     1       4.323   1.498   0.223  1.00  0.00     0.157 HD
ATOM     38  H81 UNL     1       4.392   3.092  -0.534  1.00  0.00     0.157 HD
ENDBRANCH   8  36
BRANCH  11  39
HETATM   39  N10 UNL     1      -0.042   4.317  -1.541  1.00  0.00    -0.234 N 
ATOM     40 2H10 UNL     1       0.522   5.103  -1.864  1.00  0.00     0.174 HD
ATOM     41 1H10 UNL     1      -1.057   4.332  -1.644  1.00  0.00     0.174 HD
ENDBRANCH  11  39
TORSDOF 5
