REMARK  5 active torsions:
REMARK  status: ('A' for Active; 'I' for Inactive)
REMARK    1  A    between atoms: N1_1  and  C1_4 
REMARK    2  A    between atoms: C3_8  and  C4_9 
REMARK    3  A    between atoms: C4_9  and  S1_10 
REMARK    4  A    between atoms: S1_10  and  C5_11 
REMARK    5  A    between atoms: C11_21  and  N5_22 
ROOT
HETATM    1  C1  UNL     1      -2.859   2.554  -1.434  1.00  0.00     0.692 A 
HETATM    2  N2  UNL     1      -1.773   1.746  -1.288  1.00  0.00    -0.173 N 
ATOM      3  H2  UNL     1      -0.820   1.985  -1.561  1.00  0.00     0.186 HD
HETATM    4  C2  UNL     1      -2.150   0.593  -0.733  1.00  0.00     0.153 A 
HETATM    5  C3  UNL     1      -1.696  -0.660  -0.266  1.00  0.00     0.016 A 
HETATM    6  C10 UNL     1      -2.810  -1.282   0.208  1.00  0.00     0.064 A 
HETATM    7  C11 UNL     1      -3.034  -2.527   0.780  1.00  0.00     0.114 A 
HETATM    8  N6  UNL     1      -4.308  -2.890   1.158  1.00  0.00    -0.338 N 
ATOM      9  H6  UNL     1      -4.458  -3.807   1.578  1.00  0.00     0.168 HD
HETATM   10  C12 UNL     1      -5.336  -2.086   0.992  1.00  0.00     0.183 A 
HETATM   11  N7  UNL     1      -5.125  -0.890   0.443  1.00  0.00    -0.336 N 
ATOM     12  H7  UNL     1      -5.924  -0.269   0.316  1.00  0.00     0.168 HD
HETATM   13  C13 UNL     1      -3.920  -0.461   0.049  1.00  0.00     0.145 A 
HETATM   14  N8  UNL     1      -3.462   0.664  -0.527  1.00  0.00    -0.207 N 
HETATM   15  N9  UNL     1      -3.907   1.859  -0.952  1.00  0.00    -0.122 N 
ATOM     16  H9  UNL     1      -4.873   2.184  -0.916  1.00  0.00     0.206 HD
ENDROOT
BRANCH   5  17
HETATM   17  C4  UNL     1      -0.302  -1.045  -0.381  1.00  0.00     0.123 C 
BRANCH  17  18
HETATM   18  S1  UNL     1       0.668   0.398   0.286  1.00  0.00    -0.121 SA
BRANCH  18  19
HETATM   19  C5  UNL     1       2.423   0.084   0.180  1.00  0.00     0.059 A 
HETATM   20  C6  UNL     1       2.837  -1.153  -0.278  1.00  0.00     0.074 A 
HETATM   21  S2  UNL     1       4.531  -1.368  -0.368  1.00  0.00    -0.084 SA
HETATM   22  C7  UNL     1       5.413  -0.001   0.128  1.00  0.00     0.115 A 
HETATM   23  N3  UNL     1       6.837   0.080   0.144  1.00  0.00    -0.092 NA
HETATM   24  C8  UNL     1       4.628   1.078   0.529  1.00  0.00     0.128 A 
HETATM   25  N4  UNL     1       5.359   2.246   0.960  1.00  0.00    -0.096 NA
HETATM   26  C9  UNL     1       3.272   1.104   0.548  1.00  0.00     0.215 A 
HETATM   27  O1  UNL     1       2.744   2.201   0.949  1.00  0.00    -0.285 OA
ENDBRANCH  18  19
ENDBRANCH  17  18
ENDBRANCH   5  17
BRANCH   7  28
HETATM   28  N5  UNL     1      -2.099  -3.328   0.945  1.00  0.00    -0.385 N 
ATOM     29  H52 UNL     1      -1.156  -3.059   0.665  1.00  0.00     0.157 HD
ATOM     30  H51 UNL     1      -2.264  -4.243   1.365  1.00  0.00     0.157 HD
ENDBRANCH   7  28
BRANCH   1  31
HETATM   31  N1  UNL     1      -2.801   3.740  -1.945  1.00  0.00    -0.233 N 
ATOM     32  H12 UNL     1      -2.007   4.266  -2.310  1.00  0.00     0.174 HD
ATOM     33  H11 UNL     1      -3.615   4.345  -2.054  1.00  0.00     0.174 HD
ENDBRANCH   1  31
TORSDOF 5
