REMARK  4 active torsions:
REMARK  status: ('A' for Active; 'I' for Inactive)
REMARK    1  A    between atoms: N1_1  and  C1_4 
REMARK    2  A    between atoms: C8_20  and  C9_21 
REMARK    3  A    between atoms: C9_21  and  C10_22 
REMARK    4  A    between atoms: C10_22  and  N5_23 
ROOT
HETATM    1  C1  UNL     1       5.165  -0.457   1.946  1.00  0.00     0.677 A 
HETATM    2  N2  UNL     1       5.539  -0.420   0.656  1.00  0.00    -0.181 N 
ATOM      3  H2  UNL     1       6.523  -0.533   0.414  1.00  0.00     0.185 HD
HETATM    4  C2  UNL     1       4.642  -0.238  -0.311  1.00  0.00     0.131 A 
HETATM    5  S1  UNL     1       5.202  -0.209  -1.848  1.00  0.00    -0.059 SA
HETATM    6  C3  UNL     1       3.265  -0.076  -0.055  1.00  0.00     0.064 A 
HETATM    7  C4  UNL     1       2.405   0.107  -1.104  1.00  0.00     0.049 A 
HETATM    8  N3  UNL     1       2.962   0.098  -2.282  1.00  0.00    -0.398 N 
ATOM      9  H31 UNL     1       2.321   0.234  -3.064  1.00  0.00     0.156 HD
ATOM     10  H32 UNL     1       3.971  -0.030  -2.361  1.00  0.00     0.156 HD
HETATM   11  C5  UNL     1       1.015   0.283  -0.995  1.00  0.00    -0.014 A 
HETATM   12  C6  UNL     1       0.342   0.291   0.179  1.00  0.00     0.024 A 
HETATM   13  S2  UNL     1       1.260   0.076   1.594  1.00  0.00    -0.073 SA
HETATM   14  C7  UNL     1       2.939  -0.122   1.277  1.00  0.00     0.106 A 
HETATM   15  N4  UNL     1       3.858  -0.307   2.244  1.00  0.00    -0.185 N 
ATOM     16  H4  UNL     1       3.560  -0.334   3.219  1.00  0.00     0.185 HD
HETATM   17  C8  UNL     1      -1.164   0.457   0.316  1.00  0.00     0.227 C 
HETATM   18  N9  UNL     1      -1.658  -0.046  -0.979  1.00  0.00    -0.066 N 
ATOM     19  H91 UNL     1      -2.674  -0.138  -1.006  1.00  0.00     0.278 HD
ATOM     20  H92 UNL     1      -1.429  -1.028  -1.135  1.00  0.00     0.278 HD
HETATM   21  C13 UNL     1      -1.152   0.811  -2.006  1.00  0.00     0.237 C 
HETATM   22  C14 UNL     1       0.282   0.487  -2.284  1.00  0.00     0.069 C 
ENDROOT
BRANCH  17  23
HETATM   23  C9  UNL     1      -1.686  -0.374   1.417  1.00  0.00     0.059 C 
BRANCH  23  24
HETATM   24  C10 UNL     1      -3.124  -0.274   1.708  1.00  0.00     0.135 C 
BRANCH  24  25
HETATM   25  N5  UNL     1      -4.039  -0.563   0.664  1.00  0.00    -0.315 N 
HETATM   26  C11 UNL     1      -4.443  -1.792   0.243  1.00  0.00     0.202 A 
HETATM   27  N6  UNL     1      -5.292  -1.641  -0.785  1.00  0.00    -0.294 N 
HETATM   28  N7  UNL     1      -5.410  -0.349  -0.993  1.00  0.00    -0.272 N 
ATOM     29  H6  UNL     1      -5.756  -2.386  -1.305  1.00  0.00     0.187 HD
HETATM   30  C12 UNL     1      -4.657   0.339  -0.124  1.00  0.00     0.210 A 
ATOM     31  H7  UNL     1      -5.994   0.072  -1.716  1.00  0.00     0.189 HD
HETATM   32  N8  UNL     1      -4.619   1.757  -0.108  1.00  0.00    -0.062 NA
ENDBRANCH  24  25
ENDBRANCH  23  24
ENDBRANCH  17  23
BRANCH   1  33
HETATM   33  N1  UNL     1       6.030  -0.634   2.895  1.00  0.00    -0.234 N 
ATOM     34  H12 UNL     1       7.018  -0.747   2.670  1.00  0.00     0.174 HD
ATOM     35  H11 UNL     1       5.746  -0.662   3.874  1.00  0.00     0.174 HD
ENDBRANCH   1  33
TORSDOF 4
