REMARK  17 active torsions:
REMARK  status: ('A' for Active; 'I' for Inactive)
REMARK    1  A    between atoms: N1_1  and  C1_5 
REMARK    2  A    between atoms: C1_5  and  C2_6 
REMARK    3  A    between atoms: C2_6  and  O1_7 
REMARK    4  A    between atoms: O1_7  and  C3_8 
REMARK    5  A    between atoms: C4_9  and  N2_10 
REMARK    6  A    between atoms: C5_14  and  N3_15 
REMARK    7  A    between atoms: C7_20  and  N4_21 
REMARK    8  A    between atoms: C8_25  and  O2_26 
REMARK    9  A    between atoms: O2_26  and  C9_27 
REMARK   10  A    between atoms: C10_29  and  O4_30 
REMARK   11  A    between atoms: O4_30  and  C11_31 
REMARK   12  A    between atoms: C12_32  and  N5_33 
REMARK   13  A    between atoms: C14_38  and  N6_39 
REMARK   14  A    between atoms: C15_43  and  O5_44 
REMARK   15  A    between atoms: C16_46  and  N7_47 
REMARK   16  A    between atoms: C17_51  and  N8_52 
REMARK   17  A    between atoms: C19_57  and  N9_58 
ROOT
HETATM    1  C9  UNL     1       0.638   0.257  -1.804  1.00  0.00     0.294 C 
HETATM    2  O3  UNL     1      -0.011   1.134  -0.910  1.00  0.00    -0.327 OA
HETATM    3  C10 UNL     1      -1.309   1.402  -1.212  1.00  0.00     0.293 C 
HETATM    4  C17 UNL     1      -1.642   1.338  -2.684  1.00  0.00     0.240 C 
HETATM    5  C18 UNL     1      -0.473   1.740  -3.513  1.00  0.00     0.075 C 
HETATM    6  C19 UNL     1       0.699   0.833  -3.204  1.00  0.00     0.240 C 
ENDROOT
BRANCH   1   7
HETATM    7  O2  UNL     1       1.899   0.089  -1.360  1.00  0.00    -0.349 OA
BRANCH   7   8
HETATM    8  C8  UNL     1       2.359  -1.119  -0.988  1.00  0.00     0.186 C 
HETATM    9  C3  UNL     1       2.718  -1.078   0.486  1.00  0.00     0.185 C 
HETATM   10  C4  UNL     1       4.147  -1.396   0.783  1.00  0.00     0.245 C 
HETATM   11  C5  UNL     1       5.162  -0.894  -0.183  1.00  0.00     0.218 C 
HETATM   12  C6  UNL     1       4.780  -0.972  -1.632  1.00  0.00     0.070 C 
HETATM   13  C7  UNL     1       3.490  -1.712  -1.756  1.00  0.00     0.217 C 
BRANCH   9  14
HETATM   14  O1  UNL     1       1.945  -2.031   1.178  1.00  0.00    -0.379 OA
BRANCH  14  15
HETATM   15  C2  UNL     1       1.089  -1.518   2.099  1.00  0.00     0.195 C 
BRANCH  15  16
HETATM   16  C1  UNL     1       1.660  -0.756   3.238  1.00  0.00     0.255 C 
BRANCH  16  17
HETATM   17  N1  UNL     1       2.557  -1.497   4.070  1.00  0.00    -0.077 N 
ATOM     18  H13 UNL     1       2.105  -2.347   4.406  1.00  0.00     0.274 HD
ATOM     19  H12 UNL     1       3.305  -1.904   3.508  1.00  0.00     0.274 HD
ATOM     20  H11 UNL     1       2.949  -0.973   4.853  1.00  0.00     0.274 HD
ENDBRANCH  16  17
ENDBRANCH  15  16
ENDBRANCH  14  15
ENDBRANCH   9  14
BRANCH  10  21
HETATM   21  N2  UNL     1       4.344  -2.801   1.129  1.00  0.00    -0.070 N 
ATOM     22  H23 UNL     1       3.737  -3.078   1.901  1.00  0.00     0.274 HD
ATOM     23  H22 UNL     1       3.974  -3.414   0.402  1.00  0.00     0.274 HD
ATOM     24  H21 UNL     1       5.320  -3.018   1.332  1.00  0.00     0.274 HD
ENDBRANCH  10  21
BRANCH  11  25
HETATM   25  N3  UNL     1       6.435  -1.629  -0.054  1.00  0.00    -0.073 N 
ATOM     26  H33 UNL     1       6.786  -1.605   0.904  1.00  0.00     0.274 HD
ATOM     27  H32 UNL     1       6.297  -2.635  -0.145  1.00  0.00     0.274 HD
ATOM     28  H31 UNL     1       7.131  -1.285  -0.716  1.00  0.00     0.274 HD
ENDBRANCH  11  25
BRANCH  13  29
HETATM   29  N4  UNL     1       3.135  -2.001  -3.153  1.00  0.00    -0.072 N 
ATOM     30  H43 UNL     1       3.123  -1.148  -3.712  1.00  0.00     0.274 HD
ATOM     31  H42 UNL     1       3.889  -2.498  -3.627  1.00  0.00     0.274 HD
ATOM     32  H41 UNL     1       2.253  -2.507  -3.238  1.00  0.00     0.274 HD
ENDBRANCH  13  29
ENDBRANCH   7   8
ENDBRANCH   1   7
BRANCH   6  33
HETATM   33  N9  UNL     1       1.965   1.473  -3.488  1.00  0.00    -0.070 N 
ATOM     34  H93 UNL     1       2.181   2.184  -2.790  1.00  0.00     0.274 HD
ATOM     35  H92 UNL     1       2.743   0.836  -3.320  1.00  0.00     0.274 HD
ATOM     36  H91 UNL     1       2.006   1.861  -4.431  1.00  0.00     0.274 HD
ENDBRANCH   6  33
BRANCH   3  37
HETATM   37  O4  UNL     1      -2.182   0.518  -0.585  1.00  0.00    -0.349 OA
BRANCH  37  38
HETATM   38  C11 UNL     1      -3.045   1.134   0.316  1.00  0.00     0.188 C 
HETATM   39  C12 UNL     1      -2.802   0.597   1.673  1.00  0.00     0.216 C 
HETATM   40  C13 UNL     1      -3.893   0.659   2.660  1.00  0.00     0.070 C 
HETATM   41  C14 UNL     1      -5.252   1.014   2.196  1.00  0.00     0.216 C 
HETATM   42  C15 UNL     1      -5.275   1.832   0.927  1.00  0.00     0.181 C 
HETATM   43  C16 UNL     1      -4.479   1.012  -0.075  1.00  0.00     0.244 C 
BRANCH  39  44
HETATM   44  N5  UNL     1      -1.666   1.365   2.221  1.00  0.00    -0.072 N 
ATOM     45  H53 UNL     1      -0.839   1.349   1.624  1.00  0.00     0.274 HD
ATOM     46  H52 UNL     1      -1.812   2.374   2.204  1.00  0.00     0.274 HD
ATOM     47  H51 UNL     1      -1.498   0.995   3.157  1.00  0.00     0.274 HD
ENDBRANCH  39  44
BRANCH  41  48
HETATM   48  N6  UNL     1      -5.985   1.761   3.204  1.00  0.00    -0.072 N 
ATOM     49  H63 UNL     1      -6.014   1.259   4.091  1.00  0.00     0.274 HD
ATOM     50  H62 UNL     1      -5.467   2.587   3.505  1.00  0.00     0.274 HD
ATOM     51  H61 UNL     1      -6.922   2.006   2.884  1.00  0.00     0.274 HD
ENDBRANCH  41  48
BRANCH  42  52
HETATM   52  O5  UNL     1      -4.588   3.029   1.130  1.00  0.00    -0.391 OA
ATOM     53  H5  UNL     1      -4.602   3.544   0.332  1.00  0.00     0.210 HD
ENDBRANCH  42  52
BRANCH  43  54
HETATM   54  N7  UNL     1      -4.970  -0.339   0.007  1.00  0.00    -0.070 N 
ATOM     55  H73 UNL     1      -4.388  -0.972  -0.541  1.00  0.00     0.274 HD
ATOM     56  H72 UNL     1      -4.811  -0.729   0.936  1.00  0.00     0.274 HD
ATOM     57  H71 UNL     1      -5.951  -0.422  -0.260  1.00  0.00     0.274 HD
ENDBRANCH  43  54
ENDBRANCH  37  38
ENDBRANCH   3  37
BRANCH   4  58
HETATM   58  N8  UNL     1      -2.205   0.073  -3.025  1.00  0.00    -0.070 N 
ATOM     59  H83 UNL     1      -1.599  -0.697  -2.742  1.00  0.00     0.274 HD
ATOM     60  H82 UNL     1      -3.015  -0.147  -2.446  1.00  0.00     0.274 HD
ATOM     61  H81 UNL     1      -2.430   0.030  -4.019  1.00  0.00     0.274 HD
ENDBRANCH   4  58
TORSDOF 17
