REMARK  16 active torsions:
REMARK  status: ('A' for Active; 'I' for Inactive)
REMARK    1  A    between atoms: N1_1  and  C1_5 
REMARK    2  A    between atoms: C1_5  and  C2_6 
REMARK    3  A    between atoms: C1_5  and  C3_9 
REMARK    4  A    between atoms: C2_6  and  O1_7 
REMARK    5  A    between atoms: C3_9  and  O2_10 
REMARK    6  A    between atoms: C3_9  and  C4_12 
REMARK    7  A    between atoms: C4_12  and  O3_13 
REMARK    8  A    between atoms: C4_12  and  C5_15 
REMARK    9  A    between atoms: C5_15  and  O4_16 
REMARK   10  A    between atoms: O4_16  and  N2_17 
REMARK   11  A    between atoms: N3_20  and  C8_21 
REMARK   12  A    between atoms: C8_21  and  N4_22 
REMARK   13  A    between atoms: C8_21  and  C9_26 
REMARK   14  A    between atoms: C9_26  and  C10_27 
REMARK   15  A    between atoms: C17_45  and  N9_46 
REMARK   16  A    between atoms: C18_50  and  O6_51 
ROOT
HETATM    1  N2  UNL     1       2.650  -1.297  -0.006  1.00  0.00    -0.256 N 
HETATM    2  C6  UNL     1       1.982  -1.982   1.037  1.00  0.00     0.197 C 
HETATM    3  C7  UNL     1       0.491  -1.852   1.078  1.00  0.00     0.084 C 
HETATM    4  N3  UNL     1      -0.006  -0.610   0.679  1.00  0.00    -0.333 N 
HETATM    5  C17 UNL     1       0.872   0.299   0.056  1.00  0.00     0.335 C 
HETATM    6  C18 UNL     1       1.793  -0.537  -0.842  1.00  0.00     0.291 C 
ENDROOT
BRANCH   4   7
HETATM    7  C8  UNL     1      -1.341  -0.280   0.898  1.00  0.00     0.292 C 
BRANCH   7   8
HETATM    8  N4  UNL     1      -1.670  -0.188   2.300  1.00  0.00    -0.058 N 
ATOM      9  H43 UNL     1      -1.420  -1.046   2.791  1.00  0.00     0.276 HD
ATOM     10  H42 UNL     1      -1.049   0.464   2.779  1.00  0.00     0.276 HD
ATOM     11  H41 UNL     1      -2.648   0.054   2.460  1.00  0.00     0.276 HD
ENDBRANCH   7   8
BRANCH   7  12
HETATM   12  C9  UNL     1      -2.341  -1.145   0.194  1.00  0.00     0.130 C 
BRANCH  12  13
HETATM   13  C10 UNL     1      -3.772  -0.724   0.477  1.00  0.00     0.086 A 
HETATM   14  N5  UNL     1      -4.580  -0.212  -0.351  1.00  0.00    -0.316 N 
HETATM   15  C11 UNL     1      -5.848   0.068   0.242  1.00  0.00     0.444 A 
ATOM     16  H5  UNL     1      -4.352  -0.022  -1.327  1.00  0.00     0.165 HD
HETATM   17  N6  UNL     1      -6.113   1.463   0.066  1.00  0.00    -0.013 N 
HETATM   18  N7  UNL     1      -6.911  -0.735  -0.366  1.00  0.00    -0.013 N 
HETATM   19  C16 UNL     1      -5.706  -0.381   1.629  1.00  0.00     0.310 A 
HETATM   20  C12 UNL     1      -7.281   1.925   0.714  1.00  0.00     0.238 C 
ATOM     21  H62 UNL     1      -5.306   2.016   0.353  1.00  0.00     0.282 HD
ATOM     22  H61 UNL     1      -6.142   1.696  -0.927  1.00  0.00     0.282 HD
HETATM   23  C13 UNL     1      -8.496   1.178   0.220  1.00  0.00     0.029 C 
HETATM   24  C14 UNL     1      -8.428   0.944  -1.281  1.00  0.00     0.029 C 
HETATM   25  C15 UNL     1      -7.406  -0.141  -1.597  1.00  0.00     0.238 C 
ATOM     26  H72 UNL     1      -6.608  -1.698  -0.515  1.00  0.00     0.282 HD
ATOM     27  H71 UNL     1      -7.670  -0.905   0.294  1.00  0.00     0.282 HD
HETATM   28  O5  UNL     1      -6.509  -0.384   2.590  1.00  0.00    -0.266 OA
HETATM   29  N8  UNL     1      -4.379  -0.868   1.737  1.00  0.00    -0.311 N 
ATOM     30  H8  UNL     1      -3.944  -1.253   2.576  1.00  0.00     0.170 HD
ENDBRANCH  12  13
ENDBRANCH   7  12
ENDBRANCH   4   7
BRANCH   5  31
HETATM   31  N9  UNL     1       0.175   1.291  -0.701  1.00  0.00    -0.054 N 
ATOM     32  H93 UNL     1      -0.455   0.862  -1.379  1.00  0.00     0.277 HD
ATOM     33  H92 UNL     1      -0.513   1.778  -0.126  1.00  0.00     0.277 HD
ATOM     34  H91 UNL     1       0.811   1.949  -1.152  1.00  0.00     0.277 HD
ENDBRANCH   5  31
BRANCH   6  35
HETATM   35  O6  UNL     1       0.928  -1.443  -1.500  1.00  0.00    -0.371 OA
ATOM     36  H6  UNL     1       0.354  -0.934  -2.060  1.00  0.00     0.212 HD
ENDBRANCH   6  35
BRANCH   1  37
HETATM   37  O4  UNL     1       3.816  -0.767   0.322  1.00  0.00    -0.277 OA
BRANCH  37  38
HETATM   38  C5  UNL     1       4.240   0.251  -0.492  1.00  0.00     0.235 C 
BRANCH  38  39
HETATM   39  C4  UNL     1       5.599   0.802  -0.045  1.00  0.00     0.175 C 
BRANCH  39  40
HETATM   40  C3  UNL     1       6.620  -0.274  -0.203  1.00  0.00     0.181 C 
BRANCH  40  41
HETATM   41  C1  UNL     1       8.013   0.105   0.215  1.00  0.00     0.237 C 
BRANCH  41  42
HETATM   42  N1  UNL     1       8.851  -1.099   0.005  1.00  0.00    -0.070 N 
ATOM     43  H13 UNL     1       8.991  -1.338  -0.977  1.00  0.00     0.274 HD
ATOM     44  H12 UNL     1       9.835  -0.961   0.234  1.00  0.00     0.274 HD
ATOM     45  H11 UNL     1       8.401  -1.836   0.548  1.00  0.00     0.274 HD
ENDBRANCH  41  42
BRANCH  41  46
HETATM   46  C2  UNL     1       8.669   1.178  -0.576  1.00  0.00     0.199 C 
BRANCH  46  47
HETATM   47  O1  UNL     1       8.005   2.383  -0.435  1.00  0.00    -0.399 OA
ATOM     48  H1  UNL     1       8.424   3.069  -0.941  1.00  0.00     0.209 HD
ENDBRANCH  46  47
ENDBRANCH  41  46
ENDBRANCH  40  41
BRANCH  40  49
HETATM   49  O2  UNL     1       6.240  -1.362   0.619  1.00  0.00    -0.391 OA
ATOM     50  H2  UNL     1       5.359  -1.602   0.355  1.00  0.00     0.210 HD
ENDBRANCH  40  49
ENDBRANCH  39  40
BRANCH  39  51
HETATM   51  O3  UNL     1       5.517   1.291   1.244  1.00  0.00    -0.391 OA
ATOM     52  H3  UNL     1       4.867   1.976   1.345  1.00  0.00     0.210 HD
ENDBRANCH  39  51
ENDBRANCH  38  39
ENDBRANCH  37  38
ENDBRANCH   1  37
TORSDOF 16
