REMARK  6 active torsions:
REMARK  status: ('A' for Active; 'I' for Inactive)
REMARK    1  A    between atoms: C2_2  and  C3_4 
REMARK       I    between atoms: N1_7  and  C6_8 
REMARK    2  A    between atoms: C6_8  and  C7_10 
REMARK    3  A    between atoms: C7_10  and  O2_11 
REMARK    4  A    between atoms: O2_11  and  C8_12 
REMARK    5  A    between atoms: C11_15  and  N2_16 
REMARK    6  A    between atoms: C15_23  and  C16_24 
ROOT
HETATM    1  C3  UNL     1       4.371   0.695   0.258  1.00  0.00     0.034 C 
HETATM    2  C4  UNL     1       3.216   0.648   1.243  1.00  0.00     0.030 C 
HETATM    3  C5  UNL     1       1.968   0.974   0.443  1.00  0.00     0.126 C 
HETATM    4  N1  UNL     1       1.913   0.332  -0.835  1.00  0.00    -0.350 N 
HETATM    5  C6  UNL     1       0.664  -0.139  -1.309  1.00  0.00     0.243 C 
HETATM    6  O1  UNL     1       0.583  -0.702  -2.418  1.00  0.00    -0.271 OA
HETATM    7  C14 UNL     1       3.079   0.131  -1.687  1.00  0.00     0.133 C 
HETATM    8  C15 UNL     1       4.165  -0.406  -0.717  1.00  0.00     0.041 C 
ENDROOT
BRANCH   5   9
HETATM    9  C7  UNL     1      -0.572   0.034  -0.484  1.00  0.00     0.271 C 
BRANCH   9  10
HETATM   10  O2  UNL     1      -1.664  -0.506  -1.164  1.00  0.00    -0.377 OA
BRANCH  10  11
HETATM   11  C8  UNL     1      -2.837  -0.386  -0.471  1.00  0.00     0.122 C 
HETATM   12  C9  UNL     1      -3.515  -1.688  -0.174  1.00  0.00     0.034 C 
HETATM   13  C10 UNL     1      -4.698  -1.501   0.703  1.00  0.00     0.035 C 
HETATM   14  C11 UNL     1      -5.593  -0.374   0.346  1.00  0.00     0.183 C 
HETATM   15  C12 UNL     1      -4.901   0.850  -0.156  1.00  0.00     0.035 C 
HETATM   16  C13 UNL     1      -3.857   0.487  -1.208  1.00  0.00     0.034 C 
BRANCH  14  17
HETATM   17  N2  UNL     1      -6.318   0.014   1.568  1.00  0.00    -0.075 N 
ATOM     18  H23 UNL     1      -6.812  -0.765   2.003  1.00  0.00     0.274 HD
ATOM     19  H22 UNL     1      -5.698   0.229   2.348  1.00  0.00     0.274 HD
ATOM     20  H21 UNL     1      -6.934   0.789   1.322  1.00  0.00     0.274 HD
ENDBRANCH  14  17
ENDBRANCH  10  11
ENDBRANCH   9  10
ENDBRANCH   5   9
BRANCH   8  21
HETATM   21  C16 UNL     1       3.591  -1.678  -0.184  1.00  0.00     0.229 C 
HETATM   22  F1  UNL     1       4.298  -2.312   0.778  1.00  0.00    -0.255 F 
ENDBRANCH   8  21
BRANCH   1  23
HETATM   23  C2  UNL     1       5.687   0.847   0.853  1.00  0.00    -0.016 C 
HETATM   24  C1  UNL     1       6.364   1.982   0.670  1.00  0.00     0.027 C 
HETATM   25 BR1  UNL     1       6.585  -0.454   1.926  1.00  0.00    -0.056 Br
ENDBRANCH   1  23
TORSDOF 6
