REMARK  5 active torsions:
REMARK  status: ('A' for Active; 'I' for Inactive)
REMARK    1  A    between atoms: C4_4  and  C5_5 
REMARK    2  A    between atoms: C5_5  and  S1_6 
REMARK    3  A    between atoms: S1_6  and  N1_9 
REMARK    4  A    between atoms: C14_20  and  C15_21 
REMARK    5  A    between atoms: C15_21  and  C16_22 
ROOT
HETATM    1  C1  UNL     1      -2.104   2.672  -3.295  1.00  0.00     0.010 C 
HETATM    2  C2  UNL     1      -1.877   1.911  -2.018  1.00  0.00    -0.017 C 
HETATM    3  C3  UNL     1      -0.880   0.759  -2.241  1.00  0.00     0.016 C 
HETATM    4  C4  UNL     1      -1.154  -0.090  -1.009  1.00  0.00    -0.009 C 
HETATM    5  C11 UNL     1      -1.275  -1.516  -1.539  1.00  0.00     0.017 C 
HETATM    6  C12 UNL     1      -2.744  -1.701  -1.766  1.00  0.00     0.081 C 
HETATM    7  C13 UNL     1      -3.336  -0.999  -0.562  1.00  0.00     0.255 C 
HETATM    8  F1  UNL     1      -4.641  -0.663  -0.913  1.00  0.00    -0.205 F 
HETATM    9  F2  UNL     1      -3.272  -1.885   0.447  1.00  0.00    -0.205 F 
HETATM   10  C14 UNL     1      -2.462   0.228  -0.458  1.00  0.00     0.057 C 
HETATM   11  C17 UNL     1      -3.085   1.128  -1.590  1.00  0.00     0.025 C 
ENDROOT
BRANCH   4  12
HETATM   12  C5  UNL     1       0.046   0.017  -0.109  1.00  0.00     0.168 C 
BRANCH  12  13
HETATM   13  S1  UNL     1       1.549  -0.564  -0.767  1.00  0.00     0.212 S 
HETATM   14  O1  UNL     1       1.478  -2.075  -0.982  1.00  0.00    -0.211 OA
HETATM   15  O2  UNL     1       2.037   0.006  -2.023  1.00  0.00    -0.211 OA
BRANCH  13  16
HETATM   16  N1  UNL     1       2.836  -0.366   0.402  1.00  0.00    -0.211 NA
HETATM   17  C6  UNL     1       2.621  -1.105   1.600  1.00  0.00     0.107 C 
HETATM   18  C7  UNL     1       3.953  -1.355   2.285  1.00  0.00     0.015 C 
HETATM   19  C8  UNL     1       4.881  -0.167   2.149  1.00  0.00     0.002 C 
HETATM   20  C9  UNL     1       5.116   0.257   0.732  1.00  0.00     0.015 C 
HETATM   21  C10 UNL     1       4.134  -0.461  -0.171  1.00  0.00     0.107 C 
ENDBRANCH  13  16
ENDBRANCH  12  13
ENDBRANCH   4  12
BRANCH  10  22
HETATM   22  C15 UNL     1      -2.651   1.041   0.741  1.00  0.00     0.060 C 
BRANCH  22  23
HETATM   23  C16 UNL     1      -2.123   0.697   2.042  1.00  0.00     0.251 C 
HETATM   24  N2  UNL     1      -2.632  -0.355   2.890  1.00  0.00    -0.058 NA
HETATM   25  O3  UNL     1      -1.126   1.304   2.593  1.00  0.00    -0.272 OA
ENDBRANCH  22  23
ENDBRANCH  10  22
TORSDOF 5
