REMARK  7 active torsions:
REMARK  status: ('A' for Active; 'I' for Inactive)
REMARK    1  A    between atoms: N1_2  and  C3_4 
REMARK    2  A    between atoms: C3_4  and  C4_5 
REMARK    3  A    between atoms: C4_5  and  O1_6 
REMARK    4  A    between atoms: C4_5  and  N2_8 
REMARK    5  A    between atoms: C7_11  and  C8_12 
REMARK       I    between atoms: C8_12  and  N3_14 
REMARK    6  A    between atoms: N3_14  and  C9_16 
REMARK    7  A    between atoms: C9_16  and  C10_17 
ROOT
HETATM    1  N2  UNL     1      -0.707   0.626   0.247  1.00  0.00    -0.363 N 
HETATM    2  C5  UNL     1      -0.397  -0.346   1.248  1.00  0.00     0.125 C 
HETATM    3  C6  UNL     1       0.918  -0.995   0.772  1.00  0.00     0.034 C 
HETATM    4  C7  UNL     1       1.980   0.031   0.960  1.00  0.00     0.081 C 
HETATM    5  C13 UNL     1       1.679   1.318   0.296  1.00  0.00     0.034 C 
HETATM    6  C14 UNL     1       0.320   1.583  -0.186  1.00  0.00     0.125 C 
ENDROOT
BRANCH   1   7
HETATM    7  C4  UNL     1      -1.963   0.714  -0.370  1.00  0.00     0.153 C 
BRANCH   7   8
HETATM    8  C3  UNL     1      -3.145  -0.160  -0.201  1.00  0.00     0.222 C 
HETATM    9  C15 UNL     1      -3.995   0.016  -1.431  1.00  0.00     0.050 C 
HETATM   10  C16 UNL     1      -5.032   1.096  -1.333  1.00  0.00     0.003 C 
HETATM   11  C17 UNL     1      -5.955   0.640  -0.193  1.00  0.00     0.000 C 
HETATM   12  C18 UNL     1      -5.158   0.792   1.058  1.00  0.00     0.003 C 
HETATM   13  C19 UNL     1      -3.800   0.235   1.078  1.00  0.00     0.050 C 
BRANCH   8  14
HETATM   14  N1  UNL     1      -2.694  -1.526  -0.209  1.00  0.00     0.097 N 
HETATM   15  C1  UNL     1      -2.097  -1.916  -1.463  1.00  0.00     0.310 C 
HETATM   16  C2  UNL     1      -3.633  -2.487   0.230  1.00  0.00     0.310 C 
ENDBRANCH   8  14
ENDBRANCH   7   8
BRANCH   7  17
HETATM   17  O1  UNL     1      -2.090   1.709  -1.199  1.00  0.00    -0.347 OA
ATOM     18  H1  UNL     1      -1.331   2.270  -1.308  1.00  0.00     0.219 HD
ENDBRANCH   7  17
ENDBRANCH   1   7
BRANCH   4  19
HETATM   19  C8  UNL     1       3.306  -0.536   0.518  1.00  0.00     0.221 C 
HETATM   20  O2  UNL     1       3.353  -1.706   0.067  1.00  0.00    -0.273 OA
HETATM   21  N3  UNL     1       4.473   0.254   0.616  1.00  0.00    -0.360 N 
ATOM     22  H3  UNL     1       4.421   1.204   0.984  1.00  0.00     0.162 HD
BRANCH  21  23
HETATM   23  C9  UNL     1       5.742  -0.295   0.191  1.00  0.00     0.133 C 
BRANCH  23  24
HETATM   24  C10 UNL     1       6.868   0.707   0.379  1.00  0.00     0.081 A 
HETATM   25  C11 UNL     1       8.251   0.293  -0.013  1.00  0.00     0.091 A 
HETATM   26  C12 UNL     1       7.503   1.287  -0.889  1.00  0.00     0.249 A 
HETATM   27  F1  UNL     1       6.990   0.803  -2.096  1.00  0.00    -0.206 F 
HETATM   28  F2  UNL     1       7.892   2.601  -0.866  1.00  0.00    -0.206 F 
ENDBRANCH  23  24
ENDBRANCH  21  23
ENDBRANCH   4  19
TORSDOF 7
