REMARK  5 active torsions:
REMARK  status: ('A' for Active; 'I' for Inactive)
REMARK    1  A    between atoms: C3_3  and  C4_4 
REMARK       I    between atoms: C4_4  and  N1_6 
REMARK    2  A    between atoms: N1_6  and  C5_8 
REMARK    3  A    between atoms: N2_10  and  C7_11 
REMARK    4  A    between atoms: N3_22  and  C16_23 
REMARK    5  A    between atoms: C16_23  and  C17_24 
ROOT
HETATM    1  C1  UNL     1       1.988   1.760  -2.512  1.00  0.00     0.013 C 
HETATM    2  C2  UNL     1       1.755   0.776  -1.835  1.00  0.00    -0.097 C 
HETATM    3  C3  UNL     1       1.466  -0.433  -1.029  1.00  0.00     0.107 C 
HETATM    4  C13 UNL     1       2.285  -1.594  -1.468  1.00  0.00     0.034 C 
HETATM    5  C14 UNL     1       3.717  -1.331  -1.768  1.00  0.00     0.022 C 
HETATM    6  C15 UNL     1       4.445  -1.433  -0.412  1.00  0.00     0.127 C 
HETATM    7  N3  UNL     1       4.059  -0.271   0.306  1.00  0.00    -0.373 N 
HETATM    8  C20 UNL     1       2.908  -0.291   1.066  1.00  0.00     0.065 C 
HETATM    9  C21 UNL     1       1.587  -0.077   0.436  1.00  0.00     0.077 C 
ENDROOT
BRANCH   3  10
HETATM   10  C4  UNL     1       0.041  -0.805  -1.248  1.00  0.00     0.239 C 
HETATM   11  O1  UNL     1      -0.194  -1.758  -2.037  1.00  0.00    -0.272 OA
HETATM   12  N1  UNL     1      -1.053  -0.158  -0.632  1.00  0.00    -0.352 N 
ATOM     13  H1  UNL     1      -0.915   0.619   0.014  1.00  0.00     0.163 HD
BRANCH  12  14
HETATM   14  C5  UNL     1      -2.372  -0.640  -0.953  1.00  0.00     0.141 C 
HETATM   15  C6  UNL     1      -3.491   0.362  -0.860  1.00  0.00     0.299 C 
HETATM   16  N2  UNL     1      -4.309  -0.743  -0.334  1.00  0.00     0.097 N 
HETATM   17  C12 UNL     1      -3.064  -1.204   0.301  1.00  0.00     0.299 C 
BRANCH  16  18
HETATM   18  C7  UNL     1      -5.314  -0.301   0.582  1.00  0.00     0.229 C 
HETATM   19  C8  UNL     1      -6.535  -1.217   0.490  1.00  0.00     0.042 C 
HETATM   20  C9  UNL     1      -7.741  -0.328   0.436  1.00  0.00     0.081 C 
HETATM   21  C10 UNL     1      -7.205   1.050   0.842  1.00  0.00     0.245 C 
HETATM   22  F1  UNL     1      -7.097   1.026   2.213  1.00  0.00    -0.206 F 
HETATM   23  F2  UNL     1      -8.061   1.988   0.351  1.00  0.00    -0.206 F 
HETATM   24  C11 UNL     1      -5.840   1.055   0.185  1.00  0.00     0.114 C 
ENDBRANCH  16  18
ENDBRANCH  12  14
ENDBRANCH   3  10
BRANCH   7  25
HETATM   25  C16 UNL     1       4.792   0.903   0.063  1.00  0.00     0.067 C 
BRANCH  25  26
HETATM   26  C17 UNL     1       6.223   0.839   0.562  1.00  0.00     0.024 A 
HETATM   27  C18 UNL     1       7.026   2.117   0.288  1.00  0.00     0.010 A 
HETATM   28  C19 UNL     1       6.659   1.715   1.707  1.00  0.00     0.010 A 
ENDBRANCH  25  26
ENDBRANCH   7  25
TORSDOF 5
