REMARK  0 active torsions:
REMARK  status: ('A' for Active; 'I' for Inactive)
ROOT
HETATM    1  N1  UNL     1       3.247  -1.666  -0.585  1.00  0.00    -0.194 NA
HETATM    2  C1  UNL     1       2.238  -1.185  -0.354  1.00  0.00     0.108 C 
HETATM    3  C2  UNL     1       0.953  -0.594  -0.073  1.00  0.00     0.277 C 
HETATM    4  C3  UNL     1       0.653   0.552  -1.048  1.00  0.00     0.065 C 
HETATM    5  C4  UNL     1      -0.521   1.320  -0.442  1.00  0.00     0.029 C 
HETATM    6  C5  UNL     1      -1.566   0.411   0.128  1.00  0.00     0.133 C 
HETATM    7  C6  UNL     1      -1.404  -0.954  -0.446  1.00  0.00     0.258 C 
HETATM    8  N2  UNL     1      -0.124  -1.550  -0.268  1.00  0.00    -0.044 N 
ATOM      9  H21 UNL     1      -0.147  -2.224   0.497  1.00  0.00     0.279 HD
ATOM     10  H22 UNL     1       0.090  -2.176  -1.044  1.00  0.00     0.279 HD
HETATM   11  N3  UNL     1      -1.564   0.390   1.586  1.00  0.00    -0.086 NA
HETATM   12  O1  UNL     1      -0.251   0.308   2.025  1.00  0.00    -0.227 OA
HETATM   13  C7  UNL     1       0.874   0.012   1.281  1.00  0.00     0.187 C 
HETATM   14  N4  UNL     1       2.024   0.282   1.796  1.00  0.00    -0.379 N 
ATOM     15  H41 UNL     1       1.970   0.698   2.726  1.00  0.00     0.158 HD
ATOM     16  H42 UNL     1       2.855   0.063   1.246  1.00  0.00     0.158 HD
ENDROOT
TORSDOF 0
