REMARK  3 active torsions:
REMARK  status: ('A' for Active; 'I' for Inactive)
REMARK    1  A    between atoms: N1_4  and  O1_6 
REMARK    2  A    between atoms: C6_10  and  O2_11 
REMARK    3  A    between atoms: C7_13  and  O3_14 
ROOT
HETATM    1  C1  UNL     1       1.535   1.775   0.155  1.00  0.00     0.019 C 
HETATM    2  C2  UNL     1       0.540   0.930  -0.576  1.00  0.00     0.060 C 
HETATM    3  C3  UNL     1       0.958  -0.497  -0.420  1.00  0.00     0.016 C 
HETATM    4  N1  UNL     1       2.146  -0.796  -0.033  1.00  0.00    -0.277 N 
ATOM      5  H1  UNL     1       2.811  -0.050   0.170  1.00  0.00     0.193 HD
HETATM    6  C4  UNL     1      -0.003  -1.616  -0.714  1.00  0.00     0.057 C 
HETATM    7  C5  UNL     1      -1.425  -1.172  -0.489  1.00  0.00     0.040 C 
HETATM    8  C6  UNL     1      -1.366  -0.093   0.598  1.00  0.00     0.148 C 
HETATM    9  C7  UNL     1      -0.871   1.163  -0.095  1.00  0.00     0.156 C 
ENDROOT
BRANCH   4  10
HETATM   10  O1  UNL     1       2.532  -2.104   0.111  1.00  0.00    -0.290 OA
ATOM     11  H1  UNL     1       3.410  -2.325   0.397  1.00  0.00     0.244 HD
ENDBRANCH   4  10
BRANCH   9  12
HETATM   12  O3  UNL     1      -0.958   2.249   0.774  1.00  0.00    -0.392 OA
ATOM     13  H3  UNL     1      -1.846   2.396   1.077  1.00  0.00     0.210 HD
ENDBRANCH   9  12
BRANCH   8  14
HETATM   14  O2  UNL     1      -2.626   0.118   1.157  1.00  0.00    -0.393 OA
ATOM     15  H2  UNL     1      -2.589   0.787   1.831  1.00  0.00     0.210 HD
ENDBRANCH   8  14
TORSDOF 3
