REMARK  2 active torsions:
REMARK  status: ('A' for Active; 'I' for Inactive)
REMARK    1  A    between atoms: C2_2  and  O1_3 
REMARK    2  A    between atoms: N1_10  and  O3_11 
ROOT
HETATM    1  C1  UNL     1      -2.016  -0.126   0.415  1.00  0.00     0.074 C 
HETATM    2  C2  UNL     1      -0.643  -0.238  -0.156  1.00  0.00     0.165 C 
HETATM    3  C3  UNL     1      -0.078  -1.578   0.296  1.00  0.00     0.137 C 
HETATM    4  S1  UNL     1       1.601  -1.813  -0.332  1.00  0.00    -0.155 SA
HETATM    5  C4  UNL     1       2.367  -0.175  -0.470  1.00  0.00     0.179 C 
HETATM    6  C5  UNL     1       1.583   0.821   0.295  1.00  0.00     0.255 C 
HETATM    7  O2  UNL     1       2.192   1.661   1.003  1.00  0.00    -0.270 OA
HETATM    8  N1  UNL     1       0.171   0.870   0.267  1.00  0.00    -0.191 N 
ENDROOT
BRANCH   2   9
HETATM    9  O1  UNL     1      -0.748  -0.218  -1.554  1.00  0.00    -0.368 OA
ATOM     10  H1  UNL     1       0.127  -0.289  -1.918  1.00  0.00     0.212 HD
ENDBRANCH   2   9
BRANCH   8  11
HETATM   11  O3  UNL     1      -0.429   2.014   0.655  1.00  0.00    -0.282 OA
ATOM     12  H3  UNL     1       0.109   2.746   0.934  1.00  0.00     0.245 HD
ENDBRANCH   8  11
TORSDOF 2
