REMARK  11 active torsions:
REMARK  status: ('A' for Active; 'I' for Inactive)
REMARK    1  A    between atoms: C2_2  and  C3_3 
REMARK    2  A    between atoms: C3_3  and  C4_4 
REMARK    3  A    between atoms: C4_4  and  N1_5 
REMARK    4  A    between atoms: C7_8  and  N2_9 
REMARK       I    between atoms: N2_9  and  C8_11 
REMARK       I    between atoms: C8_11  and  N3_13 
REMARK    5  A    between atoms: N3_13  and  C9_15 
REMARK    6  A    between atoms: C9_15  and  C10_16 
REMARK    7  A    between atoms: C10_16  and  N4_17 
REMARK    8  A    between atoms: N4_17  and  C11_19 
REMARK    9  A    between atoms: C19_30  and  N7_31 
REMARK   10  A    between atoms: C25_38  and  O2_39 
REMARK   11  A    between atoms: O2_39  and  C26_40 
ROOT
HETATM    1  C11 UNL     1       7.412  -1.011   0.394  1.00  0.00     0.106 A 
HETATM    2  N5  UNL     1       7.645  -0.045  -0.507  1.00  0.00    -0.351 N 
ATOM      3  H5  UNL     1       6.851   0.390  -0.978  1.00  0.00     0.166 HD
HETATM    4  C12 UNL     1       8.906   0.378  -0.817  1.00  0.00     0.112 A 
HETATM    5  C13 UNL     1      10.031  -0.157  -0.227  1.00  0.00     0.060 A 
HETATM    6  C14 UNL     1      11.352   0.294  -0.560  1.00  0.00     0.101 C 
HETATM    7  N6  UNL     1      12.420   0.670  -0.846  1.00  0.00    -0.191 NA
HETATM    8  C15 UNL     1       9.810  -1.152   0.701  1.00  0.00     0.034 A 
HETATM    9  C16 UNL     1       8.537  -1.572   1.007  1.00  0.00    -0.017 A 
HETATM   10  C17 UNL     1       8.289  -2.645   2.009  1.00  0.00     0.052 C 
ENDROOT
BRANCH   1  11
HETATM   11  N4  UNL     1       6.228  -1.422   0.695  1.00  0.00    -0.374 N 
ATOM     12  H4  UNL     1       6.154  -2.162   1.393  1.00  0.00     0.161 HD
BRANCH  11  13
HETATM   13  C10 UNL     1       5.000  -0.924   0.129  1.00  0.00     0.141 C 
BRANCH  13  14
HETATM   14  C9  UNL     1       4.586   0.338   0.841  1.00  0.00     0.144 C 
BRANCH  14  15
HETATM   15  N3  UNL     1       3.382   0.934   0.370  1.00  0.00    -0.341 N 
HETATM   16  C8  UNL     1       2.099   0.303   0.379  1.00  0.00     0.320 C 
HETATM   17  N2  UNL     1       0.991   0.989  -0.114  1.00  0.00    -0.308 N 
HETATM   18  O1  UNL     1       2.049  -0.857   0.842  1.00  0.00    -0.247 OA
ATOM     19  H2  UNL     1       1.185   1.929  -0.459  1.00  0.00     0.170 HD
ATOM     20  H3  UNL     1       3.439   1.882  -0.002  1.00  0.00     0.164 HD
BRANCH  17  21
HETATM   21  C7  UNL     1      -0.351   0.587  -0.209  1.00  0.00     0.047 A 
HETATM   22  C6  UNL     1      -1.296   1.473  -0.750  1.00  0.00     0.005 A 
HETATM   23  C5  UNL     1      -1.094   2.823  -1.283  1.00  0.00     0.168 A 
HETATM   24  C28 UNL     1      -2.613   1.093  -0.848  1.00  0.00     0.077 A 
HETATM   25  N1  UNL     1      -2.453   3.269  -1.662  1.00  0.00    -0.344 N 
HETATM   26  C29 UNL     1      -3.370   2.222  -1.431  1.00  0.00     0.257 A 
HETATM   27  O3  UNL     1      -4.617   2.171  -1.652  1.00  0.00    -0.267 OA
HETATM   28  C25 UNL     1      -3.064  -0.170  -0.425  1.00  0.00     0.111 A 
HETATM   29  C19 UNL     1      -2.143  -1.030   0.100  1.00  0.00     0.067 A 
HETATM   30  C18 UNL     1      -0.807  -0.622   0.192  1.00  0.00     0.062 A 
BRANCH  25  31
HETATM   31  C4  UNL     1      -2.757   4.603  -2.171  1.00  0.00     0.126 C 
BRANCH  31  32
HETATM   32  C3  UNL     1      -2.990   5.614  -1.119  1.00  0.00     0.020 C 
BRANCH  32  33
HETATM   33  C2  UNL     1      -4.133   5.441  -0.197  1.00  0.00    -0.003 C 
HETATM   34  C1  UNL     1      -5.493   5.464  -0.816  1.00  0.00     0.005 C 
ENDBRANCH  32  33
ENDBRANCH  31  32
ENDBRANCH  25  31
BRANCH  28  35
HETATM   35  O2  UNL     1      -4.407  -0.472  -0.559  1.00  0.00    -0.348 OA
BRANCH  35  36
HETATM   36  C26 UNL     1      -5.391  -0.226   0.399  1.00  0.00     0.171 C 
HETATM   37  C27 UNL     1      -6.731  -0.705  -0.160  1.00  0.00     0.034 C 
ENDBRANCH  35  36
ENDBRANCH  28  35
BRANCH  29  38
HETATM   38  N7  UNL     1      -2.568  -2.326   0.534  1.00  0.00    -0.375 N 
HETATM   39  C20 UNL     1      -3.188  -3.219  -0.406  1.00  0.00     0.153 C 
HETATM   40  C21 UNL     1      -4.333  -3.982   0.155  1.00  0.00     0.291 C 
HETATM   41  N8  UNL     1      -4.124  -4.454   1.496  1.00  0.00     0.087 N 
HETATM   42  C22 UNL     1      -3.471  -5.724   1.580  1.00  0.00     0.310 C 
HETATM   43  C23 UNL     1      -3.614  -3.450   2.380  1.00  0.00     0.291 C 
HETATM   44  C24 UNL     1      -2.369  -2.768   1.895  1.00  0.00     0.153 C 
ENDBRANCH  29  38
ENDBRANCH  17  21
ENDBRANCH  14  15
ENDBRANCH  13  14
ENDBRANCH  11  13
ENDBRANCH   1  11
TORSDOF 11
