REMARK  13 active torsions:
REMARK  status: ('A' for Active; 'I' for Inactive)
REMARK    1  A    between atoms: C3_3  and  C5_5 
REMARK    2  A    between atoms: C7_7  and  C8_8 
REMARK    3  A    between atoms: C8_8  and  N1_9 
REMARK    4  A    between atoms: N1_9  and  C10_11 
REMARK    5  A    between atoms: C10_11  and  C11_12 
REMARK    6  A    between atoms: C11_12  and  C12_13 
REMARK    7  A    between atoms: C12_13  and  N2_14 
REMARK    8  A    between atoms: N2_14  and  S1_16 
REMARK    9  A    between atoms: S1_16  and  N3_18 
REMARK   10  A    between atoms: N4_21  and  C15_22 
REMARK   11  A    between atoms: C16_25  and  N6_26 
REMARK   12  A    between atoms: C19_31  and  O2_32 
REMARK   13  A    between atoms: C21_34  and  O3_35 
ROOT
HETATM    1  N3  UNL     1      -1.203  -2.103  -0.015  1.00  0.00    -0.312 N 
HETATM    2  C13 UNL     1      -1.234  -1.210   1.091  1.00  0.00     0.155 C 
HETATM    3  C14 UNL     1      -2.608  -0.629   1.337  1.00  0.00     0.161 C 
HETATM    4  N4  UNL     1      -3.251  -0.172   0.132  1.00  0.00    -0.214 N 
HETATM    5  C25 UNL     1      -2.546  -0.335  -1.114  1.00  0.00     0.161 C 
HETATM    6  C26 UNL     1      -1.895  -1.694  -1.180  1.00  0.00     0.155 C 
ENDROOT
BRANCH   4   7
HETATM    7  C15 UNL     1      -4.552   0.389   0.260  1.00  0.00     0.682 A 
HETATM    8  N5  UNL     1      -4.800   1.596   0.799  1.00  0.00    -0.176 N 
HETATM    9  C16 UNL     1      -6.041   2.121   0.904  1.00  0.00     0.127 A 
ATOM     10  H5  UNL     1      -4.012   2.143   1.146  1.00  0.00     0.186 HD
HETATM   11  C17 UNL     1      -7.132   1.413   0.445  1.00  0.00     0.038 A 
HETATM   12  C18 UNL     1      -8.433   1.850   0.499  1.00  0.00     0.057 A 
HETATM   13  C24 UNL     1      -6.879   0.183  -0.105  1.00  0.00     0.066 A 
HETATM   14  C19 UNL     1      -9.516   1.135   0.033  1.00  0.00     0.102 A 
HETATM   15  C21 UNL     1      -9.253  -0.117  -0.528  1.00  0.00     0.103 A 
HETATM   16  C23 UNL     1      -7.961  -0.576  -0.592  1.00  0.00     0.070 A 
HETATM   17  N7  UNL     1      -5.634  -0.291  -0.185  1.00  0.00    -0.191 N 
ATOM     18  H7  UNL     1      -5.491  -1.211  -0.602  1.00  0.00     0.184 HD
BRANCH   9  19
HETATM   19  N6  UNL     1      -6.246   3.277   1.431  1.00  0.00    -0.384 N 
ATOM     20  H62 UNL     1      -5.439   3.801   1.770  1.00  0.00     0.157 HD
ATOM     21  H61 UNL     1      -7.183   3.673   1.510  1.00  0.00     0.157 HD
ENDBRANCH   9  19
BRANCH  14  22
HETATM   22  O2  UNL     1     -10.820   1.619   0.111  1.00  0.00    -0.353 OA
HETATM   23  C20 UNL     1     -10.987   2.904   0.707  1.00  0.00     0.210 C 
ENDBRANCH  14  22
BRANCH  15  24
HETATM   24  O3  UNL     1     -10.295  -0.862  -1.007  1.00  0.00    -0.353 OA
HETATM   25  C22 UNL     1     -10.240  -2.123  -1.596  1.00  0.00     0.210 C 
ENDBRANCH  15  24
ENDBRANCH   4   7
BRANCH   1  26
HETATM   26  S1  UNL     1       0.269  -2.955  -0.240  1.00  0.00     0.214 S 
HETATM   27  O1  UNL     1       0.859  -3.351   1.096  1.00  0.00    -0.212 OA
BRANCH  26  28
HETATM   28  N2  UNL     1       1.483  -2.060  -1.127  1.00  0.00    -0.323 N 
ATOM     29  H2  UNL     1       1.578  -2.006  -2.141  1.00  0.00     0.171 HD
BRANCH  28  30
HETATM   30  C12 UNL     1       2.323  -1.413  -0.150  1.00  0.00     0.136 C 
BRANCH  30  31
HETATM   31  C11 UNL     1       3.386  -0.516  -0.797  1.00  0.00     0.064 C 
BRANCH  31  32
HETATM   32  C10 UNL     1       4.205   0.155   0.288  1.00  0.00     0.059 C 
BRANCH  32  33
HETATM   33  N1  UNL     1       4.944  -0.728   1.099  1.00  0.00    -0.394 N 
HETATM   34  C9  UNL     1       5.038  -0.434   2.470  1.00  0.00     0.148 C 
BRANCH  33  35
HETATM   35  C8  UNL     1       6.107  -1.341   0.481  1.00  0.00     0.149 C 
BRANCH  35  36
HETATM   36  C7  UNL     1       7.234  -0.384   0.449  1.00  0.00    -0.000 C 
HETATM   37  C5  UNL     1       7.820   0.025  -0.647  1.00  0.00    -0.059 C 
HETATM   38  C6  UNL     1       7.446  -0.435  -2.002  1.00  0.00     0.048 C 
BRANCH  37  39
HETATM   39  C3  UNL     1       8.923   0.984  -0.503  1.00  0.00    -0.060 C 
HETATM   40  C2  UNL     1       9.529   1.435  -1.574  1.00  0.00    -0.024 C 
HETATM   41  C1  UNL     1      10.651   2.425  -1.405  1.00  0.00     0.036 C 
HETATM   42  C4  UNL     1       9.323   1.428   0.846  1.00  0.00     0.048 C 
ENDBRANCH  37  39
ENDBRANCH  35  36
ENDBRANCH  33  35
ENDBRANCH  32  33
ENDBRANCH  31  32
ENDBRANCH  30  31
ENDBRANCH  28  30
ENDBRANCH  26  28
ENDBRANCH   1  26
TORSDOF 13
