REMARK  12 active torsions:
REMARK  status: ('A' for Active; 'I' for Inactive)
REMARK    1  A    between atoms: O1_2  and  C2_3 
REMARK    2  A    between atoms: C2_3  and  C3_4 
REMARK    3  A    between atoms: C3_4  and  C4_5 
REMARK    4  A    between atoms: C4_5  and  C5_6 
REMARK    5  A    between atoms: C5_6  and  N1_7 
REMARK    6  A    between atoms: C8_10  and  N2_11 
REMARK    7  A    between atoms: N2_11  and  C9_12 
REMARK    8  A    between atoms: C10_15  and  N4_16 
REMARK    9  A    between atoms: C20_29  and  N7_30 
REMARK       I    between atoms: N7_30  and  C21_32 
REMARK       I    between atoms: C21_32  and  N8_34 
REMARK   10  A    between atoms: N8_34  and  C22_36 
REMARK   11  A    between atoms: C22_36  and  C23_37 
REMARK   12  A    between atoms: C23_37  and  O3_38 
ROOT
HETATM    1  C9  UNL     1      -0.454  -0.623  -0.394  1.00  0.00     0.200 A 
HETATM    2  N3  UNL     1      -0.570  -1.948  -0.039  1.00  0.00    -0.164 N 
ATOM      3  H3  UNL     1       0.248  -2.409   0.359  1.00  0.00     0.187 HD
HETATM    4  C10 UNL     1      -1.677  -2.664  -0.181  1.00  0.00     0.683 A 
HETATM    5  N6  UNL     1      -2.749  -2.067  -0.700  1.00  0.00    -0.190 N 
ATOM      6  H6  UNL     1      -3.604  -2.611  -0.817  1.00  0.00     0.184 HD
HETATM    7  C16 UNL     1      -2.749  -0.796  -1.070  1.00  0.00     0.070 A 
HETATM    8  C17 UNL     1      -3.941  -0.282  -1.542  1.00  0.00    -0.032 A 
HETATM    9  C18 UNL     1      -5.118  -1.166  -1.681  1.00  0.00     0.050 C 
HETATM   10  C19 UNL     1      -3.947   1.067  -1.870  1.00  0.00     0.038 A 
HETATM   11  C20 UNL     1      -2.823   1.841  -1.727  1.00  0.00     0.037 A 
HETATM   12  C25 UNL     1      -1.645   1.291  -1.257  1.00  0.00     0.048 A 
HETATM   13  C26 UNL     1      -1.617  -0.045  -0.928  1.00  0.00     0.052 A 
ENDROOT
BRANCH   1  14
HETATM   14  N2  UNL     1       0.556  -0.001  -0.319  1.00  0.00    -0.424 NA
BRANCH  14  15
HETATM   15  C8  UNL     1       1.690   0.714  -0.240  1.00  0.00     0.168 C 
HETATM   16  C7  UNL     1       2.298   0.840   1.117  1.00  0.00     0.069 C 
HETATM   17  C6  UNL     1       3.813   0.623   1.153  1.00  0.00     0.275 C 
HETATM   18  N1  UNL     1       4.217  -0.633   0.695  1.00  0.00     0.088 N 
HETATM   19  C28 UNL     1       3.310  -1.098  -0.394  1.00  0.00     0.275 C 
HETATM   20  C27 UNL     1       2.817   0.119  -1.133  1.00  0.00     0.069 C 
BRANCH  18  21
HETATM   21  C5  UNL     1       5.537  -0.975   0.375  1.00  0.00     0.272 C 
BRANCH  21  22
HETATM   22  C4  UNL     1       6.577  -1.053   1.399  1.00  0.00     0.032 C 
BRANCH  22  23
HETATM   23  C3  UNL     1       7.081   0.155   2.098  1.00  0.00     0.028 C 
BRANCH  23  24
HETATM   24  C2  UNL     1       7.821   1.147   1.229  1.00  0.00     0.167 C 
BRANCH  24  25
HETATM   25  O1  UNL     1       7.042   1.619   0.225  1.00  0.00    -0.396 OA
HETATM   26  C1  UNL     1       7.731   2.508  -0.573  1.00  0.00     0.201 C 
ENDBRANCH  24  25
ENDBRANCH  23  24
ENDBRANCH  22  23
ENDBRANCH  21  22
ENDBRANCH  18  21
ENDBRANCH  14  15
ENDBRANCH   1  14
BRANCH   4  27
HETATM   27  N4  UNL     1      -1.774  -4.015   0.242  1.00  0.00    -0.214 N 
HETATM   28  C11 UNL     1      -0.783  -4.631   1.073  1.00  0.00     0.171 C 
HETATM   29  C12 UNL     1      -1.112  -6.030   1.481  1.00  0.00     0.292 C 
HETATM   30  N5  UNL     1      -2.476  -6.387   1.574  1.00  0.00     0.087 N 
HETATM   31  C13 UNL     1      -2.739  -7.616   0.821  1.00  0.00     0.310 C 
HETATM   32  C14 UNL     1      -3.432  -5.423   1.143  1.00  0.00     0.292 C 
HETATM   33  C15 UNL     1      -2.915  -4.812  -0.167  1.00  0.00     0.171 C 
ENDBRANCH   4  27
BRANCH  11  34
HETATM   34  N7  UNL     1      -2.880   3.247  -1.927  1.00  0.00    -0.309 N 
HETATM   35  C21 UNL     1      -4.074   3.946  -1.548  1.00  0.00     0.320 C 
HETATM   36  O2  UNL     1      -5.058   3.322  -1.046  1.00  0.00    -0.247 OA
HETATM   37  N8  UNL     1      -4.187   5.330  -1.716  1.00  0.00    -0.341 N 
ATOM     38  H8  UNL     1      -3.398   5.832  -2.124  1.00  0.00     0.164 HD
ATOM     39  H7  UNL     1      -2.089   3.748  -2.331  1.00  0.00     0.170 HD
BRANCH  37  40
HETATM   40  C22 UNL     1      -5.361   6.089  -1.343  1.00  0.00     0.150 C 
BRANCH  40  41
HETATM   41  C23 UNL     1      -5.619   5.958   0.114  1.00  0.00     0.186 C 
BRANCH  41  42
HETATM   42  O3  UNL     1      -4.576   6.405   0.894  1.00  0.00    -0.394 OA
HETATM   43  C24 UNL     1      -4.336   7.748   0.676  1.00  0.00     0.201 C 
ENDBRANCH  41  42
ENDBRANCH  40  41
ENDBRANCH  37  40
ENDBRANCH  11  34
TORSDOF 12
