REMARK  2 active torsions:
REMARK  status: ('A' for Active; 'I' for Inactive)
REMARK    1  A    between atoms: C2_2  and  N1_3 
REMARK    2  A    between atoms: C5_9  and  O1_11 
ROOT
HETATM    1  C1  UNL     1      -2.228  -0.790  -0.437  1.00  0.00     0.046 C 
HETATM    2  C2  UNL     1      -1.347   0.320   0.152  1.00  0.00     0.120 C 
HETATM    3  C3  UNL     1      -0.573  -0.291   1.274  1.00  0.00     0.041 C 
HETATM    4  C4  UNL     1       0.638  -1.074   0.806  1.00  0.00     0.040 C 
HETATM    5  C5  UNL     1       1.516  -0.034   0.098  1.00  0.00     0.054 C 
HETATM    6  C6  UNL     1       2.855  -0.627  -0.138  1.00  0.00     0.045 C 
HETATM    7  C7  UNL     1       0.799   0.331  -1.170  1.00  0.00     0.040 C 
HETATM    8  C8  UNL     1      -0.543   0.904  -0.938  1.00  0.00     0.041 C 
ENDROOT
BRANCH   2   9
HETATM    9  N1  UNL     1      -2.228   1.333   0.758  1.00  0.00    -0.071 N 
ATOM     10  H13 UNL     1      -2.926   1.689   0.105  1.00  0.00     0.275 HD
ATOM     11  H12 UNL     1      -2.871   0.936   1.443  1.00  0.00     0.275 HD
ATOM     12  H11 UNL     1      -1.642   2.071   1.149  1.00  0.00     0.275 HD
ENDBRANCH   2   9
BRANCH   5  13
HETATM   13  O1  UNL     1       1.559   1.108   0.898  1.00  0.00    -0.390 OA
ATOM     14  H1  UNL     1       2.103   1.752   0.460  1.00  0.00     0.210 HD
ENDBRANCH   5  13
TORSDOF 2
