REMARK  2 active torsions:
REMARK  status: ('A' for Active; 'I' for Inactive)
REMARK    1  A    between atoms: N1_1  and  C1_5 
REMARK    2  A    between atoms: N2_13  and  O1_14 
ROOT
HETATM    1  C1  UNL     1       1.596   0.308   0.427  1.00  0.00     0.282 C 
HETATM    2  C2  UNL     1       1.185  -1.091   0.555  1.00  0.00     0.051 C 
HETATM    3  C3  UNL     1      -0.229  -1.364   0.946  1.00  0.00     0.008 C 
HETATM    4  C4  UNL     1      -1.227  -1.178  -0.143  1.00  0.00    -0.013 C 
HETATM    5  C5  UNL     1      -2.353  -0.292   0.384  1.00  0.00     0.006 C 
HETATM    6  C6  UNL     1      -1.656   1.045   0.462  1.00  0.00     0.022 C 
HETATM    7  C7  UNL     1      -0.522   0.991  -0.567  1.00  0.00     0.089 C 
HETATM    8  C8  UNL     1      -0.652  -0.326  -1.242  1.00  0.00     0.027 C 
HETATM    9  N2  UNL     1       0.670   1.287   0.070  1.00  0.00    -0.164 NA
ENDROOT
BRANCH   1  10
HETATM   10  N1  UNL     1       2.693   0.363  -0.562  1.00  0.00    -0.061 N 
ATOM     11  H13 UNL     1       3.468  -0.259  -0.331  1.00  0.00     0.276 HD
ATOM     12  H12 UNL     1       2.443  -0.061  -1.456  1.00  0.00     0.276 HD
ATOM     13  H11 UNL     1       2.979   1.338  -0.651  1.00  0.00     0.276 HD
ENDBRANCH   1  10
BRANCH   9  14
HETATM   14  O1  UNL     1       1.303   2.315  -0.548  1.00  0.00    -0.311 OA
ATOM     15  H1  UNL     1       0.672   2.982  -0.791  1.00  0.00     0.237 HD
ENDBRANCH   9  14
TORSDOF 2
