REMARK  1 active torsions:
REMARK  status: ('A' for Active; 'I' for Inactive)
REMARK       I    between atoms: C2_2  and  N1_4 
REMARK       I    between atoms: N1_4  and  C3_6 
REMARK       I    between atoms: C3_6  and  N3_10 
REMARK    1  A    between atoms: N3_10  and  C4_12 
ROOT
HETATM    1  C1  UNL     1       1.739   3.526   0.032  1.00  0.00     0.118 C 
HETATM    2  C2  UNL     1       1.290   2.096  -0.009  1.00  0.00     0.231 C 
HETATM    3  O1  UNL     1       0.713   1.718  -1.057  1.00  0.00    -0.273 OA
HETATM    4  N1  UNL     1       1.498   1.211   1.067  1.00  0.00    -0.161 N 
ATOM      5  H1  UNL     1       1.971   1.563   1.900  1.00  0.00     0.187 HD
HETATM    6  C3  UNL     1       1.087  -0.129   1.050  1.00  0.00     0.674 C 
HETATM    7  N2  UNL     1       1.302  -0.892   2.058  1.00  0.00    -0.235 N 
ATOM      8  H21 UNL     1       1.003  -1.867   2.046  1.00  0.00     0.174 HD
ATOM      9  H22 UNL     1       1.779  -0.505   2.873  1.00  0.00     0.174 HD
HETATM   10  N3  UNL     1       0.430  -0.662  -0.073  1.00  0.00    -0.218 N 
ATOM     11  H3  UNL     1       0.941  -0.689  -0.955  1.00  0.00     0.178 HD
ENDROOT
BRANCH  10  12
HETATM   12  C4  UNL     1      -0.918  -1.173  -0.061  1.00  0.00     0.036 C 
HETATM   13  C5  UNL     1      -1.275  -1.636  -1.455  1.00  0.00     0.038 C 
HETATM   14  C6  UNL     1      -0.860  -2.428   0.827  1.00  0.00     0.038 C 
HETATM   15  C7  UNL     1      -1.945  -0.223   0.471  1.00  0.00     0.038 C 
ENDBRANCH  10  12
TORSDOF 1
