REMARK  1 active torsions:
REMARK  status: ('A' for Active; 'I' for Inactive)
REMARK    1  A    between atoms: O1_1  and  C1_3 
ROOT
HETATM    1  C1  UNL     1       1.710  -0.343  -0.236  1.00  0.00     0.147 C 
HETATM    2  C2  UNL     1       1.329   1.125  -0.189  1.00  0.00     0.039 C 
HETATM    3  C3  UNL     1      -0.167   1.322  -0.326  1.00  0.00    -0.009 C 
HETATM    4  C4  UNL     1      -0.886   1.114   0.975  1.00  0.00     0.036 C 
HETATM    5  C5  UNL     1      -1.096  -0.331   1.324  1.00  0.00     0.122 C 
HETATM    6  C6  UNL     1      -1.780  -1.079   0.179  1.00  0.00     0.039 C 
HETATM    7  C7  UNL     1      -0.635  -1.008  -0.844  1.00  0.00     0.020 C 
HETATM    8  C8  UNL     1      -0.684   0.416  -1.398  1.00  0.00     0.012 C 
HETATM    9  C9  UNL     1       0.535  -1.213   0.072  1.00  0.00     0.154 C 
HETATM   10  O2  UNL     1       0.129  -0.981   1.361  1.00  0.00    -0.378 OA
ENDROOT
BRANCH   1  11
HETATM   11  O1  UNL     1       2.650  -0.556   0.797  1.00  0.00    -0.393 OA
ATOM     12  H1  UNL     1       2.889  -1.475   0.768  1.00  0.00     0.210 HD
ENDBRANCH   1  11
TORSDOF 1
