REMARK  0 active torsions:
REMARK  status: ('A' for Active; 'I' for Inactive)
REMARK       I    between atoms: C1_4  and  N3_6 
ROOT
HETATM    1  N1  UNL     1       2.608   0.849  -0.948  1.00  0.00    -0.374 N 
ATOM      2  H11 UNL     1       1.981   1.400  -1.535  1.00  0.00     0.158 HD
ATOM      3  H12 UNL     1       3.621   0.909  -1.048  1.00  0.00     0.158 HD
HETATM    4  C1  UNL     1       2.195   0.038  -0.039  1.00  0.00     0.183 C 
HETATM    5  N2  UNL     1       3.057  -0.720   0.768  1.00  0.00    -0.064 NA
HETATM    6  N3  UNL     1       0.750  -0.047   0.103  1.00  0.00    -0.356 N 
HETATM    7  C2  UNL     1       0.260   1.194   0.563  1.00  0.00     0.125 C 
HETATM    8  C3  UNL     1      -1.138   1.291   0.998  1.00  0.00     0.020 C 
HETATM    9  C4  UNL     1      -2.133   0.469   0.277  1.00  0.00     0.002 C 
HETATM   10  C5  UNL     1      -1.668  -0.044  -1.063  1.00  0.00     0.002 C 
HETATM   11  C6  UNL     1      -1.097  -1.422  -0.789  1.00  0.00     0.020 C 
HETATM   12  C7  UNL     1       0.292  -1.340  -0.261  1.00  0.00     0.125 C 
ENDROOT
TORSDOF 0
