REMARK  0 active torsions:
REMARK  status: ('A' for Active; 'I' for Inactive)
ROOT
HETATM    1  C1  UNL     1       2.445   0.014   0.841  1.00  0.00     0.029 C 
HETATM    2  C2  UNL     1       1.498   0.384  -0.261  1.00  0.00     0.093 C 
HETATM    3  C3  UNL     1       0.213   0.999   0.242  1.00  0.00     0.049 C 
HETATM    4  C4  UNL     1      -0.833  -0.071  -0.007  1.00  0.00     0.041 C 
HETATM    5  C5  UNL     1      -1.569   0.132  -1.300  1.00  0.00     0.035 C 
HETATM    6  C6  UNL     1      -1.812  -0.196   1.121  1.00  0.00     0.035 C 
HETATM    7  N1  UNL     1       0.009  -1.271  -0.038  1.00  0.00    -0.139 NA
HETATM    8  N2  UNL     1       1.039  -0.856  -0.879  1.00  0.00    -0.143 NA
ENDROOT
TORSDOF 0
