REMARK  0 active torsions:
REMARK  status: ('A' for Active; 'I' for Inactive)
ROOT
HETATM    1  N1  UNL     1       2.265   1.617   0.524  1.00  0.00    -0.389 N 
ATOM      2  H11 UNL     1       2.119   2.581   0.825  1.00  0.00     0.157 HD
ATOM      3  H12 UNL     1       3.175   1.178   0.383  1.00  0.00     0.157 HD
HETATM    4  C1  UNL     1       1.237   0.894   0.304  1.00  0.00     0.070 C 
HETATM    5  C2  UNL     1       1.449  -0.509  -0.134  1.00  0.00     0.075 C 
HETATM    6  C3  UNL     1       0.588  -1.399   0.684  1.00  0.00     0.007 C 
HETATM    7  C4  UNL     1      -0.857  -1.367   0.387  1.00  0.00     0.002 C 
HETATM    8  C5  UNL     1      -1.324  -0.307  -0.546  1.00  0.00     0.020 C 
HETATM    9  C6  UNL     1      -1.297   1.087  -0.007  1.00  0.00     0.121 C 
HETATM   10  N2  UNL     1      -0.030   1.506   0.501  1.00  0.00    -0.380 N 
ATOM     11  H2  UNL     1      -0.035   2.348   1.076  1.00  0.00     0.160 HD
ENDROOT
TORSDOF 0
