REMARK  0 active torsions:
REMARK  status: ('A' for Active; 'I' for Inactive)
ROOT
HETATM    1  C1  UNL     1      -1.358  -0.109  -0.211  1.00  0.00     0.307 C 
HETATM    2  N1  UNL     1      -0.391  -1.046  -0.683  1.00  0.00    -0.059 N 
ATOM      3  H11 UNL     1      -0.081  -0.808  -1.625  1.00  0.00     0.278 HD
ATOM      4  H12 UNL     1      -0.822  -1.951  -0.874  1.00  0.00     0.278 HD
HETATM    5  C2  UNL     1       0.727  -1.186   0.207  1.00  0.00     0.307 C 
HETATM    6  S1  UNL     1       1.834   0.227  -0.152  1.00  0.00    -0.132 SA
HETATM    7  C3  UNL     1       0.843   1.740   0.107  1.00  0.00     0.151 C 
HETATM    8  S2  UNL     1      -0.768   1.545  -0.760  1.00  0.00    -0.132 SA
ENDROOT
TORSDOF 0
