REMARK  2 active torsions:
REMARK  status: ('A' for Active; 'I' for Inactive)
REMARK    1  A    between atoms: C2_2  and  C3_3 
REMARK    2  A    between atoms: N1_7  and  O2_8 
ROOT
HETATM    1  C3  UNL     1       0.696   0.588  -0.199  1.00  0.00     0.170 C 
HETATM    2  O1  UNL     1      -0.388   1.410   0.190  1.00  0.00    -0.358 OA
HETATM    3  C4  UNL     1      -1.435   0.786  -0.490  1.00  0.00     0.218 C 
HETATM    4  C5  UNL     1      -2.726   1.266   0.121  1.00  0.00     0.059 C 
HETATM    5  N1  UNL     1      -1.236  -0.643  -0.292  1.00  0.00    -0.159 NA
HETATM    6  C6  UNL     1       0.168  -0.765   0.133  1.00  0.00     0.063 C 
HETATM    7  C7  UNL     1       0.828  -1.890  -0.594  1.00  0.00     0.037 C 
HETATM    8  C8  UNL     1       0.209  -1.074   1.613  1.00  0.00     0.037 C 
ENDROOT
BRANCH   1   9
HETATM    9  C2  UNL     1       1.925   0.965   0.499  1.00  0.00    -0.003 C 
HETATM   10  C1  UNL     1       2.824   1.723  -0.120  1.00  0.00     0.009 C 
ENDBRANCH   1   9
BRANCH   5  11
HETATM   11  O2  UNL     1      -1.285  -1.205  -1.537  1.00  0.00    -0.310 OA
ATOM     12  H2  UNL     1      -1.155  -2.137  -1.408  1.00  0.00     0.237 HD
ENDBRANCH   5  11
TORSDOF 2
