REMARK  4 active torsions:
REMARK  status: ('A' for Active; 'I' for Inactive)
REMARK    1  A    between atoms: C2_2  and  C4_4 
REMARK    2  A    between atoms: C4_4  and  O1_5 
REMARK    3  A    between atoms: O1_5  and  C5_6 
REMARK    4  A    between atoms: N2_8  and  C6_10 
ROOT
HETATM    1  C5  UNL     1       0.260   0.534  -1.212  1.00  0.00     0.228 C 
HETATM    2  N1  UNL     1       0.894   1.754  -1.538  1.00  0.00    -0.056 NA
HETATM    3  N2  UNL     1       0.750  -0.399  -0.508  1.00  0.00    -0.351 N 
ATOM      4  H2  UNL     1       0.159  -1.218  -0.367  1.00  0.00     0.163 HD
ENDROOT
BRANCH   1   5
HETATM    5  O1  UNL     1      -1.025   0.351  -1.719  1.00  0.00    -0.324 OA
BRANCH   5   6
HETATM    6  C4  UNL     1      -1.981  -0.486  -1.150  1.00  0.00     0.182 C 
BRANCH   6   7
HETATM    7  C2  UNL     1      -2.297  -0.050   0.283  1.00  0.00     0.002 C 
HETATM    8  C1  UNL     1      -2.825   1.382   0.166  1.00  0.00     0.011 C 
HETATM    9  C3  UNL     1      -3.339  -0.940   0.903  1.00  0.00     0.011 C 
ENDBRANCH   6   7
ENDBRANCH   5   6
ENDBRANCH   1   5
BRANCH   3  10
HETATM   10  C6  UNL     1       2.036  -0.432   0.109  1.00  0.00     0.022 C 
HETATM   11  C7  UNL     1       1.880   0.081   1.544  1.00  0.00     0.037 C 
HETATM   12  C8  UNL     1       2.486  -1.873   0.185  1.00  0.00     0.037 C 
HETATM   13  C9  UNL     1       3.073   0.413  -0.557  1.00  0.00     0.037 C 
ENDBRANCH   3  10
TORSDOF 4
