REMARK  3 active torsions:
REMARK  status: ('A' for Active; 'I' for Inactive)
REMARK    1  A    between atoms: C2_2  and  N1_3 
REMARK    2  A    between atoms: C5_9  and  N2_10 
REMARK    3  A    between atoms: N2_10  and  C6_12 
ROOT
HETATM    1  C1  UNL     1      -1.727  -1.198  -0.909  1.00  0.00     0.046 C 
HETATM    2  C2  UNL     1      -0.927  -0.189  -0.163  1.00  0.00     0.122 C 
HETATM    3  C3  UNL     1      -0.327  -0.755   1.101  1.00  0.00     0.040 C 
HETATM    4  C4  UNL     1       0.802   0.199   1.383  1.00  0.00     0.028 C 
HETATM    5  C5  UNL     1       0.993   1.063   0.181  1.00  0.00     0.084 C 
HETATM    6  C7  UNL     1       0.341   0.213  -0.918  1.00  0.00     0.063 C 
ENDROOT
BRANCH   2   7
HETATM    7  N1  UNL     1      -1.645   1.042   0.097  1.00  0.00    -0.071 N 
ATOM      8  H13 UNL     1      -2.007   1.438  -0.770  1.00  0.00     0.275 HD
ATOM      9  H12 UNL     1      -2.524   0.852   0.577  1.00  0.00     0.275 HD
ATOM     10  H11 UNL     1      -1.097   1.734   0.608  1.00  0.00     0.275 HD
ENDBRANCH   2   7
BRANCH   5  11
HETATM   11  N2  UNL     1       2.339   1.407  -0.114  1.00  0.00    -0.386 N 
ATOM     12  H2  UNL     1       2.591   2.391  -0.020  1.00  0.00     0.160 HD
BRANCH  11  13
HETATM   13  C6  UNL     1       3.247   0.628  -0.477  1.00  0.00     0.166 C 
HETATM   14  S1  UNL     1       4.344  -0.222  -1.292  1.00  0.00    -0.075 SA
ENDBRANCH  11  13
ENDBRANCH   5  11
TORSDOF 3
