REMARK  1 active torsions:
REMARK  status: ('A' for Active; 'I' for Inactive)
REMARK    1  A    between atoms: C2_2  and  C3_3 
ROOT
HETATM    1  C3  UNL     1       0.522   0.011  -0.637  1.00  0.00     0.092 C 
HETATM    2  C4  UNL     1      -0.056  -1.228  -0.098  1.00  0.00     0.043 C 
HETATM    3  C5  UNL     1      -1.002  -1.088   1.044  1.00  0.00     0.038 C 
HETATM    4  C6  UNL     1      -2.011   0.013   0.877  1.00  0.00     0.163 C 
HETATM    5  C7  UNL     1      -2.192   0.424  -0.550  1.00  0.00     0.070 C 
HETATM    6  C8  UNL     1      -0.979   1.196  -0.982  1.00  0.00     0.160 C 
HETATM    7  O1  UNL     1      -0.160   0.385  -1.800  1.00  0.00    -0.369 OA
HETATM    8  C9  UNL     1       0.098   1.278   0.021  1.00  0.00     0.223 C 
HETATM    9  O2  UNL     1      -0.246   1.193   1.325  1.00  0.00    -0.230 OA
HETATM   10  O3  UNL     1      -1.528   1.146   1.569  1.00  0.00    -0.235 OA
ENDROOT
BRANCH   1  11
HETATM   11  C2  UNL     1       2.017  -0.013  -0.863  1.00  0.00     0.036 C 
HETATM   12  C1  UNL     1       2.752  -0.272   0.419  1.00  0.00     0.008 C 
ENDBRANCH   1  11
TORSDOF 1
