REMARK  0 active torsions:
REMARK  status: ('A' for Active; 'I' for Inactive)
ROOT
HETATM    1  C1  UNL     1       0.051  -1.852  -0.322  1.00  0.00     0.030 C 
HETATM    2  C2  UNL     1       0.248  -0.376   0.035  1.00  0.00     0.034 C 
HETATM    3  S1  UNL     1       0.065  -0.072   1.797  1.00  0.00    -0.156 SA
HETATM    4  C3  UNL     1      -1.571   0.017   1.005  1.00  0.00     0.082 C 
HETATM    5  C4  UNL     1      -0.923   0.414  -0.328  1.00  0.00     0.025 C 
HETATM    6  C5  UNL     1      -0.618   1.867  -0.359  1.00  0.00     0.082 C 
HETATM    7  S2  UNL     1       1.079   1.857  -1.062  1.00  0.00    -0.147 SA
HETATM    8  C6  UNL     1       1.491   0.140  -0.560  1.00  0.00     0.172 C 
HETATM    9  C7  UNL     1       2.543   0.196   0.480  1.00  0.00     0.076 C 
HETATM   10  N1  UNL     1       3.362   0.260   1.297  1.00  0.00    -0.196 NA
ENDROOT
TORSDOF 0
