REMARK  2 active torsions:
REMARK  status: ('A' for Active; 'I' for Inactive)
REMARK    1  A    between atoms: N1_2  and  C2_4 
REMARK    2  A    between atoms: C3_7  and  C4_8 
ROOT
HETATM    1  C2  UNL     1       1.234   0.202   0.883  1.00  0.00     0.073 C 
HETATM    2  N2  UNL     1       0.170   0.542   1.481  1.00  0.00    -0.368 N 
ATOM      3  H2  UNL     1       0.146   0.968   2.407  1.00  0.00     0.161 HD
HETATM    4  C3  UNL     1      -0.996   0.255   0.697  1.00  0.00     0.160 C 
HETATM    5  C6  UNL     1      -0.529  -0.830  -0.205  1.00  0.00    -0.014 C 
HETATM    6  C7  UNL     1      -0.450  -2.111   0.623  1.00  0.00     0.018 C 
HETATM    7  C8  UNL     1      -1.278  -1.080  -1.447  1.00  0.00     0.018 C 
HETATM    8  C9  UNL     1       0.916  -0.397  -0.433  1.00  0.00     0.087 C 
ENDROOT
BRANCH   1   9
HETATM    9  N1  UNL     1       2.596   0.318   1.318  1.00  0.00    -0.384 N 
HETATM   10  C1  UNL     1       3.499   1.182   0.597  1.00  0.00     0.147 C 
ATOM     11  H1  UNL     1       2.923  -0.206   2.130  1.00  0.00     0.160 HD
ENDBRANCH   1   9
BRANCH   4  12
HETATM   12  C4  UNL     1      -1.533   1.446   0.042  1.00  0.00     0.146 C 
HETATM   13  C5  UNL     1      -2.747   1.466  -0.789  1.00  0.00     0.093 C 
HETATM   14  O1  UNL     1      -0.950   2.497   0.184  1.00  0.00    -0.296 OA
ENDBRANCH   4  12
TORSDOF 2
