REMARK  2 active torsions:
REMARK  status: ('A' for Active; 'I' for Inactive)
REMARK    1  A    between atoms: C2_2  and  N1_4 
REMARK    2  A    between atoms: C4_5  and  N2_6 
ROOT
HETATM    1  N1  UNL     1      -0.557   0.103  -0.038  1.00  0.00    -0.208 N 
HETATM    2  C4  UNL     1       0.692   0.742  -0.273  1.00  0.00     0.674 C 
HETATM    3  N3  UNL     1       0.484   1.930  -0.774  1.00  0.00    -0.224 N 
ATOM      4  H3  UNL     1       1.223   2.586  -1.029  1.00  0.00     0.177 HD
HETATM    5  C7  UNL     1      -0.916   2.192  -0.919  1.00  0.00     0.163 C 
HETATM    6  C8  UNL     1      -1.541   1.159  -0.005  1.00  0.00     0.117 C 
HETATM    7  C9  UNL     1      -1.706   1.768   1.353  1.00  0.00     0.034 C 
ENDROOT
BRANCH   1   8
HETATM    8  C2  UNL     1      -0.696  -1.323   0.120  1.00  0.00     0.094 C 
HETATM    9  C1  UNL     1      -2.112  -1.745   0.357  1.00  0.00     0.032 C 
HETATM   10  C3  UNL     1      -0.185  -2.072  -1.109  1.00  0.00     0.032 C 
ENDBRANCH   1   8
BRANCH   2  11
HETATM   11  N2  UNL     1       1.979   0.194  -0.010  1.00  0.00    -0.227 N 
HETATM   12  C5  UNL     1       2.291  -0.417   1.261  1.00  0.00     0.168 C 
HETATM   13  C6  UNL     1       3.012   0.237  -1.020  1.00  0.00     0.168 C 
ENDBRANCH   2  11
TORSDOF 2
