REMARK  1 active torsions:
REMARK  status: ('A' for Active; 'I' for Inactive)
REMARK    1  A    between atoms: N3_8  and  C4_10 
ROOT
HETATM    1  C1  UNL     1       4.376   0.149   0.607  1.00  0.00     0.078 C 
HETATM    2  C2  UNL     1       2.879   0.020   0.484  1.00  0.00     0.066 A 
HETATM    3  N1  UNL     1       2.107   0.212  -0.573  1.00  0.00    -0.296 N 
ATOM      4  H1  UNL     1       2.525   0.488  -1.461  1.00  0.00     0.187 HD
HETATM    5  N2  UNL     1       0.850   0.056  -0.491  1.00  0.00    -0.279 N 
ATOM      6  H2  UNL     1       0.252   0.203  -1.304  1.00  0.00     0.189 HD
HETATM    7  C3  UNL     1       0.326  -0.306   0.686  1.00  0.00     0.161 A 
HETATM    8  N3  UNL     1      -0.937  -0.518   0.979  1.00  0.00    -0.365 N 
ATOM      9  H3  UNL     1      -1.223  -0.793   1.918  1.00  0.00     0.162 HD
HETATM   10  S1  UNL     1       1.718  -0.412   1.669  1.00  0.00    -0.039 SA
ENDROOT
BRANCH   8  11
HETATM   11  C4  UNL     1      -1.903  -0.347  -0.078  1.00  0.00     0.075 C 
HETATM   12  C5  UNL     1      -3.218  -1.010   0.302  1.00  0.00     0.032 C 
HETATM   13  C6  UNL     1      -2.086   1.134  -0.305  1.00  0.00     0.032 C 
ENDBRANCH   8  11
TORSDOF 1
