REMARK  1 active torsions:
REMARK  status: ('A' for Active; 'I' for Inactive)
REMARK    1  A    between atoms: C2_2  and  N1_3 
ROOT
HETATM    1  N1  UNL     1       0.707   0.546  -0.182  1.00  0.00    -0.345 N 
HETATM    2  C3  UNL     1      -0.034   1.722   0.210  1.00  0.00     0.187 C 
HETATM    3  N2  UNL     1       0.600   3.004   0.451  1.00  0.00    -0.064 NA
HETATM    4  N3  UNL     1      -1.263   1.471   0.317  1.00  0.00    -0.354 N 
ATOM      5  H3  UNL     1      -1.974   2.152   0.582  1.00  0.00     0.163 HD
HETATM    6  C4  UNL     1      -1.522   0.099   0.015  1.00  0.00     0.050 C 
HETATM    7  C5  UNL     1      -2.095   0.103  -1.412  1.00  0.00     0.041 C 
HETATM    8  C6  UNL     1      -2.495  -0.530   0.978  1.00  0.00     0.041 C 
HETATM    9  C7  UNL     1      -0.199  -0.562  -0.006  1.00  0.00     0.052 C 
HETATM   10  C8  UNL     1       0.120  -1.311   1.268  1.00  0.00     0.041 C 
HETATM   11  C9  UNL     1      -0.134  -1.562  -1.139  1.00  0.00     0.041 C 
ENDROOT
BRANCH   1  12
HETATM   12  C2  UNL     1       2.076   0.574  -0.613  1.00  0.00     0.122 C 
HETATM   13  C1  UNL     1       2.998   0.003   0.465  1.00  0.00     0.026 C 
ENDBRANCH   1  12
TORSDOF 1
