REMARK  2 active torsions:
REMARK  status: ('A' for Active; 'I' for Inactive)
REMARK    1  A    between atoms: C4_7  and  S1_8 
REMARK    2  A    between atoms: S1_8  and  C5_9 
ROOT
HETATM    1  C1  UNL     1      -3.350   1.356  -0.952  1.00  0.00     0.151 C 
HETATM    2  N1  UNL     1      -2.775   0.381  -0.048  1.00  0.00    -0.365 N 
HETATM    3  C2  UNL     1      -3.571  -0.502   0.774  1.00  0.00     0.144 A 
HETATM    4  C3  UNL     1      -2.553  -1.382   1.417  1.00  0.00     0.141 A 
HETATM    5  N2  UNL     1      -1.282  -0.871   1.015  1.00  0.00    -0.369 N 
ATOM      6  H2  UNL     1      -0.388  -1.242   1.337  1.00  0.00     0.161 HD
HETATM    7  C4  UNL     1      -1.402   0.116   0.195  1.00  0.00     0.138 A 
ENDROOT
BRANCH   7   8
HETATM    8  S1  UNL     1      -0.067   1.061  -0.568  1.00  0.00    -0.089 SA
BRANCH   8   9
HETATM    9  C5  UNL     1       1.538   0.460  -0.033  1.00  0.00     0.055 C 
HETATM   10  C6  UNL     1       1.855  -0.930  -0.499  1.00  0.00     0.015 C 
HETATM   11  C7  UNL     1       3.331  -1.035  -0.103  1.00  0.00     0.001 C 
HETATM   12  C8  UNL     1       3.868   0.380  -0.218  1.00  0.00     0.001 C 
HETATM   13  C9  UNL     1       2.679   1.263  -0.554  1.00  0.00     0.015 C 
ENDBRANCH   8   9
ENDBRANCH   7   8
TORSDOF 2
