REMARK  2 active torsions:
REMARK  status: ('A' for Active; 'I' for Inactive)
REMARK    1  A    between atoms: C2_3  and  N2_4 
REMARK    2  A    between atoms: N2_4  and  C3_6 
ROOT
HETATM    1  C1  UNL     1      -0.275   1.868  -0.803  1.00  0.00     0.169 C 
HETATM    2  N1  UNL     1       0.178   0.605  -0.265  1.00  0.00    -0.212 N 
HETATM    3  C2  UNL     1       1.508   0.231  -0.012  1.00  0.00     0.676 C 
HETATM    4  N3  UNL     1       1.567  -0.906   0.594  1.00  0.00    -0.224 N 
ATOM      5  H3  UNL     1       2.436  -1.362   0.871  1.00  0.00     0.177 HD
HETATM    6  C4  UNL     1       0.261  -1.453   0.831  1.00  0.00     0.168 C 
HETATM    7  C5  UNL     1      -0.660  -0.494   0.106  1.00  0.00     0.058 C 
HETATM    8  C6  UNL     1      -1.253  -1.215  -1.082  1.00  0.00     0.040 C 
HETATM    9  C7  UNL     1      -1.748   0.042   1.023  1.00  0.00     0.040 C 
ENDROOT
BRANCH   3  10
HETATM   10  N2  UNL     1       2.655   0.981  -0.363  1.00  0.00    -0.193 N 
ATOM     11  H2  UNL     1       2.597   1.611  -1.163  1.00  0.00     0.184 HD
BRANCH  10  12
HETATM   12  C3  UNL     1       3.754   0.908   0.271  1.00  0.00     0.188 C 
HETATM   13  S1  UNL     1       5.230   0.459   0.722  1.00  0.00    -0.074 SA
ENDBRANCH  10  12
ENDBRANCH   3  10
TORSDOF 2
