REMARK  1 active torsions:
REMARK  status: ('A' for Active; 'I' for Inactive)
REMARK    1  A    between atoms: O1_1  and  C1_3 
ROOT
HETATM    1  C1  UNL     1       1.522   0.494   0.449  1.00  0.00     0.119 C 
HETATM    2  C2  UNL     1       1.876  -0.623  -0.523  1.00  0.00     0.032 C 
HETATM    3  C3  UNL     1       0.732  -1.608  -0.491  1.00  0.00     0.004 C 
HETATM    4  C4  UNL     1      -0.565  -0.998  -0.957  1.00  0.00     0.014 C 
HETATM    5  C5  UNL     1      -0.904   0.139  -0.052  1.00  0.00     0.005 C 
HETATM    6  C6  UNL     1      -2.218   0.826  -0.289  1.00  0.00     0.179 C 
HETATM    7  O2  UNL     1      -2.811  -0.089   0.567  1.00  0.00    -0.389 OA
HETATM    8  C7  UNL     1      -1.567  -0.167   1.235  1.00  0.00     0.179 C 
HETATM    9  C8  UNL     1       0.224   1.118  -0.048  1.00  0.00     0.045 C 
ENDROOT
BRANCH   1  10
HETATM   10  O1  UNL     1       2.477   1.498   0.437  1.00  0.00    -0.396 OA
ATOM     11  H1  UNL     1       2.256   2.195   1.044  1.00  0.00     0.210 HD
ENDBRANCH   1  10
TORSDOF 1
