REMARK  1 active torsions:
REMARK  status: ('A' for Active; 'I' for Inactive)
REMARK    1  A    between atoms: C8_9  and  O1_10 
ROOT
HETATM    1  C1  UNL     1      -2.042  -1.888   0.075  1.00  0.00     0.018 C 
HETATM    2  C2  UNL     1      -0.888  -0.961  -0.321  1.00  0.00     0.049 C 
HETATM    3  C3  UNL     1       0.380  -1.459   0.290  1.00  0.00     0.064 C 
HETATM    4  N1  UNL     1       1.407  -0.494   0.306  1.00  0.00    -0.397 N 
HETATM    5  C4  UNL     1       2.740  -0.956   0.321  1.00  0.00     0.148 C 
HETATM    6  C5  UNL     1       1.165   0.676  -0.496  1.00  0.00     0.128 C 
HETATM    7  C6  UNL     1      -0.036   1.349   0.184  1.00  0.00     0.029 C 
HETATM    8  C7  UNL     1      -0.174   2.720  -0.385  1.00  0.00     0.014 C 
HETATM    9  C8  UNL     1      -1.213   0.457  -0.043  1.00  0.00     0.132 C 
ENDROOT
BRANCH   9  10
HETATM   10  O1  UNL     1      -2.040   0.534   1.065  1.00  0.00    -0.394 OA
ATOM     11  H1  UNL     1      -2.248   1.444   1.243  1.00  0.00     0.210 HD
ENDBRANCH   9  10
TORSDOF 1
