REMARK  1 active torsions:
REMARK  status: ('A' for Active; 'I' for Inactive)
REMARK    1  A    between atoms: C3_3  and  O1_4 
ROOT
HETATM    1  C1  UNL     1      -3.584   0.412   1.187  1.00  0.00     0.017 C 
HETATM    2  C2  UNL     1      -2.525   0.408   0.608  1.00  0.00    -0.050 C 
HETATM    3  C3  UNL     1      -1.247   0.416  -0.117  1.00  0.00     0.230 C 
HETATM    4  C4  UNL     1      -1.023  -0.874  -0.858  1.00  0.00     0.086 C 
HETATM    5  C5  UNL     1       0.458  -1.060  -0.808  1.00  0.00     0.044 C 
HETATM    6  C6  UNL     1       0.910  -0.049   0.216  1.00  0.00     0.058 C 
HETATM    7  C7  UNL     1       1.803  -0.700   1.265  1.00  0.00     0.045 C 
HETATM    8  C8  UNL     1       1.747   0.987  -0.486  1.00  0.00     0.045 C 
HETATM    9  O2  UNL     1      -0.231   0.477   0.803  1.00  0.00    -0.335 OA
ENDROOT
BRANCH   3  10
HETATM   10  O1  UNL     1      -1.266   1.525  -0.983  1.00  0.00    -0.355 OA
ATOM     11  H1  UNL     1      -0.440   1.530  -1.452  1.00  0.00     0.214 HD
ENDBRANCH   3  10
TORSDOF 1
