REMARK  1 active torsions:
REMARK  status: ('A' for Active; 'I' for Inactive)
REMARK    1  A    between atoms: C2_2  and  O1_3 
ROOT
HETATM    1  C1  UNL     1       2.400   0.674   0.782  1.00  0.00     0.048 C 
HETATM    2  C2  UNL     1       1.347   0.112  -0.134  1.00  0.00     0.087 C 
HETATM    3  C3  UNL     1       1.039  -1.339   0.142  1.00  0.00     0.070 C 
HETATM    4  C4  UNL     1      -0.324  -1.346   0.808  1.00  0.00     0.276 C 
HETATM    5  N1  UNL     1      -0.675   0.014   1.080  1.00  0.00     0.096 N 
HETATM    6  C5  UNL     1      -2.073   0.310   0.754  1.00  0.00     0.273 C 
HETATM    7  C6  UNL     1      -2.180   0.142  -0.736  1.00  0.00     0.032 C 
HETATM    8  C7  UNL     1      -0.798   0.481  -1.224  1.00  0.00     0.040 C 
HETATM    9  C8  UNL     1       0.005   0.761   0.031  1.00  0.00     0.256 C 
ENDROOT
BRANCH   2  10
HETATM   10  O1  UNL     1       1.754   0.303  -1.450  1.00  0.00    -0.388 OA
ATOM     11  H1  UNL     1       1.089  -0.052  -2.028  1.00  0.00     0.210 HD
ENDBRANCH   2  10
TORSDOF 1
