REMARK  4 active torsions:
REMARK  status: ('A' for Active; 'I' for Inactive)
REMARK    1  A    between atoms: C3_3  and  C4_4 
REMARK       I    between atoms: C4_4  and  N1_6 
REMARK    2  A    between atoms: N1_6  and  N2_8 
REMARK       I    between atoms: N2_8  and  C5_10 
REMARK    3  A    between atoms: C5_10  and  C6_12 
REMARK    4  A    between atoms: C6_12  and  C9_15 
ROOT
HETATM    1  C1  UNL     1      -1.579   0.278   2.541  1.00  0.00     0.071 C 
HETATM    2  C2  UNL     1      -1.653   0.012   1.080  1.00  0.00     0.041 A 
HETATM    3  C3  UNL     1      -0.666   0.041   0.140  1.00  0.00     0.126 A 
HETATM    4  N3  UNL     1      -1.267  -0.275  -1.036  1.00  0.00    -0.338 N 
ATOM      5  H3  UNL     1      -0.799  -0.340  -1.940  1.00  0.00     0.167 HD
HETATM    6  C10 UNL     1      -2.577  -0.489  -0.819  1.00  0.00     0.108 A 
HETATM    7  N4  UNL     1      -2.827  -0.315   0.483  1.00  0.00    -0.334 N 
HETATM    8  C11 UNL     1      -4.169  -0.486   1.002  1.00  0.00     0.167 C 
HETATM    9  C12 UNL     1      -5.139  -0.320  -0.137  1.00  0.00     0.070 C 
HETATM   10  C13 UNL     1      -5.267   1.126  -0.514  1.00  0.00     0.047 C 
HETATM   11  C14 UNL     1      -6.527  -0.758   0.350  1.00  0.00     0.047 C 
HETATM   12  O3  UNL     1      -4.832  -1.150  -1.194  1.00  0.00    -0.372 OA
HETATM   13  C15 UNL     1      -3.643  -0.862  -1.805  1.00  0.00     0.245 C 
ENDROOT
BRANCH   3  14
HETATM   14  C4  UNL     1       0.747   0.347   0.330  1.00  0.00     0.288 C 
HETATM   15  O1  UNL     1       1.206   0.640   1.449  1.00  0.00    -0.264 OA
HETATM   16  N1  UNL     1       1.634   0.316  -0.779  1.00  0.00    -0.262 N 
ATOM     17  H1  UNL     1       1.254   0.076  -1.695  1.00  0.00     0.190 HD
BRANCH  16  18
HETATM   18  N2  UNL     1       3.005   0.598  -0.681  1.00  0.00    -0.267 N 
HETATM   19  C5  UNL     1       3.939  -0.358  -0.235  1.00  0.00     0.245 C 
HETATM   20  O2  UNL     1       3.607  -1.532   0.109  1.00  0.00    -0.271 OA
ATOM     21  H2  UNL     1       3.337   1.527  -0.941  1.00  0.00     0.190 HD
BRANCH  19  22
HETATM   22  C6  UNL     1       5.382  -0.033  -0.145  1.00  0.00     0.048 C 
HETATM   23  C7  UNL     1       5.846   0.370  -1.553  1.00  0.00     0.026 C 
HETATM   24  C8  UNL     1       6.211  -1.192   0.294  1.00  0.00     0.026 C 
BRANCH  22  25
HETATM   25  C9  UNL     1       5.681   1.135   0.754  1.00  0.00     0.133 C 
HETATM   26 CL1  UNL     1       7.461   1.359   0.728  1.00  0.00    -0.129 Cl
ENDBRANCH  22  25
ENDBRANCH  19  22
ENDBRANCH  16  18
ENDBRANCH   3  14
TORSDOF 4
