REMARK  6 active torsions:
REMARK  status: ('A' for Active; 'I' for Inactive)
REMARK    1  A    between atoms: N1_1  and  S1_4 
REMARK    2  A    between atoms: S1_4  and  C1_7 
REMARK    3  A    between atoms: C1_7  and  C2_8 
REMARK    4  A    between atoms: C3_9  and  C4_10 
REMARK    5  A    between atoms: C6_12  and  C7_13 
REMARK    6  A    between atoms: C7_13  and  C8_14 
ROOT
HETATM    1  C4  UNL     1       0.143  -0.474   0.501  1.00  0.00     0.021 A 
HETATM    2  C5  UNL     1       0.403  -0.351  -0.856  1.00  0.00     0.030 A 
HETATM    3  C6  UNL     1      -0.575  -0.744  -1.750  1.00  0.00    -0.020 A 
HETATM    4  C9  UNL     1      -1.766  -1.241  -1.311  1.00  0.00     0.111 A 
HETATM    5  C10 UNL     1      -2.050  -1.373   0.040  1.00  0.00     0.106 A 
HETATM    6  C11 UNL     1      -1.078  -0.983   0.930  1.00  0.00     0.060 A 
HETATM    7  O3  UNL     1      -3.313  -1.897   0.233  1.00  0.00    -0.323 OA
HETATM    8  C12 UNL     1      -3.820  -2.243  -1.032  1.00  0.00     0.352 C 
HETATM    9  O4  UNL     1      -2.899  -1.700  -1.961  1.00  0.00    -0.322 OA
ENDROOT
BRANCH   1  10
HETATM   10  C3  UNL     1       1.156  -0.068   1.441  1.00  0.00    -0.066 C 
HETATM   11  C2  UNL     1       2.025   0.258   2.234  1.00  0.00    -0.084 C 
BRANCH  11  12
HETATM   12  C1  UNL     1       3.079   0.624   3.182  1.00  0.00     0.256 C 
BRANCH  12  13
HETATM   13  S1  UNL     1       2.660   2.238   3.797  1.00  0.00     0.234 S 
HETATM   14  O1  UNL     1       3.697   2.572   4.851  1.00  0.00    -0.205 OA
HETATM   15  O2  UNL     1       1.166   2.209   4.564  1.00  0.00    -0.205 OA
BRANCH  13  16
HETATM   16  N1  UNL     1       2.728   3.319   2.706  1.00  0.00    -0.328 N 
ATOM     17  H12 UNL     1       3.365   4.116   2.706  1.00  0.00     0.168 HD
ATOM     18  H11 UNL     1       2.030   3.094   1.997  1.00  0.00     0.168 HD
ENDBRANCH  13  16
ENDBRANCH  12  13
ENDBRANCH  11  12
ENDBRANCH   1  10
BRANCH   3  19
HETATM   19  C7  UNL     1      -0.322  -0.622  -3.191  1.00  0.00     0.052 C 
BRANCH  19  20
HETATM   20  C8  UNL     1      -1.033   0.547  -3.823  1.00  0.00     0.089 C 
HETATM   21 BR1  UNL     1      -0.585   0.550  -5.721  1.00  0.00    -0.096 Br
ENDBRANCH  19  20
ENDBRANCH   3  19
TORSDOF 6
