REMARK  6 active torsions:
REMARK  status: ('A' for Active; 'I' for Inactive)
REMARK    1  A    between atoms: O1_2  and  C2_3 
REMARK    2  A    between atoms: C2_3  and  O2_4 
REMARK    3  A    between atoms: C2_3  and  C3_6 
REMARK    4  A    between atoms: C4_7  and  C5_8 
REMARK    5  A    between atoms: C5_8  and  O4_10 
REMARK    6  A    between atoms: O4_10  and  C6_11 
ROOT
HETATM    1  C3  UNL     1      -1.682   0.373  -0.414  1.00  0.00     0.080 A 
HETATM    2  C4  UNL     1      -0.538  -0.235  -0.017  1.00  0.00     0.123 A 
HETATM    3  N1  UNL     1      -0.518  -1.564   0.297  1.00  0.00    -0.353 N 
ATOM      4  H1  UNL     1       0.364  -1.985   0.590  1.00  0.00     0.166 HD
HETATM    5  C9  UNL     1      -1.608  -2.336   0.236  1.00  0.00     0.027 A 
HETATM    6  C10 UNL     1      -1.519  -3.775   0.591  1.00  0.00     0.070 C 
HETATM    7  C11 UNL     1      -2.782  -1.755  -0.159  1.00  0.00     0.084 A 
HETATM    8 BR1  UNL     1      -4.336  -2.853  -0.245  1.00  0.00    -0.045 Br
HETATM    9  C12 UNL     1      -2.849  -0.426  -0.485  1.00  0.00     0.204 A 
HETATM   10  O5  UNL     1      -3.921   0.110  -0.846  1.00  0.00    -0.286 OA
ENDROOT
BRANCH   2  11
HETATM   11  C5  UNL     1       0.718   0.464   0.139  1.00  0.00     0.311 C 
HETATM   12  O3  UNL     1       0.838   1.681  -0.080  1.00  0.00    -0.258 OA
BRANCH  11  13
HETATM   13  O4  UNL     1       1.868  -0.236   0.556  1.00  0.00    -0.312 OA
BRANCH  13  14
HETATM   14  C6  UNL     1       3.058   0.503   0.689  1.00  0.00     0.124 C 
HETATM   15  C7  UNL     1       4.099  -0.013  -0.308  1.00  0.00     0.040 C 
HETATM   16  C8  UNL     1       3.585   0.387   2.093  1.00  0.00     0.040 C 
ENDBRANCH  13  14
ENDBRANCH  11  13
ENDBRANCH   2  11
BRANCH   1  17
HETATM   17  C2  UNL     1      -1.792   1.780  -0.840  1.00  0.00     0.297 C 
BRANCH  17  18
HETATM   18  O1  UNL     1      -2.668   1.860  -1.965  1.00  0.00    -0.362 OA
HETATM   19  C1  UNL     1      -1.945   2.385  -3.021  1.00  0.00     0.205 C 
ENDBRANCH  17  18
BRANCH  17  20
HETATM   20  O2  UNL     1      -2.294   2.602   0.169  1.00  0.00    -0.367 OA
ATOM     21  H2  UNL     1      -1.711   2.549   0.917  1.00  0.00     0.213 HD
ENDBRANCH  17  20
ENDBRANCH   1  17
TORSDOF 6
