REMARK  8 active torsions:
REMARK  status: ('A' for Active; 'I' for Inactive)
REMARK    1  A    between atoms: N1_1  and  C1_5 
REMARK    2  A    between atoms: C1_5  and  C2_6 
REMARK    3  A    between atoms: C2_6  and  N2_7 
REMARK    4  A    between atoms: C2_6  and  C10_23 
REMARK    5  A    between atoms: N2_7  and  C3_9 
REMARK    6  A    between atoms: C3_9  and  C4_10 
REMARK    7  A    between atoms: C4_10  and  N3_11 
REMARK       I    between atoms: N3_11  and  C5_13 
REMARK    8  A    between atoms: C5_13  and  C6_15 
ROOT
HETATM    1  N2  UNL     1      -1.677  -0.581  -1.079  1.00  0.00    -0.409 N 
ATOM      2  H2  UNL     1      -2.159  -0.792  -1.953  1.00  0.00     0.154 HD
ENDROOT
BRANCH   1   3
HETATM    3  C2  UNL     1      -2.344  -0.008   0.029  1.00  0.00     0.153 C 
BRANCH   3   4
HETATM    4  C1  UNL     1      -2.382  -0.854   1.270  1.00  0.00     0.260 C 
BRANCH   4   5
HETATM    5  N1  UNL     1      -3.045  -2.121   1.083  1.00  0.00    -0.077 N 
ATOM      6  H13 UNL     1      -3.985  -1.985   0.710  1.00  0.00     0.274 HD
ATOM      7  H12 UNL     1      -2.627  -2.636   0.308  1.00  0.00     0.274 HD
ATOM      8  H11 UNL     1      -3.071  -2.695   1.926  1.00  0.00     0.274 HD
ENDBRANCH   4   5
ENDBRANCH   3   4
BRANCH   3   9
HETATM    9  C10 UNL     1      -3.776   0.231  -0.375  1.00  0.00     0.050 A 
HETATM   10  C11 UNL     1      -4.616  -0.624  -1.050  1.00  0.00     0.116 A 
HETATM   11  N6  UNL     1      -5.790   0.007  -1.188  1.00  0.00    -0.360 N 
HETATM   12  C12 UNL     1      -5.737   1.226  -0.630  1.00  0.00     0.180 A 
ATOM     13  H6  UNL     1      -6.609  -0.385  -1.652  1.00  0.00     0.166 HD
HETATM   14  N7  UNL     1      -4.495   1.346  -0.137  1.00  0.00    -0.353 N 
ATOM     15  H7  UNL     1      -4.143   2.169   0.352  1.00  0.00     0.166 HD
ENDBRANCH   3   9
ENDBRANCH   1   3
BRANCH   1  16
HETATM   16  C3  UNL     1      -0.280  -0.847  -0.895  1.00  0.00     0.134 C 
BRANCH  16  17
HETATM   17  C4  UNL     1       0.563   0.389  -0.775  1.00  0.00     0.142 C 
BRANCH  17  18
HETATM   18  N3  UNL     1       1.947  -0.004  -0.594  1.00  0.00    -0.354 N 
HETATM   19  C5  UNL     1       2.980   0.971  -0.450  1.00  0.00     0.268 C 
HETATM   20  O1  UNL     1       2.633   2.197  -0.487  1.00  0.00    -0.266 OA
ATOM     21  H3  UNL     1       2.187  -0.995  -0.569  1.00  0.00     0.162 HD
BRANCH  19  22
HETATM   22  C6  UNL     1       4.368   0.621  -0.269  1.00  0.00     0.102 A 
HETATM   23  C7  UNL     1       5.301   1.640  -0.141  1.00  0.00     0.052 A 
HETATM   24  C8  UNL     1       6.632   1.359   0.032  1.00  0.00     0.091 A 
HETATM   25  N4  UNL     1       6.992   0.049   0.071  1.00  0.00    -0.362 N 
HETATM   26  C9  UNL     1       6.114  -0.940  -0.049  1.00  0.00     0.180 A 
ATOM     27  H4  UNL     1       7.977  -0.184   0.198  1.00  0.00     0.165 HD
HETATM   28  N5  UNL     1       4.815  -0.645  -0.218  1.00  0.00    -0.348 N 
ATOM     29  H5  UNL     1       4.145  -1.408  -0.311  1.00  0.00     0.167 HD
ENDBRANCH  19  22
ENDBRANCH  17  18
ENDBRANCH  16  17
ENDBRANCH   1  16
TORSDOF 8
