REMARK  9 active torsions:
REMARK  status: ('A' for Active; 'I' for Inactive)
REMARK    1  A    between atoms: N1_2  and  O1_3 
REMARK    2  A    between atoms: N1_2  and  C2_5 
REMARK    3  A    between atoms: C2_5  and  C3_6 
REMARK    4  A    between atoms: C3_6  and  N2_7 
REMARK    5  A    between atoms: N2_7  and  C4_10 
REMARK    6  A    between atoms: C4_10  and  C5_11 
REMARK    7  A    between atoms: N3_13  and  C7_14 
REMARK    8  A    between atoms: C7_14  and  C9_16 
REMARK    9  A    between atoms: C11_20  and  N5_21 
ROOT
HETATM    1  C5  UNL     1       0.775  -1.195   0.006  1.00  0.00     0.070 A 
HETATM    2  C6  UNL     1      -0.353  -0.547   0.384  1.00  0.00     0.140 A 
HETATM    3  N3  UNL     1      -0.985  -0.048  -0.704  1.00  0.00    -0.277 N 
HETATM    4  N7  UNL     1      -0.227  -0.408  -1.727  1.00  0.00    -0.240 N 
ATOM      5  H7  UNL     1      -0.451  -0.177  -2.695  1.00  0.00     0.208 HD
HETATM    6  N8  UNL     1       0.825  -1.081  -1.385  1.00  0.00    -0.287 N 
ATOM      7  H8  UNL     1       1.544  -1.452  -2.006  1.00  0.00     0.188 HD
ENDROOT
BRANCH   3   8
HETATM    8  C7  UNL     1      -2.195   0.696  -0.835  1.00  0.00     0.156 C 
HETATM    9  C8  UNL     1      -2.008   2.145  -0.327  1.00  0.00     0.041 C 
BRANCH   8  10
HETATM   10  C9  UNL     1      -3.408   0.143  -0.211  1.00  0.00     0.067 A 
HETATM   11  C10 UNL     1      -4.070  -1.045  -0.571  1.00  0.00     0.134 A 
HETATM   12  N4  UNL     1      -5.145  -1.189   0.230  1.00  0.00    -0.200 N 
HETATM   13  C11 UNL     1      -5.206  -0.168   1.063  1.00  0.00     0.676 A 
ATOM     14  H4  UNL     1      -5.806  -1.965   0.197  1.00  0.00     0.183 HD
HETATM   15  N6  UNL     1      -4.145   0.656   0.803  1.00  0.00    -0.192 N 
ATOM     16  H6  UNL     1      -3.940   1.524   1.297  1.00  0.00     0.184 HD
BRANCH  13  17
HETATM   17  N5  UNL     1      -6.105   0.030   2.013  1.00  0.00    -0.234 N 
ATOM     18  H52 UNL     1      -6.896  -0.584   2.207  1.00  0.00     0.174 HD
ATOM     19  H51 UNL     1      -6.152   0.819   2.657  1.00  0.00     0.174 HD
ENDBRANCH  13  17
ENDBRANCH   8  10
ENDBRANCH   3   8
BRANCH   1  20
HETATM   20  C4  UNL     1       1.900  -1.884   0.683  1.00  0.00     0.292 C 
BRANCH  20  21
HETATM   21  N2  UNL     1       2.930  -0.864   0.906  1.00  0.00    -0.068 N 
ATOM     22  H22 UNL     1       3.070  -0.705   1.904  1.00  0.00     0.277 HD
ATOM     23  H21 UNL     1       2.590   0.058   0.633  1.00  0.00     0.277 HD
BRANCH  21  24
HETATM   24  C3  UNL     1       4.172  -1.156   0.262  1.00  0.00     0.254 C 
BRANCH  24  25
HETATM   25  C2  UNL     1       5.166  -0.040   0.596  1.00  0.00     0.181 C 
BRANCH  25  26
HETATM   26  N1  UNL     1       4.608   1.267   0.291  1.00  0.00    -0.281 N 
HETATM   27  C1  UNL     1       3.780   1.670  -0.454  1.00  0.00     0.149 C 
BRANCH  26  28
HETATM   28  O1  UNL     1       5.215   2.247   1.179  1.00  0.00    -0.289 OA
ATOM     29  H1  UNL     1       5.879   1.924   1.777  1.00  0.00     0.244 HD
ENDBRANCH  26  28
ENDBRANCH  25  26
ENDBRANCH  24  25
ENDBRANCH  21  24
ENDBRANCH  20  21
ENDBRANCH   1  20
TORSDOF 9
