REMARK  12 active torsions:
REMARK  status: ('A' for Active; 'I' for Inactive)
REMARK    1  A    between atoms: C1_2  and  C2_4 
REMARK    2  A    between atoms: C2_4  and  C3_5 
REMARK    3  A    between atoms: N2_14  and  O2_15 
REMARK    4  A    between atoms: N4_19  and  C9_20 
REMARK    5  A    between atoms: C9_20  and  C10_21 
REMARK    6  A    between atoms: C10_21  and  C11_22 
REMARK    7  A    between atoms: C11_22  and  C12_23 
REMARK    8  A    between atoms: C12_23  and  C13_24 
REMARK    9  A    between atoms: C13_24  and  N5_25 
REMARK   10  A    between atoms: C13_24  and  C14_29 
REMARK   11  A    between atoms: C13_24  and  C19_34 
REMARK   12  A    between atoms: C15_30  and  C16_31 
ROOT
HETATM    1  C3  UNL     1      -5.539   0.001   0.345  1.00  0.00     0.002 A 
HETATM    2  C4  UNL     1      -5.684   1.329   0.634  1.00  0.00     0.038 A 
HETATM    3 BR1  UNL     1      -7.401   2.142   0.689  1.00  0.00    -0.049 Br
HETATM    4  C5  UNL     1      -4.590   2.135   0.863  1.00  0.00     0.048 A 
HETATM    5 BR2  UNL     1      -4.778   4.000   1.276  1.00  0.00    -0.048 Br
HETATM    6  C6  UNL     1      -3.320   1.602   0.800  1.00  0.00     0.060 A 
HETATM    7 BR3  UNL     1      -1.835   2.741   1.129  1.00  0.00    -0.047 Br
HETATM    8  C7  UNL     1      -3.113   0.287   0.514  1.00  0.00     0.102 A 
HETATM    9  C8  UNL     1      -4.229  -0.529   0.282  1.00  0.00     0.120 A 
HETATM   10  N2  UNL     1      -3.723  -1.738   0.024  1.00  0.00    -0.146 N 
HETATM   11  N3  UNL     1      -2.422  -1.671   0.092  1.00  0.00    -0.213 N 
ATOM     12  H3  UNL     1      -1.803  -2.466  -0.065  1.00  0.00     0.211 HD
HETATM   13  N4  UNL     1      -1.997  -0.453   0.388  1.00  0.00    -0.272 N 
ENDROOT
BRANCH  13  14
HETATM   14  C9  UNL     1      -0.617  -0.054   0.495  1.00  0.00     0.151 C 
BRANCH  14  15
HETATM   15  C10 UNL     1      -0.076   0.323  -0.854  1.00  0.00     0.022 C 
BRANCH  15  16
HETATM   16  C11 UNL     1       1.320   0.785  -0.895  1.00  0.00     0.005 C 
BRANCH  16  17
HETATM   17  C12 UNL     1       2.375  -0.165  -0.412  1.00  0.00     0.062 C 
BRANCH  17  18
HETATM   18  C13 UNL     1       3.721   0.544  -0.597  1.00  0.00     0.263 C 
BRANCH  18  19
HETATM   19  N5  UNL     1       3.925   0.852  -2.006  1.00  0.00    -0.051 N 
ATOM     20  H53 UNL     1       3.843   0.024  -2.596  1.00  0.00     0.276 HD
ATOM     21  H52 UNL     1       3.151   1.389  -2.398  1.00  0.00     0.276 HD
ATOM     22  H51 UNL     1       4.821   1.324  -2.129  1.00  0.00     0.276 HD
ENDBRANCH  18  19
BRANCH  18  23
HETATM   23  C14 UNL     1       4.805  -0.254  -0.076  1.00  0.00    -0.058 C 
HETATM   24  C15 UNL     1       5.740  -0.902   0.363  1.00  0.00    -0.099 C 
BRANCH  24  25
HETATM   25  C16 UNL     1       6.878  -1.650   0.896  1.00  0.00     0.065 A 
HETATM   26  C17 UNL     1       7.723  -2.421  -0.013  1.00  0.00     0.018 A 
HETATM   27  C18 UNL     1       8.297  -1.142   0.489  1.00  0.00     0.018 A 
ENDBRANCH  24  25
ENDBRANCH  18  23
BRANCH  18  28
HETATM   28  C19 UNL     1       3.573   1.854   0.147  1.00  0.00     0.279 C 
HETATM   29  N6  UNL     1       3.397   1.753   1.554  1.00  0.00    -0.059 NA
HETATM   30  O3  UNL     1       3.611   2.953  -0.479  1.00  0.00    -0.273 OA
ENDBRANCH  18  28
ENDBRANCH  17  18
ENDBRANCH  16  17
ENDBRANCH  15  16
ENDBRANCH  14  15
ENDBRANCH  13  14
BRANCH  10  31
HETATM   31  O2  UNL     1      -4.442  -2.885  -0.280  1.00  0.00    -0.266 OA
ATOM     32  H2  UNL     1      -4.082  -3.745  -0.463  1.00  0.00     0.247 HD
ENDBRANCH  10  31
BRANCH   1  33
HETATM   33  C2  UNL     1      -6.592  -0.966   0.077  1.00  0.00     0.142 C 
BRANCH  33  34
HETATM   34  C1  UNL     1      -7.961  -0.692   0.441  1.00  0.00     0.235 C 
HETATM   35  N1  UNL     1      -8.941  -0.504  -0.562  1.00  0.00    -0.062 NA
HETATM   36  O1  UNL     1      -8.309  -0.618   1.642  1.00  0.00    -0.277 OA
ENDBRANCH  33  34
ENDBRANCH   1  33
TORSDOF 12
