REMARK  11 active torsions:
REMARK  status: ('A' for Active; 'I' for Inactive)
REMARK    1  A    between atoms: O1_2  and  C2_3 
REMARK    2  A    between atoms: C2_3  and  C3_5 
REMARK    3  A    between atoms: C3_5  and  N1_6 
REMARK       I    between atoms: N1_6  and  C4_8 
REMARK    4  A    between atoms: C4_8  and  C5_10 
REMARK    5  A    between atoms: C5_10  and  C6_11 
REMARK       I    between atoms: C6_11  and  N2_13 
REMARK    6  A    between atoms: N2_13  and  C7_15 
REMARK    7  A    between atoms: C8_20  and  C9_21 
REMARK    8  A    between atoms: C9_21  and  C10_22 
REMARK    9  A    between atoms: C10_22  and  S1_23 
REMARK   10  A    between atoms: S1_23  and  C11_24 
REMARK   11  A    between atoms: C11_24  and  C12_25 
ROOT
HETATM    1  C7  UNL     1       0.827  -1.587   1.567  1.00  0.00     0.700 A 
HETATM    2  N3  UNL     1       0.124  -1.611   2.734  1.00  0.00    -0.130 N 
ATOM      3  H3  UNL     1       0.518  -1.757   3.663  1.00  0.00     0.205 HD
HETATM    4  N4  UNL     1      -1.153  -1.413   2.461  1.00  0.00    -0.274 N 
ATOM      5  H4  UNL     1      -1.902  -1.383   3.152  1.00  0.00     0.189 HD
HETATM    6  C8  UNL     1      -1.318  -1.257   1.136  1.00  0.00     0.113 A 
HETATM    7  N5  UNL     1      -0.088  -1.367   0.609  1.00  0.00    -0.178 N 
ATOM      8  H5  UNL     1       0.123  -1.293  -0.386  1.00  0.00     0.185 HD
ENDROOT
BRANCH   1   9
HETATM    9  N2  UNL     1       2.111  -1.747   1.459  1.00  0.00    -0.158 N 
HETATM   10  C6  UNL     1       2.737  -1.702   0.184  1.00  0.00     0.244 C 
HETATM   11  O4  UNL     1       2.501  -2.642  -0.651  1.00  0.00    -0.272 OA
ATOM     12  H2  UNL     1       2.674  -1.906   2.295  1.00  0.00     0.187 HD
BRANCH  10  13
HETATM   13  C5  UNL     1       3.642  -0.621  -0.214  1.00  0.00     0.206 C 
BRANCH  13  14
HETATM   14  C4  UNL     1       5.043  -1.034  -0.036  1.00  0.00     0.226 C 
HETATM   15  N1  UNL     1       6.082  -0.126  -0.371  1.00  0.00    -0.351 N 
ATOM     16  H1  UNL     1       5.846   0.799  -0.730  1.00  0.00     0.163 HD
HETATM   17  O3  UNL     1       5.294  -2.176   0.406  1.00  0.00    -0.273 OA
BRANCH  15  18
HETATM   18  C3  UNL     1       7.491  -0.502  -0.207  1.00  0.00     0.233 C 
BRANCH  18  19
HETATM   19  C2  UNL     1       8.324   0.647  -0.637  1.00  0.00     0.276 C 
HETATM   20  O2  UNL     1       7.820   1.718  -1.056  1.00  0.00    -0.263 OA
BRANCH  19  21
HETATM   21  O1  UNL     1       9.707   0.551  -0.580  1.00  0.00    -0.325 OA
HETATM   22  C1  UNL     1      10.482   1.656  -0.994  1.00  0.00     0.213 C 
ENDBRANCH  19  21
ENDBRANCH  18  19
ENDBRANCH  15  18
ENDBRANCH  13  14
ENDBRANCH  10  13
ENDBRANCH   1   9
BRANCH   6  23
HETATM   23  C9  UNL     1      -2.611  -1.015   0.446  1.00  0.00     0.088 C 
BRANCH  23  24
HETATM   24  C10 UNL     1      -2.794   0.510   0.398  1.00  0.00     0.081 C 
BRANCH  24  25
HETATM   25  S1  UNL     1      -4.349   0.928  -0.427  1.00  0.00    -0.164 SA
BRANCH  25  26
HETATM   26  C11 UNL     1      -5.732   0.344   0.589  1.00  0.00     0.114 C 
BRANCH  26  27
HETATM   27  C12 UNL     1      -6.996   0.689  -0.090  1.00  0.00    -0.030 A 
HETATM   28  C13 UNL     1      -6.977   1.347  -1.288  1.00  0.00     0.029 A 
HETATM   29  C14 UNL     1      -8.161   1.687  -1.952  1.00  0.00     0.029 A 
HETATM   30 BR1  UNL     1      -8.133   2.603  -3.617  1.00  0.00    -0.050 Br
HETATM   31  C15 UNL     1      -9.345   1.349  -1.383  1.00  0.00     0.029 A 
HETATM   32 BR2  UNL     1     -10.988   1.802  -2.273  1.00  0.00    -0.050 Br
HETATM   33  C16 UNL     1      -9.414   0.683  -0.173  1.00  0.00     0.040 A 
HETATM   34  C17 UNL     1      -8.211   0.360   0.463  1.00  0.00     0.019 A 
HETATM   35 BR3  UNL     1      -8.197  -0.559   2.136  1.00  0.00    -0.050 Br
ENDBRANCH  26  27
ENDBRANCH  25  26
ENDBRANCH  24  25
ENDBRANCH  23  24
ENDBRANCH   6  23
TORSDOF 11
