REMARK  9 active torsions:
REMARK  status: ('A' for Active; 'I' for Inactive)
REMARK       I    between atoms: C2_2  and  N1_4 
REMARK    1  A    between atoms: N1_4  and  C3_6 
REMARK    2  A    between atoms: C3_6  and  C4_7 
REMARK    3  A    between atoms: C3_6  and  C27_47 
REMARK       I    between atoms: C4_7  and  N2_9 
REMARK    4  A    between atoms: C8_15  and  C9_16 
REMARK       I    between atoms: C9_16  and  N3_18 
REMARK    5  A    between atoms: C13_23  and  C14_24 
REMARK       I    between atoms: C14_24  and  N4_26 
REMARK    6  A    between atoms: N4_26  and  C15_28 
REMARK    7  A    between atoms: C22_35  and  C23_36 
REMARK       I    between atoms: C23_36  and  N5_38 
REMARK    8  A    between atoms: C24_40  and  C25_41 
REMARK    9  A    between atoms: C25_41  and  N6_43 
ROOT
HETATM    1  C9  UNL     1      -0.903   0.577   1.225  1.00  0.00     0.243 C 
HETATM    2  O3  UNL     1      -1.276   1.604   0.572  1.00  0.00    -0.271 OA
HETATM    3  N3  UNL     1       0.472   0.224   1.314  1.00  0.00    -0.333 N 
HETATM    4  C10 UNL     1       0.869  -0.986   2.017  1.00  0.00     0.164 C 
HETATM    5  C11 UNL     1       2.106  -0.793   2.836  1.00  0.00     0.189 C 
HETATM    6  F3  UNL     1       1.855  -0.887   4.205  1.00  0.00    -0.248 F 
HETATM    7  C12 UNL     1       2.823   0.502   2.600  1.00  0.00     0.055 C 
HETATM    8  C13 UNL     1       2.850   0.793   1.126  1.00  0.00     0.112 C 
HETATM    9  C22 UNL     1       1.445   1.105   0.703  1.00  0.00     0.192 C 
ENDROOT
BRANCH   1  10
HETATM   10  C8  UNL     1      -1.975  -0.216   1.876  1.00  0.00     0.185 C 
HETATM   11  N2  UNL     1      -3.303   0.097   1.405  1.00  0.00    -0.331 N 
HETATM   12  C4  UNL     1      -4.075  -0.689   0.517  1.00  0.00     0.244 C 
HETATM   13  C5  UNL     1      -3.685   1.342   2.024  1.00  0.00     0.205 C 
HETATM   14  O2  UNL     1      -3.573  -1.776   0.084  1.00  0.00    -0.271 OA
HETATM   15  C6  UNL     1      -2.922   1.381   3.327  1.00  0.00     0.261 C 
HETATM   16  F1  UNL     1      -2.120   2.529   3.410  1.00  0.00    -0.204 F 
HETATM   17  F2  UNL     1      -3.753   1.426   4.428  1.00  0.00    -0.204 F 
HETATM   18  C7  UNL     1      -1.994   0.211   3.333  1.00  0.00     0.115 C 
BRANCH  12  19
HETATM   19  C3  UNL     1      -5.420  -0.383   0.034  1.00  0.00     0.184 C 
BRANCH  19  20
HETATM   20  N1  UNL     1      -6.191  -1.596  -0.230  1.00  0.00    -0.347 N 
HETATM   21  C2  UNL     1      -7.489  -1.693   0.341  1.00  0.00     0.214 C 
HETATM   22  C1  UNL     1      -8.383  -2.853   0.163  1.00  0.00     0.117 C 
HETATM   23  O1  UNL     1      -7.912  -0.743   1.040  1.00  0.00    -0.274 OA
ATOM     24  H1  UNL     1      -5.810  -2.348  -0.805  1.00  0.00     0.163 HD
ENDBRANCH  19  20
BRANCH  19  25
HETATM   25  C27 UNL     1      -5.329   0.305  -1.329  1.00  0.00    -0.022 C 
HETATM   26  C28 UNL     1      -4.626  -0.544  -2.351  1.00  0.00     0.017 C 
HETATM   27  C29 UNL     1      -4.748   1.692  -1.248  1.00  0.00     0.017 C 
HETATM   28  C30 UNL     1      -6.757   0.512  -1.876  1.00  0.00     0.017 C 
ENDBRANCH  19  25
ENDBRANCH  12  19
ENDBRANCH   1  10
BRANCH   9  29
HETATM   29  C23 UNL     1       1.387   1.184  -0.754  1.00  0.00     0.245 C 
HETATM   30  O5  UNL     1       0.548   0.607  -1.487  1.00  0.00    -0.271 OA
HETATM   31  N5  UNL     1       2.358   1.979  -1.410  1.00  0.00    -0.337 N 
HETATM   32  C24 UNL     1       2.193   3.001  -2.119  1.00  0.00     0.096 C 
ATOM     33  H5  UNL     1       3.326   1.679  -1.289  1.00  0.00     0.168 HD
BRANCH  32  34
HETATM   34  C25 UNL     1       0.890   3.629  -2.438  1.00  0.00     0.217 C 
HETATM   35  C26 UNL     1       1.088   4.803  -3.408  1.00  0.00     0.045 C 
BRANCH  34  36
HETATM   36  N6  UNL     1       0.314   4.188  -1.239  1.00  0.00    -0.071 N 
ATOM     37  H63 UNL     1       0.235   3.498  -0.492  1.00  0.00     0.275 HD
ATOM     38  H62 UNL     1       0.949   4.836  -0.773  1.00  0.00     0.275 HD
ATOM     39  H61 UNL     1      -0.583   4.620  -1.459  1.00  0.00     0.275 HD
ENDBRANCH  34  36
ENDBRANCH  32  34
ENDBRANCH   9  29
BRANCH   8  40
HETATM   40  C14 UNL     1       3.503  -0.253   0.320  1.00  0.00     0.224 C 
HETATM   41  O4  UNL     1       2.931  -0.870  -0.617  1.00  0.00    -0.273 OA
HETATM   42  N4  UNL     1       4.845  -0.591   0.606  1.00  0.00    -0.356 N 
ATOM     43  H4  UNL     1       5.332  -0.105   1.360  1.00  0.00     0.162 HD
BRANCH  42  44
HETATM   44  C15 UNL     1       5.543  -1.608  -0.144  1.00  0.00     0.084 C 
HETATM   45  C16 UNL     1       6.723  -1.013  -0.910  1.00  0.00     0.025 C 
HETATM   46  C17 UNL     1       7.259  -2.121  -1.774  1.00  0.00     0.007 C 
HETATM   47  C18 UNL     1       7.602  -3.371  -1.047  1.00  0.00    -0.010 A 
HETATM   48  C19 UNL     1       8.423  -3.395   0.167  1.00  0.00     0.010 A 
HETATM   49  C20 UNL     1       6.905  -3.683   0.182  1.00  0.00    -0.008 A 
HETATM   50  C21 UNL     1       6.110  -2.597   0.824  1.00  0.00     0.030 C 
ENDBRANCH  42  44
ENDBRANCH   8  40
TORSDOF 9
