REMARK  10 active torsions:
REMARK  status: ('A' for Active; 'I' for Inactive)
REMARK    1  A    between atoms: C2_2  and  C3_3 
REMARK    2  A    between atoms: C3_3  and  C4_4 
REMARK    3  A    between atoms: C4_4  and  C5_5 
REMARK    4  A    between atoms: C5_5  and  C6_6 
REMARK    5  A    between atoms: C6_6  and  O1_10 
REMARK    6  A    between atoms: O1_10  and  C7_11 
REMARK    7  A    between atoms: C11_15  and  O2_16 
REMARK    8  A    between atoms: C12_18  and  O3_19 
REMARK    9  A    between atoms: C20_28  and  O4_29 
REMARK   10  A    between atoms: C21_31  and  O5_32 
ROOT
HETATM    1  C7  UNL     1       0.658  -0.352  -1.254  1.00  0.00     0.130 C 
HETATM    2  C8  UNL     1      -0.379  -1.456  -1.374  1.00  0.00     0.033 C 
HETATM    3  C9  UNL     1      -0.814  -1.995  -0.049  1.00  0.00     0.010 C 
HETATM    4  C10 UNL     1      -2.230  -1.760   0.302  1.00  0.00     0.022 C 
HETATM    5  C11 UNL     1      -3.045  -2.834  -0.439  1.00  0.00     0.151 C 
HETATM    6  C12 UNL     1      -4.348  -2.954   0.316  1.00  0.00     0.147 C 
HETATM    7  C13 UNL     1      -5.063  -1.665   0.187  1.00  0.00     0.035 C 
HETATM    8  C14 UNL     1      -4.266  -0.442   0.468  1.00  0.00     0.008 C 
HETATM    9  C15 UNL     1      -2.838  -0.465   0.004  1.00  0.00     0.001 C 
HETATM   10  C16 UNL     1      -2.135   0.758   0.518  1.00  0.00    -0.034 C 
HETATM   11  C17 UNL     1      -1.638   0.608   1.941  1.00  0.00     0.016 C 
HETATM   12  C18 UNL     1      -3.118   1.941   0.600  1.00  0.00     0.012 C 
HETATM   13  C19 UNL     1      -3.356   2.534  -0.752  1.00  0.00     0.035 C 
HETATM   14  C20 UNL     1      -2.145   3.372  -1.092  1.00  0.00     0.147 C 
HETATM   15  C21 UNL     1      -0.922   2.683  -0.612  1.00  0.00     0.151 C 
HETATM   16  C22 UNL     1      -1.078   1.169  -0.452  1.00  0.00     0.028 C 
HETATM   17  C23 UNL     1       0.290   0.636  -0.165  1.00  0.00     0.040 C 
ENDROOT
BRANCH   1  18
HETATM   18  O1  UNL     1       1.958  -0.884  -1.111  1.00  0.00    -0.334 OA
BRANCH  18  19
HETATM   19  C6  UNL     1       3.069  -0.065  -0.991  1.00  0.00     0.111 C 
HETATM   20  N1  UNL     1       3.110   0.966  -1.763  1.00  0.00    -0.384 N 
ATOM     21  H12 UNL     1       3.928   1.569  -1.675  1.00  0.00     0.157 HD
ATOM     22  H11 UNL     1       2.354   1.152  -2.422  1.00  0.00     0.157 HD
BRANCH  19  23
HETATM   23  C5  UNL     1       4.183  -0.339  -0.020  1.00  0.00     0.083 C 
BRANCH  23  24
HETATM   24  C4  UNL     1       5.201   0.759  -0.178  1.00  0.00     0.008 C 
BRANCH  24  25
HETATM   25  C3  UNL     1       6.379   0.617   0.750  1.00  0.00     0.000 C 
BRANCH  25  26
HETATM   26  C2  UNL     1       7.103  -0.667   0.512  1.00  0.00    -0.005 C 
HETATM   27  C1  UNL     1       8.272  -0.703   1.488  1.00  0.00     0.005 C 
ENDBRANCH  25  26
ENDBRANCH  24  25
ENDBRANCH  23  24
ENDBRANCH  19  23
ENDBRANCH  18  19
ENDBRANCH   1  18
BRANCH  15  28
HETATM   28  O5  UNL     1      -0.307   3.265   0.487  1.00  0.00    -0.393 OA
ATOM     29  H5  UNL     1       0.476   2.824   0.794  1.00  0.00     0.210 HD
ENDBRANCH  15  28
BRANCH   5  30
HETATM   30  O2  UNL     1      -2.431  -4.078  -0.384  1.00  0.00    -0.393 OA
ATOM     31  H2  UNL     1      -2.934  -4.741  -0.842  1.00  0.00     0.210 HD
ENDBRANCH   5  30
BRANCH  14  32
HETATM   32  O4  UNL     1      -2.240   4.665  -0.580  1.00  0.00    -0.393 OA
ATOM     33  H4  UNL     1      -1.479   5.192  -0.794  1.00  0.00     0.210 HD
ENDBRANCH  14  32
BRANCH   6  34
HETATM   34  O3  UNL     1      -4.138  -3.367   1.617  1.00  0.00    -0.393 OA
ATOM     35  H3  UNL     1      -4.957  -3.442   2.092  1.00  0.00     0.210 HD
ENDBRANCH   6  34
TORSDOF 10
