REMARK  8 active torsions:
REMARK  status: ('A' for Active; 'I' for Inactive)
REMARK    1  A    between atoms: C2_2  and  C3_3 
REMARK    2  A    between atoms: C3_3  and  C4_4 
REMARK    3  A    between atoms: C5_5  and  C6_6 
REMARK    4  A    between atoms: C7_7  and  C8_8 
REMARK    5  A    between atoms: C9_9  and  C10_10 
REMARK    6  A    between atoms: C17_18  and  O2_19 
REMARK    7  A    between atoms: C20_25  and  N2_26 
REMARK    8  A    between atoms: C21_31  and  N4_32 
ROOT
HETATM    1  C8  UNL     1       1.856  -0.670  -0.033  1.00  0.00    -0.034 C 
HETATM    2  C9  UNL     1       2.524  -1.797   0.117  1.00  0.00     0.022 C 
HETATM    3  C13 UNL     1       1.580  -2.830   0.637  1.00  0.00     0.165 C 
HETATM    4  O1  UNL     1       1.779  -4.058   0.881  1.00  0.00    -0.292 OA
HETATM    5  C14 UNL     1       0.278  -2.250   0.862  1.00  0.00     0.074 C 
HETATM    6  C15 UNL     1      -0.226  -2.080   2.240  1.00  0.00     0.018 C 
HETATM    7  C16 UNL     1      -1.763  -2.087   2.248  1.00  0.00     0.062 C 
HETATM    8  C17 UNL     1      -2.373  -0.736   1.966  1.00  0.00     0.267 C 
HETATM    9  O3  UNL     1      -2.725  -0.542   0.587  1.00  0.00    -0.303 OA
HETATM   10  C19 UNL     1      -1.968  -0.689  -0.570  1.00  0.00     0.170 A 
HETATM   11  N1  UNL     1      -2.794  -0.687  -1.628  1.00  0.00    -0.170 N 
ATOM     12  H1  UNL     1      -3.793  -0.582  -1.452  1.00  0.00     0.186 HD
HETATM   13  C20 UNL     1      -2.397  -0.813  -2.889  1.00  0.00     0.679 A 
HETATM   14  N3  UNL     1      -1.090  -0.951  -3.129  1.00  0.00    -0.177 N 
ATOM     15  H3  UNL     1      -0.776  -1.048  -4.095  1.00  0.00     0.186 HD
HETATM   16  C21 UNL     1      -0.162  -0.967  -2.135  1.00  0.00     0.126 A 
HETATM   17  C22 UNL     1      -0.577  -0.838  -0.869  1.00  0.00     0.047 A 
HETATM   18  C23 UNL     1       0.463  -0.908   0.143  1.00  0.00     0.072 C 
ENDROOT
BRANCH   1  19
HETATM   19  C7  UNL     1       2.444   0.608  -0.393  1.00  0.00     0.009 C 
HETATM   20  C6  UNL     1       1.968   1.796  -0.504  1.00  0.00     0.000 C 
BRANCH  20  21
HETATM   21  C5  UNL     1       0.682   2.393  -0.326  1.00  0.00    -0.004 C 
HETATM   22  C4  UNL     1       0.565   3.703  -0.497  1.00  0.00    -0.023 C 
BRANCH  22  23
HETATM   23  C3  UNL     1      -0.697   4.437  -0.368  1.00  0.00     0.053 C 
BRANCH  23  24
HETATM   24  C2  UNL     1      -1.117   5.118  -1.635  1.00  0.00    -0.033 C 
HETATM   25  C1  UNL     1      -2.238   4.772  -2.242  1.00  0.00     0.007 C 
ENDBRANCH  23  24
ENDBRANCH  22  23
ENDBRANCH  20  21
ENDBRANCH   1  19
BRANCH   2  26
HETATM   26  C10 UNL     1       3.909  -2.140  -0.015  1.00  0.00    -0.057 C 
HETATM   27  C11 UNL     1       4.377  -3.384   0.177  1.00  0.00     0.019 C 
HETATM   28  C12 UNL     1       5.032  -1.197  -0.358  1.00  0.00     0.048 C 
ENDBRANCH   2  26
BRANCH  16  29
HETATM   29  N4  UNL     1       1.038  -1.136  -2.474  1.00  0.00    -0.384 N 
ATOM     30  H42 UNL     1       1.354  -1.234  -3.439  1.00  0.00     0.157 HD
ATOM     31  H41 UNL     1       1.734  -1.148  -1.728  1.00  0.00     0.157 HD
ENDBRANCH  16  29
BRANCH   8  32
HETATM   32  O2  UNL     1      -3.639  -0.683   2.624  1.00  0.00    -0.366 OA
HETATM   33  C18 UNL     1      -3.586   0.410   3.470  1.00  0.00     0.204 C 
ENDBRANCH   8  32
BRANCH  13  34
HETATM   34  N2  UNL     1      -3.241  -0.809  -3.857  1.00  0.00    -0.234 N 
ATOM     35  H22 UNL     1      -4.239  -0.704  -3.674  1.00  0.00     0.174 HD
ATOM     36  H21 UNL     1      -2.936  -0.906  -4.826  1.00  0.00     0.174 HD
ENDBRANCH  13  34
TORSDOF 8
