REMARK  10 active torsions:
REMARK  status: ('A' for Active; 'I' for Inactive)
REMARK    1  A    between atoms: C2_2  and  O1_5 
REMARK    2  A    between atoms: O1_5  and  C5_6 
REMARK       I    between atoms: C5_6  and  N1_8 
REMARK    3  A    between atoms: N1_8  and  C6_10 
REMARK    4  A    between atoms: C9_13  and  C10_14 
REMARK    5  A    between atoms: C10_14  and  N2_15 
REMARK    6  A    between atoms: N2_15  and  C11_17 
REMARK    7  A    between atoms: C12_20  and  N4_21 
REMARK    8  A    between atoms: C13_26  and  C14_27 
REMARK    9  A    between atoms: C18_32  and  C19_33 
REMARK   10  A    between atoms: C19_33  and  N6_34 
ROOT
HETATM    1  C11 UNL     1       3.537   0.537  -1.053  1.00  0.00     0.131 A 
HETATM    2  N3  UNL     1       3.914   1.772  -0.836  1.00  0.00    -0.176 N 
ATOM      3  H3  UNL     1       3.233   2.493  -0.596  1.00  0.00     0.186 HD
HETATM    4  C12 UNL     1       5.257   2.072  -0.941  1.00  0.00     0.678 A 
HETATM    5  N5  UNL     1       6.074   1.073  -1.257  1.00  0.00    -0.188 N 
ATOM      6  H5  UNL     1       7.065   1.304  -1.331  1.00  0.00     0.184 HD
HETATM    7  C13 UNL     1       5.734  -0.233  -1.495  1.00  0.00     0.098 A 
HETATM    8  C18 UNL     1       4.424  -0.518  -1.390  1.00  0.00     0.053 A 
ENDROOT
BRANCH   1   9
HETATM    9  N2  UNL     1       2.264   0.256  -0.922  1.00  0.00    -0.375 N 
ATOM     10  H2  UNL     1       1.940  -0.697  -1.086  1.00  0.00     0.161 HD
BRANCH   9  11
HETATM   11  C10 UNL     1       1.311   1.278  -0.548  1.00  0.00     0.126 C 
BRANCH  11  12
HETATM   12  C9  UNL     1      -0.021   0.668  -0.228  1.00  0.00     0.003 C 
HETATM   13  C8  UNL     1      -0.991   1.747   0.190  1.00  0.00     0.008 C 
HETATM   14  C7  UNL     1      -2.389   1.215   0.141  1.00  0.00     0.026 C 
HETATM   15  C6  UNL     1      -2.484  -0.104   0.865  1.00  0.00     0.086 C 
HETATM   16  C21 UNL     1      -1.250  -0.568   1.551  1.00  0.00     0.026 C 
HETATM   17  C20 UNL     1       0.015  -0.465   0.754  1.00  0.00     0.008 C 
BRANCH  15  18
HETATM   18  N1  UNL     1      -3.571   0.057   1.864  1.00  0.00    -0.332 N 
HETATM   19  C5  UNL     1      -4.907   0.026   1.313  1.00  0.00     0.361 C 
HETATM   20  O2  UNL     1      -5.139  -0.113   0.093  1.00  0.00    -0.238 OA
ATOM     21  H1  UNL     1      -3.389   0.180   2.860  1.00  0.00     0.165 HD
BRANCH  19  22
HETATM   22  O1  UNL     1      -5.994   0.155   2.165  1.00  0.00    -0.294 OA
BRANCH  22  23
HETATM   23  C2  UNL     1      -7.308   0.190   1.718  1.00  0.00     0.061 C 
HETATM   24  C1  UNL     1      -8.216   0.305   2.939  1.00  0.00     0.046 C 
HETATM   25  C3  UNL     1      -7.608  -1.107   0.998  1.00  0.00     0.046 C 
HETATM   26  C4  UNL     1      -7.650   1.388   0.854  1.00  0.00     0.046 C 
ENDBRANCH  22  23
ENDBRANCH  19  22
ENDBRANCH  15  18
ENDBRANCH  11  12
ENDBRANCH   9  11
ENDBRANCH   1   9
BRANCH   8  27
HETATM   27  C19 UNL     1       3.742  -1.783  -1.578  1.00  0.00     0.098 C 
BRANCH  27  28
HETATM   28  N6  UNL     1       4.340  -2.979  -1.904  1.00  0.00    -0.407 N 
ATOM     29  H62 UNL     1       5.353  -2.955  -2.020  1.00  0.00     0.155 HD
ATOM     30  H61 UNL     1       3.860  -3.869  -2.036  1.00  0.00     0.155 HD
ENDBRANCH  27  28
ENDBRANCH   8  27
BRANCH   4  31
HETATM   31  N4  UNL     1       5.614   3.243  -0.774  1.00  0.00    -0.234 N 
ATOM     32  H42 UNL     1       4.987   4.010  -0.531  1.00  0.00     0.174 HD
ATOM     33  H41 UNL     1       6.607   3.465  -0.852  1.00  0.00     0.174 HD
ENDBRANCH   4  31
BRANCH   7  34
HETATM   34  C14 UNL     1       6.800  -1.181  -1.818  1.00  0.00     0.103 A 
HETATM   35  C15 UNL     1       8.141  -0.803  -1.766  1.00  0.00     0.041 A 
HETATM   36  C16 UNL     1       8.917  -1.902  -2.114  1.00  0.00     0.027 A 
HETATM   37  C17 UNL     1       7.998  -2.915  -2.369  1.00  0.00     0.142 A 
HETATM   38  O3  UNL     1       6.813  -2.420  -2.180  1.00  0.00    -0.320 OA
ENDBRANCH   7  34
TORSDOF 10
