REMARK  7 active torsions:
REMARK  status: ('A' for Active; 'I' for Inactive)
REMARK    1  A    between atoms: C2_2  and  C4_4 
REMARK    2  A    between atoms: C6_6  and  C7_7 
REMARK    3  A    between atoms: C7_7  and  N1_8 
REMARK    4  A    between atoms: C10_11  and  C11_12 
REMARK    5  A    between atoms: C10_11  and  N2_15 
REMARK    6  A    between atoms: C19_23  and  N4_24 
REMARK    7  A    between atoms: C20_29  and  N6_30 
ROOT
HETATM    1  N1  UNL     1       1.454  -0.837  -0.120  1.00  0.00    -0.368 N 
HETATM    2  C8  UNL     1       1.115   0.542  -0.021  1.00  0.00     0.130 C 
HETATM    3  C9  UNL     1      -0.266   0.803   0.442  1.00  0.00     0.052 C 
HETATM    4  C10 UNL     1      -1.404   0.264  -0.431  1.00  0.00     0.043 C 
HETATM    5  C21 UNL     1      -0.955  -1.148  -0.646  1.00  0.00     0.076 C 
HETATM    6  C22 UNL     1       0.290  -1.583   0.096  1.00  0.00     0.066 C 
ENDROOT
BRANCH   4   7
HETATM    7  C11 UNL     1      -1.550   1.141  -1.587  1.00  0.00     0.006 C 
HETATM    8  C12 UNL     1      -1.861   2.614  -1.276  1.00  0.00     0.012 C 
HETATM    9  C13 UNL     1      -0.483   1.171  -2.617  1.00  0.00     0.012 C 
ENDBRANCH   4   7
BRANCH   4  10
HETATM   10  N2  UNL     1      -2.566   0.370   0.462  1.00  0.00    -0.356 N 
HETATM   11  C14 UNL     1      -2.610   1.356   1.535  1.00  0.00     0.125 C 
HETATM   12  C15 UNL     1      -3.984   1.545   2.101  1.00  0.00     0.025 C 
HETATM   13  C16 UNL     1      -4.404   0.154   2.634  1.00  0.00     0.048 C 
HETATM   14  C17 UNL     1      -4.631  -0.615   1.368  1.00  0.00     0.030 A 
HETATM   15  C18 UNL     1      -3.711  -0.457   0.327  1.00  0.00     0.130 A 
HETATM   16  C20 UNL     1      -5.727  -1.418   1.236  1.00  0.00     0.124 A 
HETATM   17  N3  UNL     1      -3.958  -1.121  -0.786  1.00  0.00    -0.176 N 
HETATM   18  C19 UNL     1      -5.038  -1.920  -0.939  1.00  0.00     0.679 A 
ATOM     19  H3  UNL     1      -3.306  -1.028  -1.565  1.00  0.00     0.186 HD
HETATM   20  N5  UNL     1      -5.937  -2.084   0.062  1.00  0.00    -0.177 N 
ATOM     21  H5  UNL     1      -6.749  -2.689  -0.058  1.00  0.00     0.185 HD
BRANCH  18  22
HETATM   22  N4  UNL     1      -5.238  -2.549  -2.046  1.00  0.00    -0.234 N 
ATOM     23  H42 UNL     1      -4.561  -2.426  -2.799  1.00  0.00     0.174 HD
ATOM     24  H41 UNL     1      -6.053  -3.152  -2.161  1.00  0.00     0.174 HD
ENDBRANCH  18  22
BRANCH  16  25
HETATM   25  N6  UNL     1      -6.542  -1.526   2.231  1.00  0.00    -0.385 N 
ATOM     26  H62 UNL     1      -6.385  -1.029   3.108  1.00  0.00     0.157 HD
ATOM     27  H61 UNL     1      -7.361  -2.126   2.132  1.00  0.00     0.157 HD
ENDBRANCH  16  25
ENDBRANCH   4  10
BRANCH   1  28
HETATM   28  C7  UNL     1       2.364  -1.222  -1.120  1.00  0.00     0.121 C 
BRANCH  28  29
HETATM   29  C6  UNL     1       3.648  -0.493  -0.875  1.00  0.00     0.072 A 
HETATM   30  C5  UNL     1       4.650  -1.012  -0.081  1.00  0.00     0.068 A 
HETATM   31  C4  UNL     1       5.662  -0.085  -0.083  1.00  0.00     0.082 A 
HETATM   32  O1  UNL     1       5.268   0.926  -0.842  1.00  0.00    -0.242 OA
HETATM   33  N7  UNL     1       4.070   0.684  -1.314  1.00  0.00    -0.260 N 
ATOM     34  H7  UNL     1       3.543   1.307  -1.926  1.00  0.00     0.195 HD
BRANCH  31  35
HETATM   35  C2  UNL     1       6.953  -0.209   0.638  1.00  0.00     0.037 C 
HETATM   36  C1  UNL     1       8.068  -0.114  -0.388  1.00  0.00     0.016 C 
HETATM   37  C3  UNL     1       7.116   0.955   1.594  1.00  0.00     0.016 C 
ENDBRANCH  31  35
ENDBRANCH  28  29
ENDBRANCH   1  28
TORSDOF 7
