REMARK  9 active torsions:
REMARK  status: ('A' for Active; 'I' for Inactive)
REMARK    1  A    between atoms: C3_4  and  O2_5 
REMARK    2  A    between atoms: O2_5  and  C4_6 
REMARK    3  A    between atoms: C10_12  and  C11_13 
REMARK    4  A    between atoms: C11_13  and  C12_14 
REMARK    5  A    between atoms: C14_16  and  C15_17 
REMARK    6  A    between atoms: C18_20  and  O3_21 
REMARK    7  A    between atoms: C19_23  and  O4_24 
REMARK    8  A    between atoms: C21_27  and  O5_28 
REMARK    9  A    between atoms: C23_33  and  O6_34 
ROOT
HETATM    1  C12 UNL     1       0.729   0.266  -0.489  1.00  0.00     0.016 A 
HETATM    2  C13 UNL     1       1.882  -0.152  -1.046  1.00  0.00     0.041 A 
HETATM    3  C14 UNL     1       2.999   0.426  -0.423  1.00  0.00     0.019 A 
HETATM    4  C21 UNL     1       2.404   1.236   0.572  1.00  0.00     0.150 A 
HETATM    5  N1  UNL     1       1.093   1.152   0.543  1.00  0.00    -0.340 N 
ATOM      6  H1  UNL     1       0.449   1.644   1.162  1.00  0.00     0.168 HD
ENDROOT
BRANCH   1   7
HETATM    7  C11 UNL     1      -0.712   0.083  -0.805  1.00  0.00     0.096 C 
BRANCH   7   8
HETATM    8  C10 UNL     1      -1.355  -1.172  -0.403  1.00  0.00    -0.021 C 
HETATM    9  C3  UNL     1      -2.772  -1.119  -0.051  1.00  0.00     0.291 C 
HETATM   10  O1  UNL     1      -3.104  -2.246   0.789  1.00  0.00    -0.350 OA
HETATM   11  C2  UNL     1      -2.754  -3.362   0.015  1.00  0.00     0.153 C 
HETATM   12  C1  UNL     1      -3.562  -4.586   0.368  1.00  0.00     0.042 C 
HETATM   13  C23 UNL     1      -1.269  -3.543   0.126  1.00  0.00     0.170 C 
HETATM   14  C22 UNL     1      -0.624  -2.265  -0.337  1.00  0.00     0.015 C 
BRANCH   9  15
HETATM   15  O2  UNL     1      -3.145   0.056   0.516  1.00  0.00    -0.352 OA
BRANCH  15  16
HETATM   16  C4  UNL     1      -4.364   0.588   0.132  1.00  0.00     0.125 C 
HETATM   17  C5  UNL     1      -4.212   1.837  -0.745  1.00  0.00     0.032 C 
HETATM   18  C6  UNL     1      -5.588   2.164  -1.306  1.00  0.00     0.002 C 
HETATM   19  C7  UNL     1      -6.604   2.290  -0.185  1.00  0.00     0.000 C 
HETATM   20  C8  UNL     1      -5.877   2.329   1.144  1.00  0.00     0.002 C 
HETATM   21  C9  UNL     1      -5.074   1.033   1.362  1.00  0.00     0.032 C 
ENDBRANCH  15  16
ENDBRANCH   9  15
BRANCH  13  22
HETATM   22  O6  UNL     1      -0.923  -3.688   1.464  1.00  0.00    -0.389 OA
ATOM     23  H6  UNL     1       0.017  -3.803   1.534  1.00  0.00     0.210 HD
ENDBRANCH  13  22
ENDBRANCH   7   8
ENDBRANCH   1   7
BRANCH   3  24
HETATM   24  C15 UNL     1       4.396   0.415  -0.844  1.00  0.00    -0.063 C 
HETATM   25  C16 UNL     1       5.113  -0.887  -0.920  1.00  0.00     0.038 C 
HETATM   26  C17 UNL     1       6.596  -0.743  -0.540  1.00  0.00     0.039 C 
HETATM   27  C18 UNL     1       6.870   0.251   0.534  1.00  0.00     0.147 C 
HETATM   28  C19 UNL     1       6.334   1.644   0.271  1.00  0.00     0.151 C 
HETATM   29  C20 UNL     1       5.207   1.656  -0.682  1.00  0.00     0.069 C 
BRANCH  27  30
HETATM   30  O3  UNL     1       8.255   0.295   0.778  1.00  0.00    -0.393 OA
ATOM     31  H3  UNL     1       8.430   0.929   1.463  1.00  0.00     0.210 HD
ENDBRANCH  27  30
BRANCH  28  32
HETATM   32  O4  UNL     1       7.403   2.396  -0.327  1.00  0.00    -0.393 OA
ATOM     33  H4  UNL     1       7.067   3.269  -0.492  1.00  0.00     0.210 HD
ENDBRANCH  28  32
ENDBRANCH   3  24
BRANCH   4  34
HETATM   34  O5  UNL     1       3.123   2.012   1.468  1.00  0.00    -0.345 OA
ATOM     35  H5  UNL     1       2.723   2.556   2.136  1.00  0.00     0.219 HD
ENDBRANCH   4  34
TORSDOF 9
