REMARK  10 active torsions:
REMARK  status: ('A' for Active; 'I' for Inactive)
REMARK    1  A    between atoms: N1_4  and  N2_6 
REMARK    2  A    between atoms: N2_6  and  C4_8 
REMARK    3  A    between atoms: C7_15  and  N4_16 
REMARK    4  A    between atoms: N4_16  and  C8_17 
REMARK    5  A    between atoms: N4_16  and  C10_21 
REMARK    6  A    between atoms: C8_17  and  C9_18 
REMARK    7  A    between atoms: C10_21  and  C12_23 
REMARK    8  A    between atoms: C12_23  and  O4_24 
REMARK    9  A    between atoms: C12_23  and  O5_26 
REMARK   10  A    between atoms: C13_30  and  C14_31 
ROOT
HETATM    1  C4  UNL     1       1.800  -0.723  -1.406  1.00  0.00     0.446 C 
HETATM    2  N3  UNL     1       0.757  -0.707  -0.436  1.00  0.00     0.003 N 
ATOM      3  H31 UNL     1       1.101  -0.878   0.509  1.00  0.00     0.285 HD
ATOM      4  H32 UNL     1       0.142  -1.517  -0.512  1.00  0.00     0.285 HD
HETATM    5  C5  UNL     1       0.053   0.518  -0.541  1.00  0.00     0.281 C 
HETATM    6  C6  UNL     1       0.562   1.094  -1.860  1.00  0.00     0.238 C 
HETATM    7  O1  UNL     1       1.512   0.253  -2.336  1.00  0.00    -0.339 OA
HETATM    8  C7  UNL     1      -1.408   0.405  -0.528  1.00  0.00     0.133 C 
HETATM    9  N5  UNL     1      -2.047   1.549  -0.405  1.00  0.00    -0.360 N 
ATOM     10  H5  UNL     1      -3.067   1.540  -0.390  1.00  0.00     0.162 HD
HETATM   11  C13 UNL     1      -1.373   2.802  -0.292  1.00  0.00     0.221 C 
HETATM   12  C15 UNL     1      -0.065   2.711   0.467  1.00  0.00     0.224 C 
HETATM   13  N6  UNL     1      -0.239   3.039   1.858  1.00  0.00    -0.104 NA
HETATM   14  N7  UNL     1       0.048   1.902   2.589  1.00  0.00    -0.021 NA
HETATM   15  N8  UNL     1       0.674   1.003   1.729  1.00  0.00    -0.034 NA
HETATM   16  N9  UNL     1       0.543   1.437   0.466  1.00  0.00    -0.148 NA
ENDROOT
BRANCH   8  17
HETATM   17  N4  UNL     1      -2.235  -0.727  -0.613  1.00  0.00    -0.348 N 
BRANCH  17  18
HETATM   18  C8  UNL     1      -3.119  -0.925  -1.713  1.00  0.00     0.238 C 
BRANCH  18  19
HETATM   19  C9  UNL     1      -2.560  -1.255  -3.010  1.00  0.00     0.191 C 
HETATM   20  O2  UNL     1      -3.309  -1.198  -4.017  1.00  0.00    -0.647 OA
HETATM   21  O3  UNL     1      -1.254  -1.628  -3.177  1.00  0.00    -0.647 OA
ENDBRANCH  18  19
ENDBRANCH  17  18
BRANCH  17  22
HETATM   22  C10 UNL     1      -2.178  -1.707   0.434  1.00  0.00     0.137 C 
HETATM   23  C11 UNL     1      -2.529  -1.004   1.771  1.00  0.00     0.037 C 
BRANCH  22  24
HETATM   24  C12 UNL     1      -3.137  -2.846   0.346  1.00  0.00     0.276 C 
BRANCH  24  25
HETATM   25  O4  UNL     1      -2.807  -3.684   1.459  1.00  0.00    -0.369 OA
ATOM     26  H4  UNL     1      -3.418  -4.409   1.403  1.00  0.00     0.212 HD
ENDBRANCH  24  25
BRANCH  24  27
HETATM   27  O5  UNL     1      -4.469  -2.480   0.654  1.00  0.00    -0.369 OA
ATOM     28  H5  UNL     1      -5.080  -3.205   0.598  1.00  0.00     0.212 HD
ENDBRANCH  24  27
ENDBRANCH  22  24
ENDBRANCH  17  22
ENDBRANCH   8  17
BRANCH   1  29
HETATM   29  N2  UNL     1       3.111  -0.417  -0.841  1.00  0.00    -0.284 N 
ATOM     30  H2  UNL     1       3.630   0.393  -1.179  1.00  0.00     0.184 HD
BRANCH  29  31
HETATM   31  N1  UNL     1       3.664  -1.228   0.164  1.00  0.00    -0.310 N 
HETATM   32  C2  UNL     1       4.877  -1.067   0.535  1.00  0.00    -0.004 C 
HETATM   33  C1  UNL     1       5.719  -0.018  -0.093  1.00  0.00     0.064 C 
HETATM   34  C3  UNL     1       5.489  -1.923   1.606  1.00  0.00     0.064 C 
ATOM     35  H1  UNL     1       3.093  -1.951   0.601  1.00  0.00     0.186 HD
ENDBRANCH  29  31
ENDBRANCH   1  29
BRANCH  11  36
HETATM   36  C14 UNL     1      -2.283   3.834   0.242  1.00  0.00     0.199 C 
HETATM   37  O6  UNL     1      -3.481   3.534   0.539  1.00  0.00    -0.646 OA
HETATM   38  O7  UNL     1      -1.910   5.155   0.448  1.00  0.00    -0.646 OA
ENDBRANCH  11  36
TORSDOF 10
