REMARK  13 active torsions:
REMARK  status: ('A' for Active; 'I' for Inactive)
REMARK    1  A    between atoms: N1_2  and  C2_5 
REMARK    2  A    between atoms: C5_11  and  C6_12 
REMARK    3  A    between atoms: C6_12  and  O1_13 
REMARK    4  A    between atoms: C6_12  and  O2_15 
REMARK    5  A    between atoms: C7_17  and  C8_18 
REMARK    6  A    between atoms: C8_18  and  C9_20 
REMARK    7  A    between atoms: C9_20  and  O4_21 
REMARK    8  A    between atoms: C9_20  and  O5_23 
REMARK    9  A    between atoms: N4_25  and  N5_26 
REMARK   10  A    between atoms: C12_32  and  O6_33 
REMARK   11  A    between atoms: C13_35  and  N6_36 
REMARK   12  A    between atoms: N6_36  and  O7_37 
REMARK   13  A    between atoms: C14_39  and  O8_40 
ROOT
HETATM    1  C2  UNL     1      -1.110  -0.782  -0.811  1.00  0.00     0.245 C 
HETATM    2  C3  UNL     1       0.351  -1.090  -0.597  1.00  0.00     0.184 C 
HETATM    3  N2  UNL     1       1.122   0.039  -0.079  1.00  0.00    -0.174 N 
HETATM    4  C4  UNL     1       0.702   1.212   0.355  1.00  0.00     0.703 A 
HETATM    5  N3  UNL     1       1.741   1.965   0.736  1.00  0.00    -0.186 N 
ATOM      6  H3  UNL     1       1.702   2.913   1.110  1.00  0.00     0.184 HD
HETATM    7  C5  UNL     1       2.873   1.208   0.524  1.00  0.00     0.112 A 
HETATM    8  C7  UNL     1       2.512  -0.005   0.014  1.00  0.00     0.130 A 
HETATM    9  N4  UNL     1      -0.644   1.719   0.459  1.00  0.00    -0.104 N 
HETATM   10  C10 UNL     1      -1.840   1.098   0.613  1.00  0.00     0.177 C 
HETATM   11  S1  UNL     1      -2.792   1.174   2.158  1.00  0.00    -0.127 SA
HETATM   12  C11 UNL     1      -4.053   0.019   1.427  1.00  0.00     0.120 C 
HETATM   13  C12 UNL     1      -3.345  -0.225   0.111  1.00  0.00     0.126 C 
HETATM   14  C13 UNL     1      -2.949   1.154  -0.373  1.00  0.00     0.189 C 
HETATM   15  C14 UNL     1      -1.862  -0.422   0.419  1.00  0.00     0.162 C 
ENDROOT
BRANCH   8  16
HETATM   16  C8  UNL     1       3.292  -1.165  -0.377  1.00  0.00     0.233 C 
HETATM   17  O3  UNL     1       2.710  -2.183  -0.868  1.00  0.00    -0.285 OA
BRANCH  16  18
HETATM   18  C9  UNL     1       4.748  -1.272  -0.251  1.00  0.00     0.332 C 
BRANCH  18  19
HETATM   19  O4  UNL     1       5.197  -2.513  -0.802  1.00  0.00    -0.365 OA
ATOM     20  H4  UNL     1       6.141  -2.582  -0.720  1.00  0.00     0.213 HD
ENDBRANCH  18  19
BRANCH  18  21
HETATM   21  O5  UNL     1       5.101  -1.250   1.098  1.00  0.00    -0.365 OA
ATOM     22  H5  UNL     1       6.045  -1.319   1.180  1.00  0.00     0.213 HD
ENDBRANCH  18  21
ENDBRANCH  16  18
ENDBRANCH   8  16
BRANCH   7  23
HETATM   23  C6  UNL     1       4.182   1.803   0.823  1.00  0.00     0.308 C 
BRANCH  23  24
HETATM   24  O1  UNL     1       4.186   3.172   0.378  1.00  0.00    -0.366 OA
ATOM     25  H1  UNL     1       5.033   3.557   0.571  1.00  0.00     0.213 HD
ENDBRANCH  23  24
BRANCH  23  26
HETATM   26  O2  UNL     1       4.502   1.864   2.164  1.00  0.00    -0.366 OA
ATOM     27  H2  UNL     1       5.349   2.249   2.357  1.00  0.00     0.213 HD
ENDBRANCH  23  26
ENDBRANCH   7  23
BRANCH   1  28
HETATM   28  N1  UNL     1      -1.700  -1.830  -1.589  1.00  0.00    -0.070 N 
HETATM   29  C1  UNL     1      -1.104  -1.913  -2.923  1.00  0.00     0.267 C 
ATOM     30  H12 UNL     1      -2.714  -1.730  -1.640  1.00  0.00     0.277 HD
ATOM     31  H11 UNL     1      -1.653  -2.726  -1.104  1.00  0.00     0.277 HD
ENDBRANCH   1  28
BRANCH   9  32
HETATM   32  N5  UNL     1      -0.678   3.116   0.386  1.00  0.00    -0.327 N 
ATOM     33  H52 UNL     1       0.221   3.583   0.270  1.00  0.00     0.177 HD
ATOM     34  H51 UNL     1      -1.630   3.475   0.460  1.00  0.00     0.177 HD
ENDBRANCH   9  32
BRANCH  15  35
HETATM   35  O8  UNL     1      -1.573  -1.075   1.553  1.00  0.00    -0.376 OA
HETATM   36  C15 UNL     1      -1.756  -2.396   1.706  1.00  0.00     0.202 C 
ENDBRANCH  15  35
BRANCH  13  37
HETATM   37  O6  UNL     1      -3.916  -1.066  -0.772  1.00  0.00    -0.384 OA
ATOM     38  H6  UNL     1      -3.472  -1.219  -1.598  1.00  0.00     0.210 HD
ENDBRANCH  13  37
BRANCH  14  39
HETATM   39  N6  UNL     1      -3.923   2.170   0.061  1.00  0.00    -0.092 NA
BRANCH  39  40
HETATM   40  O7  UNL     1      -4.945   2.252  -0.819  1.00  0.00    -0.295 OA
ATOM     41  H7  UNL     1      -5.573   2.907  -0.539  1.00  0.00     0.238 HD
ENDBRANCH  39  40
ENDBRANCH  14  39
TORSDOF 13
