REMARK  10 active torsions:
REMARK  status: ('A' for Active; 'I' for Inactive)
REMARK    1  A    between atoms: O1_2  and  C2_3 
REMARK    2  A    between atoms: C3_6  and  C4_7 
REMARK    3  A    between atoms: C9_23  and  N6_24 
REMARK    4  A    between atoms: N6_24  and  C10_26 
REMARK    5  A    between atoms: C10_26  and  C11_27 
REMARK    6  A    between atoms: C10_26  and  N8_33 
REMARK    7  A    between atoms: C11_27  and  C12_28 
REMARK    8  A    between atoms: C12_28  and  N7_29 
REMARK    9  A    between atoms: N8_33  and  N9_35 
REMARK   10  A    between atoms: C15_44  and  O4_45 
ROOT
HETATM    1  C2  UNL     1       1.011  -0.923   0.929  1.00  0.00     0.176 A 
HETATM    2  N1  UNL     1       2.181  -0.209   0.828  1.00  0.00    -0.319 N 
ATOM      3  H1  UNL     1       2.662   0.085   1.678  1.00  0.00     0.169 HD
HETATM    4  C3  UNL     1       2.699   0.107  -0.356  1.00  0.00     0.138 A 
HETATM    5  N5  UNL     1       2.042  -0.295  -1.468  1.00  0.00    -0.306 N 
ATOM      6  H5  UNL     1       2.434  -0.056  -2.379  1.00  0.00     0.170 HD
HETATM    7  C8  UNL     1       0.890  -0.999  -1.425  1.00  0.00     0.278 A 
HETATM    8  O3  UNL     1       0.342  -1.335  -2.514  1.00  0.00    -0.265 OA
HETATM    9  C9  UNL     1       0.345  -1.330  -0.204  1.00  0.00     0.154 A 
ENDROOT
BRANCH   9  10
HETATM   10  N6  UNL     1      -0.842  -2.056  -0.145  1.00  0.00    -0.337 N 
ATOM     11  H6  UNL     1      -0.763  -2.982   0.275  1.00  0.00     0.167 HD
BRANCH  10  12
HETATM   12  C10 UNL     1      -2.008  -1.739  -0.535  1.00  0.00     0.098 C 
BRANCH  12  13
HETATM   13  C11 UNL     1      -3.100  -2.722  -0.345  1.00  0.00     0.105 C 
BRANCH  13  14
HETATM   14  C12 UNL     1      -3.655  -3.064  -1.710  1.00  0.00     0.237 C 
BRANCH  14  15
HETATM   15  N7  UNL     1      -4.739  -4.030  -1.616  1.00  0.00    -0.079 N 
ATOM     16  H73 UNL     1      -4.451  -4.867  -1.109  1.00  0.00     0.274 HD
ATOM     17  H72 UNL     1      -5.472  -3.708  -0.984  1.00  0.00     0.274 HD
ATOM     18  H71 UNL     1      -5.113  -4.261  -2.536  1.00  0.00     0.274 HD
ENDBRANCH  14  15
ENDBRANCH  13  14
ENDBRANCH  12  13
BRANCH  12  19
HETATM   19  N8  UNL     1      -2.302  -0.498  -1.136  1.00  0.00    -0.281 N 
ATOM     20  H8  UNL     1      -2.360  -0.462  -2.154  1.00  0.00     0.188 HD
BRANCH  19  21
HETATM   21  N9  UNL     1      -2.519   0.686  -0.426  1.00  0.00    -0.215 N 
HETATM   22  C13 UNL     1      -2.038   1.895  -0.975  1.00  0.00     0.215 A 
HETATM   23  N10 UNL     1      -1.366   1.912  -2.258  1.00  0.00    -0.061 NA
HETATM   24  N11 UNL     1      -2.202   2.997  -0.337  1.00  0.00    -0.303 N 
HETATM   25  C14 UNL     1      -2.854   3.089   0.916  1.00  0.00     0.194 A 
ATOM     26  H11 UNL     1      -1.842   3.854  -0.757  1.00  0.00     0.171 HD
HETATM   27  N12 UNL     1      -3.011   4.342   1.596  1.00  0.00    -0.063 NA
HETATM   28  N13 UNL     1      -3.299   1.989   1.414  1.00  0.00    -0.320 N 
HETATM   29  C15 UNL     1      -3.206   0.690   0.836  1.00  0.00     0.354 A 
ATOM     30  H13 UNL     1      -3.768   2.054   2.318  1.00  0.00     0.166 HD
BRANCH  29  31
HETATM   31  O4  UNL     1      -2.659  -0.208   1.749  1.00  0.00    -0.358 OA
ATOM     32  H4  UNL     1      -3.113  -0.205   2.583  1.00  0.00     0.214 HD
ENDBRANCH  29  31
ENDBRANCH  19  21
ENDBRANCH  12  19
ENDBRANCH  10  12
ENDBRANCH   9  10
BRANCH   1  33
HETATM   33  O1  UNL     1       0.541  -1.210   2.203  1.00  0.00    -0.339 OA
HETATM   34  C1  UNL     1       1.041  -2.356   2.895  1.00  0.00     0.211 C 
ENDBRANCH   1  33
BRANCH   4  35
HETATM   35  C4  UNL     1       3.955   0.877  -0.488  1.00  0.00     0.098 A 
HETATM   36  C5  UNL     1       4.631   1.285   0.616  1.00  0.00     0.108 A 
HETATM   37  C6  UNL     1       5.814   2.007   0.453  1.00  0.00     0.261 A 
HETATM   38  O2  UNL     1       6.446   2.389   1.472  1.00  0.00    -0.268 OA
HETATM   39  N2  UNL     1       6.276   2.294  -0.774  1.00  0.00    -0.156 N 
HETATM   40  C7  UNL     1       5.562   1.863  -1.824  1.00  0.00     0.679 A 
ATOM     41  H2  UNL     1       7.140   2.821  -0.903  1.00  0.00     0.187 HD
HETATM   42  N3  UNL     1       6.041   2.160  -3.004  1.00  0.00    -0.234 N 
HETATM   43  N4  UNL     1       4.431   1.172  -1.710  1.00  0.00    -0.188 N 
ATOM     44  H32 UNL     1       6.908   2.690  -3.091  1.00  0.00     0.174 HD
ATOM     45  H31 UNL     1       5.498   1.832  -3.803  1.00  0.00     0.174 HD
ATOM     46  H4  UNL     1       3.929   0.868  -2.544  1.00  0.00     0.184 HD
ENDBRANCH   4  35
TORSDOF 10
