REMARK  3 active torsions:
REMARK  status: ('A' for Active; 'I' for Inactive)
REMARK    1  A    between atoms: C4_8  and  N3_9 
REMARK    2  A    between atoms: C11_16  and  C12_17 
REMARK    3  A    between atoms: C12_17  and  C13_18 
ROOT
HETATM    1  C1  UNL     1       0.261   5.251   0.076  1.00  0.00     0.092 C 
HETATM    2  C2  UNL     1       1.002   3.986   0.240  1.00  0.00     0.116 A 
HETATM    3  N1  UNL     1       2.275   3.897   0.693  1.00  0.00    -0.286 N 
ATOM      4  H1  UNL     1       2.861   4.682   0.975  1.00  0.00     0.188 HD
HETATM    5  N2  UNL     1       2.632   2.626   0.709  1.00  0.00    -0.281 N 
ATOM      6  H2  UNL     1       3.545   2.281   1.005  1.00  0.00     0.188 HD
HETATM    7  C3  UNL     1       1.625   1.855   0.281  1.00  0.00     0.170 A 
HETATM    8  C4  UNL     1       1.520   0.472   0.120  1.00  0.00     0.080 A 
HETATM    9  C10 UNL     1       0.289   0.053  -0.363  1.00  0.00     0.060 A 
HETATM   10  C11 UNL     1      -0.741   0.929  -0.657  1.00  0.00     0.037 A 
HETATM   11  N4  UNL     1      -0.534   2.221  -0.465  1.00  0.00    -0.294 N 
ATOM     12  H4  UNL     1      -1.288   2.874  -0.678  1.00  0.00     0.187 HD
HETATM   13  N5  UNL     1       0.617   2.704  -0.005  1.00  0.00    -0.223 N 
ENDROOT
BRANCH  10  14
HETATM   14  C12 UNL     1      -1.992   0.287  -1.182  1.00  0.00     0.007 A 
HETATM   15  C18 UNL     1      -1.991   0.012  -2.628  1.00  0.00     0.017 A 
HETATM   16  C19 UNL     1      -2.782   1.186  -2.192  1.00  0.00     0.017 A 
BRANCH  14  17
HETATM   17  C13 UNL     1      -2.945  -0.313  -0.194  1.00  0.00     0.004 C 
HETATM   18  C14 UNL     1      -3.931  -1.197  -0.910  1.00  0.00     0.032 C 
HETATM   19  C15 UNL     1      -4.510  -2.146   0.152  1.00  0.00     0.168 C 
HETATM   20  O1  UNL     1      -4.706  -1.513   1.349  1.00  0.00    -0.391 OA
HETATM   21  C16 UNL     1      -3.540  -1.123   2.007  1.00  0.00     0.168 C 
HETATM   22  C17 UNL     1      -2.376  -0.958   1.008  1.00  0.00     0.032 C 
ENDBRANCH  14  17
ENDBRANCH  10  14
BRANCH   8  23
HETATM   23  N3  UNL     1       2.556  -0.447   0.400  1.00  0.00    -0.378 N 
HETATM   24  C5  UNL     1       2.404  -1.787  -0.198  1.00  0.00     0.123 C 
HETATM   25  C6  UNL     1       3.788  -2.347  -0.554  1.00  0.00     0.020 C 
HETATM   26  C7  UNL     1       4.491  -2.527   0.759  1.00  0.00     0.003 C 
HETATM   27  C8  UNL     1       4.709  -1.202   1.399  1.00  0.00     0.020 C 
HETATM   28  C9  UNL     1       3.693  -0.143   1.190  1.00  0.00     0.123 C 
ENDBRANCH   8  23
TORSDOF 3
