REMARK  4 active torsions:
REMARK  status: ('A' for Active; 'I' for Inactive)
REMARK    1  A    between atoms: C5_5  and  C6_6 
REMARK    2  A    between atoms: N3_14  and  C9_15 
REMARK    3  A    between atoms: C9_15  and  O1_16 
REMARK    4  A    between atoms: C10_18  and  C11_19 
ROOT
HETATM    1  C1  UNL     1      -0.091  -3.863   0.964  1.00  0.00     0.011 C 
HETATM    2  C2  UNL     1       0.615  -2.605   0.596  1.00  0.00    -0.000 C 
HETATM    3  C3  UNL     1       2.059  -2.860   0.144  1.00  0.00     0.008 C 
HETATM    4  C4  UNL     1       2.675  -1.534  -0.035  1.00  0.00     0.033 C 
HETATM    5  C5  UNL     1       1.909  -0.523  -0.828  1.00  0.00     0.145 C 
HETATM    6  N3  UNL     1       0.469  -0.620  -0.813  1.00  0.00    -0.351 N 
HETATM    7  C16 UNL     1      -0.034  -1.955  -0.646  1.00  0.00     0.130 C 
ENDROOT
BRANCH   6   8
HETATM    8  C9  UNL     1      -0.392   0.461  -1.035  1.00  0.00     0.135 C 
HETATM    9  C10 UNL     1      -1.795   0.704  -0.979  1.00  0.00     0.033 C 
BRANCH   8  10
HETATM   10  O1  UNL     1       0.289   1.553  -1.393  1.00  0.00    -0.346 OA
ATOM     11  H1  UNL     1      -0.295   2.287  -1.544  1.00  0.00     0.219 HD
ENDBRANCH   8  10
BRANCH   9  12
HETATM   12  C11 UNL     1      -2.801  -0.175  -0.386  1.00  0.00     0.012 C 
HETATM   13  C12 UNL     1      -4.158   0.582  -0.591  1.00  0.00     0.009 C 
HETATM   14  C13 UNL     1      -4.154   1.610   0.516  1.00  0.00     0.001 C 
HETATM   15  C14 UNL     1      -3.359   1.018   1.658  1.00  0.00     0.001 C 
HETATM   16  C15 UNL     1      -2.825  -0.264   1.118  1.00  0.00     0.009 C 
ENDBRANCH   9  12
ENDBRANCH   6   8
BRANCH   5  17
HETATM   17  C6  UNL     1       2.381   0.837  -0.348  1.00  0.00     0.092 A 
HETATM   18  N1  UNL     1       3.228   1.664  -0.936  1.00  0.00    -0.292 N 
HETATM   19  N2  UNL     1       3.543   2.763  -0.386  1.00  0.00    -0.279 N 
ATOM     20  H1  UNL     1       3.632   1.417  -1.839  1.00  0.00     0.187 HD
HETATM   21  C7  UNL     1       4.488   3.740  -1.003  1.00  0.00     0.179 C 
HETATM   22  C8  UNL     1       3.000   3.063   0.799  1.00  0.00     0.161 A 
HETATM   23  S1  UNL     1       3.238   4.417   1.726  1.00  0.00    -0.051 SA
HETATM   24  S2  UNL     1       2.016   1.700   1.093  1.00  0.00    -0.042 SA
ENDBRANCH   5  17
TORSDOF 4
