REMARK  11 active torsions:
REMARK  status: ('A' for Active; 'I' for Inactive)
REMARK    1  A    between atoms: C2_2  and  C3_3 
REMARK    2  A    between atoms: C3_3  and  S1_5 
REMARK    3  A    between atoms: S1_5  and  C4_6 
REMARK    4  A    between atoms: C4_6  and  C6_8 
REMARK    5  A    between atoms: C6_8  and  C7_9 
REMARK    6  A    between atoms: C7_9  and  C8_10 
REMARK    7  A    between atoms: C8_10  and  C9_11 
REMARK    8  A    between atoms: C9_11  and  C10_13 
REMARK    9  A    between atoms: C12_15  and  O3_16 
REMARK   10  A    between atoms: C17_22  and  C18_23 
REMARK   11  A    between atoms: C26_33  and  O4_34 
ROOT
HETATM    1  C10 UNL     1       0.445   0.070  -0.251  1.00  0.00     0.066 C 
HETATM    2  C11 UNL     1       0.492   0.193  -1.770  1.00  0.00     0.045 C 
HETATM    3  C12 UNL     1      -0.878   0.674  -2.179  1.00  0.00     0.124 C 
HETATM    4  C13 UNL     1      -1.496   1.283  -0.969  1.00  0.00     0.036 C 
HETATM    5  C14 UNL     1      -2.939   0.916  -0.806  1.00  0.00    -0.012 C 
HETATM    6  C15 UNL     1      -3.678   1.553  -1.967  1.00  0.00     0.020 C 
HETATM    7  C16 UNL     1      -3.122  -0.564  -0.940  1.00  0.00    -0.004 C 
HETATM    8  C17 UNL     1      -4.306  -1.182  -0.919  1.00  0.00    -0.024 C 
HETATM    9  C20 UNL     1      -5.592  -0.509  -0.762  1.00  0.00     0.009 C 
HETATM   10  C21 UNL     1      -5.850   0.557  -0.056  1.00  0.00    -0.017 C 
HETATM   11  C22 UNL     1      -4.926   1.364   0.768  1.00  0.00    -0.023 C 
HETATM   12  C23 UNL     1      -5.552   2.781   0.787  1.00  0.00     0.019 C 
HETATM   13  C24 UNL     1      -5.244   0.874   2.216  1.00  0.00     0.019 C 
HETATM   14  C25 UNL     1      -3.527   1.481   0.461  1.00  0.00     0.038 C 
HETATM   15  C26 UNL     1      -2.667   1.127   1.669  1.00  0.00     0.125 C 
HETATM   16  C27 UNL     1      -1.386   0.439   1.328  1.00  0.00     0.042 C 
HETATM   17  C28 UNL     1      -0.616   1.049   0.218  1.00  0.00    -0.024 C 
HETATM   18  C29 UNL     1      -0.000   2.341   0.716  1.00  0.00     0.016 C 
ENDROOT
BRANCH   1  19
HETATM   19  C9  UNL     1       1.797   0.288   0.259  1.00  0.00     0.132 C 
HETATM   20  O2  UNL     1       2.719   0.550  -0.492  1.00  0.00    -0.298 OA
BRANCH  19  21
HETATM   21  C8  UNL     1       2.109   0.200   1.696  1.00  0.00     0.079 C 
BRANCH  21  22
HETATM   22  C7  UNL     1       3.574   0.245   1.956  1.00  0.00     0.008 C 
BRANCH  22  23
HETATM   23  C6  UNL     1       4.381  -0.872   1.381  1.00  0.00     0.015 C 
BRANCH  23  24
HETATM   24  C4  UNL     1       5.830  -0.643   1.795  1.00  0.00     0.051 C 
HETATM   25  C5  UNL     1       6.307   0.716   1.405  1.00  0.00     0.022 C 
BRANCH  24  26
HETATM   26  S1  UNL     1       6.950  -1.907   1.199  1.00  0.00    -0.088 SA
BRANCH  26  27
HETATM   27  C3  UNL     1       7.008  -1.974  -0.576  1.00  0.00     0.185 C 
HETATM   28  O1  UNL     1       6.332  -1.191  -1.224  1.00  0.00    -0.286 OA
BRANCH  27  29
HETATM   29  C2  UNL     1       7.879  -2.978  -1.228  1.00  0.00     0.086 C 
HETATM   30  C1  UNL     1       8.840  -2.184  -2.129  1.00  0.00     0.013 C 
ENDBRANCH  27  29
ENDBRANCH  26  27
ENDBRANCH  24  26
ENDBRANCH  23  24
ENDBRANCH  22  23
ENDBRANCH  21  22
ENDBRANCH  19  21
ENDBRANCH   1  19
BRANCH   3  31
HETATM   31  O3  UNL     1      -0.780   1.591  -3.259  1.00  0.00    -0.395 OA
ATOM     32  H3  UNL     1      -1.643   1.894  -3.517  1.00  0.00     0.210 HD
ENDBRANCH   3  31
BRANCH  15  33
HETATM   33  O4  UNL     1      -2.472   2.250   2.511  1.00  0.00    -0.395 OA
ATOM     34  H4  UNL     1      -1.936   2.029   3.264  1.00  0.00     0.210 HD
ENDBRANCH  15  33
BRANCH   8  35
HETATM   35  C18 UNL     1      -4.323  -2.638  -1.064  1.00  0.00     0.093 C 
HETATM   36  N1  UNL     1      -3.177  -3.216  -1.204  1.00  0.00    -0.402 N 
HETATM   37  C19 UNL     1      -3.024  -4.647  -1.358  1.00  0.00     0.145 C 
ATOM     38  H1  UNL     1      -2.338  -2.636  -1.206  1.00  0.00     0.158 HD
ENDBRANCH   8  35
TORSDOF 11
