REMARK  9 active torsions:
REMARK  status: ('A' for Active; 'I' for Inactive)
REMARK    1  A    between atoms: C2_2  and  C3_3 
REMARK    2  A    between atoms: C3_3  and  C4_4 
REMARK    3  A    between atoms: C4_4  and  C5_5 
REMARK    4  A    between atoms: C5_5  and  C6_6 
REMARK    5  A    between atoms: C6_6  and  C8_8 
REMARK    6  A    between atoms: C8_8  and  C9_9 
REMARK    7  A    between atoms: C9_9  and  C10_11 
REMARK    8  A    between atoms: C14_15  and  O2_16 
REMARK    9  A    between atoms: C22_28  and  O6_29 
ROOT
HETATM    1  C10 UNL     1       0.712  -0.635   2.421  1.00  0.00     0.044 A 
HETATM    2  C11 UNL     1       0.583  -1.024   3.758  1.00  0.00     0.027 A 
HETATM    3  C12 UNL     1      -0.551  -0.754   4.475  1.00  0.00    -0.027 A 
HETATM    4  C13 UNL     1      -0.675  -1.179   5.912  1.00  0.00     0.051 C 
HETATM    5  C14 UNL     1      -1.587  -0.077   3.847  1.00  0.00     0.083 A 
HETATM    6  C15 UNL     1      -1.505   0.314   2.567  1.00  0.00     0.048 A 
HETATM    7  C16 UNL     1      -0.335   0.033   1.832  1.00  0.00     0.098 A 
HETATM    8  O3  UNL     1      -0.110   0.386   0.476  1.00  0.00    -0.309 OA
HETATM    9  C17 UNL     1      -0.999   1.208  -0.262  1.00  0.00     0.208 C 
HETATM   10  C18 UNL     1      -0.240   1.860  -1.350  1.00  0.00     0.083 C 
HETATM   11  O4  UNL     1      -1.281   2.296   0.609  1.00  0.00    -0.199 OA
HETATM   12  O5  UNL     1      -2.259   2.232   1.350  1.00  0.00    -0.221 OA
HETATM   13  C19 UNL     1      -2.654   0.999   1.936  1.00  0.00     0.132 C 
HETATM   14  C20 UNL     1      -3.781   1.405   2.789  1.00  0.00     0.055 C 
HETATM   15  C21 UNL     1      -3.023   0.173   0.729  1.00  0.00     0.072 C 
HETATM   16  C22 UNL     1      -4.492  -0.009   0.510  1.00  0.00     0.130 C 
HETATM   17  C23 UNL     1      -4.800  -0.514  -0.895  1.00  0.00     0.015 C 
HETATM   18  C24 UNL     1      -6.165  -0.011  -1.300  1.00  0.00     0.013 C 
HETATM   19  C25 UNL     1      -3.763  -0.036  -1.842  1.00  0.00     0.001 C 
HETATM   20  C26 UNL     1      -3.298   1.339  -1.326  1.00  0.00     0.001 C 
HETATM   21  C27 UNL     1      -2.975   2.279  -2.406  1.00  0.00     0.011 C 
HETATM   22  C28 UNL     1      -2.283   0.580  -0.554  1.00  0.00     0.035 C 
HETATM   23  C29 UNL     1      -2.420  -0.618  -1.434  1.00  0.00     0.001 C 
HETATM   24  C30 UNL     1      -1.505  -0.887  -2.552  1.00  0.00     0.011 C 
ENDROOT
BRANCH   1  25
HETATM   25  C9  UNL     1       1.929  -0.910   1.693  1.00  0.00     0.162 C 
HETATM   26  O1  UNL     1       2.769  -1.679   2.293  1.00  0.00    -0.292 OA
BRANCH  25  27
HETATM   27  C8  UNL     1       2.306  -0.408   0.370  1.00  0.00     0.088 C 
BRANCH  27  28
HETATM   28  C6  UNL     1       3.733  -0.827   0.007  1.00  0.00    -0.011 C 
HETATM   29  C7  UNL     1       3.780  -2.335  -0.043  1.00  0.00     0.010 C 
BRANCH  28  30
HETATM   30  C5  UNL     1       4.108  -0.263  -1.337  1.00  0.00     0.005 C 
BRANCH  30  31
HETATM   31  C4  UNL     1       5.480  -0.618  -1.796  1.00  0.00     0.000 C 
BRANCH  31  32
HETATM   32  C3  UNL     1       5.741   0.032  -3.141  1.00  0.00    -0.000 C 
BRANCH  32  33
HETATM   33  C2  UNL     1       7.161  -0.312  -3.596  1.00  0.00    -0.005 C 
HETATM   34  C1  UNL     1       8.094   0.234  -2.517  1.00  0.00     0.005 C 
ENDBRANCH  32  33
ENDBRANCH  31  32
ENDBRANCH  30  31
ENDBRANCH  28  30
ENDBRANCH  27  28
ENDBRANCH  25  27
ENDBRANCH   1  25
BRANCH   5  35
HETATM   35  O2  UNL     1      -2.691   0.162   4.612  1.00  0.00    -0.359 OA
ATOM     36  H2  UNL     1      -3.400   0.625   4.182  1.00  0.00     0.217 HD
ENDBRANCH   5  35
BRANCH  16  37
HETATM   37  O6  UNL     1      -5.021  -1.030   1.338  1.00  0.00    -0.395 OA
ATOM     38  H6  UNL     1      -5.954  -1.146   1.199  1.00  0.00     0.210 HD
ENDBRANCH  16  37
TORSDOF 9
