REMARK  11 active torsions:
REMARK  status: ('A' for Active; 'I' for Inactive)
REMARK    1  A    between atoms: C2_2  and  C3_3 
REMARK    2  A    between atoms: C3_3  and  C5_5 
REMARK    3  A    between atoms: C5_5  and  C6_6 
REMARK    4  A    between atoms: C7_7  and  C8_8 
REMARK    5  A    between atoms: C8_8  and  O1_9 
REMARK    6  A    between atoms: C8_8  and  C9_11 
REMARK    7  A    between atoms: C10_12  and  C11_13 
REMARK    8  A    between atoms: N1_19  and  O2_21 
REMARK    9  A    between atoms: O2_21  and  C17_22 
REMARK   10  A    between atoms: C17_22  and  N2_23 
REMARK   11  A    between atoms: C26_34  and  O3_35 
ROOT
HETATM    1  C11 UNL     1       0.023  -1.841   0.145  1.00  0.00     0.025 C 
HETATM    2  C12 UNL     1      -0.784  -0.598  -0.026  1.00  0.00    -0.032 C 
HETATM    3  C13 UNL     1       0.013   0.414  -0.861  1.00  0.00     0.016 C 
HETATM    4  C14 UNL     1      -0.920   0.065   1.351  1.00  0.00     0.016 C 
HETATM    5  C15 UNL     1      -1.786   1.255   1.369  1.00  0.00     0.055 C 
HETATM    6  C16 UNL     1      -2.852   1.306   0.376  1.00  0.00     0.010 C 
HETATM    7  N1  UNL     1      -3.890   2.031   0.564  1.00  0.00    -0.273 N 
ATOM      8  H1  UNL     1      -4.611   2.037  -0.157  1.00  0.00     0.193 HD
HETATM    9  C21 UNL     1      -2.786   0.519  -0.903  1.00  0.00     0.060 C 
HETATM   10  C22 UNL     1      -2.162  -0.795  -0.537  1.00  0.00     0.000 C 
HETATM   11  C23 UNL     1      -2.270  -1.833  -1.631  1.00  0.00     0.011 C 
HETATM   12  C24 UNL     1      -1.832  -3.129  -0.934  1.00  0.00    -0.003 C 
HETATM   13  C25 UNL     1      -2.230  -4.332  -1.691  1.00  0.00     0.037 C 
HETATM   14  C26 UNL     1      -1.873  -5.557  -0.891  1.00  0.00     0.118 C 
HETATM   15  C27 UNL     1      -0.391  -5.526  -0.637  1.00  0.00     0.032 C 
HETATM   16  C28 UNL     1       0.045  -4.284   0.089  1.00  0.00     0.012 C 
HETATM   17  C29 UNL     1      -0.375  -3.014  -0.669  1.00  0.00    -0.033 C 
HETATM   18  C30 UNL     1       0.424  -3.078  -1.974  1.00  0.00     0.016 C 
ENDROOT
BRANCH   1  19
HETATM   19  C10 UNL     1       1.462  -1.570  -0.136  1.00  0.00    -0.022 C 
HETATM   20  C9  UNL     1       2.395  -1.598   0.811  1.00  0.00     0.005 C 
BRANCH  20  21
HETATM   21  C8  UNL     1       3.819  -1.334   0.561  1.00  0.00     0.163 C 
BRANCH  21  22
HETATM   22  C7  UNL     1       4.134   0.134   0.581  1.00  0.00     0.004 C 
HETATM   23  C6  UNL     1       4.590   0.782  -0.460  1.00  0.00    -0.027 C 
BRANCH  23  24
HETATM   24  C5  UNL     1       4.943   2.182  -0.612  1.00  0.00     0.031 C 
BRANCH  24  25
HETATM   25  C3  UNL     1       4.805   3.063   0.580  1.00  0.00    -0.016 C 
HETATM   26  C4  UNL     1       5.729   2.534   1.670  1.00  0.00     0.010 C 
BRANCH  25  27
HETATM   27  C2  UNL     1       5.191   4.498   0.236  1.00  0.00    -0.000 C 
HETATM   28  C1  UNL     1       6.593   4.605  -0.257  1.00  0.00     0.005 C 
ENDBRANCH  25  27
ENDBRANCH  24  25
ENDBRANCH  23  24
ENDBRANCH  21  22
BRANCH  21  29
HETATM   29  O1  UNL     1       4.229  -1.806  -0.689  1.00  0.00    -0.388 OA
ATOM     30  H1  UNL     1       4.030  -2.735  -0.702  1.00  0.00     0.210 HD
ENDBRANCH  21  29
ENDBRANCH  20  21
ENDBRANCH   1  19
BRANCH  14  31
HETATM   31  O3  UNL     1      -2.514  -5.453   0.348  1.00  0.00    -0.396 OA
ATOM     32  H3  UNL     1      -2.289  -6.226   0.853  1.00  0.00     0.210 HD
ENDBRANCH  14  31
BRANCH   7  33
HETATM   33  O2  UNL     1      -4.085   2.801   1.684  1.00  0.00    -0.261 OA
BRANCH  33  34
HETATM   34  C17 UNL     1      -4.858   4.007   1.632  1.00  0.00     0.332 C 
BRANCH  34  35
HETATM   35  N2  UNL     1      -6.206   3.747   1.207  1.00  0.00    -0.328 N 
HETATM   36  C18 UNL     1      -6.677   3.743  -0.047  1.00  0.00     0.111 A 
HETATM   37  C19 UNL     1      -8.029   3.446  -0.016  1.00  0.00     0.106 A 
HETATM   38  N3  UNL     1      -8.361   3.273   1.264  1.00  0.00    -0.361 N 
HETATM   39  C20 UNL     1      -7.244   3.458   2.004  1.00  0.00     0.184 A 
ATOM     40  H3  UNL     1      -9.289   3.043   1.620  1.00  0.00     0.166 HD
ENDBRANCH  34  35
ENDBRANCH  33  34
ENDBRANCH   7  33
TORSDOF 11
