REMARK  9 active torsions:
REMARK  status: ('A' for Active; 'I' for Inactive)
REMARK    1  A    between atoms: S1_2  and  C2_3 
REMARK    2  A    between atoms: C2_3  and  C3_4 
REMARK    3  A    between atoms: C4_5  and  O1_6 
REMARK    4  A    between atoms: C4_5  and  C5_8 
REMARK    5  A    between atoms: C5_8  and  C6_9 
REMARK    6  A    between atoms: C6_9  and  C7_10 
REMARK    7  A    between atoms: C8_11  and  C9_12 
REMARK    8  A    between atoms: C9_12  and  C10_13 
REMARK    9  A    between atoms: C10_13  and  C11_14 
ROOT
HETATM    1  C9  UNL     1      -1.578  -0.752  -0.827  1.00  0.00     0.087 C 
ENDROOT
BRANCH   1   2
HETATM    2  C8  UNL     1      -0.285  -0.060  -0.499  1.00  0.00    -0.027 C 
HETATM    3  C7  UNL     1       0.630   0.010  -1.443  1.00  0.00    -0.030 C 
BRANCH   3   4
HETATM    4  C6  UNL     1       1.932   0.648  -1.263  1.00  0.00     0.033 C 
BRANCH   4   5
HETATM    5  C5  UNL     1       2.229   1.059   0.141  1.00  0.00     0.068 C 
BRANCH   5   6
HETATM    6  C4  UNL     1       2.591  -0.058   1.018  1.00  0.00     0.040 C 
HETATM    7  C3  UNL     1       3.661   0.044   1.792  1.00  0.00     0.015 C 
BRANCH   7   8
HETATM    8  C2  UNL     1       4.531   1.179   1.875  1.00  0.00     0.103 C 
BRANCH   8   9
HETATM    9  S1  UNL     1       6.256   0.781   1.384  1.00  0.00    -0.170 SA
HETATM   10  C1  UNL     1       6.313   0.362  -0.373  1.00  0.00     0.090 C 
ENDBRANCH   8   9
ENDBRANCH   7   8
BRANCH   6  11
HETATM   11  O1  UNL     1       1.840  -1.230   1.049  1.00  0.00    -0.365 OA
ATOM     12  H1  UNL     1       1.073  -1.303   0.494  1.00  0.00     0.217 HD
ENDBRANCH   6  11
ENDBRANCH   5   6
ENDBRANCH   4   5
ENDBRANCH   3   4
ENDBRANCH   1   2
BRANCH   1  13
HETATM   13  C10 UNL     1      -2.736   0.221  -0.653  1.00  0.00     0.242 C 
HETATM   14  O4  UNL     1      -3.928  -0.481  -0.808  1.00  0.00    -0.323 OA
HETATM   15  C12 UNL     1      -4.242  -1.075   0.385  1.00  0.00     0.168 C 
HETATM   16  C13 UNL     1      -4.125  -2.571   0.217  1.00  0.00     0.079 C 
HETATM   17  C14 UNL     1      -5.637  -0.661   0.804  1.00  0.00     0.079 C 
HETATM   18  O5  UNL     1      -3.357  -0.573   1.373  1.00  0.00    -0.281 OA
HETATM   19  C15 UNL     1      -2.785   0.561   0.798  1.00  0.00     0.308 C 
HETATM   20  O6  UNL     1      -2.398   1.629   1.367  1.00  0.00    -0.261 OA
BRANCH  13  21
HETATM   21  C11 UNL     1      -2.647   1.398  -1.509  1.00  0.00     0.220 C 
HETATM   22  O2  UNL     1      -3.578   1.680  -2.288  1.00  0.00    -0.645 OA
HETATM   23  O3  UNL     1      -1.530   2.210  -1.460  1.00  0.00    -0.645 OA
ENDBRANCH  13  21
ENDBRANCH   1  13
TORSDOF 9
