REMARK  10 active torsions:
REMARK  status: ('A' for Active; 'I' for Inactive)
REMARK    1  A    between atoms: S1_2  and  C1_5 
REMARK    2  A    between atoms: C1_5  and  C2_6 
REMARK    3  A    between atoms: C2_6  and  C3_7 
REMARK    4  A    between atoms: C3_7  and  C4_8 
REMARK    5  A    between atoms: C4_8  and  C5_9 
REMARK    6  A    between atoms: C5_9  and  C6_10 
REMARK    7  A    between atoms: C6_10  and  N1_11 
REMARK    8  A    between atoms: C11_18  and  C12_19 
REMARK    9  A    between atoms: C12_19  and  O4_20 
REMARK   10  A    between atoms: N3_22  and  O5_24 
ROOT
HETATM    1  N1  UNL     1      -0.269  -1.159   0.076  1.00  0.00    -0.345 N 
HETATM    2  C7  UNL     1      -0.001  -2.470  -0.028  1.00  0.00     0.183 A 
HETATM    3  N2  UNL     1      -1.133  -3.140  -0.308  1.00  0.00    -0.354 N 
ATOM      4  H2  UNL     1      -1.211  -4.149  -0.439  1.00  0.00     0.166 HD
HETATM    5  C8  UNL     1      -2.143  -2.259  -0.386  1.00  0.00     0.035 A 
HETATM    6  C9  UNL     1      -1.605  -1.015  -0.146  1.00  0.00     0.038 A 
HETATM    7  C10 UNL     1      -2.325   0.294  -0.122  1.00  0.00     0.099 C 
HETATM    8  C11 UNL     1      -3.403   0.257   0.974  1.00  0.00     0.203 C 
HETATM    9  O6  UNL     1      -3.972  -0.975   1.094  1.00  0.00    -0.377 OA
HETATM   10  C13 UNL     1      -4.456  -1.592  -0.006  1.00  0.00     0.175 C 
HETATM   11  C14 UNL     1      -3.562  -2.574  -0.677  1.00  0.00     0.085 C 
ENDROOT
BRANCH   1  12
HETATM   12  C6  UNL     1       0.655  -0.077   0.367  1.00  0.00     0.130 C 
BRANCH  12  13
HETATM   13  C5  UNL     1       1.176   0.402  -0.971  1.00  0.00     0.020 C 
BRANCH  13  14
HETATM   14  C4  UNL     1       2.125   1.524  -0.777  1.00  0.00     0.002 C 
BRANCH  14  15
HETATM   15  C3  UNL     1       3.299   1.093   0.082  1.00  0.00     0.001 C 
BRANCH  15  16
HETATM   16  C2  UNL     1       4.075  -0.029  -0.509  1.00  0.00     0.018 C 
BRANCH  16  17
HETATM   17  C1  UNL     1       5.216  -0.505   0.322  1.00  0.00     0.165 C 
BRANCH  17  18
HETATM   18  S1  UNL     1       6.421   0.732   0.620  1.00  0.00     0.101 S 
HETATM   19  O1  UNL     1       7.580   0.089   1.375  1.00  0.00    -0.595 OA
HETATM   20  O2  UNL     1       6.926   1.199  -0.733  1.00  0.00    -0.595 OA
HETATM   21  O3  UNL     1       5.825   2.024   1.463  1.00  0.00    -0.595 OA
ENDBRANCH  17  18
ENDBRANCH  16  17
ENDBRANCH  15  16
ENDBRANCH  14  15
ENDBRANCH  13  14
ENDBRANCH  12  13
ENDBRANCH   1  12
BRANCH   8  22
HETATM   22  C12 UNL     1      -4.317   1.379   0.799  1.00  0.00     0.165 C 
HETATM   23  N3  UNL     1      -4.454   2.245   1.744  1.00  0.00    -0.249 N 
ATOM     24  H3  UNL     1      -3.910   2.115   2.597  1.00  0.00     0.196 HD
BRANCH  22  25
HETATM   25  O4  UNL     1      -5.085   1.614  -0.334  1.00  0.00    -0.346 OA
ATOM     26  H4  UNL     1      -5.681   2.345  -0.448  1.00  0.00     0.219 HD
ENDBRANCH  22  25
BRANCH  23  27
HETATM   27  O5  UNL     1      -5.289   3.331   1.669  1.00  0.00    -0.288 OA
ATOM     28  H5  UNL     1      -5.390   3.969   2.365  1.00  0.00     0.244 HD
ENDBRANCH  23  27
ENDBRANCH   8  22
TORSDOF 10
