REMARK  11 active torsions:
REMARK  status: ('A' for Active; 'I' for Inactive)
REMARK    1  A    between atoms: C2_2  and  C3_3 
REMARK    2  A    between atoms: C3_3  and  N1_4 
REMARK    3  A    between atoms: N1_4  and  C4_6 
REMARK    4  A    between atoms: C5_9  and  C6_10 
REMARK    5  A    between atoms: C6_10  and  N3_11 
REMARK    6  A    between atoms: N4_14  and  C9_15 
REMARK    7  A    between atoms: C9_15  and  C10_16 
REMARK    8  A    between atoms: C10_16  and  C11_17 
REMARK    9  A    between atoms: C11_17  and  C12_18 
REMARK   10  A    between atoms: C12_18  and  O1_19 
REMARK   11  A    between atoms: N5_21  and  O2_23 
ROOT
HETATM    1  N3  UNL     1       0.071   0.424   1.212  1.00  0.00     0.097 N 
HETATM    2  C7  UNL     1      -0.468   0.464  -0.113  1.00  0.00     0.292 C 
HETATM    3  C8  UNL     1      -1.789  -0.305  -0.239  1.00  0.00     0.147 C 
HETATM    4  N4  UNL     1      -2.701  -0.007   0.802  1.00  0.00    -0.409 N 
HETATM    5  C13 UNL     1      -2.140  -0.118   2.113  1.00  0.00     0.147 C 
HETATM    6  C14 UNL     1      -0.668  -0.490   2.052  1.00  0.00     0.292 C 
ENDROOT
BRANCH   1   7
HETATM    7  C6  UNL     1       1.443  -0.040   1.208  1.00  0.00     0.330 C 
BRANCH   7   8
HETATM    8  C5  UNL     1       2.309   0.901   0.395  1.00  0.00     0.046 A 
HETATM    9  N2  UNL     1       3.396   0.518  -0.213  1.00  0.00    -0.338 N 
HETATM   10  C4  UNL     1       4.093   1.418  -0.901  1.00  0.00     0.144 A 
ATOM     11  H2  UNL     1       3.706  -0.452  -0.162  1.00  0.00     0.168 HD
HETATM   12  S1  UNL     1       3.195   2.850  -0.688  1.00  0.00    -0.064 SA
HETATM   13  C15 UNL     1       1.945   2.216   0.290  1.00  0.00     0.080 A 
BRANCH  10  14
HETATM   14  N1  UNL     1       5.202   1.270  -1.582  1.00  0.00    -0.370 N 
ATOM     15  H1  UNL     1       5.629   2.061  -2.064  1.00  0.00     0.161 HD
BRANCH  14  16
HETATM   16  C3  UNL     1       5.805  -0.044  -1.632  1.00  0.00     0.121 C 
BRANCH  16  17
HETATM   17  C2  UNL     1       6.668  -0.295  -0.406  1.00  0.00     0.015 C 
HETATM   18  C1  UNL     1       7.301  -1.662  -0.449  1.00  0.00     0.006 C 
ENDBRANCH  16  17
ENDBRANCH  14  16
ENDBRANCH  10  14
ENDBRANCH   7   8
ENDBRANCH   1   7
BRANCH   4  19
HETATM   19  C9  UNL     1      -3.512   1.130   0.558  1.00  0.00     0.117 C 
BRANCH  19  20
HETATM   20  C10 UNL     1      -4.517   0.896  -0.538  1.00  0.00     0.027 C 
BRANCH  20  21
HETATM   21  C11 UNL     1      -5.423  -0.258  -0.169  1.00  0.00     0.087 C 
BRANCH  21  22
HETATM   22  C12 UNL     1      -6.384  -0.434  -1.284  1.00  0.00     0.135 C 
HETATM   23  N5  UNL     1      -6.406  -1.545  -1.908  1.00  0.00    -0.251 N 
ATOM     24  H5  UNL     1      -7.068  -1.667  -2.675  1.00  0.00     0.196 HD
BRANCH  22  25
HETATM   25  O1  UNL     1      -7.221   0.620  -1.602  1.00  0.00    -0.348 OA
ATOM     26  H1  UNL     1      -7.837   0.507  -2.317  1.00  0.00     0.219 HD
ENDBRANCH  22  25
BRANCH  23  27
HETATM   27  O2  UNL     1      -5.577  -2.574  -1.586  1.00  0.00    -0.288 OA
ATOM     28  H2  UNL     1      -5.593  -3.402  -2.051  1.00  0.00     0.244 HD
ENDBRANCH  23  27
ENDBRANCH  21  22
ENDBRANCH  20  21
ENDBRANCH  19  20
ENDBRANCH   4  19
TORSDOF 11
