REMARK  12 active torsions:
REMARK  status: ('A' for Active; 'I' for Inactive)
REMARK    1  A    between atoms: O1_2  and  C2_3 
REMARK    2  A    between atoms: C5_6  and  C6_7 
REMARK    3  A    between atoms: N1_8  and  N2_10 
REMARK    4  A    between atoms: N2_10  and  C7_12 
REMARK    5  A    between atoms: C8_15  and  N4_16 
REMARK    6  A    between atoms: N4_16  and  O2_17 
REMARK    7  A    between atoms: N4_16  and  C9_19 
REMARK    8  A    between atoms: C10_23  and  N6_24 
REMARK    9  A    between atoms: N6_24  and  C11_26 
REMARK   10  A    between atoms: C11_26  and  N7_27 
REMARK   11  A    between atoms: C12_32  and  O6_33 
REMARK   12  A    between atoms: C13_35  and  O7_36 
ROOT
HETATM    1  C7  UNL     1      -1.803   0.313  -0.875  1.00  0.00     0.726 A 
HETATM    2  N3  UNL     1      -1.753  -0.168   0.362  1.00  0.00    -0.018 N 
ATOM      3  H3  UNL     1      -0.839  -0.368   0.767  1.00  0.00     0.203 HD
HETATM    4  C8  UNL     1      -2.849  -0.405   1.108  1.00  0.00     0.740 A 
HETATM    5  N5  UNL     1      -4.054  -0.126   0.539  1.00  0.00    -0.019 N 
ATOM      6  H5  UNL     1      -4.905  -0.292   1.076  1.00  0.00     0.203 HD
HETATM    7  C10 UNL     1      -4.156   0.362  -0.710  1.00  0.00     0.708 A 
HETATM    8  N8  UNL     1      -3.022   0.575  -1.398  1.00  0.00    -0.020 N 
ATOM      9  H8  UNL     1      -3.083   0.947  -2.346  1.00  0.00     0.203 HD
ENDROOT
BRANCH   1  10
HETATM   10  N2  UNL     1      -0.745   0.538  -1.588  1.00  0.00    -0.131 N 
ATOM     11  H2  UNL     1      -0.835   0.909  -2.534  1.00  0.00     0.205 HD
BRANCH  10  12
HETATM   12  N1  UNL     1       0.515   0.272  -1.059  1.00  0.00    -0.297 N 
HETATM   13  C6  UNL     1       1.544   0.837  -1.565  1.00  0.00     0.122 C 
ATOM     14  H1  UNL     1       0.616  -0.370  -0.273  1.00  0.00     0.186 HD
BRANCH  13  15
HETATM   15  C5  UNL     1       2.881   0.575  -1.029  1.00  0.00     0.017 A 
HETATM   16  C4  UNL     1       2.999  -0.288   0.025  1.00  0.00     0.018 A 
HETATM   17  C3  UNL     1       4.243  -0.560   0.557  1.00  0.00     0.040 A 
HETATM   18  C2  UNL     1       5.393   0.013   0.061  1.00  0.00     0.104 A 
HETATM   19  C13 UNL     1       5.250   0.894  -1.018  1.00  0.00     0.133 A 
HETATM   20  C12 UNL     1       4.011   1.168  -1.552  1.00  0.00     0.113 A 
BRANCH  18  21
HETATM   21  O1  UNL     1       6.637  -0.262   0.596  1.00  0.00    -0.353 OA
HETATM   22  C1  UNL     1       6.731  -1.159   1.686  1.00  0.00     0.210 C 
ENDBRANCH  18  21
BRANCH  19  23
HETATM   23  O7  UNL     1       6.426   1.446  -1.484  1.00  0.00    -0.356 OA
ATOM     24  H7  UNL     1       6.329   2.044  -2.216  1.00  0.00     0.218 HD
ENDBRANCH  19  23
BRANCH  20  25
HETATM   25  O6  UNL     1       3.873   2.035  -2.613  1.00  0.00    -0.357 OA
ATOM     26  H6  UNL     1       4.651   2.443  -2.973  1.00  0.00     0.217 HD
ENDBRANCH  20  25
ENDBRANCH  13  15
ENDBRANCH  10  12
ENDBRANCH   1  10
BRANCH   4  27
HETATM   27  N4  UNL     1      -2.759  -0.920   2.427  1.00  0.00    -0.025 N 
BRANCH  27  28
HETATM   28  O2  UNL     1      -1.566  -1.100   2.997  1.00  0.00    -0.267 OA
ATOM     29  H2  UNL     1      -1.506  -1.445   3.880  1.00  0.00     0.246 HD
ENDBRANCH  27  28
BRANCH  27  30
HETATM   30  C9  UNL     1      -3.938  -1.244   3.144  1.00  0.00     0.400 C 
HETATM   31  O3  UNL     1      -3.880  -1.699   4.308  1.00  0.00    -0.280 OA
ENDBRANCH  27  30
ENDBRANCH   4  27
BRANCH   7  32
HETATM   32  N6  UNL     1      -5.273   0.640  -1.290  1.00  0.00    -0.203 N 
ATOM     33  H6  UNL     1      -5.246   1.008  -2.241  1.00  0.00     0.179 HD
BRANCH  32  34
HETATM   34  C11 UNL     1      -6.566   0.457  -0.660  1.00  0.00     0.341 C 
BRANCH  34  35
HETATM   35  N7  UNL     1      -7.562   0.022  -1.607  1.00  0.00    -0.136 N 
HETATM   36  O4  UNL     1      -8.148  -1.056  -1.452  1.00  0.00    -0.535 OA
HETATM   37  O5  UNL     1      -7.857   0.804  -2.679  1.00  0.00    -0.535 OA
ENDBRANCH  34  35
ENDBRANCH  32  34
ENDBRANCH   7  32
TORSDOF 12
