REMARK  12 active torsions:
REMARK  status: ('A' for Active; 'I' for Inactive)
REMARK    1  A    between atoms: O1_2  and  C2_3 
REMARK    2  A    between atoms: C4_5  and  C5_6 
REMARK    3  A    between atoms: C5_6  and  N1_7 
REMARK    4  A    between atoms: N1_7  and  N2_8 
REMARK    5  A    between atoms: N1_7  and  C6_14 
REMARK    6  A    between atoms: N2_8  and  N3_10 
REMARK    7  A    between atoms: N3_10  and  N4_11 
REMARK    8  A    between atoms: C7_19  and  C8_20 
REMARK    9  A    between atoms: N8_22  and  O2_24 
REMARK   10  A    between atoms: C9_26  and  N9_27 
REMARK   11  A    between atoms: C10_34  and  O3_35 
REMARK   12  A    between atoms: C12_37  and  O4_38 
ROOT
HETATM    1  N1  UNL     1       0.349   1.586   0.361  1.00  0.00    -0.090 N 
ENDROOT
BRANCH   1   2
HETATM    2  C5  UNL     1      -0.297   0.843   1.420  1.00  0.00     0.227 C 
BRANCH   2   3
HETATM    3  C4  UNL     1      -1.424   0.017   0.906  1.00  0.00     0.034 A 
HETATM    4  C3  UNL     1      -2.738   0.359   1.164  1.00  0.00     0.066 A 
HETATM    5  C2  UNL     1      -3.803  -0.364   0.709  1.00  0.00     0.107 A 
HETATM    6  C12 UNL     1      -3.522  -1.491  -0.044  1.00  0.00     0.153 A 
HETATM    7  C10 UNL     1      -2.211  -1.866  -0.323  1.00  0.00     0.179 A 
HETATM    8  N11 UNL     1      -1.237  -1.095   0.166  1.00  0.00    -0.336 N 
ATOM      9  H11 UNL     1      -0.275  -1.369  -0.036  1.00  0.00     0.168 HD
BRANCH   5  10
HETATM   10  O1  UNL     1      -5.105   0.008   0.987  1.00  0.00    -0.353 OA
HETATM   11  C1  UNL     1      -5.313   1.167   1.762  1.00  0.00     0.210 C 
ENDBRANCH   5  10
BRANCH   6  12
HETATM   12  O4  UNL     1      -4.562  -2.254  -0.525  1.00  0.00    -0.349 OA
HETATM   13  C13 UNL     1      -5.043  -3.307   0.276  1.00  0.00     0.210 C 
ENDBRANCH   6  12
BRANCH   7  14
HETATM   14  O3  UNL     1      -1.976  -3.011  -1.087  1.00  0.00    -0.339 OA
HETATM   15  C11 UNL     1      -0.618  -3.328  -1.330  1.00  0.00     0.211 C 
ENDBRANCH   7  14
ENDBRANCH   2   3
ENDBRANCH   1   2
BRANCH   1  16
HETATM   16  N2  UNL     1      -0.346   2.492  -0.433  1.00  0.00    -0.139 N 
ATOM     17  H2  UNL     1      -0.586   3.401  -0.037  1.00  0.00     0.226 HD
BRANCH  16  18
HETATM   18  N3  UNL     1      -0.689   2.245  -1.605  1.00  0.00    -0.227 NA
BRANCH  18  19
HETATM   19  N4  UNL     1      -0.772   2.023  -2.805  1.00  0.00    -0.259 N 
ATOM     20  H42 UNL     1       0.238   2.121  -2.907  1.00  0.00     0.193 HD
ATOM     21  H41 UNL     1      -1.053   1.821  -3.765  1.00  0.00     0.193 HD
ENDBRANCH  18  19
ENDBRANCH  16  18
ENDBRANCH   1  16
BRANCH   1  22
HETATM   22  C6  UNL     1       1.734   1.411   0.105  1.00  0.00     0.717 A 
HETATM   23  N5  UNL     1       2.466   0.562   0.870  1.00  0.00    -0.130 N 
HETATM   24  N6  UNL     1       3.740   0.350   0.690  1.00  0.00    -0.280 N 
ATOM     25  H5  UNL     1       1.995   0.064   1.625  1.00  0.00     0.205 HD
HETATM   26  C7  UNL     1       4.433   0.984  -0.299  1.00  0.00     0.135 A 
ATOM     27  H6  UNL     1       4.229  -0.304   1.302  1.00  0.00     0.188 HD
HETATM   28  C9  UNL     1       3.724   1.841  -1.081  1.00  0.00     0.146 A 
HETATM   29  N10 UNL     1       2.385   2.046  -0.871  1.00  0.00    -0.172 N 
ATOM     30  H10 UNL     1       1.877   2.696  -1.472  1.00  0.00     0.186 HD
BRANCH  26  31
HETATM   31  C8  UNL     1       5.846   0.704  -0.443  1.00  0.00     0.168 C 
HETATM   32  N7  UNL     1       6.402  -0.267   0.534  1.00  0.00    -0.078 NA
HETATM   33  N8  UNL     1       6.672   1.130  -1.231  1.00  0.00    -0.253 N 
ATOM     34  H8  UNL     1       7.536   0.660  -0.960  1.00  0.00     0.195 HD
BRANCH  33  35
HETATM   35  O2  UNL     1       7.020   1.868  -2.231  1.00  0.00    -0.288 OA
ATOM     36  H2  UNL     1       7.664   2.200  -2.845  1.00  0.00     0.244 HD
ENDBRANCH  33  35
ENDBRANCH  26  31
BRANCH  28  37
HETATM   37  N9  UNL     1       4.294   2.482  -2.037  1.00  0.00    -0.383 N 
ATOM     38  H92 UNL     1       5.290   2.329  -2.193  1.00  0.00     0.157 HD
ATOM     39  H91 UNL     1       3.762   3.125  -2.624  1.00  0.00     0.157 HD
ENDBRANCH  28  37
ENDBRANCH   1  22
TORSDOF 12
