REMARK  10 active torsions:
REMARK  status: ('A' for Active; 'I' for Inactive)
REMARK    1  A    between atoms: N1_2  and  S1_4 
REMARK    2  A    between atoms: S1_4  and  N2_6 
REMARK    3  A    between atoms: S1_4  and  C10_27 
REMARK    4  A    between atoms: N2_6  and  N3_8 
REMARK    5  A    between atoms: C2_10  and  C3_11 
REMARK    6  A    between atoms: C5_13  and  N4_14 
REMARK    7  A    between atoms: C7_18  and  O4_19 
REMARK    8  A    between atoms: C9_21  and  N5_22 
REMARK    9  A    between atoms: N5_22  and  N6_24 
REMARK   10  A    between atoms: C11_33  and  N9_34 
ROOT
HETATM    1  N3  UNL     1       1.083   1.989  -0.606  1.00  0.00    -0.303 N 
ATOM      2  H3  UNL     1       1.468   2.898  -0.351  1.00  0.00     0.186 HD
HETATM    3  C2  UNL     1      -0.055   1.889  -0.154  1.00  0.00     0.121 C 
ENDROOT
BRANCH   1   4
HETATM    4  N2  UNL     1       1.989   1.308  -1.320  1.00  0.00    -0.239 N 
ATOM      5  H2  UNL     1       1.785   1.131  -2.304  1.00  0.00     0.198 HD
BRANCH   4   6
HETATM    6  S1  UNL     1       3.481   0.710  -0.684  1.00  0.00     0.174 S 
HETATM    7  O1  UNL     1       4.405   0.203  -1.732  1.00  0.00    -0.220 OA
BRANCH   6   8
HETATM    8  N1  UNL     1       4.238   1.860   0.075  1.00  0.00    -0.334 N 
HETATM    9  C1  UNL     1       4.994   2.796  -0.739  1.00  0.00     0.158 C 
ATOM     10  H1  UNL     1       4.200   1.945   1.091  1.00  0.00     0.170 HD
ENDBRANCH   6   8
BRANCH   6  11
HETATM   11  C10 UNL     1       3.173  -0.571   0.464  1.00  0.00     0.196 A 
HETATM   12  N7  UNL     1       2.959  -0.459   1.801  1.00  0.00    -0.227 N 
HETATM   13  O5  UNL     1       2.774  -1.641   2.294  1.00  0.00    -0.154 OA
ATOM     14  H7  UNL     1       2.946   0.413   2.329  1.00  0.00     0.197 HD
HETATM   15  N8  UNL     1       2.844  -2.550   1.396  1.00  0.00    -0.223 N 
HETATM   16  C11 UNL     1       3.092  -1.949   0.227  1.00  0.00     0.162 A 
ATOM     17  H8  UNL     1       2.731  -3.553   1.545  1.00  0.00     0.198 HD
BRANCH  16  18
HETATM   18  N9  UNL     1       3.246  -2.452  -0.944  1.00  0.00    -0.382 N 
ATOM     19  H92 UNL     1       3.435  -1.994  -1.835  1.00  0.00     0.157 HD
ATOM     20  H91 UNL     1       3.187  -3.456  -1.117  1.00  0.00     0.157 HD
ENDBRANCH  16  18
ENDBRANCH   6  11
ENDBRANCH   4   6
ENDBRANCH   1   4
BRANCH   3  21
HETATM   21  C3  UNL     1      -0.972   0.775  -0.272  1.00  0.00     0.014 A 
HETATM   22  C4  UNL     1      -0.656  -0.384  -0.955  1.00  0.00     0.051 A 
HETATM   23  C5  UNL     1      -1.525  -1.452  -1.077  1.00  0.00     0.106 A 
HETATM   24  C6  UNL     1      -2.745  -1.356  -0.497  1.00  0.00     0.075 A 
HETATM   25  C7  UNL     1      -3.106  -0.229   0.191  1.00  0.00     0.099 A 
HETATM   26  C9  UNL     1      -2.240   0.850   0.319  1.00  0.00     0.092 A 
BRANCH  23  27
HETATM   27  N4  UNL     1      -1.112  -2.599  -1.800  1.00  0.00    -0.116 N 
HETATM   28  O2  UNL     1       0.002  -2.691  -2.338  1.00  0.00    -0.532 OA
HETATM   29  O3  UNL     1      -1.975  -3.650  -1.916  1.00  0.00    -0.532 OA
ENDBRANCH  23  27
BRANCH  25  30
HETATM   30  O4  UNL     1      -4.360  -0.110   0.795  1.00  0.00    -0.353 OA
HETATM   31  C8  UNL     1      -5.333  -1.135   0.739  1.00  0.00     0.210 C 
ENDBRANCH  25  30
BRANCH  26  32
HETATM   32  N5  UNL     1      -2.675   1.996   1.048  1.00  0.00    -0.304 N 
ATOM     33  H5  UNL     1      -2.053   2.797   1.153  1.00  0.00     0.186 HD
BRANCH  32  34
HETATM   34  N6  UNL     1      -3.960   2.026   1.624  1.00  0.00    -0.345 N 
ATOM     35  H62 UNL     1      -4.570   1.216   1.510  1.00  0.00     0.176 HD
ATOM     36  H61 UNL     1      -4.271   2.846   2.145  1.00  0.00     0.176 HD
ENDBRANCH  32  34
ENDBRANCH  26  32
ENDBRANCH   3  21
TORSDOF 10
