REMARK  9 active torsions:
REMARK  status: ('A' for Active; 'I' for Inactive)
REMARK    1  A    between atoms: C5_5  and  O1_6 
REMARK    2  A    between atoms: C14_16  and  C15_17 
REMARK    3  A    between atoms: C15_17  and  C16_19 
REMARK    4  A    between atoms: C16_19  and  N1_20 
REMARK    5  A    between atoms: C16_19  and  C23_28 
REMARK    6  A    between atoms: N1_20  and  C17_22 
REMARK       I    between atoms: C23_28  and  N2_30 
REMARK    7  A    between atoms: N2_30  and  C24_32 
REMARK    8  A    between atoms: C24_32  and  C25_33 
REMARK    9  A    between atoms: C33_44  and  O4_45 
ROOT
HETATM    1  C1  UNL     1       5.724  -1.576   0.268  1.00  0.00     0.025 C 
HETATM    2  C2  UNL     1       4.856  -0.304   0.333  1.00  0.00     0.003 C 
HETATM    3  C3  UNL     1       5.120   0.284   1.696  1.00  0.00     0.021 C 
HETATM    4  C4  UNL     1       6.582   0.323   2.004  1.00  0.00     0.033 C 
HETATM    5  C5  UNL     1       7.533   0.385   0.881  1.00  0.00     0.122 C 
HETATM    6  C6  UNL     1       7.021   0.734  -0.464  1.00  0.00     0.066 C 
HETATM    7  C7  UNL     1       5.533   0.659  -0.585  1.00  0.00    -0.069 C 
HETATM    8  C8  UNL     1       4.956   1.427  -1.450  1.00  0.00    -0.022 C 
HETATM    9  C9  UNL     1       3.508   1.417  -1.609  1.00  0.00     0.037 C 
HETATM   10  C10 UNL     1       3.009   0.015  -1.371  1.00  0.00     0.025 C 
HETATM   11  C11 UNL     1       1.551   0.131  -1.229  1.00  0.00     0.024 C 
HETATM   12  C12 UNL     1       0.668   0.769  -2.204  1.00  0.00     0.009 C 
HETATM   13  C13 UNL     1      -0.609   1.028  -1.363  1.00  0.00     0.014 C 
HETATM   14  C14 UNL     1      -0.908   0.098  -0.274  1.00  0.00     0.072 C 
HETATM   15  C28 UNL     1       0.097  -0.910   0.196  1.00  0.00     0.011 C 
HETATM   16  C29 UNL     1      -0.448  -2.220   0.676  1.00  0.00     0.023 C 
HETATM   17  C30 UNL     1       1.093  -0.340   1.213  1.00  0.00    -0.014 C 
HETATM   18  C31 UNL     1       2.492  -0.357   1.111  1.00  0.00     0.001 C 
HETATM   19  C32 UNL     1       3.424  -0.554  -0.005  1.00  0.00    -0.063 C 
HETATM   20  C33 UNL     1       0.955  -1.189  -0.998  1.00  0.00     0.135 C 
ENDROOT
BRANCH  14  21
HETATM   21  C15 UNL     1      -2.236  -0.520  -0.509  1.00  0.00     0.163 C 
HETATM   22  O2  UNL     1      -2.228  -1.668  -0.897  1.00  0.00    -0.295 OA
BRANCH  21  23
HETATM   23  C16 UNL     1      -3.549   0.115  -0.326  1.00  0.00     0.240 C 
BRANCH  23  24
HETATM   24  N1  UNL     1      -4.602  -0.596   0.258  1.00  0.00    -0.399 N 
ATOM     25  H1  UNL     1      -4.993  -0.177   1.102  1.00  0.00     0.154 HD
BRANCH  24  26
HETATM   26  C17 UNL     1      -5.187  -1.772  -0.135  1.00  0.00     0.077 C 
HETATM   27  C18 UNL     1      -4.557  -3.093   0.194  1.00  0.00     0.024 C 
HETATM   28  C19 UNL     1      -5.586  -3.992   0.935  1.00  0.00     0.002 C 
HETATM   29  C20 UNL     1      -6.716  -4.241  -0.005  1.00  0.00     0.000 C 
HETATM   30  C21 UNL     1      -7.232  -2.964  -0.637  1.00  0.00     0.002 C 
HETATM   31  C22 UNL     1      -6.696  -1.805   0.207  1.00  0.00     0.024 C 
ENDBRANCH  24  26
ENDBRANCH  23  24
BRANCH  23  32
HETATM   32  C23 UNL     1      -3.413   1.438   0.417  1.00  0.00     0.248 C 
HETATM   33  O3  UNL     1      -3.456   1.360   1.657  1.00  0.00    -0.271 OA
HETATM   34  N2  UNL     1      -3.261   2.649  -0.239  1.00  0.00    -0.341 N 
ATOM     35  H2  UNL     1      -3.237   2.599  -1.258  1.00  0.00     0.163 HD
BRANCH  34  36
HETATM   36  C24 UNL     1      -3.133   3.961   0.321  1.00  0.00     0.131 A 
HETATM   37  C26 UNL     1      -1.790   4.484   0.688  1.00  0.00     0.043 A 
HETATM   38  C27 UNL     1      -2.430   4.975  -0.573  1.00  0.00     0.043 A 
BRANCH  36  39
HETATM   39  C25 UNL     1      -4.275   4.532   1.144  1.00  0.00     0.412 C 
HETATM   40  F1  UNL     1      -5.383   4.580   0.340  1.00  0.00    -0.168 F 
HETATM   41  F2  UNL     1      -4.458   3.929   2.349  1.00  0.00    -0.168 F 
HETATM   42  F3  UNL     1      -3.958   5.868   1.433  1.00  0.00    -0.168 F 
ENDBRANCH  36  39
ENDBRANCH  34  36
ENDBRANCH  23  32
ENDBRANCH  21  23
ENDBRANCH  14  21
BRANCH  20  43
HETATM   43  O4  UNL     1       0.239  -1.681  -2.117  1.00  0.00    -0.394 OA
ATOM     44  H4  UNL     1      -0.147  -2.536  -1.967  1.00  0.00     0.210 HD
ENDBRANCH  20  43
BRANCH   5  45
HETATM   45  O1  UNL     1       8.536   1.338   1.209  1.00  0.00    -0.395 OA
ATOM     46  H1  UNL     1       9.149   1.378   0.485  1.00  0.00     0.210 HD
ENDBRANCH   5  45
TORSDOF 9
