REMARK  6 active torsions:
REMARK  status: ('A' for Active; 'I' for Inactive)
REMARK    1  A    between atoms: C3_3  and  O1_4 
REMARK    2  A    between atoms: C4_6  and  C5_7 
REMARK    3  A    between atoms: C8_10  and  C10_12 
REMARK    4  A    between atoms: C13_16  and  O2_18 
REMARK    5  A    between atoms: C17_22  and  C18_23 
REMARK    6  A    between atoms: C20_27  and  O5_28 
ROOT
HETATM    1  C1  UNL     1      -1.544  -3.004  -2.686  1.00  0.00     0.013 C 
HETATM    2  C2  UNL     1      -1.520  -1.829  -1.651  1.00  0.00     0.018 C 
HETATM    3  C3  UNL     1      -0.113  -1.698  -1.365  1.00  0.00     0.130 C 
HETATM    4  C4  UNL     1       0.624  -0.722  -0.510  1.00  0.00     0.037 C 
HETATM    5  C15 UNL     1       0.074   0.627  -0.364  1.00  0.00     0.012 C 
HETATM    6  C16 UNL     1      -0.472   1.163   0.934  1.00  0.00     0.022 C 
HETATM    7  C17 UNL     1      -1.962   1.438   0.866  1.00  0.00     0.056 C 
HETATM    8  C19 UNL     1      -2.805   1.898   1.901  1.00  0.00     0.059 C 
HETATM    9  C20 UNL     1      -4.208   2.033   1.286  1.00  0.00     0.178 C 
HETATM   10  C21 UNL     1      -4.732   0.960   0.408  1.00  0.00     0.112 C 
HETATM   11  F1  UNL     1      -5.272   1.344  -0.807  1.00  0.00    -0.212 F 
HETATM   12  C22 UNL     1      -3.972  -0.244   0.485  1.00  0.00     0.050 C 
HETATM   13  C23 UNL     1      -4.640  -1.002   1.651  1.00  0.00     0.026 C 
HETATM   14  C24 UNL     1      -2.528   0.083   0.664  1.00  0.00     0.023 C 
HETATM   15  C25 UNL     1      -2.060  -0.965   1.555  1.00  0.00     0.007 C 
HETATM   16  C26 UNL     1      -2.008  -2.265   0.751  1.00  0.00     0.009 C 
HETATM   17  C27 UNL     1      -2.574  -2.069  -0.622  1.00  0.00     0.032 C 
HETATM   18  C28 UNL     1      -3.874  -1.275  -0.649  1.00  0.00     0.117 C 
HETATM   19  C29 UNL     1      -4.112  -0.683  -2.009  1.00  0.00     0.053 C 
HETATM   20  F2  UNL     1      -4.982  -2.121  -0.466  1.00  0.00    -0.242 F 
ENDROOT
BRANCH   4  21
HETATM   21  C5  UNL     1       2.063  -0.810  -0.975  1.00  0.00    -0.014 C 
HETATM   22  C6  UNL     1       3.150  -0.062  -0.386  1.00  0.00    -0.049 C 
HETATM   23  C7  UNL     1       3.397  -0.241   1.082  1.00  0.00     0.046 C 
HETATM   24  C13 UNL     1       3.556   1.295  -0.852  1.00  0.00     0.077 C 
HETATM   25  C8  UNL     1       4.846  -0.068   1.418  1.00  0.00    -0.031 C 
HETATM   26  C9  UNL     1       4.969   0.094   2.934  1.00  0.00     0.016 C 
HETATM   27  C11 UNL     1       5.431   1.143   0.776  1.00  0.00     0.013 C 
HETATM   28  C12 UNL     1       5.120   1.324  -0.670  1.00  0.00     0.043 C 
HETATM   29  C14 UNL     1       3.375   1.560  -2.313  1.00  0.00     0.051 C 
BRANCH  25  30
HETATM   30  C10 UNL     1       5.711  -1.259   1.075  1.00  0.00     0.094 C 
HETATM   31 BR1  UNL     1       7.536  -0.800   1.612  1.00  0.00    -0.096 Br
ENDBRANCH  25  30
BRANCH  24  32
HETATM   32  O2  UNL     1       3.208   2.356  -0.021  1.00  0.00    -0.386 OA
ATOM     33  H2  UNL     1       3.467   3.221  -0.318  1.00  0.00     0.211 HD
ENDBRANCH  24  32
ENDBRANCH   4  21
BRANCH   3  34
HETATM   34  O1  UNL     1       0.456  -1.546  -2.668  1.00  0.00    -0.395 OA
ATOM     35  H1  UNL     1       1.383  -1.460  -2.480  1.00  0.00     0.210 HD
ENDBRANCH   3  34
BRANCH   7  36
HETATM   36  C18 UNL     1      -1.978   2.476  -0.147  1.00  0.00     0.182 C 
HETATM   37  O3  UNL     1      -2.294   2.617  -1.305  1.00  0.00    -0.647 OA
HETATM   38  O4  UNL     1      -1.468   3.713   0.347  1.00  0.00    -0.647 OA
ENDBRANCH   7  36
BRANCH   9  39
HETATM   39  O5  UNL     1      -4.329   3.272   0.617  1.00  0.00    -0.389 OA
ATOM     40  H5  UNL     1      -5.196   3.355   0.237  1.00  0.00     0.210 HD
ENDBRANCH   9  39
TORSDOF 6
