REMARK  7 active torsions:
REMARK  status: ('A' for Active; 'I' for Inactive)
REMARK    1  A    between atoms: C2_2  and  C3_3 
REMARK    2  A    between atoms: C2_2  and  C4_5 
REMARK    3  A    between atoms: C12_13  and  O1_14 
REMARK    4  A    between atoms: N1_16  and  C13_17 
REMARK    5  A    between atoms: N2_20  and  C16_21 
REMARK    6  A    between atoms: C16_21  and  C17_22 
REMARK    7  A    between atoms: C20_26  and  O2_27 
ROOT
HETATM    1  C4  UNL     1      -4.502  -1.236   0.001  1.00  0.00     0.018 C 
HETATM    2  C5  UNL     1      -3.453  -1.683   1.018  1.00  0.00     0.008 C 
HETATM    3  C6  UNL     1      -2.120  -1.587   0.311  1.00  0.00     0.007 C 
HETATM    4  C7  UNL     1      -2.456  -1.245  -1.100  1.00  0.00     0.014 C 
HETATM    5  C8  UNL     1      -1.388  -0.536  -1.866  1.00  0.00     0.022 C 
HETATM    6  C9  UNL     1      -1.018   0.818  -1.346  1.00  0.00     0.084 C 
HETATM    7  C10 UNL     1       0.271   0.889  -0.612  1.00  0.00     0.013 A 
HETATM    8  C11 UNL     1       0.541   2.032   0.081  1.00  0.00     0.004 A 
HETATM    9  C12 UNL     1       1.764   1.918   0.672  1.00  0.00     0.151 A 
HETATM   10  N1  UNL     1       2.278   0.717   0.364  1.00  0.00    -0.303 N 
HETATM   11  C20 UNL     1       1.377   0.100  -0.409  1.00  0.00     0.152 A 
HETATM   12  C21 UNL     1      -0.442   3.172   0.122  1.00  0.00     0.048 C 
HETATM   13  C22 UNL     1      -1.745   2.472   0.442  1.00  0.00     0.071 C 
HETATM   14  C23 UNL     1      -2.142   1.532  -0.707  1.00  0.00     0.180 C 
HETATM   15  F1  UNL     1      -2.755   2.420  -1.618  1.00  0.00    -0.219 F 
HETATM   16  N3  UNL     1      -3.204   0.761  -0.158  1.00  0.00    -0.378 N 
ATOM     17  H3  UNL     1      -3.606   1.008   0.746  1.00  0.00     0.157 HD
HETATM   18  C24 UNL     1      -3.693  -0.345  -0.876  1.00  0.00     0.032 C 
HETATM   19  C25 UNL     1      -4.270  -0.084  -2.223  1.00  0.00     0.039 C 
ENDROOT
BRANCH  10  20
HETATM   20  C13 UNL     1       3.582   0.326   0.855  1.00  0.00     0.097 C 
HETATM   21  C14 UNL     1       3.983  -1.073   0.707  1.00  0.00     0.056 C 
HETATM   22  C15 UNL     1       4.859  -1.451  -0.441  1.00  0.00     0.274 C 
HETATM   23  N2  UNL     1       5.951  -0.556  -0.597  1.00  0.00     0.089 N 
HETATM   24  C18 UNL     1       5.451   0.764  -0.794  1.00  0.00     0.274 C 
HETATM   25  C19 UNL     1       4.641   1.256   0.360  1.00  0.00     0.056 C 
BRANCH  23  26
HETATM   26  C16 UNL     1       7.056  -0.698   0.276  1.00  0.00     0.283 C 
BRANCH  26  27
HETATM   27  C17 UNL     1       7.812  -1.959   0.018  1.00  0.00     0.115 C 
HETATM   28 BR2  UNL     1       9.327  -2.144   1.211  1.00  0.00    -0.095 Br
ENDBRANCH  26  27
ENDBRANCH  23  26
ENDBRANCH  10  20
BRANCH   9  29
HETATM   29  O1  UNL     1       2.386   2.914   1.482  1.00  0.00    -0.345 OA
ATOM     30  H1  UNL     1       3.238   2.835   1.894  1.00  0.00     0.219 HD
ENDBRANCH   9  29
BRANCH  11  31
HETATM   31  O2  UNL     1       1.568  -1.174  -0.921  1.00  0.00    -0.345 OA
ATOM     32  H2  UNL     1       2.333  -1.720  -0.781  1.00  0.00     0.219 HD
ENDBRANCH  11  31
BRANCH   1  33
HETATM   33  C2  UNL     1      -5.707  -0.689   0.655  1.00  0.00    -0.002 C 
HETATM   34  C1  UNL     1      -5.542   0.515   1.520  1.00  0.00     0.011 C 
BRANCH  33  35
HETATM   35  C3  UNL     1      -6.926  -0.592  -0.221  1.00  0.00     0.089 C 
HETATM   36 BR1  UNL     1      -7.066  -2.196  -1.309  1.00  0.00    -0.096 Br
ENDBRANCH  33  35
ENDBRANCH   1  33
TORSDOF 7
