REMARK  11 active torsions:
REMARK  status: ('A' for Active; 'I' for Inactive)
REMARK    1  A    between atoms: C2_2  and  C3_3 
REMARK    2  A    between atoms: C3_3  and  C4_4 
REMARK    3  A    between atoms: C4_4  and  C6_6 
REMARK    4  A    between atoms: C4_4  and  C10_14 
REMARK    5  A    between atoms: C6_6  and  C7_7 
REMARK    6  A    between atoms: C9_9  and  N1_10 
REMARK    7  A    between atoms: C10_14  and  O1_16 
REMARK    8  A    between atoms: C10_14  and  C12_18 
REMARK    9  A    between atoms: C12_18  and  O2_19 
REMARK   10  A    between atoms: C12_18  and  C13_21 
REMARK   11  A    between atoms: C13_21  and  C15_23 
ROOT
HETATM    1  C4  UNL     1       0.854  -0.347   0.239  1.00  0.00    -0.010 C 
HETATM    2  C5  UNL     1       1.221  -0.264   1.681  1.00  0.00     0.018 C 
ENDROOT
BRANCH   1   3
HETATM    3  C3  UNL     1       0.692  -1.825  -0.108  1.00  0.00     0.012 C 
BRANCH   3   4
HETATM    4  C2  UNL     1       1.966  -2.621   0.108  1.00  0.00    -0.004 C 
HETATM    5  C1  UNL     1       1.571  -4.061  -0.277  1.00  0.00     0.005 C 
ENDBRANCH   3   4
ENDBRANCH   1   3
BRANCH   1   6
HETATM    6  C6  UNL     1       2.033   0.131  -0.543  1.00  0.00     0.019 C 
BRANCH   6   7
HETATM    7  C7  UNL     1       2.422   1.560  -0.404  1.00  0.00     0.019 A 
HETATM    8  C8  UNL     1       3.681   1.873  -1.286  1.00  0.00     0.039 A 
HETATM    9  C9  UNL     1       3.708   1.969   0.239  1.00  0.00     0.188 A 
BRANCH   9  10
HETATM   10  N1  UNL     1       3.861   3.321   0.713  1.00  0.00    -0.075 N 
ATOM     11  H13 UNL     1       3.662   3.961  -0.056  1.00  0.00     0.274 HD
ATOM     12  H12 UNL     1       3.095   3.532   1.352  1.00  0.00     0.274 HD
ATOM     13  H11 UNL     1       4.739   3.600   1.152  1.00  0.00     0.274 HD
ENDBRANCH   9  10
ENDBRANCH   6   7
ENDBRANCH   1   6
BRANCH   1  14
HETATM   14  C10 UNL     1      -0.463   0.325  -0.128  1.00  0.00     0.087 C 
HETATM   15  C11 UNL     1      -0.687   0.155  -1.593  1.00  0.00     0.049 C 
BRANCH  14  16
HETATM   16  O1  UNL     1      -0.446   1.660   0.216  1.00  0.00    -0.387 OA
ATOM     17  H1  UNL     1      -1.267   2.079  -0.013  1.00  0.00     0.210 HD
ENDBRANCH  14  16
BRANCH  14  18
HETATM   18  C12 UNL     1      -1.579  -0.380   0.614  1.00  0.00     0.156 C 
BRANCH  18  19
HETATM   19  O2  UNL     1      -1.271  -0.389   2.018  1.00  0.00    -0.392 OA
ATOM     20  H2  UNL     1      -1.971  -0.831   2.484  1.00  0.00     0.210 HD
ENDBRANCH  18  19
BRANCH  18  21
HETATM   21  C13 UNL     1      -2.896   0.342   0.598  1.00  0.00     0.013 C 
HETATM   22  C14 UNL     1      -3.936  -0.483   1.398  1.00  0.00     0.012 C 
BRANCH  21  23
HETATM   23  C15 UNL     1      -3.556   0.591  -0.713  1.00  0.00     0.002 C 
HETATM   24  C16 UNL     1      -4.889   1.318  -0.363  1.00  0.00     0.005 C 
ENDBRANCH  21  23
ENDBRANCH  18  21
ENDBRANCH  14  18
ENDBRANCH   1  14
TORSDOF 11
