REMARK  10 active torsions:
REMARK  status: ('A' for Active; 'I' for Inactive)
REMARK    1  A    between atoms: C4_4  and  C5_5 
REMARK    2  A    between atoms: C5_5  and  C6_6 
REMARK    3  A    between atoms: C6_6  and  C7_7 
REMARK    4  A    between atoms: C7_7  and  C8_8 
REMARK    5  A    between atoms: C7_7  and  N1_11 
REMARK    6  A    between atoms: C8_8  and  O1_9 
REMARK    7  A    between atoms: N1_11  and  C9_14 
REMARK    8  A    between atoms: C9_14  and  O2_15 
REMARK    9  A    between atoms: C9_14  and  C10_17 
REMARK   10  A    between atoms: C10_17  and  C11_18 
ROOT
HETATM    1  N1  UNL     1       0.054  -0.201  -1.169  1.00  0.00    -0.043 N 
ATOM      2  H11 UNL     1      -0.785  -0.536  -1.643  1.00  0.00     0.280 HD
ATOM      3  H12 UNL     1       0.626   0.034  -1.980  1.00  0.00     0.280 HD
ENDROOT
BRANCH   1   4
HETATM    4  C7  UNL     1       0.659  -1.251  -0.411  1.00  0.00     0.212 C 
BRANCH   4   5
HETATM    5  C6  UNL     1       1.998  -0.919   0.163  1.00  0.00     0.036 C 
BRANCH   5   6
HETATM    6  C5  UNL     1       3.050  -0.697  -0.898  1.00  0.00     0.007 C 
BRANCH   6   7
HETATM    7  C4  UNL     1       4.395  -0.344  -0.361  1.00  0.00    -0.010 A 
HETATM    8  C2  UNL     1       4.602   0.873   0.465  1.00  0.00    -0.014 A 
HETATM    9  C1  UNL     1       5.915   1.630   0.325  1.00  0.00     0.010 C 
HETATM   10  C3  UNL     1       4.710  -0.542   1.067  1.00  0.00     0.009 A 
ENDBRANCH   6   7
ENDBRANCH   5   6
ENDBRANCH   4   5
BRANCH   4  11
HETATM   11  C8  UNL     1       0.793  -2.529  -1.217  1.00  0.00     0.197 C 
BRANCH  11  12
HETATM   12  O1  UNL     1      -0.429  -3.019  -1.653  1.00  0.00    -0.399 OA
ATOM     13  H1  UNL     1      -0.345  -3.819  -2.158  1.00  0.00     0.209 HD
ENDBRANCH  11  12
ENDBRANCH   4  11
ENDBRANCH   1   4
BRANCH   1  14
HETATM   14  C9  UNL     1      -0.236   0.978  -0.391  1.00  0.00     0.319 C 
BRANCH  14  15
HETATM   15  O2  UNL     1      -0.482   2.092  -1.195  1.00  0.00    -0.370 OA
ATOM     16  H2  UNL     1      -0.673   2.869  -0.682  1.00  0.00     0.212 HD
ENDBRANCH  14  15
BRANCH  14  17
HETATM   17  C10 UNL     1      -1.230   0.780   0.704  1.00  0.00     0.065 C 
BRANCH  17  18
HETATM   18  C11 UNL     1      -2.574   0.315   0.273  1.00  0.00    -0.010 C 
HETATM   19  C12 UNL     1      -3.312   1.193  -0.664  1.00  0.00     0.005 C 
HETATM   20  C13 UNL     1      -4.521   0.367  -1.142  1.00  0.00     0.000 C 
HETATM   21  C14 UNL     1      -5.483   0.335   0.029  1.00  0.00     0.000 C 
HETATM   22  C15 UNL     1      -4.828   0.696   1.331  1.00  0.00     0.000 C 
HETATM   23  C16 UNL     1      -3.450   0.143   1.513  1.00  0.00     0.005 C 
ENDBRANCH  17  18
ENDBRANCH  14  17
ENDBRANCH   1  14
TORSDOF 10
