REMARK  11 active torsions:
REMARK  status: ('A' for Active; 'I' for Inactive)
REMARK    1  A    between atoms: C2_2  and  C3_3 
REMARK    2  A    between atoms: C3_3  and  C4_4 
REMARK    3  A    between atoms: C6_6  and  C7_7 
REMARK    4  A    between atoms: C7_7  and  O1_8 
REMARK    5  A    between atoms: C7_7  and  C8_10 
REMARK    6  A    between atoms: C8_10  and  O2_11 
REMARK    7  A    between atoms: C8_10  and  C9_13 
REMARK    8  A    between atoms: C9_13  and  C10_14 
REMARK    9  A    between atoms: C11_15  and  C12_16 
REMARK   10  A    between atoms: C12_16  and  C13_17 
REMARK   11  A    between atoms: C16_20  and  O3_21 
ROOT
HETATM    1  C7  UNL     1      -0.161   1.685   0.619  1.00  0.00     0.151 C 
ENDROOT
BRANCH   1   2
HETATM    2  C6  UNL     1      -1.255   1.038  -0.138  1.00  0.00     0.020 C 
HETATM    3  C5  UNL     1      -2.613   1.624   0.224  1.00  0.00     0.014 C 
HETATM    4  C4  UNL     1      -3.527   0.592  -0.402  1.00  0.00     0.018 C 
HETATM    5  C16 UNL     1      -2.855  -0.715  -0.234  1.00  0.00     0.123 C 
HETATM    6  C15 UNL     1      -1.428  -0.408   0.121  1.00  0.00     0.039 C 
BRANCH   4   7
HETATM    7  C3  UNL     1      -4.888   0.606   0.220  1.00  0.00     0.033 C 
BRANCH   7   8
HETATM    8  C2  UNL     1      -5.756  -0.428  -0.436  1.00  0.00    -0.036 C 
HETATM    9  C1  UNL     1      -6.882  -0.085  -1.058  1.00  0.00     0.007 C 
ENDBRANCH   7   8
ENDBRANCH   4   7
BRANCH   5  10
HETATM   10  O3  UNL     1      -3.377  -1.484   0.807  1.00  0.00    -0.395 OA
ATOM     11  H3  UNL     1      -2.945  -2.323   0.915  1.00  0.00     0.210 HD
ENDBRANCH   5  10
ENDBRANCH   1   2
BRANCH   1  12
HETATM   12  O1  UNL     1      -0.260   1.573   1.993  1.00  0.00    -0.393 OA
ATOM     13  H1  UNL     1       0.443   1.988   2.479  1.00  0.00     0.210 HD
ENDBRANCH   1  12
BRANCH   1  14
HETATM   14  C8  UNL     1       1.188   1.236   0.147  1.00  0.00     0.150 C 
BRANCH  14  15
HETATM   15  O2  UNL     1       1.336   1.186  -1.232  1.00  0.00    -0.393 OA
ATOM     16  H2  UNL     1       2.191   0.901  -1.531  1.00  0.00     0.210 HD
ENDBRANCH  14  15
BRANCH  14  17
HETATM   17  C9  UNL     1       1.763   0.031   0.774  1.00  0.00     0.061 C 
BRANCH  17  18
HETATM   18  C10 UNL     1       3.114  -0.307   0.201  1.00  0.00    -0.028 C 
HETATM   19  C11 UNL     1       3.356  -1.443  -0.390  1.00  0.00    -0.031 C 
BRANCH  19  20
HETATM   20  C12 UNL     1       4.627  -1.871  -0.977  1.00  0.00     0.026 C 
BRANCH  20  21
HETATM   21  C13 UNL     1       5.753  -0.915  -0.839  1.00  0.00    -0.001 C 
HETATM   22  C14 UNL     1       6.157  -0.646   0.577  1.00  0.00     0.005 C 
ENDBRANCH  20  21
ENDBRANCH  19  20
ENDBRANCH  17  18
ENDBRANCH  14  17
ENDBRANCH   1  14
TORSDOF 11
