REMARK  6 active torsions:
REMARK  status: ('A' for Active; 'I' for Inactive)
REMARK    1  A    between atoms: C2_2  and  O1_3 
REMARK    2  A    between atoms: C2_2  and  C14_18 
REMARK    3  A    between atoms: O1_3  and  C3_4 
REMARK    4  A    between atoms: C11_13  and  O3_14 
REMARK    5  A    between atoms: C14_18  and  O4_19 
REMARK    6  A    between atoms: C15_21  and  C16_22 
ROOT
HETATM    1  C3  UNL     1      -1.659  -0.884   0.056  1.00  0.00     0.265 C 
HETATM    2  O2  UNL     1      -2.687  -1.339   0.861  1.00  0.00    -0.356 OA
HETATM    3  C4  UNL     1      -3.710  -1.990   0.289  1.00  0.00     0.125 C 
HETATM    4  C5  UNL     1      -5.008  -1.263   0.672  1.00  0.00     0.037 C 
HETATM    5  C6  UNL     1      -4.988  -0.630  -0.654  1.00  0.00    -0.009 C 
HETATM    6  C7  UNL     1      -4.071  -1.775  -1.109  1.00  0.00     0.037 C 
HETATM    7  C8  UNL     1      -4.231   0.627  -0.822  1.00  0.00     0.010 C 
HETATM    8  C9  UNL     1      -3.284   0.997   0.231  1.00  0.00    -0.003 C 
HETATM    9  C10 UNL     1      -3.138   2.503   0.285  1.00  0.00     0.037 C 
HETATM   10  C11 UNL     1      -1.798   2.722   1.000  1.00  0.00     0.119 C 
HETATM   11  C12 UNL     1      -1.173   1.328   1.125  1.00  0.00     0.041 C 
HETATM   12  C13 UNL     1      -1.826   0.607  -0.033  1.00  0.00     0.047 C 
ENDROOT
BRANCH   1  13
HETATM   13  O1  UNL     1      -0.469  -1.191   0.711  1.00  0.00    -0.349 OA
BRANCH  13  14
HETATM   14  C2  UNL     1       0.348  -2.038  -0.002  1.00  0.00     0.176 C 
HETATM   15  C1  UNL     1       0.419  -3.434   0.625  1.00  0.00     0.046 C 
BRANCH  14  16
HETATM   16  C14 UNL     1       1.668  -1.537  -0.362  1.00  0.00     0.068 C 
HETATM   17  C15 UNL     1       2.312  -0.523   0.186  1.00  0.00     0.012 C 
BRANCH  16  18
HETATM   18  O4  UNL     1       2.321  -2.222  -1.412  1.00  0.00    -0.363 OA
ATOM     19  H4  UNL     1       3.182  -1.895  -1.647  1.00  0.00     0.217 HD
ENDBRANCH  16  18
BRANCH  17  20
HETATM   20  C16 UNL     1       3.660  -0.114  -0.278  1.00  0.00     0.010 C 
HETATM   21  C17 UNL     1       4.710  -0.269   0.784  1.00  0.00     0.008 C 
HETATM   22  C18 UNL     1       6.051   0.061   0.127  1.00  0.00     0.001 C 
HETATM   23  C19 UNL     1       6.077   1.561  -0.087  1.00  0.00     0.000 C 
HETATM   24  C20 UNL     1       4.692   2.156  -0.045  1.00  0.00     0.001 C 
HETATM   25  C21 UNL     1       3.683   1.300  -0.779  1.00  0.00     0.008 C 
ENDBRANCH  17  20
ENDBRANCH  14  16
ENDBRANCH  13  14
ENDBRANCH   1  13
BRANCH  10  26
HETATM   26  O3  UNL     1      -2.037   3.296   2.225  1.00  0.00    -0.396 OA
ATOM     27  H3  UNL     1      -1.207   3.432   2.668  1.00  0.00     0.210 HD
ENDBRANCH  10  26
TORSDOF 6
