REMARK  7 active torsions:
REMARK  status: ('A' for Active; 'I' for Inactive)
REMARK    1  A    between atoms: C4_5  and  C5_6 
REMARK    2  A    between atoms: C5_6  and  C20_23 
REMARK    3  A    between atoms: C6_7  and  C7_8 
REMARK    4  A    between atoms: C7_8  and  C8_9 
REMARK    5  A    between atoms: C16_17  and  O2_18 
REMARK    6  A    between atoms: C20_23  and  O3_24 
REMARK    7  A    between atoms: C21_26  and  O4_27 
ROOT
HETATM    1  C8  UNL     1      -0.438  -0.190   0.087  1.00  0.00     0.061 C 
HETATM    2  C9  UNL     1      -0.868  -1.251  -0.904  1.00  0.00     0.018 C 
HETATM    3  C10 UNL     1      -2.270  -0.895  -1.283  1.00  0.00     0.011 C 
HETATM    4  C11 UNL     1      -2.816  -0.465   0.087  1.00  0.00    -0.030 C 
HETATM    5  C12 UNL     1      -2.868  -1.754   0.913  1.00  0.00     0.016 C 
HETATM    6  C13 UNL     1      -1.714   0.354   0.598  1.00  0.00     0.010 C 
HETATM    7  C14 UNL     1      -1.810   1.802   0.135  1.00  0.00     0.009 C 
HETATM    8  C15 UNL     1      -3.094   2.304   0.764  1.00  0.00     0.033 C 
HETATM    9  C16 UNL     1      -4.303   1.578   0.272  1.00  0.00     0.126 C 
HETATM   10  C17 UNL     1      -4.133   0.147  -0.049  1.00  0.00    -0.014 C 
HETATM   11  C18 UNL     1      -4.637  -0.081  -1.484  1.00  0.00     0.018 C 
HETATM   12  C19 UNL     1      -5.134  -0.650   0.808  1.00  0.00     0.018 C 
ENDROOT
BRANCH   1  13
HETATM   13  C7  UNL     1       0.800   0.062   0.323  1.00  0.00    -0.150 C 
BRANCH  13  14
HETATM   14  C6  UNL     1       2.104   0.328   0.573  1.00  0.00     0.063 C 
HETATM   15  C5  UNL     1       3.156  -0.293  -0.002  1.00  0.00     0.009 C 
BRANCH  15  16
HETATM   16  C4  UNL     1       4.512   0.126   0.387  1.00  0.00     0.117 A 
HETATM   17  O1  UNL     1       4.789   1.129   1.213  1.00  0.00    -0.319 OA
HETATM   18  C3  UNL     1       6.080   1.251   1.361  1.00  0.00     0.152 A 
HETATM   19  C2  UNL     1       6.702   0.304   0.613  1.00  0.00    -0.004 A 
HETATM   20  C1  UNL     1       8.168   0.078   0.483  1.00  0.00     0.053 C 
HETATM   21  C21 UNL     1       5.680  -0.422  -0.015  1.00  0.00     0.107 A 
BRANCH  21  22
HETATM   22  O4  UNL     1       5.941  -1.469  -0.855  1.00  0.00    -0.357 OA
ATOM     23  H4  UNL     1       5.249  -1.961  -1.280  1.00  0.00     0.217 HD
ENDBRANCH  21  22
ENDBRANCH  15  16
BRANCH  15  24
HETATM   24  C20 UNL     1       2.999  -1.369  -0.969  1.00  0.00     0.206 C 
BRANCH  24  25
HETATM   25  O3  UNL     1       3.570  -1.036  -2.213  1.00  0.00    -0.396 OA
ATOM     26  H3  UNL     1       3.468  -1.738  -2.844  1.00  0.00     0.209 HD
ENDBRANCH  24  25
ENDBRANCH  15  24
ENDBRANCH  13  14
ENDBRANCH   1  13
BRANCH   9  27
HETATM   27  O2  UNL     1      -5.316   1.782   1.236  1.00  0.00    -0.395 OA
ATOM     28  H2  UNL     1      -6.085   1.320   0.923  1.00  0.00     0.210 HD
ENDBRANCH   9  27
TORSDOF 7
