REMARK  6 active torsions:
REMARK  status: ('A' for Active; 'I' for Inactive)
REMARK    1  A    between atoms: C2_2  and  N1_3 
REMARK       I    between atoms: N1_3  and  C3_5 
REMARK    2  A    between atoms: C3_5  and  C4_7 
REMARK    3  A    between atoms: C4_7  and  N2_8 
REMARK    4  A    between atoms: C7_12  and  N3_13 
REMARK       I    between atoms: N3_13  and  C8_15 
REMARK    5  A    between atoms: C8_15  and  C9_17 
REMARK    6  A    between atoms: C9_17  and  C10_18 
ROOT
HETATM    1  N3  UNL     1      -0.148  -1.110   1.328  1.00  0.00    -0.353 N 
ATOM      2  H3  UNL     1       0.000  -0.954   2.325  1.00  0.00     0.163 HD
HETATM    3  C8  UNL     1      -1.468  -1.013   0.817  1.00  0.00     0.222 C 
HETATM    4  O3  UNL     1      -1.694  -1.200  -0.404  1.00  0.00    -0.273 OA
ENDROOT
BRANCH   3   5
HETATM    5  C9  UNL     1      -2.625  -0.693   1.692  1.00  0.00     0.148 C 
BRANCH   5   6
HETATM    6  C10 UNL     1      -3.893  -0.649   0.940  1.00  0.00     0.033 A 
HETATM    7  C11 UNL     1      -4.186   0.435   0.135  1.00  0.00    -0.036 A 
HETATM    8  C12 UNL     1      -3.270   1.577  -0.020  1.00  0.00     0.050 C 
HETATM    9  C13 UNL     1      -5.380   0.426  -0.540  1.00  0.00     0.006 A 
HETATM   10  C14 UNL     1      -5.697   1.495  -1.350  1.00  0.00     0.035 A 
HETATM   11  C18 UNL     1      -6.289  -0.633  -0.433  1.00  0.00     0.092 A 
HETATM   12  C15 UNL     1      -6.903   1.535  -2.061  1.00  0.00     0.033 A 
HETATM   13 BR1  UNL     1      -7.275   3.027  -3.154  1.00  0.00    -0.049 Br
HETATM   14  C16 UNL     1      -7.773   0.469  -1.928  1.00  0.00     0.054 A 
HETATM   15 CL1  UNL     1      -9.306   0.486  -2.811  1.00  0.00    -0.083 Cl
HETATM   16  C17 UNL     1      -7.490  -0.617  -1.127  1.00  0.00     0.063 A 
HETATM   17  O4  UNL     1      -5.947  -1.624   0.345  1.00  0.00    -0.274 OA
HETATM   18  C19 UNL     1      -4.828  -1.662   1.005  1.00  0.00     0.295 A 
HETATM   19  O5  UNL     1      -4.556  -2.652   1.744  1.00  0.00    -0.259 OA
ENDBRANCH   5   6
ENDBRANCH   3   5
BRANCH   1  20
HETATM   20  C7  UNL     1       0.995  -1.420   0.502  1.00  0.00     0.131 C 
HETATM   21  C6  UNL     1       1.772  -2.599   1.050  1.00  0.00     0.131 C 
HETATM   22  C5  UNL     1       3.162  -2.301   0.658  1.00  0.00     0.223 C 
HETATM   23  N2  UNL     1       3.215  -0.947   0.167  1.00  0.00    -0.324 N 
HETATM   24  O2  UNL     1       4.175  -3.024   0.705  1.00  0.00    -0.273 OA
HETATM   25  C20 UNL     1       1.996  -0.300   0.598  1.00  0.00     0.207 C 
HETATM   26 CL2  UNL     1       2.164   0.109   2.325  1.00  0.00    -0.100 Cl
BRANCH  23  27
HETATM   27  C4  UNL     1       4.254  -0.324  -0.603  1.00  0.00     0.230 C 
BRANCH  27  28
HETATM   28  C3  UNL     1       5.279   0.313   0.246  1.00  0.00     0.235 C 
HETATM   29  N1  UNL     1       6.403   0.991  -0.265  1.00  0.00    -0.360 N 
ATOM     30  H1  UNL     1       6.515   1.044  -1.277  1.00  0.00     0.162 HD
HETATM   31  O1  UNL     1       5.167   0.264   1.508  1.00  0.00    -0.272 OA
BRANCH  29  32
HETATM   32  C2  UNL     1       7.406   1.616   0.567  1.00  0.00     0.118 C 
HETATM   33  C1  UNL     1       8.470   2.250  -0.270  1.00  0.00     0.026 C 
ENDBRANCH  29  32
ENDBRANCH  27  28
ENDBRANCH  23  27
ENDBRANCH   1  20
TORSDOF 6
