REMARK  6 active torsions:
REMARK  status: ('A' for Active; 'I' for Inactive)
REMARK    1  A    between atoms: O1_2  and  C2_3 
REMARK    2  A    between atoms: C2_3  and  C3_5 
REMARK    3  A    between atoms: C3_5  and  O3_7 
REMARK    4  A    between atoms: C3_5  and  C10_17 
REMARK    5  A    between atoms: O3_7  and  C5_8 
REMARK       I    between atoms: C10_17  and  N2_19 
REMARK    6  A    between atoms: N2_19  and  C11_21 
ROOT
HETATM    1  C10 UNL     1       1.277  -0.054   0.558  1.00  0.00     0.263 C 
HETATM    2  O4  UNL     1       1.337   0.841   1.410  1.00  0.00    -0.270 OA
HETATM    3  N2  UNL     1      -0.062  -0.413   0.152  1.00  0.00    -0.345 N 
ATOM      4  H2  UNL     1      -0.185  -1.142  -0.551  1.00  0.00     0.163 HD
ENDROOT
BRANCH   1   5
HETATM    5  C3  UNL     1       2.464  -0.691   0.009  1.00  0.00     0.232 C 
HETATM    6  C4  UNL     1       2.436  -0.408  -1.558  1.00  0.00     0.069 C 
BRANCH   5   7
HETATM    7  C2  UNL     1       2.459  -2.191   0.121  1.00  0.00     0.303 C 
HETATM    8  O2  UNL     1       3.466  -2.763   0.568  1.00  0.00    -0.261 OA
BRANCH   7   9
HETATM    9  O1  UNL     1       1.363  -2.893  -0.265  1.00  0.00    -0.324 OA
HETATM   10  C1  UNL     1       1.253  -4.306  -0.203  1.00  0.00     0.213 C 
ENDBRANCH   7   9
ENDBRANCH   5   7
BRANCH   5  11
HETATM   11  O3  UNL     1       3.697  -0.274   0.448  1.00  0.00    -0.302 OA
BRANCH  11  12
HETATM   12  C5  UNL     1       4.305   0.916   0.654  1.00  0.00     0.183 A 
HETATM   13  N1  UNL     1       4.809   1.562  -0.454  1.00  0.00    -0.343 N 
HETATM   14  C6  UNL     1       5.429   2.730  -0.373  1.00  0.00     0.114 A 
ATOM     15  H1  UNL     1       4.701   1.125  -1.369  1.00  0.00     0.167 HD
HETATM   16  C7  UNL     1       5.561   3.296   0.872  1.00  0.00     0.052 A 
HETATM   17 CL1  UNL     1       6.373   4.837   1.011  1.00  0.00    -0.083 Cl
HETATM   18  C8  UNL     1       5.086   2.704   1.998  1.00  0.00     0.072 A 
HETATM   19  C9  UNL     1       4.439   1.480   1.901  1.00  0.00     0.168 A 
HETATM   20  F1  UNL     1       4.023   0.856   3.060  1.00  0.00    -0.202 F 
ENDBRANCH  11  12
ENDBRANCH   5  11
ENDBRANCH   1   5
BRANCH   3  21
HETATM   21  C11 UNL     1      -1.236   0.226   0.709  1.00  0.00     0.174 C 
HETATM   22  C12 UNL     1      -2.043  -0.815   1.404  1.00  0.00     0.151 C 
HETATM   23  O5  UNL     1      -1.997  -0.906   2.613  1.00  0.00    -0.296 OA
HETATM   24  C13 UNL     1      -2.917  -1.757   0.657  1.00  0.00     0.086 C 
HETATM   25  C14 UNL     1      -3.671  -1.018  -0.416  1.00  0.00     0.009 C 
HETATM   26  C15 UNL     1      -4.756  -0.139   0.109  1.00  0.00     0.031 C 
HETATM   27  C19 UNL     1      -2.692  -0.223  -1.231  1.00  0.00     0.104 C 
HETATM   28  C16 UNL     1      -4.527   1.343  -0.212  1.00  0.00     0.086 C 
HETATM   29  C17 UNL     1      -3.162   1.677   0.358  1.00  0.00     0.049 C 
HETATM   30  N3  UNL     1      -4.471   1.404  -1.676  1.00  0.00    -0.356 N 
HETATM   31  C18 UNL     1      -2.107   0.870  -0.326  1.00  0.00     0.059 C 
HETATM   32 BR1  UNL     1      -1.109   2.053  -1.486  1.00  0.00    -0.082 Br
HETATM   33  C20 UNL     1      -3.505   0.530  -2.251  1.00  0.00     0.224 C 
ATOM     34  H3  UNL     1      -5.069   2.016  -2.231  1.00  0.00     0.162 HD
HETATM   35  O6  UNL     1      -3.321   0.377  -3.482  1.00  0.00    -0.273 OA
ENDBRANCH   3  21
TORSDOF 6
