REMARK  9 active torsions:
REMARK  status: ('A' for Active; 'I' for Inactive)
REMARK    1  A    between atoms: C3_3  and  C4_4 
REMARK    2  A    between atoms: C6_7  and  C7_8 
REMARK    3  A    between atoms: C9_11  and  C10_12 
REMARK    4  A    between atoms: C10_12  and  N1_13 
REMARK       I    between atoms: N1_13  and  C12_15 
REMARK    5  A    between atoms: C12_15  and  C13_17 
REMARK    6  A    between atoms: C17_27  and  C18_28 
REMARK    7  A    between atoms: C18_28  and  C19_29 
REMARK    8  A    between atoms: C19_29  and  O4_31 
REMARK    9  A    between atoms: N4_37  and  O6_38 
ROOT
HETATM    1  C1  UNL     1       4.495  -5.292  -3.517  1.00  0.00     0.112 C 
HETATM    2  C2  UNL     1       4.241  -4.235  -2.524  1.00  0.00    -0.104 C 
HETATM    3  C3  UNL     1       4.052  -3.373  -1.703  1.00  0.00    -0.044 C 
ENDROOT
BRANCH   3   4
HETATM    4  C4  UNL     1       3.840  -2.357  -0.716  1.00  0.00     0.154 A 
HETATM    5  C5  UNL     1       3.062  -1.261  -1.040  1.00  0.00     0.161 A 
HETATM    6  F1  UNL     1       2.551  -1.202  -2.263  1.00  0.00    -0.202 F 
HETATM    7  C6  UNL     1       2.845  -0.277  -0.113  1.00  0.00    -0.001 A 
HETATM    8  C22 UNL     1       3.441  -0.464   1.114  1.00  0.00     0.031 A 
HETATM    9  C23 UNL     1       4.217  -1.574   1.413  1.00  0.00     0.125 A 
HETATM   10  N4  UNL     1       4.413  -2.523   0.485  1.00  0.00    -0.225 N 
BRANCH   7  11
HETATM   11  C7  UNL     1       2.032   0.949  -0.337  1.00  0.00     0.127 C 
HETATM   12  C8  UNL     1       0.804   0.775  -1.081  1.00  0.00     0.162 C 
HETATM   13  O1  UNL     1       0.649   0.885  -2.267  1.00  0.00    -0.295 OA
HETATM   14  C9  UNL     1      -0.401   0.417  -0.238  1.00  0.00     0.168 C 
HETATM   15  N3  UNL     1      -0.633   1.640   0.498  1.00  0.00    -0.376 N 
HETATM   16  C17 UNL     1       0.468   2.175   1.170  1.00  0.00     0.168 A 
ATOM     17  H3  UNL     1      -1.550   2.087   0.525  1.00  0.00     0.157 HD
HETATM   18  O5  UNL     1       1.168   1.284   1.992  1.00  0.00    -0.347 OA
HETATM   19  C21 UNL     1       1.862   1.760   0.882  1.00  0.00     0.196 A 
BRANCH  14  20
HETATM   20  C10 UNL     1      -1.585   0.127  -1.091  1.00  0.00     0.158 C 
BRANCH  20  21
HETATM   21  N1  UNL     1      -2.787  -0.237  -0.331  1.00  0.00    -0.349 N 
HETATM   22  C11 UNL     1      -3.678   0.800   0.025  1.00  0.00     0.153 C 
HETATM   23  C12 UNL     1      -2.950  -1.595  -0.048  1.00  0.00     0.270 C 
HETATM   24  O2  UNL     1      -2.057  -2.433  -0.479  1.00  0.00    -0.266 OA
BRANCH  23  25
HETATM   25  C13 UNL     1      -4.030  -2.220   0.694  1.00  0.00     0.103 A 
HETATM   26  C14 UNL     1      -5.107  -1.619   1.320  1.00  0.00     0.062 A 
HETATM   27  C15 UNL     1      -5.863  -2.638   1.914  1.00  0.00     0.074 A 
HETATM   28 CL1  UNL     1      -7.330  -2.372   2.825  1.00  0.00    -0.081 Cl
HETATM   29  C16 UNL     1      -5.227  -3.799   1.632  1.00  0.00     0.126 A 
HETATM   30 CL2  UNL     1      -5.803  -5.382   2.170  1.00  0.00    -0.063 Cl
HETATM   31  N2  UNL     1      -4.136  -3.565   0.907  1.00  0.00    -0.341 N 
ATOM     32  H2  UNL     1      -3.486  -4.273   0.566  1.00  0.00     0.167 HD
ENDBRANCH  23  25
ENDBRANCH  20  21
ENDBRANCH  14  20
BRANCH  16  33
HETATM   33  C18 UNL     1       0.364   3.614   1.646  1.00  0.00     0.174 C 
BRANCH  33  34
HETATM   34  C19 UNL     1       0.155   4.585   0.558  1.00  0.00     0.263 C 
HETATM   35  O3  UNL     1       0.099   4.302  -0.659  1.00  0.00    -0.265 OA
BRANCH  34  36
HETATM   36  O4  UNL     1       0.002   5.947   0.857  1.00  0.00    -0.326 OA
HETATM   37  C20 UNL     1      -0.201   6.912  -0.151  1.00  0.00     0.213 C 
ENDBRANCH  34  36
ENDBRANCH  33  34
ENDBRANCH  16  33
ENDBRANCH   7  11
BRANCH  10  38
HETATM   38  O6  UNL     1       5.183  -3.619   0.791  1.00  0.00    -0.282 OA
ATOM     39  H6  UNL     1       5.589  -3.737   1.642  1.00  0.00     0.245 HD
ENDBRANCH  10  38
ENDBRANCH   3   4
TORSDOF 9
