REMARK  9 active torsions:
REMARK  status: ('A' for Active; 'I' for Inactive)
REMARK    1  A    between atoms: C2_2  and  C3_3 
REMARK    2  A    between atoms: C3_3  and  C5_5 
REMARK    3  A    between atoms: C5_5  and  N1_6 
REMARK    4  A    between atoms: C5_5  and  C16_20 
REMARK       I    between atoms: N1_6  and  C6_8 
REMARK    5  A    between atoms: C6_8  and  C7_10 
REMARK    6  A    between atoms: C7_10  and  C8_11 
REMARK    7  A    between atoms: C7_10  and  C9_13 
REMARK       I    between atoms: C16_20  and  N2_22 
REMARK    8  A    between atoms: C21_27  and  C22_28 
REMARK    9  A    between atoms: C22_28  and  N3_29 
ROOT
HETATM    1  C5  UNL     1      -1.172   0.445  -0.708  1.00  0.00     0.180 C 
ENDROOT
BRANCH   1   2
HETATM    2  C3  UNL     1      -1.232  -0.735  -1.592  1.00  0.00     0.013 C 
HETATM    3  C4  UNL     1      -0.965  -0.407  -3.066  1.00  0.00     0.012 C 
BRANCH   2   4
HETATM    4  C2  UNL     1      -0.530  -1.978  -1.168  1.00  0.00     0.002 C 
HETATM    5  C1  UNL     1      -1.075  -3.131  -2.048  1.00  0.00     0.005 C 
ENDBRANCH   2   4
ENDBRANCH   1   2
BRANCH   1   6
HETATM    6  N1  UNL     1       0.111   0.988  -0.404  1.00  0.00    -0.347 N 
HETATM    7  C6  UNL     1       1.193   0.531   0.294  1.00  0.00     0.223 C 
HETATM    8  O1  UNL     1       1.306  -0.547   0.852  1.00  0.00    -0.273 OA
ATOM      9  H1  UNL     1       0.252   1.921  -0.792  1.00  0.00     0.163 HD
BRANCH   7  10
HETATM   10  C7  UNL     1       2.410   1.458   0.409  1.00  0.00     0.092 C 
BRANCH  10  11
HETATM   11  C8  UNL     1       1.998   2.443   1.433  1.00  0.00     0.100 C 
HETATM   12  S1  UNL     1       3.184   3.736   1.812  1.00  0.00    -0.097 SA
ENDBRANCH  10  11
BRANCH  10  13
HETATM   13  C9  UNL     1       3.613   0.639   0.570  1.00  0.00    -0.001 C 
HETATM   14  C10 UNL     1       3.677  -0.244  -0.715  1.00  0.00     0.005 C 
HETATM   15  C11 UNL     1       4.424  -1.511  -0.474  1.00  0.00     0.000 C 
HETATM   16  C12 UNL     1       5.922  -1.205  -0.363  1.00  0.00     0.000 C 
HETATM   17  C13 UNL     1       6.194  -0.935   1.074  1.00  0.00     0.000 C 
HETATM   18  C14 UNL     1       5.887   0.418   1.581  1.00  0.00     0.000 C 
HETATM   19  C15 UNL     1       4.949   1.243   0.688  1.00  0.00     0.005 C 
ENDBRANCH  10  13
ENDBRANCH   7  10
ENDBRANCH   1   6
BRANCH   1  20
HETATM   20  C16 UNL     1      -1.954   0.279   0.537  1.00  0.00     0.243 C 
HETATM   21  O2  UNL     1      -1.290   0.187   1.615  1.00  0.00    -0.271 OA
HETATM   22  N2  UNL     1      -3.357   0.218   0.655  1.00  0.00    -0.344 N 
HETATM   23  C17 UNL     1      -3.931   0.001   1.998  1.00  0.00     0.126 C 
HETATM   24  C21 UNL     1      -4.336   0.385  -0.374  1.00  0.00     0.112 C 
HETATM   25  C18 UNL     1      -4.803  -1.204   2.039  1.00  0.00     0.020 C 
HETATM   26  C19 UNL     1      -5.848  -1.083   0.949  1.00  0.00     0.004 C 
HETATM   27  C20 UNL     1      -5.220  -0.840  -0.396  1.00  0.00     0.027 C 
BRANCH  24  28
HETATM   28  C22 UNL     1      -5.211   1.629  -0.091  1.00  0.00     0.254 C 
BRANCH  28  29
HETATM   29  N3  UNL     1      -4.299   2.758  -0.060  1.00  0.00    -0.077 N 
ATOM     30  H33 UNL     1      -3.530   2.642   0.600  1.00  0.00     0.274 HD
ATOM     31  H32 UNL     1      -3.728   2.844  -0.901  1.00  0.00     0.274 HD
ATOM     32  H31 UNL     1      -4.876   3.578   0.127  1.00  0.00     0.274 HD
ENDBRANCH  28  29
ENDBRANCH  24  28
ENDBRANCH   1  20
TORSDOF 9
