REMARK  5 active torsions:
REMARK  status: ('A' for Active; 'I' for Inactive)
REMARK    1  A    between atoms: C1_2  and  C2_3 
REMARK       I    between atoms: C1_2  and  N4_25 
REMARK    2  A    between atoms: C2_3  and  S1_4 
REMARK    3  A    between atoms: S1_4  and  C3_5 
REMARK    4  A    between atoms: N2_12  and  C7_13 
REMARK    5  A    between atoms: C7_13  and  C8_14 
ROOT
HETATM    1  C3  UNL     1      -0.319   0.022  -0.325  1.00  0.00     0.150 A 
HETATM    2  N1  UNL     1       0.353   1.047   0.228  1.00  0.00    -0.338 N 
ATOM      3  H1  UNL     1       1.285   0.876   0.605  1.00  0.00     0.168 HD
HETATM    4  C4  UNL     1      -0.149   2.271   0.302  1.00  0.00     0.043 A 
HETATM    5  C5  UNL     1      -1.402   2.466  -0.215  1.00  0.00     0.120 A 
HETATM    6  C6  UNL     1      -2.072   1.388  -0.780  1.00  0.00     0.278 A 
HETATM    7  O2  UNL     1      -3.201   1.638  -1.236  1.00  0.00    -0.265 OA
HETATM    8  N2  UNL     1      -1.576   0.141  -0.858  1.00  0.00    -0.292 N 
HETATM    9  N3  UNL     1      -1.968   3.761  -0.155  1.00  0.00    -0.384 N 
ATOM     10  H3  UNL     1      -2.972   3.851  -0.313  1.00  0.00     0.159 HD
HETATM   11  C14 UNL     1      -1.213   4.968   0.116  1.00  0.00     0.120 C 
HETATM   12  C15 UNL     1       0.277   4.650   0.045  1.00  0.00     0.026 C 
HETATM   13  C16 UNL     1       0.557   3.427   0.904  1.00  0.00     0.061 C 
ENDROOT
BRANCH   1  14
HETATM   14  S1  UNL     1       0.524  -1.560  -0.469  1.00  0.00    -0.084 SA
BRANCH  14  15
HETATM   15  C2  UNL     1       2.189  -1.467   0.189  1.00  0.00     0.185 C 
BRANCH  15  16
HETATM   16  C1  UNL     1       3.049  -0.559  -0.639  1.00  0.00     0.229 C 
HETATM   17  O1  UNL     1       2.577   0.024  -1.656  1.00  0.00    -0.273 OA
HETATM   18  N4  UNL     1       4.406  -0.340  -0.292  1.00  0.00    -0.351 N 
HETATM   19  C17 UNL     1       5.354   0.501  -0.986  1.00  0.00     0.126 C 
HETATM   20  C20 UNL     1       5.085  -0.926   0.827  1.00  0.00     0.126 C 
HETATM   21  C18 UNL     1       6.620  -0.355  -0.868  1.00  0.00     0.021 C 
HETATM   22  C19 UNL     1       6.563  -0.809   0.558  1.00  0.00     0.021 C 
ENDBRANCH  15  16
ENDBRANCH  14  15
ENDBRANCH   1  14
BRANCH   8  23
HETATM   23  C7  UNL     1      -2.228  -1.001  -1.395  1.00  0.00     0.139 C 
BRANCH  23  24
HETATM   24  C8  UNL     1      -3.158  -1.806  -0.569  1.00  0.00     0.004 C 
HETATM   25  C9  UNL     1      -4.395  -1.142  -0.068  1.00  0.00     0.006 C 
HETATM   26  C10 UNL     1      -5.496  -2.242   0.046  1.00  0.00     0.000 C 
HETATM   27  C11 UNL     1      -4.815  -3.451   0.608  1.00  0.00     0.000 C 
HETATM   28  C12 UNL     1      -3.651  -3.071   1.482  1.00  0.00     0.000 C 
HETATM   29  C13 UNL     1      -2.511  -2.491   0.623  1.00  0.00     0.006 C 
ENDBRANCH  23  24
ENDBRANCH   8  23
TORSDOF 5
