REMARK  6 active torsions:
REMARK  status: ('A' for Active; 'I' for Inactive)
REMARK    1  A    between atoms: C3_3  and  N1_4 
REMARK    2  A    between atoms: N1_4  and  C4_6 
REMARK    3  A    between atoms: C4_6  and  C5_7 
REMARK    4  A    between atoms: C5_7  and  N2_8 
REMARK    5  A    between atoms: C11_16  and  C12_17 
REMARK    6  A    between atoms: C15_23  and  N6_24 
ROOT
HETATM    1  C12 UNL     1      -0.466  -1.835   0.082  1.00  0.00    -0.020 A 
HETATM    2  C13 UNL     1      -1.206  -2.874   0.653  1.00  0.00     0.031 A 
HETATM    3  C14 UNL     1      -2.563  -2.868   0.730  1.00  0.00     0.119 A 
HETATM    4  N4  UNL     1      -3.278  -1.823   0.241  1.00  0.00    -0.236 N 
HETATM    5  N5  UNL     1      -4.559  -1.537   0.173  1.00  0.00    -0.124 N 
ATOM      6  H5  UNL     1      -5.309  -2.134   0.521  1.00  0.00     0.206 HD
HETATM    7  C15 UNL     1      -4.738  -0.352  -0.418  1.00  0.00     0.697 A 
HETATM    8  N7  UNL     1      -3.513   0.103  -0.723  1.00  0.00    -0.173 N 
ATOM      9  H7  UNL     1      -3.304   0.988  -1.186  1.00  0.00     0.186 HD
HETATM   10  C22 UNL     1      -2.606  -0.806  -0.315  1.00  0.00     0.143 A 
HETATM   11  C23 UNL     1      -1.207  -0.782  -0.410  1.00  0.00     0.063 A 
ENDROOT
BRANCH   1  12
HETATM   12  C11 UNL     1       0.973  -1.900   0.033  1.00  0.00    -0.010 A 
HETATM   13  C1  UNL     1       1.643  -3.089  -0.090  1.00  0.00     0.017 A 
HETATM   14  C2  UNL     1       3.037  -3.135  -0.132  1.00  0.00     0.049 A 
HETATM   15  C3  UNL     1       3.763  -1.941  -0.046  1.00  0.00     0.100 A 
HETATM   16  N3  UNL     1       3.084  -0.787   0.074  1.00  0.00    -0.352 N 
HETATM   17  C10 UNL     1       1.719  -0.760   0.113  1.00  0.00     0.102 A 
ATOM     18  H3  UNL     1       3.601   0.090   0.137  1.00  0.00     0.166 HD
BRANCH  15  19
HETATM   19  N1  UNL     1       5.042  -2.000  -0.084  1.00  0.00    -0.375 N 
ATOM     20  H1  UNL     1       5.473  -2.920  -0.176  1.00  0.00     0.161 HD
BRANCH  19  21
HETATM   21  C4  UNL     1       5.913  -0.856  -0.006  1.00  0.00     0.151 C 
BRANCH  21  22
HETATM   22  C5  UNL     1       6.052  -0.238  -1.376  1.00  0.00     0.292 C 
BRANCH  22  23
HETATM   23  N2  UNL     1       6.897   0.916  -1.389  1.00  0.00     0.090 N 
HETATM   24  C6  UNL     1       6.359   2.044  -0.697  1.00  0.00     0.272 C 
HETATM   25  C7  UNL     1       7.308   2.425   0.397  1.00  0.00     0.032 C 
HETATM   26  C8  UNL     1       8.344   1.325   0.418  1.00  0.00     0.032 C 
HETATM   27  C9  UNL     1       8.228   0.669  -0.938  1.00  0.00     0.272 C 
ENDBRANCH  22  23
ENDBRANCH  21  22
ENDBRANCH  19  21
ENDBRANCH  15  19
ENDBRANCH   1  12
BRANCH   7  28
HETATM   28  N6  UNL     1      -5.996   0.318  -0.679  1.00  0.00    -0.216 N 
HETATM   29  C16 UNL     1      -7.136  -0.385  -0.185  1.00  0.00     0.141 C 
HETATM   30  C17 UNL     1      -7.527   0.024   1.214  1.00  0.00     0.020 C 
HETATM   31  C18 UNL     1      -7.627   1.491   1.403  1.00  0.00     0.002 C 
HETATM   32  C19 UNL     1      -7.794   2.277   0.121  1.00  0.00     0.002 C 
HETATM   33  C20 UNL     1      -6.462   2.651  -0.485  1.00  0.00     0.020 C 
HETATM   34  C21 UNL     1      -5.928   1.562  -1.378  1.00  0.00     0.141 C 
ENDBRANCH   7  28
TORSDOF 6
