REMARK  5 active torsions:
REMARK  status: ('A' for Active; 'I' for Inactive)
REMARK    1  A    between atoms: N1_1  and  C1_5 
REMARK    2  A    between atoms: C4_8  and  C5_9 
REMARK    3  A    between atoms: C5_9  and  C6_10 
REMARK    4  A    between atoms: C12_16  and  C13_17 
REMARK    5  A    between atoms: C13_17  and  O1_18 
ROOT
HETATM    1  C1  UNL     1      -2.696   0.628   0.282  1.00  0.00     0.190 C 
HETATM    2  C2  UNL     1      -2.225  -0.202   1.458  1.00  0.00     0.033 C 
HETATM    3  C3  UNL     1      -0.703  -0.196   1.243  1.00  0.00     0.007 C 
HETATM    4  C4  UNL     1      -0.525  -0.327  -0.248  1.00  0.00    -0.002 C 
HETATM    5  C12 UNL     1      -1.838   0.125  -0.842  1.00  0.00     0.044 C 
ENDROOT
BRANCH   4   6
HETATM    6  C5  UNL     1       0.558   0.534  -0.793  1.00  0.00     0.043 C 
BRANCH   6   7
HETATM    7  C6  UNL     1       1.908   0.269  -0.243  1.00  0.00    -0.058 A 
HETATM    8  C7  UNL     1       2.392   0.941   0.856  1.00  0.00     0.007 A 
HETATM    9  C8  UNL     1       3.655   0.691   1.377  1.00  0.00     0.001 A 
HETATM   10  C9  UNL     1       4.477  -0.251   0.802  1.00  0.00     0.000 A 
HETATM   11  C10 UNL     1       4.006  -0.932  -0.300  1.00  0.00     0.001 A 
HETATM   12  C11 UNL     1       2.753  -0.678  -0.808  1.00  0.00     0.007 A 
ENDBRANCH   6   7
ENDBRANCH   4   6
BRANCH   5  13
HETATM   13  C13 UNL     1      -2.580  -1.063  -1.457  1.00  0.00     0.171 C 
BRANCH  13  14
HETATM   14  O1  UNL     1      -1.820  -1.564  -2.508  1.00  0.00    -0.400 OA
ATOM     15  H1  UNL     1      -2.281  -2.302  -2.890  1.00  0.00     0.209 HD
ENDBRANCH  13  14
ENDBRANCH   5  13
BRANCH   1  16
HETATM   16  N1  UNL     1      -2.490   2.041   0.542  1.00  0.00    -0.075 N 
ATOM     17  H13 UNL     1      -2.931   2.334   1.414  1.00  0.00     0.274 HD
ATOM     18  H12 UNL     1      -1.521   2.244   0.786  1.00  0.00     0.274 HD
ATOM     19  H11 UNL     1      -2.807   2.600  -0.250  1.00  0.00     0.274 HD
ENDBRANCH   1  16
TORSDOF 5
