REMARK  4 active torsions:
REMARK  status: ('A' for Active; 'I' for Inactive)
REMARK    1  A    between atoms: O1_1  and  C1_3 
REMARK    2  A    between atoms: N1_6  and  C4_7 
REMARK    3  A    between atoms: C4_7  and  C5_8 
REMARK    4  A    between atoms: C5_8  and  C6_9 
ROOT
HETATM    1  C1  UNL     1       3.826   0.393   0.082  1.00  0.00     0.124 C 
HETATM    2  C2  UNL     1       3.059   0.988  -1.071  1.00  0.00     0.051 C 
HETATM    3  C3  UNL     1       1.577   0.896  -0.919  1.00  0.00     0.124 C 
HETATM    4  N1  UNL     1       1.113  -0.326  -0.364  1.00  0.00    -0.393 N 
HETATM    5  C12 UNL     1       1.857  -0.869   0.703  1.00  0.00     0.060 C 
HETATM    6  C13 UNL     1       3.325  -1.015   0.319  1.00  0.00     0.076 C 
ENDROOT
BRANCH   4   7
HETATM    7  C4  UNL     1      -0.258  -0.583  -0.468  1.00  0.00     0.126 C 
BRANCH   7   8
HETATM    8  C5  UNL     1      -1.017   0.392   0.437  1.00  0.00     0.058 C 
BRANCH   8   9
HETATM    9  C6  UNL     1      -2.487   0.153   0.322  1.00  0.00    -0.057 A 
HETATM   10  C7  UNL     1      -3.169  -0.727   1.123  1.00  0.00     0.007 A 
HETATM   11  C8  UNL     1      -4.534  -0.951   0.992  1.00  0.00     0.001 A 
HETATM   12  C9  UNL     1      -5.270  -0.278   0.026  1.00  0.00     0.000 A 
HETATM   13  C10 UNL     1      -4.589   0.606  -0.779  1.00  0.00     0.001 A 
HETATM   14  C11 UNL     1      -3.236   0.825  -0.647  1.00  0.00     0.007 A 
ENDBRANCH   8   9
ENDBRANCH   7   8
ENDBRANCH   4   7
BRANCH   1  15
HETATM   15  O1  UNL     1       5.186   0.340  -0.286  1.00  0.00    -0.395 OA
ATOM     16  H1  UNL     1       5.669  -0.035   0.441  1.00  0.00     0.210 HD
ENDBRANCH   1  15
TORSDOF 4
