REMARK  1 active torsions:
REMARK  status: ('A' for Active; 'I' for Inactive)
REMARK    1  A    between atoms: C2_2  and  C4_4 
ROOT
HETATM    1  C4  UNL     1      -2.422   0.593  -0.440  1.00  0.00     0.013 C 
HETATM    2  C5  UNL     1      -2.170  -0.053  -1.795  1.00  0.00     0.027 C 
HETATM    3  C6  UNL     1      -0.710   0.406  -1.980  1.00  0.00     0.123 C 
HETATM    4  N1  UNL     1      -0.196   0.378  -0.704  1.00  0.00    -0.387 N 
HETATM    5  C7  UNL     1       1.005   0.934  -0.338  1.00  0.00     0.074 C 
HETATM    6  C8  UNL     1       1.939  -0.026   0.276  1.00  0.00     0.063 A 
HETATM    7  C9  UNL     1       1.684  -0.265   1.779  1.00  0.00     0.064 A 
HETATM    8  C10 UNL     1       1.469  -1.294   0.764  1.00  0.00     0.113 A 
HETATM    9  C11 UNL     1       0.214  -1.862   0.317  1.00  0.00     0.044 C 
HETATM   10  C12 UNL     1      -1.067  -1.199   0.765  1.00  0.00     0.029 C 
HETATM   11  C13 UNL     1      -1.210   0.208   0.303  1.00  0.00     0.088 C 
HETATM   12  O1  UNL     1       2.575  -2.165   0.578  1.00  0.00    -0.228 OA
HETATM   13  O2  UNL     1       3.288  -1.690  -0.390  1.00  0.00    -0.228 OA
HETATM   14  C14 UNL     1       3.310  -0.293  -0.228  1.00  0.00     0.112 C 
HETATM   15  C15 UNL     1       3.812   0.383  -1.424  1.00  0.00     0.042 C 
HETATM   16  C16 UNL     1       4.647   1.289  -0.545  1.00  0.00     0.006 C 
HETATM   17  C17 UNL     1       4.459   0.245   0.565  1.00  0.00     0.042 C 
ENDROOT
BRANCH   1  18
HETATM   18  C2  UNL     1      -3.749   0.441   0.108  1.00  0.00    -0.017 C 
HETATM   19  C1  UNL     1      -3.832   1.138   1.460  1.00  0.00     0.010 C 
HETATM   20  C3  UNL     1      -4.362  -0.899   0.244  1.00  0.00     0.010 C 
ENDBRANCH   1  18
TORSDOF 1
