REMARK  1 active torsions:
REMARK  status: ('A' for Active; 'I' for Inactive)
REMARK    1  A    between atoms: C2_2  and  C4_4 
ROOT
HETATM    1  C4  UNL     1      -2.621   0.340   0.162  1.00  0.00     0.018 C 
HETATM    2  C5  UNL     1      -1.816   1.150   1.146  1.00  0.00     0.010 C 
HETATM    3  C6  UNL     1      -0.901   0.060   1.722  1.00  0.00     0.011 C 
HETATM    4  C7  UNL     1      -0.826  -1.014   0.669  1.00  0.00    -0.034 C 
HETATM    5  C8  UNL     1      -1.523  -2.281   1.026  1.00  0.00     0.016 C 
HETATM    6  C9  UNL     1       0.526  -1.233   0.117  1.00  0.00     0.023 C 
HETATM    7  C10 UNL     1       1.611  -1.466   1.102  1.00  0.00     0.016 C 
HETATM    8  C11 UNL     1       2.922  -1.456   0.311  1.00  0.00     0.103 C 
HETATM    9  C12 UNL     1       3.014  -0.278  -0.612  1.00  0.00     0.282 C 
HETATM   10  O1  UNL     1       3.149   0.864   0.160  1.00  0.00    -0.331 OA
HETATM   11  C13 UNL     1       4.360   1.442  -0.129  1.00  0.00     0.200 C 
HETATM   12  C14 UNL     1       5.156   0.257  -0.668  1.00  0.00     0.200 C 
HETATM   13  O2  UNL     1       4.139  -0.413  -1.387  1.00  0.00    -0.331 OA
HETATM   14  O3  UNL     1       1.865  -0.108  -1.393  1.00  0.00    -0.327 OA
HETATM   15  C15 UNL     1       0.816   0.124  -0.544  1.00  0.00     0.132 C 
HETATM   16  C16 UNL     1      -0.487   0.413  -1.195  1.00  0.00     0.038 C 
HETATM   17  C17 UNL     1      -1.562  -0.422  -0.550  1.00  0.00     0.004 C 
ENDROOT
BRANCH   1  18
HETATM   18  C2  UNL     1      -3.587   1.065  -0.632  1.00  0.00    -0.089 C 
HETATM   19  C1  UNL     1      -3.549   1.047  -1.938  1.00  0.00     0.014 C 
HETATM   20  C3  UNL     1      -4.643   1.852   0.058  1.00  0.00     0.043 C 
ENDBRANCH   1  18
TORSDOF 1
