REMARK  2 active torsions:
REMARK  status: ('A' for Active; 'I' for Inactive)
REMARK    1  A    between atoms: C1_2  and  O2_3 
REMARK       I    between atoms: C1_2  and  N1_15 
REMARK    2  A    between atoms: O2_3  and  C2_4 
ROOT
HETATM    1  C2  UNL     1      -1.212  -0.739  -0.183  1.00  0.00     0.077 C 
HETATM    2  C3  UNL     1      -1.609  -0.200   1.148  1.00  0.00     0.039 C 
HETATM    3  C4  UNL     1      -1.457   1.298   1.246  1.00  0.00     0.007 C 
HETATM    4  C5  UNL     1      -2.798   1.943   1.465  1.00  0.00     0.027 C 
HETATM    5  C6  UNL     1      -3.687   1.955   0.304  1.00  0.00    -0.028 C 
HETATM    6  C7  UNL     1      -3.909   1.202  -0.755  1.00  0.00     0.001 C 
HETATM    7  C8  UNL     1      -3.366  -0.057  -1.315  1.00  0.00     0.146 C 
HETATM    8  C9  UNL     1      -1.885   0.029  -1.334  1.00  0.00     0.074 C 
HETATM    9  O3  UNL     1      -3.832  -1.147  -0.584  1.00  0.00    -0.382 OA
HETATM   10  C10 UNL     1      -3.078  -2.267  -0.818  1.00  0.00     0.171 C 
HETATM   11  C11 UNL     1      -1.654  -2.173  -0.353  1.00  0.00     0.065 C 
ENDROOT
BRANCH   1  12
HETATM   12  O2  UNL     1       0.132  -0.525  -0.399  1.00  0.00    -0.292 OA
BRANCH  12  13
HETATM   13  C1  UNL     1       1.236  -0.960   0.253  1.00  0.00     0.363 C 
HETATM   14  O1  UNL     1       1.016  -1.719   1.254  1.00  0.00    -0.238 OA
HETATM   15  N1  UNL     1       2.559  -0.614  -0.127  1.00  0.00    -0.328 N 
HETATM   16  C12 UNL     1       2.778   0.243  -1.260  1.00  0.00     0.128 C 
HETATM   17  C16 UNL     1       3.665  -1.124   0.625  1.00  0.00     0.128 C 
HETATM   18  C13 UNL     1       3.980   1.115  -1.152  1.00  0.00     0.020 C 
HETATM   19  C14 UNL     1       4.460   1.218   0.282  1.00  0.00     0.003 C 
HETATM   20  C15 UNL     1       4.829  -0.184   0.722  1.00  0.00     0.020 C 
ENDBRANCH  12  13
ENDBRANCH   1  12
TORSDOF 2
