REMARK  0 active torsions:
REMARK  status: ('A' for Active; 'I' for Inactive)
ROOT
HETATM    1  C1  UNL     1      -2.086   2.365  -0.173  1.00  0.00     0.002 C 
HETATM    2  C2  UNL     1      -1.019   2.271  -1.205  1.00  0.00     0.001 C 
HETATM    3  C3  UNL     1      -0.670   0.933  -1.724  1.00  0.00     0.008 C 
HETATM    4  C4  UNL     1       0.187   0.055  -0.905  1.00  0.00     0.026 C 
HETATM    5  C5  UNL     1       0.956   0.795   0.190  1.00  0.00     0.164 C 
HETATM    6  O1  UNL     1       0.313   0.877   1.371  1.00  0.00    -0.377 OA
HETATM    7  C6  UNL     1      -1.039   0.705   1.429  1.00  0.00     0.127 C 
HETATM    8  C7  UNL     1      -1.694   2.043   1.216  1.00  0.00     0.032 C 
HETATM    9  C8  UNL     1      -1.643  -0.317   0.588  1.00  0.00     0.023 C 
HETATM   10  C9  UNL     1      -2.284  -1.502   1.232  1.00  0.00     0.008 C 
HETATM   11  C10 UNL     1      -2.413  -2.422   0.027  1.00  0.00     0.001 C 
HETATM   12  C11 UNL     1      -1.321  -1.993  -0.965  1.00  0.00     0.010 C 
HETATM   13  C12 UNL     1      -0.523  -1.043  -0.174  1.00  0.00    -0.028 C 
HETATM   14  C13 UNL     1       0.403  -1.759   0.757  1.00  0.00     0.013 C 
HETATM   15  C14 UNL     1       1.863  -1.508   0.463  1.00  0.00     0.045 C 
HETATM   16  C15 UNL     1       2.216  -0.062   0.431  1.00  0.00     0.124 C 
HETATM   17  C16 UNL     1       3.120   0.215  -0.779  1.00  0.00     0.073 C 
HETATM   18  C17 UNL     1       4.443   0.459  -0.095  1.00  0.00     0.213 C 
HETATM   19  O2  UNL     1       4.212   0.243   1.238  1.00  0.00    -0.240 OA
HETATM   20  O3  UNL     1       2.952   0.391   1.486  1.00  0.00    -0.227 OA
ENDROOT
TORSDOF 0
