REMARK  0 active torsions:
REMARK  status: ('A' for Active; 'I' for Inactive)
ROOT
HETATM    1  C1  UNL     1       5.357   0.214   0.450  1.00  0.00     0.010 C 
HETATM    2  C2  UNL     1       3.917   0.350  -0.070  1.00  0.00    -0.019 C 
HETATM    3  C3  UNL     1       3.185   1.235   0.848  1.00  0.00     0.007 C 
HETATM    4  C4  UNL     1       1.742   1.002   1.038  1.00  0.00     0.042 C 
HETATM    5  C5  UNL     1       1.149  -0.101   0.221  1.00  0.00     0.099 C 
HETATM    6  C6  UNL     1       2.048  -1.293   0.297  1.00  0.00     0.042 C 
HETATM    7  C7  UNL     1       3.392  -1.008  -0.298  1.00  0.00     0.007 C 
HETATM    8  C8  UNL     1      -0.189  -0.470   0.876  1.00  0.00     0.085 C 
HETATM    9  C9  UNL     1      -1.144  -0.190  -0.266  1.00  0.00     0.138 C 
HETATM   10  O1  UNL     1      -0.313  -0.375  -1.369  1.00  0.00    -0.226 OA
HETATM   11  O2  UNL     1       0.785   0.257  -1.048  1.00  0.00    -0.229 OA
HETATM   12  C10 UNL     1      -1.620   1.251  -0.259  1.00  0.00     0.029 C 
HETATM   13  C11 UNL     1      -2.702   1.339  -1.344  1.00  0.00     0.038 C 
HETATM   14  C12 UNL     1      -3.906   0.597  -0.788  1.00  0.00     0.274 C 
HETATM   15  N1  UNL     1      -3.512  -0.345   0.241  1.00  0.00     0.101 N 
HETATM   16  C13 UNL     1      -3.188   0.419   1.426  1.00  0.00     0.274 C 
HETATM   17  C14 UNL     1      -2.319   1.577   1.047  1.00  0.00     0.038 C 
HETATM   18  C15 UNL     1      -2.344  -1.071  -0.261  1.00  0.00     0.194 A 
HETATM   19  C16 UNL     1      -2.640  -1.848  -1.521  1.00  0.00     0.048 A 
HETATM   20  C17 UNL     1      -2.292  -2.530  -0.201  1.00  0.00     0.048 A 
ENDROOT
TORSDOF 0
