REMARK  4 active torsions:
REMARK  status: ('A' for Active; 'I' for Inactive)
REMARK    1  A    between atoms: C3_4  and  C4_5 
REMARK    2  A    between atoms: N4_19  and  C13_21 
REMARK    3  A    between atoms: C17_27  and  C18_28 
REMARK    4  A    between atoms: C18_28  and  N6_29 
ROOT
HETATM    1  N1  UNL     1      -2.892  -0.470   1.816  1.00  0.00    -0.191 NA
HETATM    2  C1  UNL     1      -3.067  -0.390   0.645  1.00  0.00     0.102 C 
HETATM    3  C2  UNL     1      -3.293  -0.330  -0.819  1.00  0.00     0.078 A 
HETATM    4  C3  UNL     1      -4.549  -0.048  -1.312  1.00  0.00     0.031 A 
HETATM    5  S1  UNL     1      -4.330  -0.144  -2.987  1.00  0.00    -0.070 SA
HETATM    6  C10 UNL     1      -2.648  -0.537  -3.042  1.00  0.00     0.091 A 
HETATM    7  N2  UNL     1      -1.798  -0.804  -4.078  1.00  0.00    -0.346 N 
ATOM      8  H2  UNL     1      -2.128  -0.741  -5.041  1.00  0.00     0.167 HD
HETATM    9  C11 UNL     1      -0.512  -1.153  -3.819  1.00  0.00     0.182 A 
HETATM   10  N3  UNL     1      -0.191  -1.208  -2.533  1.00  0.00    -0.338 N 
ATOM     11  H3  UNL     1       0.774  -1.472  -2.335  1.00  0.00     0.168 HD
HETATM   12  C12 UNL     1      -0.949  -0.968  -1.460  1.00  0.00     0.122 A 
HETATM   13  N4  UNL     1      -0.624  -1.188  -0.285  1.00  0.00    -0.327 N 
ATOM     14  H4  UNL     1      -1.394  -0.905   0.321  1.00  0.00     0.169 HD
HETATM   15  C26 UNL     1      -2.320  -0.584  -1.726  1.00  0.00     0.064 A 
ENDROOT
BRANCH   4  16
HETATM   16  C4  UNL     1      -5.810   0.401  -0.607  1.00  0.00    -0.061 C 
HETATM   17  C5  UNL     1      -6.788  -0.727  -0.510  1.00  0.00     0.036 C 
HETATM   18  C6  UNL     1      -7.654  -0.702   0.694  1.00  0.00     0.004 C 
HETATM   19  C7  UNL     1      -6.947  -0.118   1.867  1.00  0.00     0.001 C 
HETATM   20  C8  UNL     1      -6.448   1.280   1.660  1.00  0.00     0.004 C 
HETATM   21  C9  UNL     1      -5.686   1.449   0.382  1.00  0.00     0.036 C 
ENDBRANCH   4  16
BRANCH  13  22
HETATM   22  C13 UNL     1       0.395  -1.674   0.505  1.00  0.00     0.117 A 
HETATM   23  N5  UNL     1       0.031  -2.872   1.144  1.00  0.00    -0.352 N 
HETATM   24  C14 UNL     1       0.850  -3.539   1.936  1.00  0.00     0.090 A 
ATOM     25  H5  UNL     1      -0.907  -3.242   0.989  1.00  0.00     0.166 HD
HETATM   26  C15 UNL     1       2.130  -3.062   2.168  1.00  0.00     0.018 A 
HETATM   27  C16 UNL     1       2.486  -1.886   1.543  1.00  0.00     0.017 A 
HETATM   28  C17 UNL     1       1.632  -1.182   0.708  1.00  0.00     0.018 A 
BRANCH  28  29
HETATM   29  C18 UNL     1       2.046   0.126   0.137  1.00  0.00     0.074 C 
BRANCH  29  30
HETATM   30  N6  UNL     1       3.407   0.389   0.338  1.00  0.00    -0.287 NA
HETATM   31  C19 UNL     1       4.257  -0.381  -0.558  1.00  0.00     0.128 C 
HETATM   32  C20 UNL     1       5.482   0.409  -0.551  1.00  0.00     0.209 C 
HETATM   33  C21 UNL     1       6.773   0.112  -1.100  1.00  0.00     0.137 C 
HETATM   34  N8  UNL     1       5.749   0.660   0.883  1.00  0.00    -0.058 N 
HETATM   35  C22 UNL     1       7.495   1.439  -0.901  1.00  0.00     0.224 C 
HETATM   36  O1  UNL     1       8.706   1.376  -1.144  1.00  0.00    -0.273 OA
HETATM   37  N7  UNL     1       7.005   2.714  -0.489  1.00  0.00    -0.323 N 
HETATM   38  C23 UNL     1       6.002   2.890   0.355  1.00  0.00     0.092 C 
ATOM     39  H7  UNL     1       7.458   3.544  -0.870  1.00  0.00     0.169 HD
HETATM   40  S2  UNL     1       5.603   4.618   0.698  1.00  0.00    -0.035 SA
HETATM   41  C24 UNL     1       5.132   1.956   1.103  1.00  0.00     0.257 C 
HETATM   42  C25 UNL     1       3.729   1.763   0.497  1.00  0.00     0.135 C 
ATOM     43  H82 UNL     1       5.430  -0.077   1.512  1.00  0.00     0.278 HD
ATOM     44  H81 UNL     1       6.732   0.604   1.151  1.00  0.00     0.278 HD
ENDBRANCH  29  30
ENDBRANCH  28  29
ENDBRANCH  13  22
TORSDOF 4
