REMARK  5 active torsions:
REMARK  status: ('A' for Active; 'I' for Inactive)
REMARK    1  A    between atoms: C2_2  and  N1_4 
REMARK    2  A    between atoms: N1_4  and  C4_6 
REMARK    3  A    between atoms: N7_22  and  C10_23 
REMARK    4  A    between atoms: N8_26  and  C13_27 
REMARK    5  A    between atoms: N9_30  and  C16_31 
ROOT
HETATM    1  C4  UNL     1      -7.133  -0.881  -0.271  1.00  0.00     0.132 A 
HETATM    2  N2  UNL     1      -6.860  -1.870  -1.179  1.00  0.00    -0.337 N 
ATOM      3  H2  UNL     1      -7.623  -2.457  -1.515  1.00  0.00     0.168 HD
HETATM    4  C5  UNL     1      -5.623  -2.089  -1.638  1.00  0.00     0.182 A 
HETATM    5  N3  UNL     1      -4.556  -1.362  -1.248  1.00  0.00    -0.348 N 
ATOM      6  H3  UNL     1      -3.626  -1.557  -1.618  1.00  0.00     0.167 HD
HETATM    7  C6  UNL     1      -4.749  -0.390  -0.373  1.00  0.00     0.095 A 
HETATM    8  C7  UNL     1      -6.041  -0.146   0.119  1.00  0.00     0.106 A 
HETATM    9  N4  UNL     1      -6.208   0.842   1.005  1.00  0.00    -0.359 N 
ATOM     10  H4  UNL     1      -7.139   1.035   1.375  1.00  0.00     0.165 HD
HETATM   11  C8  UNL     1      -5.169   1.581   1.412  1.00  0.00     0.122 A 
HETATM   12  C9  UNL     1      -3.884   1.364   0.946  1.00  0.00     0.095 A 
HETATM   13  N5  UNL     1      -2.691   1.924   1.167  1.00  0.00    -0.283 N 
ATOM     14  H5  UNL     1      -2.505   2.704   1.797  1.00  0.00     0.188 HD
HETATM   15  N6  UNL     1      -1.804   1.301   0.438  1.00  0.00    -0.239 N 
ATOM     16  H6  UNL     1      -0.810   1.530   0.419  1.00  0.00     0.208 HD
HETATM   17  N7  UNL     1      -2.371   0.319  -0.283  1.00  0.00    -0.269 N 
HETATM   18  C29 UNL     1      -3.673   0.354   0.031  1.00  0.00     0.111 A 
ENDROOT
BRANCH  17  19
HETATM   19  C10 UNL     1      -1.648  -0.528  -1.172  1.00  0.00     0.113 C 
HETATM   20  C11 UNL     1      -0.518   0.334  -1.776  1.00  0.00     0.057 C 
HETATM   21  C12 UNL     1       0.606  -0.603  -2.147  1.00  0.00     0.275 C 
HETATM   22  N8  UNL     1       1.363  -0.953  -0.969  1.00  0.00     0.093 N 
HETATM   23  C27 UNL     1       0.433  -1.075   0.143  1.00  0.00     0.275 C 
HETATM   24  C28 UNL     1      -0.927  -1.584  -0.360  1.00  0.00     0.057 C 
BRANCH  22  25
HETATM   25  C13 UNL     1       2.422  -0.010  -0.669  1.00  0.00     0.226 C 
HETATM   26  C14 UNL     1       3.148  -0.548   0.548  1.00  0.00     0.055 C 
HETATM   27  C15 UNL     1       4.318   0.301   0.956  1.00  0.00     0.125 C 
HETATM   28  N9  UNL     1       5.221   0.349  -0.186  1.00  0.00    -0.380 N 
HETATM   29  C25 UNL     1       4.623   0.882  -1.409  1.00  0.00     0.125 C 
HETATM   30  C26 UNL     1       3.369   0.150  -1.808  1.00  0.00     0.055 C 
BRANCH  28  31
HETATM   31  C16 UNL     1       6.571  -0.076  -0.152  1.00  0.00     0.044 A 
HETATM   32  C17 UNL     1       6.941  -1.180  -0.915  1.00  0.00     0.047 A 
HETATM   33  C18 UNL     1       8.231  -1.651  -0.914  1.00  0.00     0.090 A 
HETATM   34  N10 UNL     1       9.190  -1.070  -0.179  1.00  0.00    -0.365 N 
HETATM   35  C19 UNL     1       8.860  -0.001   0.568  1.00  0.00     0.044 A 
ATOM     36  H10 UNL     1      10.145  -1.429  -0.186  1.00  0.00     0.165 HD
HETATM   37  C20 UNL     1       9.860   0.599   1.323  1.00  0.00     0.030 A 
HETATM   38  C24 UNL     1       7.566   0.510   0.596  1.00  0.00     0.017 A 
HETATM   39  C21 UNL     1       9.554   1.695   2.093  1.00  0.00     0.002 A 
HETATM   40  C22 UNL     1       8.271   2.191   2.112  1.00  0.00     0.001 A 
HETATM   41  C23 UNL     1       7.259   1.607   1.365  1.00  0.00     0.016 A 
ENDBRANCH  28  31
ENDBRANCH  22  25
ENDBRANCH  17  19
BRANCH   1  42
HETATM   42  N1  UNL     1      -8.324  -0.753   0.099  1.00  0.00    -0.370 N 
ATOM     43  H1  UNL     1      -8.942  -1.431  -0.347  1.00  0.00     0.161 HD
BRANCH  42  44
HETATM   44  C2  UNL     1      -9.012   0.096   0.977  1.00  0.00     0.075 C 
HETATM   45  C1  UNL     1      -9.293   1.417   0.274  1.00  0.00     0.031 C 
HETATM   46  C3  UNL     1     -10.373  -0.491   1.384  1.00  0.00     0.031 C 
ENDBRANCH  42  44
ENDBRANCH   1  42
TORSDOF 5
