REMARK  4 active torsions:
REMARK  status: ('A' for Active; 'I' for Inactive)
REMARK    1  A    between atoms: C4_5  and  C5_6 
REMARK    2  A    between atoms: C5_6  and  N1_7 
REMARK    3  A    between atoms: N1_7  and  C6_9 
REMARK    4  A    between atoms: C19_29  and  N4_30 
ROOT
HETATM    1  C6  UNL     1       4.660   0.733   0.966  1.00  0.00     0.046 A 
HETATM    2  C7  UNL     1       3.937  -0.272   1.589  1.00  0.00     0.117 A 
HETATM    3  N2  UNL     1       2.618  -0.095   1.775  1.00  0.00    -0.365 N 
ATOM      4  H2  UNL     1       2.089  -0.837   2.234  1.00  0.00     0.165 HD
HETATM    5  C8  UNL     1       1.952   1.029   1.380  1.00  0.00     0.043 A 
HETATM    6  C9  UNL     1       2.616   2.063   0.756  1.00  0.00     0.093 A 
HETATM    7  C10 UNL     1       3.981   1.878   0.564  1.00  0.00     0.069 A 
HETATM    8  O2  UNL     1       1.980   3.217   0.340  1.00  0.00    -0.349 OA
HETATM    9  C11 UNL     1       1.129   4.050   1.059  1.00  0.00     0.176 C 
HETATM   10  C12 UNL     1      -0.044   4.586   0.297  1.00  0.00     0.029 C 
HETATM   11  C13 UNL     1       0.169   4.806  -1.155  1.00  0.00     0.029 C 
HETATM   12  C14 UNL     1      -1.127   4.449  -1.905  1.00  0.00     0.180 C 
HETATM   13  O3  UNL     1      -2.253   4.856  -1.255  1.00  0.00    -0.304 OA
HETATM   14  C15 UNL     1      -3.330   4.233  -0.704  1.00  0.00     0.360 C 
HETATM   15  O4  UNL     1      -3.671   4.609   0.456  1.00  0.00    -0.239 OA
HETATM   16  N3  UNL     1      -4.132   3.208  -1.261  1.00  0.00    -0.337 N 
ATOM     17  H3  UNL     1      -5.141   3.293  -1.142  1.00  0.00     0.164 HD
HETATM   18  C16 UNL     1      -3.649   2.049  -1.985  1.00  0.00     0.125 C 
HETATM   19  C17 UNL     1      -2.839   1.122  -1.117  1.00  0.00     0.022 C 
HETATM   20  C18 UNL     1      -3.701   0.162  -0.326  1.00  0.00     0.027 C 
HETATM   21  C19 UNL     1      -3.080  -1.186  -0.412  1.00  0.00     0.083 C 
HETATM   22  C25 UNL     1      -1.724  -1.267   0.215  1.00  0.00     0.025 C 
HETATM   23  C26 UNL     1      -1.513  -0.491   1.459  1.00  0.00     0.002 C 
HETATM   24  C27 UNL     1      -0.027  -0.423   1.741  1.00  0.00     0.006 C 
HETATM   25  C28 UNL     1       0.499   1.009   1.682  1.00  0.00     0.060 C 
ENDROOT
BRANCH   1  26
HETATM   26  N1  UNL     1       6.057   0.606   0.725  1.00  0.00    -0.386 N 
ATOM     27  H1  UNL     1       6.589   1.427   0.436  1.00  0.00     0.159 HD
BRANCH  26  28
HETATM   28  C5  UNL     1       6.732  -0.645   0.878  1.00  0.00     0.154 C 
BRANCH  28  29
HETATM   29  C4  UNL     1       6.309  -1.676  -0.143  1.00  0.00     0.166 C 
HETATM   30  C3  UNL     1       6.772  -1.296  -1.536  1.00  0.00     0.204 C 
HETATM   31  O1  UNL     1       7.987  -1.928  -1.685  1.00  0.00    -0.359 OA
HETATM   32  C2  UNL     1       8.201  -2.693  -0.558  1.00  0.00     0.256 C 
HETATM   33  C1  UNL     1       8.826  -3.995  -1.010  1.00  0.00     0.070 C 
HETATM   34  O5  UNL     1       6.979  -2.877   0.046  1.00  0.00    -0.353 OA
ENDBRANCH  28  29
ENDBRANCH  26  28
ENDBRANCH   1  26
BRANCH  21  35
HETATM   35  N4  UNL     1      -3.917  -2.291  -0.053  1.00  0.00    -0.385 N 
HETATM   36  C20 UNL     1      -5.036  -2.414  -0.926  1.00  0.00     0.152 C 
HETATM   37  C21 UNL     1      -6.298  -2.128  -0.165  1.00  0.00     0.292 C 
HETATM   38  N5  UNL     1      -6.457  -3.184   0.810  1.00  0.00     0.090 N 
HETATM   39  C22 UNL     1      -6.958  -4.411   0.276  1.00  0.00     0.310 C 
HETATM   40  C23 UNL     1      -5.327  -3.321   1.677  1.00  0.00     0.316 C 
HETATM   41  C24 UNL     1      -4.143  -2.485   1.322  1.00  0.00     0.088 C 
ENDBRANCH  21  35
TORSDOF 4
