REMARK  5 active torsions:
REMARK  status: ('A' for Active; 'I' for Inactive)
REMARK    1  A    between atoms: N2_5  and  C4_6 
REMARK    2  A    between atoms: C7_9  and  N3_10 
REMARK    3  A    between atoms: N3_10  and  C8_12 
REMARK    4  A    between atoms: C11_18  and  C12_19 
REMARK    5  A    between atoms: N8_33  and  C21_34 
ROOT
HETATM    1  C4  UNL     1      -0.755  -0.157  -1.173  1.00  0.00     0.030 A 
HETATM    2  C5  UNL     1       0.025  -1.096  -0.468  1.00  0.00     0.031 A 
HETATM    3  C6  UNL     1       1.218  -0.739   0.105  1.00  0.00     0.032 A 
HETATM    4  C7  UNL     1       1.743   0.528   0.043  1.00  0.00     0.033 A 
HETATM    5  C17 UNL     1       0.971   1.462  -0.655  1.00  0.00     0.032 A 
HETATM    6  C18 UNL     1      -0.234   1.112  -1.236  1.00  0.00     0.031 A 
ENDROOT
BRANCH   1   7
HETATM    7  N2  UNL     1      -1.973  -0.565  -1.757  1.00  0.00    -0.378 N 
HETATM    8  C3  UNL     1      -2.407  -1.923  -1.439  1.00  0.00     0.144 C 
HETATM    9  C2  UNL     1      -3.720  -2.245  -2.090  1.00  0.00     0.162 C 
HETATM   10  N1  UNL     1      -4.846  -1.532  -1.607  1.00  0.00    -0.314 N 
HETATM   11  C1  UNL     1      -6.075  -1.870  -2.286  1.00  0.00     0.171 C 
HETATM   12  N8  UNL     1      -4.699  -0.192  -1.362  1.00  0.00    -0.125 N 
HETATM   13  C20 UNL     1      -3.918   0.898  -1.928  1.00  0.00     0.187 C 
HETATM   14  C19 UNL     1      -2.659   0.369  -2.595  1.00  0.00     0.145 C 
BRANCH  12  15
HETATM   15  C21 UNL     1      -5.538   0.262  -0.277  1.00  0.00     0.700 A 
HETATM   16  N9  UNL     1      -5.262   0.073   1.019  1.00  0.00    -0.188 N 
HETATM   17  C22 UNL     1      -6.241   0.624   1.768  1.00  0.00     0.076 A 
ATOM     18  H9  UNL     1      -4.441  -0.411   1.383  1.00  0.00     0.184 HD
HETATM   19  C23 UNL     1      -6.469   0.724   3.120  1.00  0.00     0.032 A 
HETATM   20  C27 UNL     1      -7.159   1.174   0.908  1.00  0.00     0.076 A 
HETATM   21  C24 UNL     1      -7.576   1.354   3.610  1.00  0.00     0.002 A 
HETATM   22  C25 UNL     1      -8.485   1.901   2.728  1.00  0.00     0.002 A 
HETATM   23  C26 UNL     1      -8.269   1.806   1.385  1.00  0.00     0.032 A 
HETATM   24  N10 UNL     1      -6.697   0.934  -0.344  1.00  0.00    -0.188 N 
ATOM     25  H10 UNL     1      -7.161   1.221  -1.206  1.00  0.00     0.184 HD
ENDBRANCH  12  15
ENDBRANCH   1   7
BRANCH   4  26
HETATM   26  N3  UNL     1       2.960   0.904   0.615  1.00  0.00    -0.342 N 
ATOM     27  H3  UNL     1       2.908   1.709   1.239  1.00  0.00     0.167 HD
BRANCH  26  28
HETATM   28  C8  UNL     1       4.120   0.407   0.484  1.00  0.00     0.122 A 
HETATM   29  C9  UNL     1       4.369  -0.679  -0.319  1.00  0.00     0.069 A 
HETATM   30  C10 UNL     1       5.662  -1.207  -0.445  1.00  0.00     0.139 A 
HETATM   31  N4  UNL     1       6.678  -0.650   0.225  1.00  0.00    -0.096 N 
HETATM   32  N5  UNL     1       7.979  -0.909   0.312  1.00  0.00    -0.263 N 
HETATM   33  C16 UNL     1       6.442   0.409   1.009  1.00  0.00     0.706 A 
HETATM   34  C11 UNL     1       8.556  -0.035   1.133  1.00  0.00     0.153 A 
ATOM     35  H5  UNL     1       8.462  -1.663  -0.176  1.00  0.00     0.190 HD
HETATM   36  N6  UNL     1       7.621   0.774   1.563  1.00  0.00    -0.172 N 
ATOM     37  H6  UNL     1       7.759   1.551   2.209  1.00  0.00     0.186 HD
HETATM   38  N7  UNL     1       5.181   0.920   1.130  1.00  0.00    -0.175 N 
ATOM     39  H7  UNL     1       5.038   1.727   1.738  1.00  0.00     0.186 HD
BRANCH  34  40
HETATM   40  C12 UNL     1       9.979   0.018   1.501  1.00  0.00     0.050 A 
HETATM   41  C13 UNL     1      10.602   0.918   2.331  1.00  0.00     0.023 A 
HETATM   42  C14 UNL     1      11.919   0.766   2.524  1.00  0.00     0.009 A 
HETATM   43  C15 UNL     1      12.537  -0.271   1.881  1.00  0.00     0.050 A 
HETATM   44  S1  UNL     1      11.260  -1.005   1.024  1.00  0.00    -0.098 SA
ENDBRANCH  34  40
ENDBRANCH  26  28
ENDBRANCH   4  26
TORSDOF 5
