REMARK  9 active torsions:
REMARK  status: ('A' for Active; 'I' for Inactive)
REMARK    1  A    between atoms: C4_4  and  C5_5 
REMARK    2  A    between atoms: C5_5  and  C6_6 
REMARK    3  A    between atoms: C6_6  and  C7_7 
REMARK    4  A    between atoms: C7_7  and  C9_9 
REMARK    5  A    between atoms: C9_9  and  C11_11 
REMARK    6  A    between atoms: C12_12  and  C13_13 
REMARK    7  A    between atoms: C14_14  and  C15_15 
REMARK    8  A    between atoms: C16_16  and  C17_17 
REMARK    9  A    between atoms: N5_32  and  O1_34 
ROOT
HETATM    1  C17 UNL     1       4.005  -0.096   0.289  1.00  0.00     0.056 C 
HETATM    2  C18 UNL     1       5.228   0.237   0.641  1.00  0.00     0.151 A 
HETATM    3  N1  UNL     1       5.826   1.468   0.324  1.00  0.00    -0.321 N 
ATOM      4  H1  UNL     1       5.321   2.176  -0.209  1.00  0.00     0.169 HD
HETATM    5  C19 UNL     1       7.174   1.698   0.775  1.00  0.00     0.140 A 
HETATM    6  N2  UNL     1       7.964   2.770   0.609  1.00  0.00    -0.283 N 
ATOM      7  H2  UNL     1       7.713   3.625   0.113  1.00  0.00     0.188 HD
HETATM    8  N3  UNL     1       9.133   2.528   1.203  1.00  0.00    -0.283 N 
ATOM      9  H3  UNL     1       9.920   3.176   1.231  1.00  0.00     0.188 HD
HETATM   10  C20 UNL     1       9.121   1.304   1.759  1.00  0.00     0.132 A 
HETATM   11  N4  UNL     1      10.085   0.748   2.413  1.00  0.00    -0.384 N 
ATOM     12  H41 UNL     1      10.076  -0.181   2.835  1.00  0.00     0.157 HD
ATOM     13  H42 UNL     1      11.002   1.150   2.607  1.00  0.00     0.157 HD
HETATM   14  C21 UNL     1       7.881   0.760   1.497  1.00  0.00     0.107 A 
HETATM   15  C22 UNL     1       7.252  -0.514   1.822  1.00  0.00     0.187 A 
HETATM   16  N5  UNL     1       7.902  -1.402   2.497  1.00  0.00    -0.246 N 
ATOM     17  H5  UNL     1       8.855  -1.194   2.794  1.00  0.00     0.196 HD
HETATM   18  O2  UNL     1       5.958  -0.724   1.383  1.00  0.00    -0.274 OA
ENDROOT
BRANCH   1  19
HETATM   19  C16 UNL     1       3.162   0.781  -0.462  1.00  0.00     0.004 C 
HETATM   20  C15 UNL     1       1.926   0.428  -0.810  1.00  0.00     0.000 C 
BRANCH  20  21
HETATM   21  C14 UNL     1       1.329  -0.839  -0.476  1.00  0.00     0.000 C 
HETATM   22  C13 UNL     1       0.108  -1.138  -0.844  1.00  0.00    -0.000 C 
BRANCH  22  23
HETATM   23  C12 UNL     1      -0.767  -0.292  -1.592  1.00  0.00    -0.004 C 
HETATM   24  C11 UNL     1      -2.003  -0.602  -1.961  1.00  0.00    -0.022 C 
BRANCH  24  25
HETATM   25  C9  UNL     1      -2.678  -1.865  -1.661  1.00  0.00     0.008 C 
HETATM   26  C10 UNL     1      -3.052  -2.545  -2.964  1.00  0.00     0.014 C 
BRANCH  25  27
HETATM   27  C7  UNL     1      -3.910  -1.597  -0.813  1.00  0.00    -0.011 C 
HETATM   28  C8  UNL     1      -4.619  -2.895  -0.466  1.00  0.00     0.010 C 
BRANCH  27  29
HETATM   29  C6  UNL     1      -4.894  -0.714  -1.502  1.00  0.00     0.009 C 
BRANCH  29  30
HETATM   30  C5  UNL     1      -6.057  -0.456  -0.578  1.00  0.00     0.028 C 
BRANCH  30  31
HETATM   31  C4  UNL     1      -5.667   0.210   0.682  1.00  0.00    -0.025 C 
HETATM   32  C2  UNL     1      -6.149   1.406   1.021  1.00  0.00    -0.091 C 
HETATM   33  C1  UNL     1      -7.102   2.058   0.083  1.00  0.00     0.042 C 
HETATM   34  C3  UNL     1      -5.781   2.097   2.270  1.00  0.00     0.042 C 
ENDBRANCH  30  31
ENDBRANCH  29  30
ENDBRANCH  27  29
ENDBRANCH  25  27
ENDBRANCH  24  25
ENDBRANCH  22  23
ENDBRANCH  20  21
ENDBRANCH   1  19
BRANCH  16  35
HETATM   35  O1  UNL     1       7.355  -2.618   2.829  1.00  0.00    -0.288 OA
ATOM     36  H1  UNL     1       7.833  -3.271   3.326  1.00  0.00     0.244 HD
ENDBRANCH  16  35
TORSDOF 9
