REMARK  4 active torsions:
REMARK  status: ('A' for Active; 'I' for Inactive)
REMARK    1  A    between atoms: C5_8  and  C6_9 
REMARK    2  A    between atoms: C6_9  and  O2_10 
REMARK    3  A    between atoms: C6_9  and  C7_12 
REMARK    4  A    between atoms: C13_20  and  C14_21 
ROOT
HETATM    1  C1  UNL     1       4.040   1.728  -0.210  1.00  0.00     0.040 C 
HETATM    2  C2  UNL     1       2.759   0.954   0.141  1.00  0.00     0.049 C 
HETATM    3  C3  UNL     1       3.016   0.154   1.366  1.00  0.00     0.040 C 
HETATM    4  N1  UNL     1       1.682   1.936   0.303  1.00  0.00    -0.348 N 
ATOM      5  H1  UNL     1       1.858   2.857   0.706  1.00  0.00     0.163 HD
HETATM    6  C4  UNL     1       0.362   1.544  -0.132  1.00  0.00     0.243 C 
HETATM    7  O1  UNL     1      -0.367   2.519  -0.438  1.00  0.00    -0.271 OA
HETATM    8  C5  UNL     1       0.106   0.132  -0.145  1.00  0.00     0.199 C 
HETATM    9  N2  UNL     1       1.104  -0.458  -1.067  1.00  0.00    -0.397 N 
ATOM     10  H2  UNL     1       0.887  -1.255  -1.665  1.00  0.00     0.154 HD
HETATM   11  C13 UNL     1       2.371   0.154  -1.063  1.00  0.00     0.138 C 
ENDROOT
BRANCH   8  12
HETATM   12  C6  UNL     1      -1.179  -0.469  -0.439  1.00  0.00     0.153 C 
BRANCH  12  13
HETATM   13  O2  UNL     1      -1.562  -0.173  -1.773  1.00  0.00    -0.393 OA
ATOM     14  H2  UNL     1      -2.405  -0.567  -1.966  1.00  0.00     0.210 HD
ENDBRANCH  12  13
BRANCH  12  15
HETATM   15  C7  UNL     1      -2.361  -0.357   0.415  1.00  0.00     0.017 C 
HETATM   16  C8  UNL     1      -3.513  -1.169  -0.245  1.00  0.00     0.007 C 
HETATM   17  C9  UNL     1      -4.566  -1.476   0.797  1.00  0.00     0.000 C 
HETATM   18  C10 UNL     1      -4.642  -0.289   1.757  1.00  0.00     0.000 C 
HETATM   19  C11 UNL     1      -4.464   0.948   0.921  1.00  0.00     0.000 C 
HETATM   20  C12 UNL     1      -2.981   1.024   0.537  1.00  0.00     0.007 C 
ENDBRANCH  12  15
ENDBRANCH   8  12
BRANCH  11  21
HETATM   21  C14 UNL     1       3.398  -0.867  -1.427  1.00  0.00    -0.010 A 
HETATM   22  C15 UNL     1       3.342  -2.183  -1.499  1.00  0.00     0.142 A 
HETATM   23  O3  UNL     1       4.670  -2.221  -1.884  1.00  0.00    -0.358 OA
HETATM   24  C16 UNL     1       4.819  -0.823  -1.829  1.00  0.00     0.212 A 
ENDBRANCH  11  21
TORSDOF 4
