REMARK  5 active torsions:
REMARK  status: ('A' for Active; 'I' for Inactive)
REMARK    1  A    between atoms: C2_2  and  N1_4 
REMARK    2  A    between atoms: N1_4  and  C4_6 
REMARK    3  A    between atoms: C4_6  and  N2_8 
REMARK    4  A    between atoms: N2_8  and  O1_10 
REMARK    5  A    between atoms: O1_10  and  C5_11 
ROOT
HETATM    1  C5  UNL     1      -1.302  -0.551   0.016  1.00  0.00     0.191 C 
HETATM    2  C6  UNL     1      -1.582  -1.945   0.495  1.00  0.00     0.038 C 
HETATM    3  C7  UNL     1      -2.522  -2.594  -0.492  1.00  0.00     0.003 C 
HETATM    4  C8  UNL     1      -3.799  -1.823  -0.545  1.00  0.00     0.004 C 
HETATM    5  C9  UNL     1      -3.802  -0.570   0.271  1.00  0.00     0.045 C 
HETATM    6  C10 UNL     1      -2.570   0.272   0.101  1.00  0.00     0.107 C 
HETATM    7  N3  UNL     1      -2.624   1.172  -0.962  1.00  0.00    -0.381 N 
ATOM      8  H3  UNL     1      -2.539   0.859  -1.929  1.00  0.00     0.160 HD
HETATM    9  C11 UNL     1      -2.796   2.496  -0.651  1.00  0.00     0.067 C 
HETATM   10  C12 UNL     1      -2.420   2.882   0.718  1.00  0.00     0.120 C 
HETATM   11  S2  UNL     1      -2.417   1.299   1.608  1.00  0.00    -0.130 SA
ENDROOT
BRANCH   1  12
HETATM   12  O1  UNL     1      -0.272  -0.015   0.783  1.00  0.00    -0.269 OA
BRANCH  12  13
HETATM   13  N2  UNL     1       0.814   0.281   0.029  1.00  0.00    -0.241 N 
ATOM     14  H2  UNL     1       0.687   0.850  -0.808  1.00  0.00     0.197 HD
BRANCH  13  15
HETATM   15  C4  UNL     1       2.118  -0.165   0.353  1.00  0.00     0.192 C 
HETATM   16  S1  UNL     1       2.315  -1.072   1.690  1.00  0.00    -0.039 SA
BRANCH  15  17
HETATM   17  N1  UNL     1       3.202   0.175  -0.466  1.00  0.00    -0.362 N 
ATOM     18  H1  UNL     1       3.017   0.747  -1.290  1.00  0.00     0.162 HD
BRANCH  17  19
HETATM   19  C2  UNL     1       4.564  -0.232  -0.218  1.00  0.00     0.076 C 
HETATM   20  C1  UNL     1       5.447   0.315  -1.300  1.00  0.00     0.032 C 
HETATM   21  C3  UNL     1       5.040   0.132   1.162  1.00  0.00     0.032 C 
ENDBRANCH  17  19
ENDBRANCH  15  17
ENDBRANCH  13  15
ENDBRANCH  12  13
ENDBRANCH   1  12
TORSDOF 5
