REMARK  6 active torsions:
REMARK  status: ('A' for Active; 'I' for Inactive)
REMARK    1  A    between atoms: C3_6  and  C4_7 
REMARK    2  A    between atoms: C4_7  and  C5_8 
REMARK    3  A    between atoms: C5_8  and  O2_9 
REMARK    4  A    between atoms: N4_18  and  C8_20 
REMARK    5  A    between atoms: C8_20  and  C9_21 
REMARK    6  A    between atoms: C8_20  and  C14_26 
ROOT
HETATM    1  O1  UNL     1       1.369   1.852  -1.894  1.00  0.00    -0.264 OA
HETATM    2  C1  UNL     1       1.592   0.851  -1.124  1.00  0.00     0.290 A 
HETATM    3  N1  UNL     1       2.867   0.537  -0.833  1.00  0.00    -0.316 N 
ATOM      4  H1  UNL     1       3.612   1.105  -1.235  1.00  0.00     0.169 HD
HETATM    5  C2  UNL     1       3.210  -0.513  -0.020  1.00  0.00     0.095 A 
HETATM    6  C3  UNL     1       4.478  -0.908   0.318  1.00  0.00     0.032 A 
HETATM    7  S1  UNL     1       4.169  -2.279   1.329  1.00  0.00    -0.015 SA
HETATM    8  N2  UNL     1       2.499  -2.315   1.301  1.00  0.00    -0.310 N 
ATOM      9  H2  UNL     1       1.883  -2.976   1.774  1.00  0.00     0.176 HD
HETATM   10  C6  UNL     1       2.148  -1.284   0.521  1.00  0.00     0.141 A 
HETATM   11  N3  UNL     1       0.866  -0.924   0.195  1.00  0.00    -0.322 N 
ATOM     12  H3  UNL     1       0.098  -1.474   0.581  1.00  0.00     0.169 HD
HETATM   13  C7  UNL     1       0.566   0.106  -0.600  1.00  0.00     0.172 A 
HETATM   14  N4  UNL     1      -0.639   0.445  -0.905  1.00  0.00    -0.366 N 
ATOM     15  H4  UNL     1      -0.808   1.243  -1.517  1.00  0.00     0.161 HD
ENDROOT
BRANCH  14  16
HETATM   16  C8  UNL     1      -1.792  -0.343  -0.354  1.00  0.00     0.091 C 
BRANCH  16  17
HETATM   17  C9  UNL     1      -2.907   0.641  -0.391  1.00  0.00     0.009 C 
HETATM   18  C10 UNL     1      -2.454   1.830   0.479  1.00  0.00     0.007 C 
HETATM   19  C11 UNL     1      -3.598   2.284   1.295  1.00  0.00     0.000 C 
HETATM   20  C12 UNL     1      -4.795   1.601   0.741  1.00  0.00     0.000 C 
HETATM   21  C13 UNL     1      -4.178   0.254   0.309  1.00  0.00     0.007 C 
ENDBRANCH  16  17
BRANCH  16  22
HETATM   22  C14 UNL     1      -1.913  -1.585  -1.126  1.00  0.00     0.009 A 
HETATM   23  C15 UNL     1      -3.016  -2.574  -0.736  1.00  0.00     0.007 A 
HETATM   24  C16 UNL     1      -2.953  -1.896  -2.105  1.00  0.00     0.007 A 
ENDBRANCH  16  22
ENDBRANCH  14  16
BRANCH   6  25
HETATM   25  C4  UNL     1       5.817  -0.350  -0.004  1.00  0.00     0.076 C 
BRANCH  25  26
HETATM   26  C5  UNL     1       6.203   0.776   0.892  1.00  0.00     0.169 C 
BRANCH  26  27
HETATM   27  O2  UNL     1       5.311   1.810   0.811  1.00  0.00    -0.401 OA
ATOM     28  H2  UNL     1       5.557   2.528   1.382  1.00  0.00     0.209 HD
ENDBRANCH  26  27
ENDBRANCH  25  26
ENDBRANCH   6  25
TORSDOF 6
