REMARK  7 active torsions:
REMARK  status: ('A' for Active; 'I' for Inactive)
REMARK    1  A    between atoms: C2_2  and  C3_3 
REMARK    2  A    between atoms: C3_3  and  C4_4 
REMARK    3  A    between atoms: C4_4  and  O1_5 
REMARK    4  A    between atoms: O1_5  and  C5_6 
REMARK    5  A    between atoms: C12_17  and  O4_18 
REMARK    6  A    between atoms: C12_17  and  C13_20 
REMARK    7  A    between atoms: C13_20  and  O5_21 
ROOT
HETATM    1  C5  UNL     1       0.441   0.124   0.075  1.00  0.00     0.138 C 
HETATM    2  C6  UNL     1      -0.435  -0.155  -1.115  1.00  0.00     0.056 C 
HETATM    3  C7  UNL     1       0.074  -1.559  -1.485  1.00  0.00     0.051 C 
HETATM    4  C8  UNL     1       0.148  -2.155  -0.069  1.00  0.00     0.098 C 
HETATM    5  C9  UNL     1      -0.616  -3.423   0.074  1.00  0.00     0.164 C 
HETATM    6  N1  UNL     1       0.320  -4.440   0.499  1.00  0.00    -0.334 N 
ATOM      7  H1  UNL     1       0.090  -5.379   0.823  1.00  0.00     0.164 HD
HETATM    8  C10 UNL     1       1.618  -3.883   0.380  1.00  0.00     0.361 C 
HETATM    9  O2  UNL     1       2.750  -4.428   0.344  1.00  0.00    -0.238 OA
HETATM   10  O3  UNL     1       1.440  -2.514   0.300  1.00  0.00    -0.290 OA
HETATM   11  C11 UNL     1      -0.416  -0.985   0.705  1.00  0.00     0.090 C 
HETATM   12  C12 UNL     1      -1.529  -0.534  -0.159  1.00  0.00     0.103 C 
ENDROOT
BRANCH  12  13
HETATM   13  O4  UNL     1      -2.209  -1.639  -0.738  1.00  0.00    -0.386 OA
ATOM     14  H4  UNL     1      -2.901  -1.879  -0.133  1.00  0.00     0.210 HD
ENDBRANCH  12  13
BRANCH  12  15
HETATM   15  C13 UNL     1      -2.523   0.436   0.281  1.00  0.00     0.090 C 
HETATM   16  C14 UNL     1      -2.110   1.697   0.925  1.00  0.00     0.041 C 
HETATM   17  C15 UNL     1      -3.381   2.404   1.419  1.00  0.00     0.003 C 
HETATM   18  C16 UNL     1      -4.053   2.974   0.181  1.00  0.00     0.000 C 
HETATM   19  C17 UNL     1      -3.559   2.285  -1.075  1.00  0.00     0.003 C 
HETATM   20  C18 UNL     1      -3.457   0.788  -0.872  1.00  0.00     0.041 C 
BRANCH  15  21
HETATM   21  O5  UNL     1      -3.345  -0.231   1.230  1.00  0.00    -0.387 OA
ATOM     22  H5  UNL     1      -3.993   0.402   1.517  1.00  0.00     0.210 HD
ENDBRANCH  15  21
ENDBRANCH  12  15
BRANCH   1  23
HETATM   23  O1  UNL     1       1.748  -0.243  -0.224  1.00  0.00    -0.385 OA
BRANCH  23  24
HETATM   24  C4  UNL     1       2.664   0.725   0.159  1.00  0.00     0.168 C 
BRANCH  24  25
HETATM   25  C3  UNL     1       4.053   0.241  -0.204  1.00  0.00     0.026 C 
BRANCH  25  26
HETATM   26  C2  UNL     1       5.023   1.340   0.237  1.00  0.00    -0.002 C 
HETATM   27  C1  UNL     1       6.444   0.975  -0.071  1.00  0.00     0.005 C 
ENDBRANCH  25  26
ENDBRANCH  24  25
ENDBRANCH  23  24
ENDBRANCH   1  23
TORSDOF 7
