REMARK  11 active torsions:
REMARK  status: ('A' for Active; 'I' for Inactive)
REMARK    1  A    between atoms: C5_5  and  O1_6 
REMARK    2  A    between atoms: C9_10  and  O2_11 
REMARK    3  A    between atoms: C10_13  and  C11_14 
REMARK    4  A    between atoms: C11_14  and  C12_15 
REMARK    5  A    between atoms: C12_15  and  C13_16 
REMARK    6  A    between atoms: C13_16  and  O3_17 
REMARK    7  A    between atoms: C13_16  and  C14_19 
REMARK    8  A    between atoms: C14_19  and  C16_21 
REMARK    9  A    between atoms: C16_21  and  O4_22 
REMARK   10  A    between atoms: C16_21  and  O5_24 
REMARK   11  A    between atoms: O5_24  and  C17_25 
ROOT
HETATM    1  C11 UNL     1      -0.824   0.490   0.027  1.00  0.00    -0.009 C 
ENDROOT
BRANCH   1   2
HETATM    2  C10 UNL     1      -2.120   0.557  -0.054  1.00  0.00     0.004 A 
HETATM    3  C2  UNL     1      -2.778   1.696  -0.445  1.00  0.00    -0.024 A 
HETATM    4  C1  UNL     1      -2.117   2.783  -0.758  1.00  0.00     0.025 C 
HETATM    5  C3  UNL     1      -4.167   1.765  -0.532  1.00  0.00    -0.018 A 
HETATM    6  C4  UNL     1      -4.843   3.017  -0.959  1.00  0.00     0.052 C 
HETATM    7  C5  UNL     1      -4.915   0.662  -0.218  1.00  0.00     0.083 A 
HETATM    8  C7  UNL     1      -4.294  -0.492   0.176  1.00  0.00     0.006 A 
HETATM    9  C8  UNL     1      -5.098  -1.694   0.518  1.00  0.00     0.054 C 
HETATM   10  C9  UNL     1      -2.906  -0.554   0.260  1.00  0.00     0.085 A 
BRANCH   7  11
HETATM   11  O1  UNL     1      -6.315   0.702  -0.296  1.00  0.00    -0.355 OA
HETATM   12  C6  UNL     1      -7.102   1.087   0.812  1.00  0.00     0.210 C 
ENDBRANCH   7  11
BRANCH  10  13
HETATM   13  O2  UNL     1      -2.328  -1.740   0.662  1.00  0.00    -0.359 OA
ATOM     14  H2  UNL     1      -1.381  -1.782   0.719  1.00  0.00     0.217 HD
ENDBRANCH  10  13
ENDBRANCH   1   2
BRANCH   1  15
HETATM   15  C12 UNL     1      -0.015  -0.685   0.436  1.00  0.00     0.060 C 
BRANCH  15  16
HETATM   16  C13 UNL     1       1.480  -0.288   0.471  1.00  0.00     0.130 C 
BRANCH  16  17
HETATM   17  O3  UNL     1       1.626   0.752   1.399  1.00  0.00    -0.395 OA
ATOM     18  H3  UNL     1       2.544   0.996   1.420  1.00  0.00     0.210 HD
ENDBRANCH  16  17
BRANCH  16  19
HETATM   19  C14 UNL     1       2.271  -1.459   0.941  1.00  0.00     0.066 C 
HETATM   20  C15 UNL     1       2.016  -2.626  -0.037  1.00  0.00     0.017 C 
BRANCH  19  21
HETATM   21  C16 UNL     1       3.768  -1.275   0.909  1.00  0.00     0.264 C 
BRANCH  21  22
HETATM   22  O4  UNL     1       4.263  -2.515   1.422  1.00  0.00    -0.371 OA
ATOM     23  H4  UNL     1       5.206  -2.399   1.402  1.00  0.00     0.212 HD
ENDBRANCH  21  22
BRANCH  21  24
HETATM   24  O5  UNL     1       4.193  -1.100  -0.372  1.00  0.00    -0.351 OA
BRANCH  24  25
HETATM   25  C17 UNL     1       5.048  -0.102  -0.676  1.00  0.00     0.053 C 
HETATM   26  C18 UNL     1       4.632   1.300  -0.416  1.00  0.00     0.045 C 
HETATM   27  C19 UNL     1       5.270  -0.178  -2.204  1.00  0.00     0.045 C 
HETATM   28  C20 UNL     1       6.451  -0.389  -0.115  1.00  0.00     0.045 C 
ENDBRANCH  24  25
ENDBRANCH  21  24
ENDBRANCH  19  21
ENDBRANCH  16  19
ENDBRANCH  15  16
ENDBRANCH   1  15
TORSDOF 11
