REMARK  9 active torsions:
REMARK  status: ('A' for Active; 'I' for Inactive)
REMARK    1  A    between atoms: C5_5  and  C6_6 
REMARK    2  A    between atoms: C6_6  and  O1_7 
REMARK    3  A    between atoms: O1_7  and  C7_8 
REMARK       I    between atoms: C7_8  and  N1_10 
REMARK    4  A    between atoms: N1_10  and  C8_12 
REMARK    5  A    between atoms: C8_12  and  C11_15 
REMARK    6  A    between atoms: C11_15  and  O3_16 
REMARK    7  A    between atoms: C13_19  and  N2_20 
REMARK       I    between atoms: N2_20  and  C14_22 
REMARK    8  A    between atoms: C14_22  and  O5_24 
REMARK    9  A    between atoms: O5_24  and  C15_25 
ROOT
HETATM    1  C1  UNL     1      -0.844   3.497   0.494  1.00  0.00     0.011 C 
HETATM    2  C2  UNL     1      -0.279   2.885  -0.740  1.00  0.00    -0.002 C 
HETATM    3  C3  UNL     1      -1.304   2.009  -1.476  1.00  0.00     0.014 C 
HETATM    4  C4  UNL     1      -0.065   1.252  -1.978  1.00  0.00     0.019 C 
HETATM    5  C5  UNL     1       0.438   1.566  -0.558  1.00  0.00    -0.012 C 
HETATM    6  C12 UNL     1      -0.481   0.713   0.254  1.00  0.00     0.037 C 
HETATM    7  C13 UNL     1      -1.826   1.174  -0.348  1.00  0.00     0.092 C 
ENDROOT
BRANCH   5   8
HETATM    8  C6  UNL     1       1.866   1.569  -0.333  1.00  0.00     0.190 C 
BRANCH   8   9
HETATM    9  O1  UNL     1       2.460   0.297  -0.172  1.00  0.00    -0.303 OA
BRANCH   9  10
HETATM   10  C7  UNL     1       3.822   0.194   0.046  1.00  0.00     0.361 C 
HETATM   11  O2  UNL     1       4.480   1.274   0.091  1.00  0.00    -0.238 OA
HETATM   12  N1  UNL     1       4.468  -1.073   0.216  1.00  0.00    -0.326 N 
ATOM     13  H1  UNL     1       3.921  -1.933   0.178  1.00  0.00     0.165 HD
BRANCH  12  14
HETATM   14  C8  UNL     1       5.892  -1.134   0.441  1.00  0.00     0.049 C 
HETATM   15  C9  UNL     1       6.673  -0.524  -0.700  1.00  0.00     0.040 C 
HETATM   16  C10 UNL     1       6.311  -0.457   1.712  1.00  0.00     0.040 C 
BRANCH  14  17
HETATM   17  C11 UNL     1       6.310  -2.600   0.537  1.00  0.00     0.194 C 
BRANCH  17  18
HETATM   18  O3  UNL     1       5.652  -3.235   1.589  1.00  0.00    -0.398 OA
ATOM     19  H3  UNL     1       5.912  -4.147   1.649  1.00  0.00     0.209 HD
ENDBRANCH  17  18
ENDBRANCH  14  17
ENDBRANCH  12  14
ENDBRANCH   9  10
ENDBRANCH   8   9
ENDBRANCH   5   8
BRANCH   7  20
HETATM   20  N2  UNL     1      -2.631   0.077  -0.750  1.00  0.00    -0.332 N 
HETATM   21  C14 UNL     1      -3.895  -0.135  -0.142  1.00  0.00     0.361 C 
HETATM   22  O4  UNL     1      -4.317   0.647   0.758  1.00  0.00    -0.238 OA
ATOM     23  H2  UNL     1      -2.301  -0.559  -1.476  1.00  0.00     0.165 HD
BRANCH  21  24
HETATM   24  O5  UNL     1      -4.715  -1.180  -0.493  1.00  0.00    -0.294 OA
BRANCH  24  25
HETATM   25  C15 UNL     1      -5.971  -1.442   0.069  1.00  0.00     0.061 C 
HETATM   26  C16 UNL     1      -5.942  -1.688   1.547  1.00  0.00     0.046 C 
HETATM   27  C17 UNL     1      -6.612  -2.617  -0.662  1.00  0.00     0.046 C 
HETATM   28  C18 UNL     1      -6.845  -0.221  -0.184  1.00  0.00     0.046 C 
ENDBRANCH  24  25
ENDBRANCH  21  24
ENDBRANCH   7  20
TORSDOF 9
