REMARK  6 active torsions:
REMARK  status: ('A' for Active; 'I' for Inactive)
REMARK    1  A    between atoms: C4_4  and  C5_5 
REMARK       I    between atoms: C5_5  and  N1_7 
REMARK    2  A    between atoms: N1_7  and  C6_9 
REMARK    3  A    between atoms: C9_12  and  C11_14 
REMARK    4  A    between atoms: C11_14  and  N2_15 
REMARK    5  A    between atoms: N2_15  and  C12_18 
REMARK    6  A    between atoms: C19_25  and  O2_26 
ROOT
HETATM    1  C6  UNL     1       1.689   0.881   0.332  1.00  0.00     0.114 C 
HETATM    2  C7  UNL     1       0.758   0.155   1.262  1.00  0.00     0.028 C 
HETATM    3  C8  UNL     1      -0.612   0.709   1.305  1.00  0.00     0.013 C 
HETATM    4  C9  UNL     1      -1.233   1.104   0.018  1.00  0.00    -0.014 C 
HETATM    5  C10 UNL     1      -2.212   2.223   0.310  1.00  0.00     0.017 C 
HETATM    6  C17 UNL     1      -0.274   1.575  -1.034  1.00  0.00     0.022 C 
HETATM    7  C18 UNL     1       0.081   3.040  -0.915  1.00  0.00     0.013 C 
HETATM    8  C19 UNL     1       1.021   0.804  -1.046  1.00  0.00     0.145 C 
ENDROOT
BRANCH   1   9
HETATM    9  N1  UNL     1       2.940   0.185   0.275  1.00  0.00    -0.348 N 
HETATM   10  C5  UNL     1       4.146   0.870   0.507  1.00  0.00     0.270 C 
HETATM   11  O1  UNL     1       4.131   2.095   0.765  1.00  0.00    -0.266 OA
ATOM     12  H1  UNL     1       2.956  -0.813   0.065  1.00  0.00     0.163 HD
BRANCH  10  13
HETATM   13  C4  UNL     1       5.456   0.207   0.462  1.00  0.00     0.124 A 
HETATM   14  C3  UNL     1       5.689  -1.123   0.208  1.00  0.00     0.071 A 
HETATM   15  C2  UNL     1       7.055  -1.283   0.271  1.00  0.00     0.075 A 
HETATM   16  C1  UNL     1       7.765  -2.574   0.058  1.00  0.00     0.079 C 
HETATM   17  O3  UNL     1       7.581  -0.126   0.543  1.00  0.00    -0.242 OA
HETATM   18  N3  UNL     1       6.657   0.768   0.660  1.00  0.00    -0.256 N 
ATOM     19  H3  UNL     1       6.817   1.753   0.871  1.00  0.00     0.195 HD
ENDBRANCH  10  13
ENDBRANCH   1   9
BRANCH   8  20
HETATM   20  O2  UNL     1       1.872   1.397  -1.959  1.00  0.00    -0.393 OA
ATOM     21  H2  UNL     1       1.458   1.349  -2.813  1.00  0.00     0.210 HD
ENDBRANCH   8  20
BRANCH   4  22
HETATM   22  C11 UNL     1      -1.931  -0.119  -0.584  1.00  0.00     0.242 C 
BRANCH  22  23
HETATM   23  N2  UNL     1      -2.946  -0.640   0.270  1.00  0.00    -0.070 N 
ATOM     24  H22 UNL     1      -2.570  -0.845   1.196  1.00  0.00     0.277 HD
ATOM     25  H21 UNL     1      -3.619   0.086   0.517  1.00  0.00     0.277 HD
BRANCH  23  26
HETATM   26  C12 UNL     1      -3.616  -1.794  -0.277  1.00  0.00     0.186 C 
HETATM   27  C13 UNL     1      -4.366  -1.477  -1.558  1.00  0.00     0.033 C 
HETATM   28  C14 UNL     1      -5.512  -0.647  -1.031  1.00  0.00     0.002 C 
HETATM   29  C15 UNL     1      -5.764  -1.100   0.378  1.00  0.00     0.002 C 
HETATM   30  C16 UNL     1      -4.756  -2.190   0.637  1.00  0.00     0.033 C 
ENDBRANCH  23  26
ENDBRANCH  22  23
ENDBRANCH   4  22
TORSDOF 6
