REMARK  7 active torsions:
REMARK  status: ('A' for Active; 'I' for Inactive)
REMARK    1  A    between atoms: C2_2  and  C3_3 
REMARK    2  A    between atoms: C2_2  and  N5_26 
REMARK    3  A    between atoms: C3_3  and  N1_4 
REMARK    4  A    between atoms: C3_3  and  C11_18 
REMARK       I    between atoms: N1_4  and  C4_6 
REMARK       I    between atoms: C4_6  and  N2_8 
REMARK    5  A    between atoms: N2_8  and  C5_10 
REMARK    6  A    between atoms: C5_10  and  C6_11 
REMARK    7  A    between atoms: C6_11  and  N3_12 
REMARK       I    between atoms: C11_18  and  N4_20 
ROOT
HETATM    1  C3  UNL     1      -1.702   0.371  -0.509  1.00  0.00     0.211 C 
ENDROOT
BRANCH   1   2
HETATM    2  C2  UNL     1      -2.257  -1.048  -0.589  1.00  0.00     0.250 C 
HETATM    3  C1  UNL     1      -3.592  -1.227   0.040  1.00  0.00     0.045 C 
BRANCH   2   4
HETATM    4  N5  UNL     1      -1.266  -1.973  -0.152  1.00  0.00     0.095 N 
HETATM    5  C16 UNL     1      -0.900  -1.999   1.232  1.00  0.00     0.275 C 
HETATM    6  C17 UNL     1      -0.530  -3.480   1.034  1.00  0.00     0.060 C 
HETATM    7  C18 UNL     1      -1.591  -3.368  -0.075  1.00  0.00     0.275 C 
ENDBRANCH   2   4
ENDBRANCH   1   2
BRANCH   1   8
HETATM    8  N1  UNL     1      -0.409   0.271  -1.221  1.00  0.00    -0.328 N 
HETATM    9  C4  UNL     1       0.763   0.727  -0.609  1.00  0.00     0.316 C 
HETATM   10  O1  UNL     1       0.709   1.231   0.564  1.00  0.00    -0.247 OA
HETATM   11  N2  UNL     1       2.017   0.656  -1.239  1.00  0.00    -0.341 N 
ATOM     12  H2  UNL     1       2.052   0.253  -2.175  1.00  0.00     0.164 HD
ATOM     13  H1  UNL     1      -0.372  -0.130  -2.158  1.00  0.00     0.165 HD
BRANCH  11  14
HETATM   14  C5  UNL     1       3.252   1.108  -0.665  1.00  0.00     0.154 C 
BRANCH  14  15
HETATM   15  C6  UNL     1       3.626   0.414   0.618  1.00  0.00     0.292 C 
BRANCH  15  16
HETATM   16  N3  UNL     1       3.751  -0.989   0.415  1.00  0.00     0.094 N 
HETATM   17  C7  UNL     1       4.124  -1.742   1.582  1.00  0.00     0.298 C 
HETATM   18  C8  UNL     1       5.597  -1.622   1.876  1.00  0.00     0.198 C 
HETATM   19  O2  UNL     1       6.315  -0.922   0.939  1.00  0.00    -0.388 OA
HETATM   20  C9  UNL     1       6.028  -1.198  -0.372  1.00  0.00     0.198 C 
HETATM   21  C10 UNL     1       4.581  -1.397  -0.685  1.00  0.00     0.298 C 
ENDBRANCH  15  16
ENDBRANCH  14  15
ENDBRANCH  11  14
ENDBRANCH   1   8
BRANCH   1  22
HETATM   22  C11 UNL     1      -2.576   1.303  -1.260  1.00  0.00     0.245 C 
HETATM   23  O3  UNL     1      -2.341   1.406  -2.502  1.00  0.00    -0.271 OA
HETATM   24  N4  UNL     1      -3.619   2.067  -0.717  1.00  0.00    -0.346 N 
HETATM   25  C12 UNL     1      -4.454   2.933  -1.572  1.00  0.00     0.152 C 
HETATM   26  C15 UNL     1      -3.962   2.121   0.692  1.00  0.00     0.152 C 
HETATM   27  C13 UNL     1      -4.023   4.352  -1.201  1.00  0.00     0.187 C 
HETATM   28  O4  UNL     1      -3.641   4.432   0.114  1.00  0.00    -0.388 OA
HETATM   29  C14 UNL     1      -4.303   3.577   0.975  1.00  0.00     0.187 C 
ENDBRANCH   1  22
TORSDOF 7
