REMARK  9 active torsions:
REMARK  status: ('A' for Active; 'I' for Inactive)
REMARK    1  A    between atoms: C2_3  and  N2_4 
REMARK    2  A    between atoms: N2_4  and  O1_5 
REMARK       I    between atoms: N2_4  and  C3_7 
REMARK    3  A    between atoms: C3_7  and  C4_9 
REMARK    4  A    between atoms: C4_9  and  N3_10 
REMARK    5  A    between atoms: C4_9  and  C11_22 
REMARK    6  A    between atoms: N3_10  and  C5_13 
REMARK    7  A    between atoms: C5_13  and  C6_14 
REMARK       I    between atoms: C6_14  and  N4_16 
REMARK       I    between atoms: C11_22  and  N5_24 
REMARK    8  A    between atoms: N5_24  and  C12_26 
REMARK    9  A    between atoms: C12_26  and  C13_27 
ROOT
HETATM    1  N1  UNL     1      -1.644   5.279   0.014  1.00  0.00    -0.195 NA
HETATM    2  C1  UNL     1      -0.575   4.874   0.206  1.00  0.00     0.081 C 
HETATM    3  C2  UNL     1       0.776   4.346   0.471  1.00  0.00     0.282 C 
ENDROOT
BRANCH   3   4
HETATM    4  N2  UNL     1       0.671   3.070   1.156  1.00  0.00    -0.213 N 
HETATM    5  C3  UNL     1       0.603   1.860   0.432  1.00  0.00     0.284 C 
HETATM    6  O2  UNL     1       0.664   1.906  -0.822  1.00  0.00    -0.268 OA
BRANCH   4   7
HETATM    7  O1  UNL     1       0.661   3.111   2.504  1.00  0.00    -0.284 OA
ATOM      8  H1  UNL     1       0.592   2.276   2.952  1.00  0.00     0.245 HD
ENDBRANCH   4   7
BRANCH   5   9
HETATM    9  C4  UNL     1       0.464   0.543   1.100  1.00  0.00     0.370 C 
BRANCH   9  10
HETATM   10  N3  UNL     1       1.233  -0.425   0.334  1.00  0.00    -0.045 N 
ATOM     11  H32 UNL     1       1.065  -1.368   0.685  1.00  0.00     0.279 HD
ATOM     12  H31 UNL     1       0.850  -0.516  -0.607  1.00  0.00     0.279 HD
BRANCH  10  13
HETATM   13  C5  UNL     1       2.632  -0.162   0.275  1.00  0.00     0.336 C 
BRANCH  13  14
HETATM   14  C6  UNL     1       3.283  -1.217  -0.535  1.00  0.00     0.245 C 
HETATM   15  O3  UNL     1       2.598  -2.140  -1.030  1.00  0.00    -0.272 OA
HETATM   16  N4  UNL     1       4.688  -1.238  -0.787  1.00  0.00    -0.347 N 
HETATM   17  C7  UNL     1       5.481  -0.171  -0.214  1.00  0.00     0.152 C 
HETATM   18  C10 UNL     1       5.321  -2.262  -1.574  1.00  0.00     0.152 C 
HETATM   19  C8  UNL     1       6.709  -0.817   0.399  1.00  0.00     0.187 C 
HETATM   20  O4  UNL     1       7.377  -1.601  -0.510  1.00  0.00    -0.388 OA
HETATM   21  C9  UNL     1       6.648  -2.663  -0.984  1.00  0.00     0.187 C 
ENDBRANCH  13  14
ENDBRANCH  10  13
ENDBRANCH   9  10
BRANCH   9  22
HETATM   22  C11 UNL     1      -0.973   0.043   1.019  1.00  0.00     0.261 C 
HETATM   23  O5  UNL     1      -1.166  -1.009   0.382  1.00  0.00    -0.270 OA
HETATM   24  N5  UNL     1      -2.028   0.727   1.625  1.00  0.00    -0.338 N 
ATOM     25  H5  UNL     1      -1.771   1.568   2.141  1.00  0.00     0.167 HD
BRANCH  24  26
HETATM   26  C12 UNL     1      -3.398   0.410   1.618  1.00  0.00     0.068 C 
BRANCH  26  27
HETATM   27  C13 UNL     1      -4.236   0.458   0.421  1.00  0.00     0.024 C 
HETATM   28  C14 UNL     1      -5.664   0.064   0.901  1.00  0.00     0.010 C 
HETATM   29  C15 UNL     1      -6.482  -0.524  -0.203  1.00  0.00     0.001 C 
HETATM   30  C16 UNL     1      -5.934  -1.853  -0.681  1.00  0.00     0.000 C 
HETATM   31  C17 UNL     1      -4.436  -1.810  -0.643  1.00  0.00     0.001 C 
HETATM   32  C18 UNL     1      -3.989  -0.354  -0.776  1.00  0.00     0.010 C 
ENDBRANCH  26  27
ENDBRANCH  24  26
ENDBRANCH   9  22
ENDBRANCH   5   9
ENDBRANCH   3   4
TORSDOF 9
