REMARK  3 active torsions:
REMARK  status: ('A' for Active; 'I' for Inactive)
REMARK    1  A    between atoms: C1_2  and  C2_3 
REMARK       I    between atoms: C1_2  and  N3_10 
REMARK    2  A    between atoms: C2_3  and  N1_4 
REMARK    3  A    between atoms: N3_10  and  C6_12 
REMARK       I    between atoms: N4_15  and  C9_16 
REMARK       I    between atoms: C9_16  and  N5_18 
ROOT
HETATM    1  C6  UNL     1       1.209  -0.338  -0.012  1.00  0.00     0.087 C 
HETATM    2  C7  UNL     1       0.420  -1.484   0.581  1.00  0.00     0.045 C 
HETATM    3  C8  UNL     1      -0.745  -1.782  -0.344  1.00  0.00     0.129 C 
HETATM    4  N4  UNL     1      -1.673  -0.633  -0.370  1.00  0.00    -0.334 N 
HETATM    5  C9  UNL     1      -3.028  -0.889  -0.165  1.00  0.00     0.320 C 
HETATM    6  O2  UNL     1      -3.421  -2.106   0.037  1.00  0.00    -0.247 OA
HETATM    7  N5  UNL     1      -4.089   0.050  -0.148  1.00  0.00    -0.331 N 
HETATM    8  C10 UNL     1      -5.480  -0.367   0.083  1.00  0.00     0.155 C 
HETATM    9  C11 UNL     1      -6.077   0.353   1.271  1.00  0.00     0.252 C 
HETATM   10  N6  UNL     1      -5.622   1.727   1.354  1.00  0.00    -0.072 N 
ATOM     11  H61 UNL     1      -4.874   1.855   2.035  1.00  0.00     0.277 HD
ATOM     12  H62 UNL     1      -6.308   2.345   1.788  1.00  0.00     0.277 HD
HETATM   13  C12 UNL     1      -5.251   2.148   0.037  1.00  0.00     0.252 C 
HETATM   14  C13 UNL     1      -3.919   1.472  -0.349  1.00  0.00     0.155 C 
HETATM   15  C14 UNL     1      -1.030   0.634  -0.610  1.00  0.00     0.129 C 
HETATM   16  C15 UNL     1       0.427   0.406  -1.062  1.00  0.00     0.045 C 
ENDROOT
BRANCH   1  17
HETATM   17  N3  UNL     1       2.442  -0.779  -0.610  1.00  0.00    -0.355 N 
HETATM   18  C1  UNL     1       3.714  -0.331  -0.170  1.00  0.00     0.237 C 
HETATM   19  O1  UNL     1       3.780   0.490   0.783  1.00  0.00    -0.272 OA
ATOM     20  H3  UNL     1       2.399  -1.442  -1.384  1.00  0.00     0.162 HD
BRANCH  18  21
HETATM   21  C2  UNL     1       4.940  -0.822  -0.825  1.00  0.00     0.250 C 
BRANCH  21  22
HETATM   22  N1  UNL     1       6.115  -0.233  -0.215  1.00  0.00    -0.295 N 
HETATM   23  C3  UNL     1       6.786  -0.761   0.829  1.00  0.00     0.112 A 
HETATM   24  C4  UNL     1       7.864   0.070   1.154  1.00  0.00     0.037 A 
HETATM   25  C5  UNL     1       7.780   1.104   0.246  1.00  0.00     0.108 A 
HETATM   26  N2  UNL     1       6.724   0.874  -0.542  1.00  0.00    -0.310 N 
ATOM     27  H2  UNL     1       6.431   1.487  -1.303  1.00  0.00     0.186 HD
ENDBRANCH  21  22
ENDBRANCH  18  21
ENDBRANCH   1  17
TORSDOF 3
