REMARK  8 active torsions:
REMARK  status: ('A' for Active; 'I' for Inactive)
REMARK    1  A    between atoms: N2_5  and  C3_6 
REMARK    2  A    between atoms: C10_14  and  C11_15 
REMARK    3  A    between atoms: C11_15  and  C12_16 
REMARK    4  A    between atoms: N3_18  and  C14_19 
REMARK    5  A    between atoms: C16_22  and  O3_23 
REMARK    6  A    between atoms: O3_23  and  C17_24 
REMARK    7  A    between atoms: C17_24  and  C18_25 
REMARK    8  A    between atoms: C18_25  and  N4_26 
ROOT
HETATM    1  C12 UNL     1       0.901  -1.986  -0.424  1.00  0.00     0.061 A 
HETATM    2  C13 UNL     1       1.086  -3.356  -0.299  1.00  0.00     0.121 A 
HETATM    3  N3  UNL     1       2.368  -3.678  -0.483  1.00  0.00    -0.307 N 
HETATM    4  C15 UNL     1       3.049  -2.544  -0.730  1.00  0.00     0.137 A 
HETATM    5  C16 UNL     1       2.191  -1.488  -0.703  1.00  0.00     0.104 A 
ENDROOT
BRANCH   1   6
HETATM    6  C11 UNL     1      -0.273  -1.271  -0.282  1.00  0.00    -0.093 C 
BRANCH   6   7
HETATM    7  C10 UNL     1      -1.335  -0.625  -0.163  1.00  0.00     0.107 A 
HETATM    8  C2  UNL     1      -1.790  -0.329   1.182  1.00  0.00     0.063 A 
HETATM    9  C1  UNL     1      -1.185  -0.700   2.287  1.00  0.00     0.046 C 
HETATM   10  N1  UNL     1      -2.908   0.373   1.083  1.00  0.00    -0.290 N 
HETATM   11  N2  UNL     1      -3.226   0.565  -0.175  1.00  0.00    -0.219 N 
ATOM     12  H1  UNL     1      -3.448   0.718   1.877  1.00  0.00     0.187 HD
HETATM   13  C9  UNL     1      -2.297  -0.026  -0.935  1.00  0.00     0.287 A 
HETATM   14  O1  UNL     1      -2.314  -0.024  -2.203  1.00  0.00    -0.265 OA
BRANCH  11  15
HETATM   15  C3  UNL     1      -4.343   1.290  -0.705  1.00  0.00     0.060 A 
HETATM   16  C4  UNL     1      -4.696   2.516  -0.173  1.00  0.00     0.031 A 
HETATM   17  C5  UNL     1      -5.774   3.169  -0.743  1.00  0.00     0.002 A 
HETATM   18  C6  UNL     1      -6.483   2.640  -1.799  1.00  0.00     0.000 A 
HETATM   19  C7  UNL     1      -6.132   1.403  -2.340  1.00  0.00     0.002 A 
HETATM   20  C8  UNL     1      -5.051   0.759  -1.760  1.00  0.00     0.031 A 
ENDBRANCH  11  15
ENDBRANCH   6   7
ENDBRANCH   1   6
BRANCH   5  21
HETATM   21  O3  UNL     1       2.412  -0.145  -0.899  1.00  0.00    -0.346 OA
BRANCH  21  22
HETATM   22  C17 UNL     1       3.574   0.539  -1.174  1.00  0.00     0.197 C 
BRANCH  22  23
HETATM   23  C18 UNL     1       4.655   0.443  -0.152  1.00  0.00     0.176 C 
BRANCH  23  24
HETATM   24  N4  UNL     1       4.196   0.954   1.125  1.00  0.00    -0.286 N 
HETATM   25  C19 UNL     1       4.308   2.234   1.504  1.00  0.00     0.130 A 
HETATM   26  C20 UNL     1       3.757   2.292   2.774  1.00  0.00     0.127 A 
HETATM   27  N5  UNL     1       3.352   1.042   3.069  1.00  0.00    -0.296 N 
HETATM   28  N6  UNL     1       3.620   0.236   2.068  1.00  0.00    -0.241 N 
ATOM     29  H5  UNL     1       2.903   0.763   3.941  1.00  0.00     0.187 HD
ATOM     30  H6  UNL     1       3.419  -0.763   2.028  1.00  0.00     0.208 HD
ENDBRANCH  23  24
ENDBRANCH  22  23
ENDBRANCH  21  22
ENDBRANCH   5  21
BRANCH   3  31
HETATM   31  C14 UNL     1       2.943  -4.992  -0.431  1.00  0.00     0.359 C 
HETATM   32  O2  UNL     1       4.157  -5.121  -0.627  1.00  0.00    -0.283 OA
ENDBRANCH   3  31
TORSDOF 8
