REMARK  8 active torsions:
REMARK  status: ('A' for Active; 'I' for Inactive)
REMARK    1  A    between atoms: S1_2  and  C2_4 
REMARK    2  A    between atoms: C2_4  and  C3_5 
REMARK    3  A    between atoms: C6_10  and  N1_11 
REMARK       I    between atoms: N1_11  and  C7_13 
REMARK    4  A    between atoms: C7_13  and  C8_15 
REMARK    5  A    between atoms: C8_15  and  C9_16 
REMARK    6  A    between atoms: C8_15  and  N2_18 
REMARK       I    between atoms: N2_18  and  C10_20 
REMARK    7  A    between atoms: C10_20  and  C11_22 
REMARK    8  A    between atoms: C13_24  and  O5_25 
ROOT
HETATM    1  N1  UNL     1       0.819  -1.503   0.219  1.00  0.00    -0.353 N 
ATOM      2  H1  UNL     1       0.457  -2.156  -0.476  1.00  0.00     0.163 HD
HETATM    3  C7  UNL     1      -0.104  -0.857   1.059  1.00  0.00     0.247 C 
HETATM    4  O2  UNL     1       0.299  -0.046   1.928  1.00  0.00    -0.271 OA
ENDROOT
BRANCH   3   5
HETATM    5  C8  UNL     1      -1.573  -1.079   0.982  1.00  0.00     0.238 C 
BRANCH   5   6
HETATM    6  C9  UNL     1      -1.954  -2.477   1.193  1.00  0.00     0.266 C 
HETATM    7  O3  UNL     1      -2.715  -2.806   2.068  1.00  0.00    -0.304 OA
ENDBRANCH   5   6
BRANCH   5   8
HETATM    8  N2  UNL     1      -2.255  -0.272   1.972  1.00  0.00    -0.342 N 
HETATM    9  C10 UNL     1      -3.097   0.774   1.534  1.00  0.00     0.225 C 
HETATM   10  O4  UNL     1      -3.237   0.984   0.306  1.00  0.00    -0.273 OA
ATOM     11  H2  UNL     1      -2.130  -0.456   2.967  1.00  0.00     0.163 HD
BRANCH   9  12
HETATM   12  C11 UNL     1      -3.841   1.659   2.464  1.00  0.00     0.109 A 
HETATM   13  C12 UNL     1      -3.747   3.138   2.073  1.00  0.00     0.049 A 
HETATM   14  C13 UNL     1      -5.044   2.387   2.014  1.00  0.00     0.132 A 
BRANCH  14  15
HETATM   15  O5  UNL     1      -5.972   2.705   3.002  1.00  0.00    -0.395 OA
ATOM     16  H5  UNL     1      -6.746   3.173   2.712  1.00  0.00     0.210 HD
ENDBRANCH  14  15
ENDBRANCH   9  12
ENDBRANCH   5   8
ENDBRANCH   3   5
BRANCH   1  17
HETATM   17  C6  UNL     1       2.253  -1.300   0.278  1.00  0.00     0.100 C 
HETATM   18  C3  UNL     1       2.778  -0.619  -0.963  1.00  0.00     0.031 C 
HETATM   19  C4  UNL     1       3.848   0.378  -0.599  1.00  0.00     0.093 C 
HETATM   20  S2  UNL     1       5.379  -0.594  -0.319  1.00  0.00    -0.097 SA
HETATM   21  S3  UNL     1       4.685  -2.597   0.047  1.00  0.00    -0.096 SA
HETATM   22  C5  UNL     1       3.000  -2.539   0.649  1.00  0.00     0.111 C 
BRANCH  18  23
HETATM   23  C2  UNL     1       1.662   0.025  -1.765  1.00  0.00     0.115 C 
BRANCH  23  24
HETATM   24  S1  UNL     1       2.365   0.692  -3.257  1.00  0.00     0.011 S 
HETATM   25  C1  UNL     1       1.131   1.467  -4.262  1.00  0.00     0.127 C 
HETATM   26  O1  UNL     1       2.987  -0.600  -4.140  1.00  0.00    -0.258 OA
ENDBRANCH  23  24
ENDBRANCH  18  23
ENDBRANCH   1  17
TORSDOF 8
