REMARK  8 active torsions:
REMARK  status: ('A' for Active; 'I' for Inactive)
REMARK    1  A    between atoms: C1_2  and  C2_3 
REMARK       I    between atoms: C1_2  and  N3_20 
REMARK    2  A    between atoms: C2_3  and  O2_4 
REMARK    3  A    between atoms: O2_4  and  C3_5 
REMARK    4  A    between atoms: C3_5  and  C4_7 
REMARK    5  A    between atoms: C4_7  and  N1_8 
REMARK       I    between atoms: N1_8  and  C5_10 
REMARK    6  A    between atoms: C5_10  and  C6_12 
REMARK       I    between atoms: C6_12  and  N2_14 
REMARK    7  A    between atoms: N3_20  and  N4_22 
REMARK    8  A    between atoms: C11_24  and  N5_25 
ROOT
HETATM    1  O2  UNL     1       0.552   1.324   1.221  1.00  0.00    -0.311 OA
ENDROOT
BRANCH   1   2
HETATM    2  C2  UNL     1       1.173   2.332   0.496  1.00  0.00     0.283 C 
BRANCH   2   3
HETATM    3  C1  UNL     1       1.920   1.903  -0.699  1.00  0.00     0.260 C 
HETATM    4  O1  UNL     1       2.385   2.847  -1.420  1.00  0.00    -0.269 OA
HETATM    5  N3  UNL     1       2.122   0.546  -1.039  1.00  0.00    -0.267 N 
ATOM      6  H3  UNL     1       1.746  -0.194  -0.446  1.00  0.00     0.190 HD
BRANCH   5   7
HETATM    7  N4  UNL     1       2.849   0.221  -2.208  1.00  0.00    -0.294 N 
HETATM    8  C11 UNL     1       4.136   0.081  -2.145  1.00  0.00     0.195 C 
ATOM      9  H4  UNL     1       2.363   0.097  -3.096  1.00  0.00     0.187 HD
BRANCH   8  10
HETATM   10  N5  UNL     1       4.798   0.256  -0.906  1.00  0.00    -0.376 N 
HETATM   11  C12 UNL     1       4.548  -0.626   0.213  1.00  0.00     0.123 C 
HETATM   12  C13 UNL     1       5.856  -0.742   0.972  1.00  0.00     0.020 C 
HETATM   13  C14 UNL     1       7.031  -0.634   0.011  1.00  0.00     0.003 C 
HETATM   14  C15 UNL     1       7.138   0.710  -0.632  1.00  0.00     0.020 C 
HETATM   15  C16 UNL     1       5.750   1.329  -0.723  1.00  0.00     0.123 C 
ENDBRANCH   8  10
ENDBRANCH   5   7
ENDBRANCH   2   3
ENDBRANCH   1   2
BRANCH   1  16
HETATM   16  C3  UNL     1      -0.461   0.519   0.758  1.00  0.00     0.277 C 
HETATM   17  O3  UNL     1      -0.887   0.686  -0.408  1.00  0.00    -0.263 OA
BRANCH  16  18
HETATM   18  C4  UNL     1      -0.997  -0.510   1.668  1.00  0.00     0.234 C 
BRANCH  18  19
HETATM   19  N1  UNL     1      -2.075  -1.283   1.123  1.00  0.00    -0.344 N 
HETATM   20  C5  UNL     1      -3.297  -0.687   0.734  1.00  0.00     0.309 C 
HETATM   21  O4  UNL     1      -3.398   0.555   0.894  1.00  0.00    -0.262 OA
ATOM     22  H1  UNL     1      -1.957  -2.290   1.013  1.00  0.00     0.163 HD
BRANCH  20  23
HETATM   23  C6  UNL     1      -4.358  -1.497   0.184  1.00  0.00     0.311 C 
HETATM   24  O5  UNL     1      -4.152  -2.738   0.063  1.00  0.00    -0.262 OA
HETATM   25  N2  UNL     1      -5.604  -0.988  -0.226  1.00  0.00    -0.340 N 
HETATM   26  C7  UNL     1      -6.585  -1.918  -0.769  1.00  0.00     0.152 C 
HETATM   27  C10 UNL     1      -5.877   0.424  -0.100  1.00  0.00     0.152 C 
HETATM   28  C8  UNL     1      -7.944  -1.300  -0.846  1.00  0.00     0.187 C 
HETATM   29  O6  UNL     1      -7.779  -0.068  -1.515  1.00  0.00    -0.388 OA
HETATM   30  C9  UNL     1      -7.284   0.798  -0.540  1.00  0.00     0.187 C 
ENDBRANCH  20  23
ENDBRANCH  18  19
ENDBRANCH  16  18
ENDBRANCH   1  16
TORSDOF 8
