REMARK  4 active torsions:
REMARK  status: ('A' for Active; 'I' for Inactive)
REMARK    1  A    between atoms: C1_2  and  C2_3 
REMARK       I    between atoms: C1_2  and  N2_9 
REMARK    2  A    between atoms: C2_3  and  N1_4 
REMARK    3  A    between atoms: C11_15  and  O3_16 
REMARK    4  A    between atoms: C14_22  and  C15_23 
ROOT
HETATM    1  O1  UNL     1       1.166  -1.559  -0.025  1.00  0.00    -0.271 OA
HETATM    2  C1  UNL     1       0.972  -0.321  -0.045  1.00  0.00     0.249 C 
HETATM    3  N2  UNL     1      -0.338   0.164  -0.166  1.00  0.00    -0.337 N 
HETATM    4  C7  UNL     1      -0.375   1.591  -0.167  1.00  0.00     0.181 C 
HETATM    5  C8  UNL     1      -1.709   2.250  -0.131  1.00  0.00     0.028 C 
HETATM    6  C9  UNL     1      -2.626   1.905  -1.279  1.00  0.00     0.221 C 
HETATM    7  O2  UNL     1      -2.892   0.588  -1.464  1.00  0.00    -0.382 OA
HETATM    8  C10 UNL     1      -3.570   0.060  -0.369  1.00  0.00     0.208 C 
HETATM    9  C11 UNL     1      -2.565  -0.652   0.470  1.00  0.00     0.104 C 
HETATM   10  C12 UNL     1      -2.186   0.009   1.744  1.00  0.00     0.086 C 
HETATM   11  C13 UNL     1      -2.667   1.383   1.963  1.00  0.00     0.064 C 
HETATM   12  N3  UNL     1      -2.319   2.404   1.127  1.00  0.00    -0.373 N 
ATOM     13  H3  UNL     1      -2.517   3.355   1.439  1.00  0.00     0.164 HD
HETATM   14  C14 UNL     1      -1.279  -0.964  -0.261  1.00  0.00     0.128 C 
ENDROOT
BRANCH   2  15
HETATM   15  C2  UNL     1       2.095   0.638   0.055  1.00  0.00     0.374 C 
BRANCH  15  16
HETATM   16  N1  UNL     1       3.377  -0.014   0.152  1.00  0.00     0.097 N 
HETATM   17  C3  UNL     1       3.623  -0.720   1.351  1.00  0.00     0.273 C 
HETATM   18  C4  UNL     1       5.107  -1.039   1.275  1.00  0.00     0.032 C 
HETATM   19  C5  UNL     1       5.671   0.040   0.409  1.00  0.00     0.032 C 
HETATM   20  C6  UNL     1       4.493   0.794  -0.175  1.00  0.00     0.273 C 
ENDBRANCH  15  16
ENDBRANCH   2  15
BRANCH  14  21
HETATM   21  C15 UNL     1      -1.431  -1.457  -1.644  1.00  0.00     0.012 A 
HETATM   22  C16 UNL     1      -2.312  -2.484  -2.140  1.00  0.00     0.007 A 
HETATM   23  C17 UNL     1      -0.857  -2.859  -1.947  1.00  0.00     0.007 A 
ENDBRANCH  14  21
BRANCH   9  24
HETATM   24  O3  UNL     1      -3.126  -1.921   0.765  1.00  0.00    -0.385 OA
ATOM     25  H3  UNL     1      -2.485  -2.375   1.300  1.00  0.00     0.210 HD
ENDBRANCH   9  24
TORSDOF 4
