REMARK  4 active torsions:
REMARK  status: ('A' for Active; 'I' for Inactive)
REMARK    1  A    between atoms: C1_2  and  C2_3 
REMARK       I    between atoms: C1_2  and  N1_8 
REMARK    2  A    between atoms: C8_11  and  O3_12 
REMARK    3  A    between atoms: C8_11  and  C9_14 
REMARK    4  A    between atoms: C9_14  and  N2_15 
ROOT
HETATM    1  O1  UNL     1      -3.208   0.865   1.991  1.00  0.00    -0.270 OA
HETATM    2  C1  UNL     1      -3.493  -0.045   1.136  1.00  0.00     0.248 C 
HETATM    3  N1  UNL     1      -2.454  -0.712   0.464  1.00  0.00    -0.347 N 
HETATM    4  C6  UNL     1      -2.555  -1.777  -0.496  1.00  0.00     0.129 C 
HETATM    5  C7  UNL     1      -1.453  -1.361  -1.485  1.00  0.00     0.065 C 
HETATM    6  C8  UNL     1      -0.316  -1.241  -0.408  1.00  0.00     0.107 C 
HETATM    7  C17 UNL     1      -1.014  -0.435   0.609  1.00  0.00     0.169 C 
ENDROOT
BRANCH   6   8
HETATM    8  O3  UNL     1      -0.180  -2.567   0.013  1.00  0.00    -0.383 OA
ATOM      9  H3  UNL     1       0.508  -2.494   0.664  1.00  0.00     0.211 HD
ENDBRANCH   6   8
BRANCH   6  10
HETATM   10  C9  UNL     1       0.908  -0.701  -1.042  1.00  0.00     0.102 C 
BRANCH  10  11
HETATM   11  N2  UNL     1       2.046  -0.751  -0.233  1.00  0.00    -0.371 N 
HETATM   12  C10 UNL     1       2.230   0.048   0.892  1.00  0.00     0.064 C 
HETATM   13  C11 UNL     1       3.048   1.298   0.562  1.00  0.00     0.057 C 
HETATM   14  C12 UNL     1       4.364   0.855   0.015  1.00  0.00     0.013 C 
HETATM   15  C13 UNL     1       4.144   0.047  -1.222  1.00  0.00     0.033 C 
HETATM   16  C15 UNL     1       5.419   1.934  -0.098  1.00  0.00     0.243 C 
HETATM   17  C16 UNL     1       5.320   0.242   1.001  1.00  0.00     0.243 C 
HETATM   18  C14 UNL     1       3.262  -1.141  -0.917  1.00  0.00     0.128 C 
HETATM   19  N3  UNL     1       6.413   0.980   0.353  1.00  0.00    -0.074 N 
ATOM     20  H32 UNL     1       7.039   0.520  -0.308  1.00  0.00     0.277 HD
ATOM     21  H31 UNL     1       7.230   1.282   0.883  1.00  0.00     0.277 HD
ENDBRANCH  10  11
ENDBRANCH   6  10
BRANCH   2  22
HETATM   22  C2  UNL     1      -4.922  -0.307   0.939  1.00  0.00     0.213 C 
HETATM   23  C3  UNL     1      -5.352   0.170  -0.437  1.00  0.00     0.043 C 
HETATM   24  C4  UNL     1      -5.841   1.579  -0.152  1.00  0.00     0.029 C 
HETATM   25  C5  UNL     1      -6.160   1.547   1.302  1.00  0.00     0.168 C 
HETATM   26  O2  UNL     1      -5.723   0.365   1.818  1.00  0.00    -0.376 OA
ENDBRANCH   2  22
TORSDOF 4
