REMARK  3 active torsions:
REMARK  status: ('A' for Active; 'I' for Inactive)
REMARK       I    between atoms: N1_7  and  C6_8 
REMARK       I    between atoms: C6_8  and  N2_10 
REMARK    1  A    between atoms: N2_10  and  C7_12 
REMARK    2  A    between atoms: C7_12  and  C8_13 
REMARK    3  A    between atoms: C8_13  and  N3_14 
ROOT
HETATM    1  O1  UNL     1       1.509  -0.283   2.394  1.00  0.00    -0.273 OA
HETATM    2  C1  UNL     1       1.963   0.341   1.417  1.00  0.00     0.230 C 
HETATM    3  C2  UNL     1       3.358   0.888   1.352  1.00  0.00     0.144 C 
HETATM    4  C3  UNL     1       4.022   0.271   0.151  1.00  0.00     0.156 C 
HETATM    5  C4  UNL     1       3.128   0.090  -1.020  1.00  0.00     0.062 C 
HETATM    6  C5  UNL     1       1.821   0.795  -0.983  1.00  0.00     0.139 C 
HETATM    7  N1  UNL     1       1.154   0.581   0.260  1.00  0.00    -0.270 N 
HETATM    8  C6  UNL     1      -0.282   0.597   0.398  1.00  0.00     0.325 C 
HETATM    9  O2  UNL     1      -0.771   0.410   1.531  1.00  0.00    -0.247 OA
HETATM   10  N2  UNL     1      -1.117   0.815  -0.701  1.00  0.00    -0.341 N 
ATOM     11  H2  UNL     1      -0.698   0.967  -1.619  1.00  0.00     0.164 HD
HETATM   12  C13 UNL     1       5.205   1.132  -0.260  1.00  0.00     0.207 C 
HETATM   13  O4  UNL     1       6.375   0.761   0.379  1.00  0.00    -0.387 OA
HETATM   14  C14 UNL     1       6.841  -0.488  -0.045  1.00  0.00     0.195 C 
HETATM   15  C15 UNL     1       5.620  -1.336  -0.399  1.00  0.00     0.259 C 
HETATM   16  N4  UNL     1       4.607  -1.008   0.585  1.00  0.00    -0.062 N 
ATOM     17  H41 UNL     1       3.917  -1.747   0.721  1.00  0.00     0.278 HD
ATOM     18  H42 UNL     1       4.959  -0.991   1.542  1.00  0.00     0.278 HD
ENDROOT
BRANCH  10  19
HETATM   19  C7  UNL     1      -2.533   0.831  -0.577  1.00  0.00     0.144 C 
BRANCH  19  20
HETATM   20  C8  UNL     1      -3.164  -0.447  -0.078  1.00  0.00     0.146 C 
BRANCH  20  21
HETATM   21  N3  UNL     1      -4.572  -0.221  -0.030  1.00  0.00    -0.368 N 
HETATM   22  C9  UNL     1      -5.252  -0.069  -1.251  1.00  0.00     0.089 C 
HETATM   23  C10 UNL     1      -6.723  -0.363  -1.204  1.00  0.00     0.212 C 
HETATM   24  O3  UNL     1      -7.284  -0.093   0.049  1.00  0.00    -0.381 OA
HETATM   25  C11 UNL     1      -6.698  -1.026   0.928  1.00  0.00     0.212 C 
HETATM   26  C12 UNL     1      -5.270  -0.650   1.112  1.00  0.00     0.089 C 
ENDBRANCH  20  21
ENDBRANCH  19  20
ENDBRANCH  10  19
TORSDOF 3
