REMARK  5 active torsions:
REMARK  status: ('A' for Active; 'I' for Inactive)
REMARK    1  A    between atoms: C1_2  and  C2_3 
REMARK       I    between atoms: C1_2  and  N3_16 
REMARK    2  A    between atoms: C2_3  and  N1_4 
REMARK    3  A    between atoms: N2_7  and  C5_8 
REMARK    4  A    between atoms: C15_19  and  O2_20 
REMARK    5  A    between atoms: C16_22  and  O3_23 
ROOT
HETATM    1  C2  UNL     1       1.488  -0.509   0.356  1.00  0.00     0.374 C 
ENDROOT
BRANCH   1   2
HETATM    2  C1  UNL     1       2.389  -0.090  -0.719  1.00  0.00     0.248 C 
HETATM    3  O1  UNL     1       1.963   0.113  -1.880  1.00  0.00    -0.271 OA
HETATM    4  N3  UNL     1       3.763   0.086  -0.434  1.00  0.00    -0.348 N 
HETATM    5  C13 UNL     1       4.697   0.504  -1.472  1.00  0.00     0.128 C 
HETATM    6  C17 UNL     1       4.303  -0.140   0.895  1.00  0.00     0.160 C 
HETATM    7  C14 UNL     1       5.887   1.151  -0.792  1.00  0.00     0.054 C 
HETATM    8  C15 UNL     1       6.605   0.182   0.095  1.00  0.00     0.150 C 
HETATM    9  C16 UNL     1       5.641  -0.823   0.719  1.00  0.00     0.164 C 
BRANCH   8  10
HETATM   10  O2  UNL     1       7.246   0.871   1.144  1.00  0.00    -0.393 OA
ATOM     11  H2  UNL     1       7.702   0.256   1.707  1.00  0.00     0.210 HD
ENDBRANCH   8  10
BRANCH   9  12
HETATM   12  O3  UNL     1       5.533  -1.983  -0.034  1.00  0.00    -0.391 OA
ATOM     13  H3  UNL     1       4.933  -2.609   0.354  1.00  0.00     0.210 HD
ENDBRANCH   9  12
ENDBRANCH   1   2
BRANCH   1  14
HETATM   14  N1  UNL     1       0.093  -0.651  -0.078  1.00  0.00     0.100 N 
HETATM   15  C3  UNL     1      -0.640  -1.062   1.086  1.00  0.00     0.303 C 
HETATM   16  C4  UNL     1      -2.125  -1.037   0.952  1.00  0.00     0.303 C 
HETATM   17  N2  UNL     1      -2.550  -0.212  -0.137  1.00  0.00     0.096 N 
HETATM   18  C11 UNL     1      -1.734   0.981  -0.150  1.00  0.00     0.303 C 
HETATM   19  C12 UNL     1      -0.349   0.572  -0.675  1.00  0.00     0.303 C 
BRANCH  17  20
HETATM   20  C5  UNL     1      -3.949   0.056  -0.183  1.00  0.00     0.223 C 
HETATM   21  C6  UNL     1      -4.458   0.826   1.017  1.00  0.00     0.036 C 
HETATM   22  C7  UNL     1      -5.919   1.186   0.859  1.00  0.00     0.002 C 
HETATM   23  C8  UNL     1      -6.513   0.601  -0.396  1.00  0.00     0.000 C 
HETATM   24  C9  UNL     1      -6.168  -0.832  -0.636  1.00  0.00     0.002 C 
HETATM   25  C10 UNL     1      -4.756  -1.209  -0.308  1.00  0.00     0.036 C 
ENDBRANCH  17  20
ENDBRANCH   1  14
TORSDOF 5
