REMARK  3 active torsions:
REMARK  status: ('A' for Active; 'I' for Inactive)
REMARK    1  A    between atoms: N1_2  and  C2_3 
REMARK    2  A    between atoms: N1_2  and  C3_8 
REMARK    3  A    between atoms: C2_3  and  N2_4 
ROOT
HETATM    1  C3  UNL     1      -0.315  -0.136   0.181  1.00  0.00     0.107 C 
HETATM    2  C4  UNL     1      -1.452  -1.130   0.154  1.00  0.00     0.054 C 
HETATM    3  C5  UNL     1      -2.489  -0.312   0.944  1.00  0.00     0.234 C 
HETATM    4  N3  UNL     1      -2.334   1.018   0.427  1.00  0.00    -0.073 N 
ATOM      5  H31 UNL     1      -2.448   1.731   1.148  1.00  0.00     0.277 HD
ATOM      6  H32 UNL     1      -3.112   1.295  -0.172  1.00  0.00     0.277 HD
HETATM    7  C6  UNL     1      -1.057   1.114  -0.247  1.00  0.00     0.257 C 
ENDROOT
BRANCH   1   8
HETATM    8  N1  UNL     1       0.816  -0.455  -0.603  1.00  0.00    -0.389 N 
HETATM    9  C1  UNL     1       1.526  -1.574  -0.107  1.00  0.00     0.145 C 
BRANCH   8  10
HETATM   10  C2  UNL     1       1.582   0.652  -1.054  1.00  0.00     0.349 C 
BRANCH  10  11
HETATM   11  N2  UNL     1       2.387   1.269  -0.042  1.00  0.00    -0.064 N 
ATOM     12  H23 UNL     1       1.811   1.537   0.756  1.00  0.00     0.276 HD
ATOM     13  H22 UNL     1       2.990   0.577   0.403  1.00  0.00     0.276 HD
ATOM     14  H21 UNL     1       2.937   2.064  -0.366  1.00  0.00     0.276 HD
ENDBRANCH  10  11
ENDBRANCH   8  10
ENDBRANCH   1   8
TORSDOF 3
