REMARK  3 active torsions:
REMARK  status: ('A' for Active; 'I' for Inactive)
REMARK    1  A    between atoms: N1_2  and  C3_4 
REMARK    2  A    between atoms: C3_4  and  C4_5 
REMARK    3  A    between atoms: C6_11  and  N4_12 
ROOT
HETATM    1  C4  UNL     1       0.891  -0.285  -0.117  1.00  0.00     0.041 A 
HETATM    2  C5  UNL     1       1.497   0.923   0.108  1.00  0.00     0.123 A 
HETATM    3  N2  UNL     1       2.816   0.714   0.180  1.00  0.00    -0.309 N 
ATOM      4  H2  UNL     1       3.517   1.437   0.341  1.00  0.00     0.186 HD
HETATM    5  N3  UNL     1       3.072  -0.570   0.011  1.00  0.00    -0.285 N 
ATOM      6  H3  UNL     1       3.997  -1.000   0.019  1.00  0.00     0.188 HD
HETATM    7  C6  UNL     1       1.911  -1.211  -0.173  1.00  0.00     0.126 A 
ENDROOT
BRANCH   1   8
HETATM    8  C3  UNL     1      -0.548  -0.625  -0.281  1.00  0.00     0.101 C 
BRANCH   8   9
HETATM    9  N1  UNL     1      -1.441   0.462  -0.186  1.00  0.00    -0.398 N 
HETATM   10  C1  UNL     1      -1.489   1.195   1.020  1.00  0.00     0.148 C 
HETATM   11  C2  UNL     1      -2.721   0.265  -0.783  1.00  0.00     0.148 C 
ENDBRANCH   8   9
ENDBRANCH   1   8
BRANCH   7  12
HETATM   12  N4  UNL     1       1.829  -2.496  -0.368  1.00  0.00    -0.384 N 
ATOM     13  H42 UNL     1       0.945  -2.984  -0.508  1.00  0.00     0.157 HD
ATOM     14  H41 UNL     1       2.584  -3.181  -0.409  1.00  0.00     0.157 HD
ENDBRANCH   7  12
TORSDOF 3
