REMARK  3 active torsions:
REMARK  status: ('A' for Active; 'I' for Inactive)
REMARK    1  A    between atoms: N1_2  and  C2_5 
REMARK    2  A    between atoms: C2_5  and  C3_6 
REMARK    3  A    between atoms: C3_6  and  N2_7 
ROOT
HETATM    1  C2  UNL     1      -0.268  -0.079  -0.018  1.00  0.00     0.195 C 
HETATM    2  C4  UNL     1      -0.699  -1.399  -0.580  1.00  0.00     0.274 C 
HETATM    3  N3  UNL     1      -2.068  -1.174  -0.215  1.00  0.00    -0.070 N 
ATOM      4  H31 UNL     1      -2.607  -1.911   0.240  1.00  0.00     0.277 HD
ATOM      5  H32 UNL     1      -2.787  -1.101  -0.935  1.00  0.00     0.277 HD
HETATM    6  C5  UNL     1      -1.659   0.002   0.533  1.00  0.00     0.274 C 
ENDROOT
BRANCH   1   7
HETATM    7  N1  UNL     1       0.788  -0.224   0.950  1.00  0.00    -0.065 N 
HETATM    8  C1  UNL     1       2.049  -0.595   0.353  1.00  0.00     0.268 C 
ATOM      9  H12 UNL     1       0.523  -0.882   1.683  1.00  0.00     0.277 HD
ATOM     10  H11 UNL     1       0.885   0.621   1.513  1.00  0.00     0.277 HD
ENDBRANCH   1   7
BRANCH   1  11
HETATM   11  C3  UNL     1       0.002   1.018  -0.990  1.00  0.00     0.271 C 
BRANCH  11  12
HETATM   12  N2  UNL     1       0.128   2.260  -0.215  1.00  0.00    -0.077 N 
ATOM     13  H23 UNL     1      -0.679   2.443   0.381  1.00  0.00     0.274 HD
ATOM     14  H22 UNL     1       0.827   2.200   0.526  1.00  0.00     0.274 HD
ATOM     15  H21 UNL     1       0.313   3.011  -0.880  1.00  0.00     0.274 HD
ENDBRANCH  11  12
ENDBRANCH   1  11
TORSDOF 3
