REMARK  4 active torsions:
REMARK  status: ('A' for Active; 'I' for Inactive)
REMARK    1  A    between atoms: N1_1  and  C1_4 
REMARK    2  A    between atoms: N3_9  and  C4_10 
REMARK    3  A    between atoms: C4_10  and  C5_11 
REMARK    4  A    between atoms: C5_11  and  N4_12 
ROOT
HETATM    1  C1  UNL     1      -1.219  -0.449  -0.631  1.00  0.00     0.677 A 
HETATM    2  N2  UNL     1      -2.471  -0.047  -0.355  1.00  0.00    -0.201 N 
ATOM      3  H2  UNL     1      -3.258  -0.100  -1.002  1.00  0.00     0.183 HD
HETATM    4  C2  UNL     1      -2.535   0.436   0.902  1.00  0.00     0.124 A 
HETATM    5  C3  UNL     1      -1.263   0.314   1.391  1.00  0.00     0.126 A 
HETATM    6  N3  UNL     1      -0.471  -0.226   0.449  1.00  0.00    -0.191 N 
ENDROOT
BRANCH   6   7
HETATM    7  C4  UNL     1       0.930  -0.500   0.615  1.00  0.00     0.174 C 
BRANCH   7   8
HETATM    8  C5  UNL     1       1.744   0.723   0.182  1.00  0.00     0.250 C 
BRANCH   8   9
HETATM    9  N4  UNL     1       3.134   0.397   0.368  1.00  0.00    -0.078 N 
ATOM     10  H43 UNL     1       3.349   0.090   1.317  1.00  0.00     0.274 HD
ATOM     11  H42 UNL     1       3.412  -0.458  -0.113  1.00  0.00     0.274 HD
ATOM     12  H41 UNL     1       3.676   1.211   0.080  1.00  0.00     0.274 HD
ENDBRANCH   8   9
ENDBRANCH   7   8
ENDBRANCH   6   7
BRANCH   1  13
HETATM   13  N1  UNL     1      -0.828  -0.967  -1.770  1.00  0.00    -0.234 N 
ATOM     14  H12 UNL     1      -1.401  -1.138  -2.597  1.00  0.00     0.174 HD
ATOM     15  H11 UNL     1       0.122  -1.272  -1.980  1.00  0.00     0.174 HD
ENDBRANCH   1  13
TORSDOF 4
