REMARK  4 active torsions:
REMARK  status: ('A' for Active; 'I' for Inactive)
REMARK    1  A    between atoms: C2_2  and  C3_3 
REMARK    2  A    between atoms: C3_3  and  C4_4 
REMARK    3  A    between atoms: C4_4  and  C6_6 
REMARK    4  A    between atoms: C6_6  and  C7_7 
ROOT
HETATM    1  C6  UNL     1       1.181  -0.212   0.532  1.00  0.00    -0.020 C 
HETATM    2  C8  UNL     1       1.044  -1.730   0.880  1.00  0.00     0.011 C 
HETATM    3  C9  UNL     1       0.061  -1.953   1.967  1.00  0.00     0.002 C 
HETATM    4  C10 UNL     1      -1.206  -1.187   1.813  1.00  0.00     0.010 C 
HETATM    5  C11 UNL     1      -1.345  -0.585   0.415  1.00  0.00    -0.035 C 
HETATM    6  C12 UNL     1      -1.573  -1.715  -0.520  1.00  0.00     0.016 C 
HETATM    7  C13 UNL     1      -0.160   0.307   0.149  1.00  0.00     0.004 C 
HETATM    8  C14 UNL     1      -0.287   1.023  -1.137  1.00  0.00     0.006 C 
HETATM    9  C15 UNL     1      -1.643   1.776  -1.128  1.00  0.00     0.006 C 
HETATM   10  C16 UNL     1      -2.657   0.725  -1.044  1.00  0.00    -0.000 A 
HETATM   11  C17 UNL     1      -2.548   0.319   0.476  1.00  0.00     0.008 A 
HETATM   12  C18 UNL     1      -3.741   0.444  -0.195  1.00  0.00    -0.032 A 
HETATM   13  C19 UNL     1      -4.869   1.222   0.248  1.00  0.00     0.011 A 
HETATM   14  C20 UNL     1      -4.983  -0.193  -0.362  1.00  0.00     0.011 A 
ENDROOT
BRANCH   1  15
HETATM   15  C4  UNL     1       2.273  -0.211  -0.447  1.00  0.00    -0.005 C 
HETATM   16  C5  UNL     1       2.232  -1.242  -1.548  1.00  0.00     0.011 C 
BRANCH  15  17
HETATM   17  C3  UNL     1       2.958   0.991  -0.931  1.00  0.00     0.031 C 
BRANCH  17  18
HETATM   18  C2  UNL     1       4.395   0.742  -1.320  1.00  0.00    -0.037 C 
HETATM   19  C1  UNL     1       5.338   1.396  -0.688  1.00  0.00     0.007 C 
ENDBRANCH  17  18
ENDBRANCH  15  17
ENDBRANCH   1  15
BRANCH   1  20
HETATM   20  C7  UNL     1       1.665   0.344   1.852  1.00  0.00     0.121 C 
HETATM   21  S1  UNL     1       2.264   1.983   1.975  1.00  0.00    -0.126 SA
ENDBRANCH   1  20
TORSDOF 4
