REMARK  4 active torsions:
REMARK  status: ('A' for Active; 'I' for Inactive)
REMARK    1  A    between atoms: C2_4  and  C3_5 
REMARK    2  A    between atoms: C9_11  and  C10_12 
REMARK    3  A    between atoms: C10_12  and  N2_13 
REMARK    4  A    between atoms: C14_17  and  C15_18 
ROOT
HETATM    1  N2  UNL     1      -1.007  -1.558  -0.598  1.00  0.00     0.097 N 
HETATM    2  C11 UNL     1      -0.746  -2.949  -0.296  1.00  0.00     0.273 C 
HETATM    3  C12 UNL     1      -1.581  -3.155   0.959  1.00  0.00     0.032 C 
HETATM    4  C13 UNL     1      -1.330  -1.855   1.677  1.00  0.00     0.038 C 
HETATM    5  C14 UNL     1      -1.093  -0.818   0.596  1.00  0.00     0.227 C 
ENDROOT
BRANCH   1   6
HETATM    6  C10 UNL     1      -0.148  -1.073  -1.633  1.00  0.00     0.313 C 
BRANCH   6   7
HETATM    7  C9  UNL     1       1.288  -1.130  -1.348  1.00  0.00    -0.013 A 
HETATM    8  C1  UNL     1       2.140  -2.159  -1.652  1.00  0.00     0.097 A 
HETATM    9  N1  UNL     1       3.380  -1.855  -1.239  1.00  0.00    -0.368 N 
HETATM   10  C2  UNL     1       3.354  -0.645  -0.670  1.00  0.00     0.013 A 
ATOM     11  H1  UNL     1       4.204  -2.447  -1.342  1.00  0.00     0.165 HD
HETATM   12  C8  UNL     1       2.073  -0.187  -0.730  1.00  0.00     0.035 A 
BRANCH  10  13
HETATM   13  C3  UNL     1       4.568   0.002  -0.100  1.00  0.00     0.035 C 
HETATM   14  C4  UNL     1       4.847   1.336  -0.733  1.00  0.00     0.011 C 
HETATM   15  C5  UNL     1       5.316   2.201   0.438  1.00  0.00     0.001 C 
HETATM   16  C6  UNL     1       4.497   1.731   1.600  1.00  0.00     0.001 C 
HETATM   17  C7  UNL     1       4.342   0.252   1.362  1.00  0.00     0.011 C 
ENDBRANCH  10  13
ENDBRANCH   6   7
ENDBRANCH   1   6
BRANCH   5  18
HETATM   18  C15 UNL     1      -2.176   0.205   0.700  1.00  0.00     0.019 C 
HETATM   19  C16 UNL     1      -2.063   1.299  -0.338  1.00  0.00     0.007 C 
HETATM   20  C17 UNL     1      -2.953   2.475   0.091  1.00  0.00     0.000 C 
HETATM   21  C18 UNL     1      -4.321   2.389  -0.505  1.00  0.00     0.000 C 
HETATM   22  C19 UNL     1      -5.233   1.442   0.192  1.00  0.00     0.000 C 
HETATM   23  C20 UNL     1      -4.549   0.622   1.260  1.00  0.00     0.000 C 
HETATM   24  C21 UNL     1      -3.577  -0.357   0.632  1.00  0.00     0.007 C 
ENDBRANCH   5  18
TORSDOF 4
