REMARK  4 active torsions:
REMARK  status: ('A' for Active; 'I' for Inactive)
REMARK    1  A    between atoms: C2_2  and  C3_3 
REMARK    2  A    between atoms: C3_3  and  C4_4 
REMARK    3  A    between atoms: C4_4  and  C5_5 
REMARK    4  A    between atoms: C5_5  and  N1_6 
ROOT
HETATM    1  N1  UNL     1       1.717  -0.876  -0.024  1.00  0.00    -0.364 N 
HETATM    2  C6  UNL     1       1.817  -1.833  -1.041  1.00  0.00     0.064 C 
HETATM    3  C7  UNL     1       1.140  -1.467  -2.341  1.00  0.00     0.045 C 
HETATM    4  C8  UNL     1       0.170  -0.359  -2.038  1.00  0.00     0.012 C 
HETATM    5  C9  UNL     1      -0.549  -0.715  -0.726  1.00  0.00     0.018 C 
HETATM    6  C10 UNL     1      -1.871  -0.088  -0.642  1.00  0.00    -0.004 C 
HETATM    7  C11 UNL     1      -2.989  -1.144  -0.539  1.00  0.00     0.006 C 
HETATM    8  C12 UNL     1      -4.268  -0.405  -0.947  1.00  0.00     0.009 C 
HETATM    9  C13 UNL     1      -4.599   0.515   0.217  1.00  0.00    -0.047 C 
HETATM   10  C14 UNL     1      -5.709  -0.189   1.007  1.00  0.00     0.015 C 
HETATM   11  C15 UNL     1      -5.133   1.846  -0.252  1.00  0.00     0.015 C 
HETATM   12  C16 UNL     1      -3.442   0.679   1.140  1.00  0.00     0.013 C 
HETATM   13  C17 UNL     1      -2.119   0.931   0.392  1.00  0.00    -0.009 C 
HETATM   14  C18 UNL     1      -1.094   1.097   1.446  1.00  0.00     0.007 C 
HETATM   15  C19 UNL     1       0.318   0.845   1.053  1.00  0.00     0.032 C 
HETATM   16  C20 UNL     1       0.407  -0.506   0.394  1.00  0.00     0.036 C 
HETATM   17  C21 UNL     1       0.044  -1.523   1.491  1.00  0.00     0.039 C 
ENDROOT
BRANCH   1  18
HETATM   18  C5  UNL     1       2.766   0.020   0.195  1.00  0.00     0.064 C 
BRANCH  18  19
HETATM   19  C4  UNL     1       3.961  -0.765   0.737  1.00  0.00     0.044 C 
BRANCH  19  20
HETATM   20  C3  UNL     1       5.129   0.147   1.009  1.00  0.00     0.005 C 
BRANCH  20  21
HETATM   21  C2  UNL     1       5.630   0.888  -0.186  1.00  0.00    -0.004 C 
HETATM   22  C1  UNL     1       6.800   1.747   0.309  1.00  0.00     0.005 C 
ENDBRANCH  20  21
ENDBRANCH  19  20
ENDBRANCH  18  19
ENDBRANCH   1  18
TORSDOF 4
