REMARK  9 active torsions:
REMARK  status: ('A' for Active; 'I' for Inactive)
REMARK    1  A    between atoms: C2_2  and  S1_3 
REMARK    2  A    between atoms: S1_3  and  N1_6 
REMARK    3  A    between atoms: C5_9  and  N2_10 
REMARK    4  A    between atoms: N2_10  and  C6_12 
REMARK    5  A    between atoms: C8_14  and  C9_15 
REMARK    6  A    between atoms: C9_15  and  C10_16 
REMARK    7  A    between atoms: C10_16  and  C11_17 
REMARK    8  A    between atoms: C15_23  and  N4_24 
REMARK    9  A    between atoms: N4_24  and  C16_26 
ROOT
HETATM    1  C9  UNL     1      -0.969  -0.064   1.246  1.00  0.00     0.046 C 
ENDROOT
BRANCH   1   2
HETATM    2  C8  UNL     1       0.371  -0.733   1.261  1.00  0.00    -0.031 A 
HETATM    3  C7  UNL     1       1.529   0.003   1.138  1.00  0.00     0.057 A 
HETATM    4  C6  UNL     1       2.748  -0.666   1.154  1.00  0.00     0.101 A 
HETATM    5  N7  UNL     1       2.818  -2.001   1.285  1.00  0.00    -0.351 N 
HETATM    6  C24 UNL     1       1.693  -2.752   1.408  1.00  0.00     0.114 A 
ATOM      7  H7  UNL     1       3.730  -2.458   1.292  1.00  0.00     0.166 HD
HETATM    8  C23 UNL     1       0.475  -2.101   1.393  1.00  0.00     0.055 A 
HETATM    9 CL1  UNL     1      -0.992  -3.041   1.556  1.00  0.00    -0.082 Cl
BRANCH   4  10
HETATM   10  N2  UNL     1       3.804   0.057   1.037  1.00  0.00    -0.372 N 
ATOM     11  H2  UNL     1       3.675   1.064   0.941  1.00  0.00     0.161 HD
BRANCH  10  12
HETATM   12  C5  UNL     1       5.159  -0.444   1.031  1.00  0.00     0.086 C 
HETATM   13  C4  UNL     1       5.565  -0.996  -0.321  1.00  0.00     0.045 C 
HETATM   14  C3  UNL     1       7.040  -0.750  -0.593  1.00  0.00     0.137 C 
HETATM   15  N1  UNL     1       7.234   0.652  -0.770  1.00  0.00    -0.311 N 
HETATM   16  C26 UNL     1       6.595   1.459   0.231  1.00  0.00     0.137 C 
HETATM   17  C25 UNL     1       6.142   0.643   1.424  1.00  0.00     0.045 C 
BRANCH  15  18
HETATM   18  S1  UNL     1       8.792   1.143  -1.220  1.00  0.00     0.228 S 
HETATM   19  O1  UNL     1       8.766   2.652  -1.381  1.00  0.00    -0.206 OA
HETATM   20  O2  UNL     1       9.114   0.573  -2.569  1.00  0.00    -0.206 OA
BRANCH  18  21
HETATM   21  C2  UNL     1      10.062   0.765  -0.075  1.00  0.00     0.159 C 
HETATM   22  C1  UNL     1      10.249  -0.682   0.223  1.00  0.00     0.023 C 
ENDBRANCH  18  21
ENDBRANCH  15  18
ENDBRANCH  10  12
ENDBRANCH   4  10
ENDBRANCH   1   2
BRANCH   1  23
HETATM   23  C10 UNL     1      -1.573  -0.292  -0.120  1.00  0.00     0.062 C 
BRANCH  23  24
HETATM   24  C11 UNL     1      -2.919   0.335  -0.229  1.00  0.00     0.028 A 
HETATM   25  C12 UNL     1      -3.089   1.627  -0.662  1.00  0.00     0.050 A 
HETATM   26  C13 UNL     1      -4.377   2.119  -0.729  1.00  0.00     0.024 A 
HETATM   27  C14 UNL     1      -4.606   3.519  -1.194  1.00  0.00     0.068 C 
HETATM   28  N3  UNL     1      -5.406   1.324  -0.372  1.00  0.00    -0.196 N 
HETATM   29  C15 UNL     1      -5.218   0.058   0.050  1.00  0.00     0.684 A 
ATOM     30  H3  UNL     1      -6.356   1.692  -0.423  1.00  0.00     0.184 HD
HETATM   31  N6  UNL     1      -3.974  -0.444   0.124  1.00  0.00    -0.195 N 
ATOM     32  H6  UNL     1      -3.823  -1.401   0.442  1.00  0.00     0.184 HD
BRANCH  29  33
HETATM   33  N4  UNL     1      -6.239  -0.688   0.389  1.00  0.00    -0.176 N 
ATOM     34  H4  UNL     1      -6.081  -1.645   0.706  1.00  0.00     0.186 HD
BRANCH  33  35
HETATM   35  C16 UNL     1      -7.565  -0.180   0.320  1.00  0.00     0.127 A 
HETATM   36  N5  UNL     1      -7.956   0.784   1.204  1.00  0.00    -0.351 N 
HETATM   37  C17 UNL     1      -9.206   1.279   1.160  1.00  0.00     0.090 A 
ATOM     38  H5  UNL     1      -7.297   1.131   1.901  1.00  0.00     0.166 HD
HETATM   39  C18 UNL     1     -10.110   0.820   0.222  1.00  0.00     0.024 A 
HETATM   40  C19 UNL     1      -9.709  -0.161  -0.678  1.00  0.00    -0.051 A 
HETATM   41  C20 UNL     1     -10.668  -0.649  -1.674  1.00  0.00     0.049 C 
HETATM   42  C21 UNL     1      -8.432  -0.667  -0.632  1.00  0.00    -0.011 A 
HETATM   43  C22 UNL     1      -8.027  -1.704  -1.591  1.00  0.00     0.052 C 
ENDBRANCH  33  35
ENDBRANCH  29  33
ENDBRANCH  23  24
ENDBRANCH   1  23
TORSDOF 9
