REMARK  7 active torsions:
REMARK  status: ('A' for Active; 'I' for Inactive)
REMARK    1  A    between atoms: O1_2  and  C2_3 
REMARK    2  A    between atoms: C5_7  and  C6_8 
REMARK    3  A    between atoms: C6_8  and  C7_10 
REMARK    4  A    between atoms: C9_12  and  S1_13 
REMARK    5  A    between atoms: S1_13  and  N1_16 
REMARK    6  A    between atoms: C17_26  and  C18_27 
REMARK    7  A    between atoms: C18_27  and  C19_28 
ROOT
HETATM    1  C2  UNL     1      -2.881   3.362  -0.185  1.00  0.00     0.076 A 
HETATM    2  C3  UNL     1      -1.623   3.809   0.122  1.00  0.00     0.062 A 
HETATM    3  C4  UNL     1      -0.466   3.237  -0.339  1.00  0.00     0.051 A 
HETATM    4 CL1  UNL     1       1.091   3.887   0.117  1.00  0.00    -0.083 Cl
HETATM    5  C5  UNL     1      -0.611   2.130  -1.177  1.00  0.00     0.039 A 
HETATM    6  C16 UNL     1      -1.868   1.668  -1.496  1.00  0.00     0.027 A 
HETATM    7  C17 UNL     1      -3.006   2.250  -1.024  1.00  0.00    -0.018 A 
ENDROOT
BRANCH   5   8
HETATM    8  C6  UNL     1       0.640   1.526  -1.632  1.00  0.00     0.210 C 
HETATM    9  O2  UNL     1       0.945   1.394  -2.840  1.00  0.00    -0.285 OA
BRANCH   8  10
HETATM   10  C7  UNL     1       1.583   1.054  -0.615  1.00  0.00     0.085 A 
HETATM   11  C8  UNL     1       2.939   0.856  -0.742  1.00  0.00     0.059 A 
HETATM   12  C9  UNL     1       3.443   0.408   0.458  1.00  0.00     0.092 A 
HETATM   13  C15 UNL     1       2.339   0.345   1.301  1.00  0.00     0.113 A 
HETATM   14  N2  UNL     1       1.231   0.727   0.669  1.00  0.00    -0.361 N 
ATOM     15  H2  UNL     1       0.293   0.769   1.067  1.00  0.00     0.165 HD
BRANCH  12  16
HETATM   16  S1  UNL     1       5.091   0.012   0.866  1.00  0.00     0.245 S 
HETATM   17  O3  UNL     1       6.008   0.893   0.027  1.00  0.00    -0.206 OA
HETATM   18  O4  UNL     1       5.292   0.435   2.317  1.00  0.00    -0.206 OA
BRANCH  16  19
HETATM   19  N1  UNL     1       5.474  -1.636   0.648  1.00  0.00    -0.206 NA
HETATM   20  C10 UNL     1       5.364  -2.126  -0.687  1.00  0.00     0.107 C 
HETATM   21  C11 UNL     1       6.378  -3.242  -0.958  1.00  0.00     0.015 C 
HETATM   22  C12 UNL     1       7.783  -2.715  -0.901  1.00  0.00     0.002 C 
HETATM   23  C13 UNL     1       7.872  -1.698   0.213  1.00  0.00     0.015 C 
HETATM   24  C14 UNL     1       6.766  -1.934   1.187  1.00  0.00     0.107 C 
ENDBRANCH  16  19
ENDBRANCH  12  16
ENDBRANCH   8  10
ENDBRANCH   5   8
BRANCH   7  25
HETATM   25  C18 UNL     1      -4.351   1.750  -1.327  1.00  0.00     0.100 C 
BRANCH  25  26
HETATM   26  C19 UNL     1      -4.863   0.924  -0.249  1.00  0.00     0.037 A 
HETATM   27  N3  UNL     1      -5.417   1.535   0.823  1.00  0.00    -0.301 N 
HETATM   28  N4  UNL     1      -5.838   0.959   1.903  1.00  0.00    -0.266 N 
ATOM     29  H3  UNL     1      -5.512   2.549   0.776  1.00  0.00     0.186 HD
HETATM   30  C20 UNL     1      -5.720  -0.377   1.980  1.00  0.00     0.266 A 
ATOM     31  H4  UNL     1      -6.244   1.499   2.667  1.00  0.00     0.190 HD
HETATM   32  O5  UNL     1      -6.125  -0.968   3.035  1.00  0.00    -0.266 OA
HETATM   33  C21 UNL     1      -5.172  -1.091   0.942  1.00  0.00     0.019 A 
HETATM   34  C22 UNL     1      -4.739  -0.441  -0.189  1.00  0.00    -0.022 A 
HETATM   35  C26 UNL     1      -5.092  -2.568   1.152  1.00  0.00     0.045 C 
HETATM   36  C23 UNL     1      -4.272  -1.213  -1.335  1.00  0.00     0.041 C 
HETATM   37  C24 UNL     1      -3.787  -2.571  -0.885  1.00  0.00     0.005 C 
HETATM   38  C25 UNL     1      -4.928  -3.276  -0.182  1.00  0.00     0.005 C 
ENDBRANCH  25  26
ENDBRANCH   7  25
BRANCH   1  39
HETATM   39  O1  UNL     1      -4.005   3.958   0.288  1.00  0.00    -0.355 OA
HETATM   40  C1  UNL     1      -4.000   5.097   1.135  1.00  0.00     0.210 C 
ENDBRANCH   1  39
TORSDOF 7
