REMARK  7 active torsions:
REMARK  status: ('A' for Active; 'I' for Inactive)
REMARK    1  A    between atoms: N1_2  and  S1_4 
REMARK    2  A    between atoms: S1_4  and  C3_7 
REMARK    3  A    between atoms: C6_10  and  S2_11 
REMARK    4  A    between atoms: S2_11  and  N2_14 
REMARK    5  A    between atoms: N2_14  and  C7_16 
REMARK    6  A    between atoms: C11_20  and  C12_21 
REMARK    7  A    between atoms: C14_27  and  C15_28 
ROOT
HETATM    1  C7  UNL     1      -0.813  -0.781  -1.124  1.00  0.00     0.043 A 
HETATM    2  C8  UNL     1      -0.413  -0.586   0.165  1.00  0.00     0.030 A 
HETATM    3  C9  UNL     1      -1.361  -0.781   1.175  1.00  0.00     0.003 A 
HETATM    4  C10 UNL     1      -2.656  -1.156   0.891  1.00  0.00     0.014 A 
HETATM    5  C11 UNL     1      -3.077  -1.358  -0.412  1.00  0.00    -0.005 A 
HETATM    6  C21 UNL     1      -2.139  -1.164  -1.393  1.00  0.00     0.043 A 
ENDROOT
BRANCH   1   7
HETATM    7  N2  UNL     1       0.052  -0.605  -2.233  1.00  0.00    -0.279 N 
ATOM      8  H2  UNL     1      -0.310  -0.052  -3.010  1.00  0.00     0.179 HD
BRANCH   7   9
HETATM    9  S2  UNL     1       1.633  -1.219  -2.407  1.00  0.00     0.278 S 
HETATM   10  O3  UNL     1       2.146  -0.891  -3.798  1.00  0.00    -0.199 OA
HETATM   11  O4  UNL     1       1.664  -2.725  -2.291  1.00  0.00    -0.199 OA
BRANCH   9  12
HETATM   12  C6  UNL     1       2.690  -0.578  -1.188  1.00  0.00     0.149 A 
HETATM   13  C5  UNL     1       3.359  -1.421  -0.292  1.00  0.00     0.045 A 
HETATM   14  C4  UNL     1       4.212  -0.938   0.669  1.00  0.00     0.029 A 
HETATM   15  C3  UNL     1       4.403   0.427   0.737  1.00  0.00     0.090 A 
HETATM   16  C22 UNL     1       3.749   1.250  -0.138  1.00  0.00     0.113 A 
HETATM   17  N5  UNL     1       2.923   0.753  -1.065  1.00  0.00    -0.354 N 
ATOM     18  H5  UNL     1       2.452   1.396  -1.701  1.00  0.00     0.166 HD
BRANCH  15  19
HETATM   19  S1  UNL     1       5.493   1.098   1.957  1.00  0.00     0.244 S 
HETATM   20  O1  UNL     1       5.014   2.484   2.283  1.00  0.00    -0.206 OA
HETATM   21  O2  UNL     1       5.463   0.277   3.193  1.00  0.00    -0.206 OA
BRANCH  19  22
HETATM   22  N1  UNL     1       7.079   1.217   1.295  1.00  0.00    -0.215 NA
HETATM   23  C1  UNL     1       7.628  -0.052   0.911  1.00  0.00     0.129 C 
HETATM   24  C2  UNL     1       7.168   2.235   0.290  1.00  0.00     0.129 C 
ENDBRANCH  19  22
ENDBRANCH  15  19
ENDBRANCH   9  12
ENDBRANCH   7   9
ENDBRANCH   1   7
BRANCH   5  25
HETATM   25  C12 UNL     1      -4.441  -1.754  -0.740  1.00  0.00     0.070 A 
HETATM   26  N3  UNL     1      -4.769  -2.927  -1.332  1.00  0.00    -0.299 N 
HETATM   27  N4  UNL     1      -6.072  -3.021  -1.509  1.00  0.00    -0.311 N 
ATOM     28  H3  UNL     1      -4.096  -3.644  -1.605  1.00  0.00     0.187 HD
HETATM   29  C13 UNL     1      -6.619  -1.904  -1.031  1.00  0.00     0.121 A 
ATOM     30  H4  UNL     1      -6.569  -3.804  -1.933  1.00  0.00     0.186 HD
HETATM   31  C14 UNL     1      -5.616  -1.075  -0.534  1.00  0.00     0.020 A 
BRANCH  31  32
HETATM   32  C15 UNL     1      -5.742   0.230   0.076  1.00  0.00    -0.022 A 
HETATM   33  C16 UNL     1      -5.182   1.369  -0.459  1.00  0.00     0.014 A 
HETATM   34  C17 UNL     1      -5.336   2.587   0.167  1.00  0.00     0.020 A 
HETATM   35  C18 UNL     1      -6.055   2.710   1.352  1.00  0.00     0.011 A 
HETATM   36 BR1  UNL     1      -6.251   4.403   2.195  1.00  0.00    -0.051 Br
HETATM   37  C19 UNL     1      -6.615   1.573   1.889  1.00  0.00     0.020 A 
HETATM   38  C20 UNL     1      -6.452   0.357   1.248  1.00  0.00     0.014 A 
ENDBRANCH  31  32
ENDBRANCH   5  25
TORSDOF 7
