REMARK  7 active torsions:
REMARK  status: ('A' for Active; 'I' for Inactive)
REMARK       I    between atoms: N1_2  and  C2_4 
REMARK    1  A    between atoms: C2_4  and  C3_6 
REMARK    2  A    between atoms: C3_6  and  N2_7 
REMARK    3  A    between atoms: N2_7  and  C4_8 
REMARK    4  A    between atoms: C9_15  and  C10_16 
REMARK    5  A    between atoms: N4_20  and  C14_21 
REMARK    6  A    between atoms: C14_21  and  C15_22 
REMARK    7  A    between atoms: C15_22  and  N5_23 
ROOT
HETATM    1  C4  UNL     1      -5.619  -0.082  -0.549  1.00  0.00     0.146 A 
HETATM    2  C5  UNL     1      -4.369  -0.573  -0.585  1.00  0.00     0.134 A 
HETATM    3  C6  UNL     1      -3.120   0.020  -0.163  1.00  0.00     0.140 A 
HETATM    4  N3  UNL     1      -1.983  -0.768  -0.070  1.00  0.00    -0.338 N 
ATOM      5  H3  UNL     1      -1.995  -1.787  -0.122  1.00  0.00     0.167 HD
HETATM    6  C7  UNL     1      -0.908  -0.072   0.089  1.00  0.00     0.061 A 
HETATM    7  C8  UNL     1       0.443  -0.375   0.248  1.00  0.00     0.043 A 
HETATM    8  C9  UNL     1       1.414   0.578   0.418  1.00  0.00    -0.028 A 
HETATM    9  C22 UNL     1       1.031   1.910   0.431  1.00  0.00     0.014 A 
HETATM   10  C23 UNL     1      -0.320   2.248   0.274  1.00  0.00     0.033 A 
HETATM   11  C24 UNL     1      -1.247   1.238   0.107  1.00  0.00     0.062 A 
HETATM   12  N6  UNL     1      -2.624   1.248  -0.057  1.00  0.00    -0.334 N 
HETATM   13  C25 UNL     1      -3.253   2.527  -0.304  1.00  0.00     0.158 C 
HETATM   14  N7  UNL     1      -4.286  -1.896  -1.014  1.00  0.00    -0.294 N 
ATOM     15  H7  UNL     1      -3.362  -2.326  -1.046  1.00  0.00     0.187 HD
HETATM   16  N8  UNL     1      -5.293  -2.616  -1.374  1.00  0.00    -0.304 N 
ATOM     17  H8  UNL     1      -5.119  -3.575  -1.674  1.00  0.00     0.186 HD
HETATM   18  C26 UNL     1      -6.545  -2.174  -1.375  1.00  0.00     0.035 A 
HETATM   19  C27 UNL     1      -6.752  -0.896  -0.965  1.00  0.00     0.009 A 
HETATM   20  C28 UNL     1      -8.107  -0.306  -1.006  1.00  0.00     0.044 C 
HETATM   21  C29 UNL     1      -8.755  -0.944  -2.258  1.00  0.00     0.005 C 
HETATM   22  C30 UNL     1      -8.966  -2.395  -1.902  1.00  0.00     0.006 C 
HETATM   23  C31 UNL     1      -7.636  -3.076  -1.830  1.00  0.00     0.059 C 
ENDROOT
BRANCH   1  24
HETATM   24  N2  UNL     1      -6.021   0.877   0.096  1.00  0.00    -0.409 NA
BRANCH  24  25
HETATM   25  C3  UNL     1      -6.451   1.936   0.812  1.00  0.00     0.256 C 
BRANCH  25  26
HETATM   26  C2  UNL     1      -7.305   1.704   2.019  1.00  0.00     0.269 C 
HETATM   27  N1  UNL     1      -7.680   0.464   2.512  1.00  0.00    -0.360 N 
HETATM   28  C1  UNL     1      -8.515   0.274   3.696  1.00  0.00     0.149 C 
ATOM     29  H1  UNL     1      -7.353  -0.366   2.018  1.00  0.00     0.162 HD
HETATM   30  O1  UNL     1      -7.697   2.765   2.617  1.00  0.00    -0.266 OA
ENDBRANCH  25  26
ENDBRANCH  24  25
ENDBRANCH   1  24
BRANCH   8  31
HETATM   31  C10 UNL     1       2.806   0.265   0.656  1.00  0.00    -0.050 C 
HETATM   32  C11 UNL     1       3.194  -1.001   0.880  1.00  0.00    -0.014 C 
HETATM   33  C12 UNL     1       4.558  -1.525   1.144  1.00  0.00     0.072 C 
HETATM   34  C13 UNL     1       5.574  -1.157   0.073  1.00  0.00     0.067 C 
HETATM   35  N4  UNL     1       5.837   0.183  -0.075  1.00  0.00    -0.372 N 
HETATM   36  C20 UNL     1       4.740   1.004  -0.537  1.00  0.00     0.131 C 
HETATM   37  C21 UNL     1       3.796   1.367   0.600  1.00  0.00     0.059 C 
BRANCH  35  38
HETATM   38  C14 UNL     1       6.996   0.876   0.236  1.00  0.00     0.093 C 
BRANCH  38  39
HETATM   39  C15 UNL     1       8.164   0.564  -0.638  1.00  0.00     0.317 C 
BRANCH  39  40
HETATM   40  N5  UNL     1       8.635  -0.778  -0.499  1.00  0.00     0.093 N 
HETATM   41  C16 UNL     1       9.300  -0.928   0.766  1.00  0.00     0.273 C 
HETATM   42  C17 UNL     1      10.791  -0.952   0.516  1.00  0.00     0.032 C 
HETATM   43  C18 UNL     1      10.940  -1.023  -0.966  1.00  0.00     0.032 C 
HETATM   44  C19 UNL     1       9.545  -1.197  -1.526  1.00  0.00     0.273 C 
ENDBRANCH  39  40
ENDBRANCH  38  39
ENDBRANCH  35  38
ENDBRANCH   8  31
TORSDOF 7
