REMARK  7 active torsions:
REMARK  status: ('A' for Active; 'I' for Inactive)
REMARK    1  A    between atoms: C8_9  and  C9_10 
REMARK       I    between atoms: C9_10  and  N1_12 
REMARK    2  A    between atoms: N1_12  and  C10_14 
REMARK    3  A    between atoms: C15_20  and  C16_21 
REMARK    4  A    between atoms: C16_21  and  N2_22 
REMARK       I    between atoms: N2_22  and  C17_24 
REMARK    5  A    between atoms: C17_24  and  C18_26 
REMARK    6  A    between atoms: C22_30  and  C23_31 
REMARK       I    between atoms: C23_31  and  N3_33 
REMARK    7  A    between atoms: N3_33  and  C24_35 
ROOT
HETATM    1  C1  UNL     1      -3.479   5.031   0.689  1.00  0.00     0.045 C 
HETATM    2  C2  UNL     1      -3.754   3.835   1.588  1.00  0.00     0.054 C 
HETATM    3  C3  UNL     1      -4.232   4.276   2.946  1.00  0.00     0.045 C 
HETATM    4  C4  UNL     1      -2.497   3.018   1.772  1.00  0.00     0.050 C 
HETATM    5  C5  UNL     1      -2.558   2.061   0.611  1.00  0.00    -0.002 C 
HETATM    6  C6  UNL     1      -3.921   2.223   0.052  1.00  0.00     0.179 C 
HETATM    7  O1  UNL     1      -4.653   3.032   0.905  1.00  0.00    -0.380 OA
HETATM    8  C7  UNL     1      -1.409   2.315  -0.350  1.00  0.00     0.027 C 
HETATM    9  C8  UNL     1      -1.257   0.808  -0.510  1.00  0.00     0.092 C 
HETATM   10  C22 UNL     1      -2.022   0.683   0.820  1.00  0.00     0.101 C 
ENDROOT
BRANCH   9  11
HETATM   11  C9  UNL     1       0.096   0.268  -0.386  1.00  0.00     0.223 C 
HETATM   12  O2  UNL     1       0.328  -0.646   0.475  1.00  0.00    -0.273 OA
HETATM   13  N1  UNL     1       1.200   0.697  -1.175  1.00  0.00    -0.356 N 
ATOM     14  H1  UNL     1       1.048   1.427  -1.871  1.00  0.00     0.162 HD
BRANCH  13  15
HETATM   15  C10 UNL     1       2.523   0.144  -1.033  1.00  0.00     0.085 C 
HETATM   16  C11 UNL     1       3.139  -0.347  -2.295  1.00  0.00     0.034 C 
HETATM   17  C12 UNL     1       4.592   0.120  -2.275  1.00  0.00     0.041 A 
HETATM   18  C13 UNL     1       4.895   1.583  -2.456  1.00  0.00     0.114 A 
HETATM   19  C15 UNL     1       4.823   0.954  -1.127  1.00  0.00     0.020 A 
HETATM   20  C14 UNL     1       3.859   2.524  -2.983  1.00  0.00     0.053 C 
HETATM   21  F1  UNL     1       6.179   1.878  -2.885  1.00  0.00    -0.242 F 
HETATM   22  C21 UNL     1       3.445   1.147  -0.428  1.00  0.00     0.040 C 
BRANCH  19  23
HETATM   23  C16 UNL     1       5.973   0.829  -0.200  1.00  0.00     0.136 C 
BRANCH  23  24
HETATM   24  N2  UNL     1       6.033  -0.401   0.513  1.00  0.00    -0.360 N 
HETATM   25  C17 UNL     1       6.223  -1.723   0.092  1.00  0.00     0.221 C 
HETATM   26  O3  UNL     1       6.405  -2.091  -1.089  1.00  0.00    -0.273 OA
ATOM     27  H2  UNL     1       5.915  -0.301   1.521  1.00  0.00     0.162 HD
BRANCH  25  28
HETATM   28  C18 UNL     1       6.209  -2.801   1.148  1.00  0.00     0.078 A 
HETATM   29  C19 UNL     1       5.242  -2.676   2.266  1.00  0.00     0.015 A 
HETATM   30  C20 UNL     1       6.740  -2.488   2.484  1.00  0.00     0.015 A 
ENDBRANCH  25  28
ENDBRANCH  23  24
ENDBRANCH  19  23
ENDBRANCH  13  15
ENDBRANCH   9  11
BRANCH  10  31
HETATM   31  C23 UNL     1      -2.987  -0.426   0.760  1.00  0.00     0.223 C 
HETATM   32  O4  UNL     1      -3.951  -0.464   1.559  1.00  0.00    -0.273 OA
HETATM   33  N3  UNL     1      -2.840  -1.454  -0.192  1.00  0.00    -0.356 N 
ATOM     34  H3  UNL     1      -2.062  -1.440  -0.851  1.00  0.00     0.162 HD
BRANCH  33  35
HETATM   35  C24 UNL     1      -3.804  -2.526  -0.223  1.00  0.00     0.084 C 
HETATM   36  C25 UNL     1      -3.059  -3.836   0.043  1.00  0.00     0.025 C 
HETATM   37  C26 UNL     1      -4.120  -4.887   0.288  1.00  0.00     0.002 C 
HETATM   38  C27 UNL     1      -5.492  -4.431  -0.149  1.00  0.00     0.000 C 
HETATM   39  C28 UNL     1      -5.490  -3.746  -1.485  1.00  0.00     0.002 C 
HETATM   40  C29 UNL     1      -4.448  -2.662  -1.587  1.00  0.00     0.025 C 
ENDBRANCH  33  35
ENDBRANCH  10  31
TORSDOF 7
