REMARK  10 active torsions:
REMARK  status: ('A' for Active; 'I' for Inactive)
REMARK    1  A    between atoms: C3_3  and  C4_4 
REMARK    2  A    between atoms: C6_6  and  S1_7 
REMARK    3  A    between atoms: S1_7  and  N1_8 
REMARK    4  A    between atoms: C9_15  and  N2_16 
REMARK       I    between atoms: N2_16  and  C10_18 
REMARK    5  A    between atoms: C10_18  and  C11_20 
REMARK    6  A    between atoms: C11_20  and  C12_21 
REMARK    7  A    between atoms: C12_21  and  C13_22 
REMARK    8  A    between atoms: C13_22  and  C14_23 
REMARK    9  A    between atoms: C14_23  and  C15_24 
REMARK   10  A    between atoms: C15_24  and  N3_25 
ROOT
HETATM    1  C1  UNL     1      -3.449  -0.201  -4.624  1.00  0.00     0.112 C 
HETATM    2  C2  UNL     1      -3.846  -0.042  -3.229  1.00  0.00    -0.105 C 
HETATM    3  C3  UNL     1      -4.158   0.087  -2.057  1.00  0.00    -0.065 C 
ENDROOT
BRANCH   3   4
HETATM    4  C4  UNL     1      -4.535   0.258  -0.679  1.00  0.00     0.045 A 
HETATM    5  C5  UNL     1      -5.843   0.322  -0.318  1.00  0.00     0.048 A 
HETATM    6  C6  UNL     1      -6.231   0.483   0.975  1.00  0.00     0.080 A 
HETATM    7  C7  UNL     1      -5.274   0.585   1.947  1.00  0.00     0.027 A 
HETATM    8  C8  UNL     1      -3.921   0.521   1.588  1.00  0.00     0.032 A 
HETATM    9  C9  UNL     1      -3.524   0.359   0.290  1.00  0.00     0.053 A 
BRANCH   6  10
HETATM   10  S1  UNL     1      -7.952   0.553   1.340  1.00  0.00     0.256 S 
HETATM   11  O1  UNL     1      -8.178   0.009   2.721  1.00  0.00    -0.201 OA
HETATM   12  O2  UNL     1      -8.701  -0.265   0.349  1.00  0.00    -0.201 OA
BRANCH  10  13
HETATM   13  N1  UNL     1      -8.504   2.204   1.268  1.00  0.00    -0.324 N 
ATOM     14  H12 UNL     1      -7.907   3.000   1.046  1.00  0.00     0.169 HD
ATOM     15  H11 UNL     1      -9.501   2.245   1.479  1.00  0.00     0.169 HD
ENDBRANCH  10  13
ENDBRANCH   6  10
BRANCH   9  16
HETATM   16  N2  UNL     1      -2.195   0.284  -0.167  1.00  0.00    -0.326 N 
HETATM   17  C10 UNL     1      -1.042   0.362   0.627  1.00  0.00     0.222 C 
HETATM   18  O3  UNL     1      -1.024   0.510   1.873  1.00  0.00    -0.273 OA
ATOM     19  H2  UNL     1      -2.058   0.161  -1.170  1.00  0.00     0.169 HD
BRANCH  17  20
HETATM   20  C11 UNL     1       0.290   0.257  -0.083  1.00  0.00     0.103 C 
BRANCH  20  21
HETATM   21  C12 UNL     1       1.391   0.363   0.947  1.00  0.00     0.009 C 
BRANCH  21  22
HETATM   22  C13 UNL     1       2.770   0.275   0.333  1.00  0.00     0.002 C 
BRANCH  22  23
HETATM   23  C14 UNL     1       2.903  -1.058  -0.367  1.00  0.00     0.020 C 
BRANCH  23  24
HETATM   24  C15 UNL     1       4.216  -1.289  -1.021  1.00  0.00     0.135 C 
BRANCH  24  25
HETATM   25  N3  UNL     1       5.370  -1.260  -0.169  1.00  0.00    -0.279 N 
HETATM   26  C16 UNL     1       6.000  -2.294   0.554  1.00  0.00     0.268 A 
HETATM   27  O4  UNL     1       5.662  -3.469   0.597  1.00  0.00    -0.266 OA
HETATM   28  C17 UNL     1       7.151  -1.683   1.250  1.00  0.00     0.090 A 
HETATM   29  S2  UNL     1       8.472  -1.947   2.291  1.00  0.00    -0.094 SA
HETATM   30  C20 UNL     1       7.233  -0.346   0.978  1.00  0.00     0.073 A 
HETATM   31  C18 UNL     1       9.103  -0.371   2.364  1.00  0.00     0.070 A 
HETATM   32  C19 UNL     1       8.253   0.341   1.559  1.00  0.00     0.034 A 
HETATM   33 BR1  UNL     1       8.614   2.255   1.349  1.00  0.00    -0.049 Br
HETATM   34  C21 UNL     1       6.097  -0.037   0.062  1.00  0.00     0.263 A 
HETATM   35  O5  UNL     1       5.811   1.086  -0.429  1.00  0.00    -0.267 OA
ENDBRANCH  24  25
ENDBRANCH  23  24
ENDBRANCH  22  23
ENDBRANCH  21  22
ENDBRANCH  20  21
ENDBRANCH  17  20
ENDBRANCH   9  16
ENDBRANCH   3   4
TORSDOF 10
