REMARK  10 active torsions:
REMARK  status: ('A' for Active; 'I' for Inactive)
REMARK    1  A    between atoms: C6_9  and  S1_10 
REMARK    2  A    between atoms: S1_10  and  N3_13 
REMARK    3  A    between atoms: N3_13  and  C7_15 
REMARK    4  A    between atoms: C7_15  and  C8_16 
REMARK    5  A    between atoms: C11_19  and  C12_20 
REMARK       I    between atoms: C12_20  and  N4_22 
REMARK    6  A    between atoms: N4_22  and  C13_24 
REMARK    7  A    between atoms: C13_24  and  C14_25 
REMARK    8  A    between atoms: N5_28  and  C17_29 
REMARK    9  A    between atoms: C17_29  and  C18_30 
REMARK   10  A    between atoms: C19_31  and  C20_32 
ROOT
HETATM    1  C8  UNL     1       3.957  -2.095  -0.934  1.00  0.00     0.004 C 
HETATM    2  C9  UNL     1       3.504  -3.184  -0.024  1.00  0.00     0.007 C 
HETATM    3  C10 UNL     1       2.044  -3.525  -0.159  1.00  0.00     0.014 C 
HETATM    4  C11 UNL     1       1.279  -2.226   0.090  1.00  0.00     0.078 C 
HETATM    5  C25 UNL     1       1.556  -1.363  -1.119  1.00  0.00     0.014 C 
HETATM    6  C26 UNL     1       3.009  -1.010  -1.220  1.00  0.00     0.007 C 
ENDROOT
BRANCH   4   7
HETATM    7  C12 UNL     1      -0.172  -2.489   0.243  1.00  0.00     0.221 C 
HETATM    8  O3  UNL     1      -0.569  -3.677   0.134  1.00  0.00    -0.273 OA
HETATM    9  N4  UNL     1      -1.086  -1.461   0.500  1.00  0.00    -0.360 N 
ATOM     10  H4  UNL     1      -0.757  -0.499   0.587  1.00  0.00     0.162 HD
BRANCH   9  11
HETATM   11  C13 UNL     1      -2.503  -1.757   0.643  1.00  0.00     0.127 C 
BRANCH  11  12
HETATM   12  C14 UNL     1      -3.232  -0.472   0.914  1.00  0.00     0.007 C 
HETATM   13  C15 UNL     1      -4.702  -0.731   1.067  1.00  0.00     0.036 C 
HETATM   14  C16 UNL     1      -5.448   0.558   0.919  1.00  0.00     0.274 C 
HETATM   15  N5  UNL     1      -5.404   1.061  -0.451  1.00  0.00     0.099 N 
HETATM   16  C23 UNL     1      -4.182   0.624  -1.116  1.00  0.00     0.274 C 
HETATM   17  C24 UNL     1      -3.021   0.559  -0.150  1.00  0.00     0.036 C 
BRANCH  15  18
HETATM   18  C17 UNL     1      -6.511   0.483  -1.163  1.00  0.00     0.365 C 
BRANCH  18  19
HETATM   19  C18 UNL     1      -7.742   1.049  -0.611  1.00  0.00    -0.074 C 
HETATM   20  C19 UNL     1      -8.776   1.506  -0.166  1.00  0.00    -0.079 C 
BRANCH  20  21
HETATM   21  C20 UNL     1     -10.043   2.037   0.371  1.00  0.00     0.093 C 
HETATM   22  C21 UNL     1     -10.597   3.114  -0.540  1.00  0.00     0.046 C 
HETATM   23  C22 UNL     1     -11.104   0.928   0.390  1.00  0.00     0.046 C 
HETATM   24 CL1  UNL     1      -9.719   2.643   1.999  1.00  0.00    -0.106 Cl
ENDBRANCH  20  21
ENDBRANCH  18  19
ENDBRANCH  15  18
ENDBRANCH  11  12
ENDBRANCH   9  11
ENDBRANCH   4   7
BRANCH   1  25
HETATM   25  C7  UNL     1       5.238  -1.515  -0.369  1.00  0.00     0.136 C 
BRANCH  25  26
HETATM   26  N3  UNL     1       5.034  -0.989   0.942  1.00  0.00    -0.315 N 
ATOM     27  H3  UNL     1       4.129  -1.011   1.413  1.00  0.00     0.172 HD
BRANCH  26  28
HETATM   28  S1  UNL     1       6.427  -0.323   1.652  1.00  0.00     0.262 S 
HETATM   29  O1  UNL     1       6.044   0.243   3.013  1.00  0.00    -0.200 OA
HETATM   30  O2  UNL     1       7.461  -1.401   1.810  1.00  0.00    -0.200 OA
BRANCH  28  31
HETATM   31  C6  UNL     1       7.006   1.011   0.699  1.00  0.00     0.126 A 
HETATM   32  C2  UNL     1       6.612   2.329   0.793  1.00  0.00     0.047 A 
HETATM   33  C1  UNL     1       5.596   2.838   1.739  1.00  0.00     0.071 C 
HETATM   34  N1  UNL     1       7.293   3.041  -0.098  1.00  0.00    -0.302 N 
HETATM   35  N2  UNL     1       8.102   2.218  -0.749  1.00  0.00    -0.299 N 
ATOM     36  H1  UNL     1       7.208   4.045  -0.254  1.00  0.00     0.186 HD
HETATM   37  C3  UNL     1       9.001   2.648  -1.803  1.00  0.00     0.177 C 
HETATM   38  C4  UNL     1       7.955   0.960  -0.288  1.00  0.00     0.049 A 
HETATM   39  C5  UNL     1       8.727  -0.184  -0.811  1.00  0.00     0.071 C 
ENDBRANCH  28  31
ENDBRANCH  26  28
ENDBRANCH  25  26
ENDBRANCH   1  25
TORSDOF 10
