REMARK  9 active torsions:
REMARK  status: ('A' for Active; 'I' for Inactive)
REMARK    1  A    between atoms: C3_3  and  N1_4 
REMARK    2  A    between atoms: C7_9  and  N2_10 
REMARK       I    between atoms: N2_10  and  C8_12 
REMARK    3  A    between atoms: C8_12  and  C9_14 
REMARK    4  A    between atoms: N3_17  and  S1_18 
REMARK    5  A    between atoms: S1_18  and  C12_21 
REMARK    6  A    between atoms: C17_28  and  C18_29 
REMARK    7  A    between atoms: C18_29  and  O5_31 
REMARK    8  A    between atoms: O5_31  and  C19_32 
REMARK    9  A    between atoms: C23_36  and  C24_37 
ROOT
HETATM    1  C1  UNL     1      -8.027   0.216  -2.184  1.00  0.00     0.014 C 
HETATM    2  C2  UNL     1      -7.832   0.654  -1.077  1.00  0.00    -0.097 C 
HETATM    3  C3  UNL     1      -7.584   1.169   0.290  1.00  0.00     0.221 C 
ENDROOT
BRANCH   3   4
HETATM    4  N1  UNL     1      -6.534   0.380   0.843  1.00  0.00    -0.339 N 
HETATM    5  C4  UNL     1      -6.681  -0.755   1.544  1.00  0.00     0.033 A 
HETATM    6  C5  UNL     1      -7.928  -1.462   1.915  1.00  0.00     0.070 C 
HETATM    7  C6  UNL     1      -5.423  -1.235   1.914  1.00  0.00     0.085 A 
HETATM    8 CL1  UNL     1      -5.052  -2.677   2.836  1.00  0.00    -0.080 Cl
HETATM    9  C7  UNL     1      -4.498  -0.339   1.407  1.00  0.00     0.081 A 
HETATM   10  C23 UNL     1      -5.216   0.628   0.762  1.00  0.00     0.041 A 
BRANCH   9  11
HETATM   11  N2  UNL     1      -3.093  -0.421   1.554  1.00  0.00    -0.324 N 
HETATM   12  C8  UNL     1      -2.336  -1.180   0.647  1.00  0.00     0.226 C 
HETATM   13  O1  UNL     1      -2.893  -1.795  -0.299  1.00  0.00    -0.273 OA
ATOM     14  H2  UNL     1      -2.630   0.071   2.318  1.00  0.00     0.169 HD
BRANCH  12  15
HETATM   15  C9  UNL     1      -0.856  -1.295   0.756  1.00  0.00     0.080 C 
HETATM   16  C10 UNL     1      -0.313   0.137   0.651  1.00  0.00     0.029 C 
HETATM   17  C11 UNL     1       1.177   0.020   0.824  1.00  0.00     0.108 C 
HETATM   18  N3  UNL     1       1.829  -0.805  -0.103  1.00  0.00    -0.206 NA
HETATM   19  C21 UNL     1       1.192  -2.006  -0.502  1.00  0.00     0.108 C 
HETATM   20  C22 UNL     1      -0.291  -2.031  -0.410  1.00  0.00     0.029 C 
BRANCH  18  21
HETATM   21  S1  UNL     1       3.454  -1.074   0.425  1.00  0.00     0.246 S 
HETATM   22  O2  UNL     1       3.382  -1.772   1.753  1.00  0.00    -0.206 OA
HETATM   23  O3  UNL     1       4.144  -2.024  -0.530  1.00  0.00    -0.206 OA
BRANCH  21  24
HETATM   24  C12 UNL     1       4.362   0.418   0.519  1.00  0.00     0.115 A 
HETATM   25  C13 UNL     1       4.449   1.226   1.631  1.00  0.00     0.029 A 
HETATM   26  C14 UNL     1       3.866   1.117   2.973  1.00  0.00     0.070 C 
HETATM   27  N4  UNL     1       5.248   2.276   1.283  1.00  0.00    -0.361 N 
HETATM   28  C15 UNL     1       5.647   2.130   0.001  1.00  0.00     0.023 A 
ATOM     29  H4  UNL     1       5.504   3.050   1.896  1.00  0.00     0.165 HD
HETATM   30  C16 UNL     1       6.527   3.063  -0.752  1.00  0.00     0.069 C 
HETATM   31  C17 UNL     1       5.107   0.973  -0.507  1.00  0.00     0.086 A 
BRANCH  31  32
HETATM   32  C18 UNL     1       5.256   0.414  -1.825  1.00  0.00     0.296 C 
HETATM   33  O4  UNL     1       4.461   0.698  -2.785  1.00  0.00    -0.259 OA
BRANCH  32  34
HETATM   34  O5  UNL     1       6.279  -0.482  -2.160  1.00  0.00    -0.318 OA
BRANCH  34  35
HETATM   35  C19 UNL     1       6.382  -1.010  -3.487  1.00  0.00     0.174 C 
HETATM   36  C20 UNL     1       7.553  -1.932  -3.560  1.00  0.00     0.034 C 
ENDBRANCH  34  35
ENDBRANCH  32  34
ENDBRANCH  31  32
ENDBRANCH  21  24
ENDBRANCH  18  21
ENDBRANCH  12  15
ENDBRANCH   9  11
BRANCH  10  37
HETATM   37  C24 UNL     1      -4.653   1.802   0.071  1.00  0.00     0.055 C 
HETATM   38  C25 UNL     1      -4.072   1.475  -1.262  1.00  0.00     0.011 C 
ENDBRANCH  10  37
ENDBRANCH   3   4
TORSDOF 9
