REMARK  7 active torsions:
REMARK  status: ('A' for Active; 'I' for Inactive)
REMARK    1  A    between atoms: C4_9  and  C5_10 
REMARK    2  A    between atoms: N4_13  and  C8_14 
REMARK    3  A    between atoms: C8_14  and  C9_15 
REMARK    4  A    between atoms: C9_15  and  C10_16 
REMARK    5  A    between atoms: C12_18  and  C13_19 
REMARK    6  A    between atoms: C20_27  and  C21_28 
REMARK       I    between atoms: N6_31  and  C22_32 
REMARK    7  A    between atoms: C22_32  and  C23_34 
ROOT
HETATM    1  N1  UNL     1       7.735  -3.072  -1.854  1.00  0.00    -0.191 NA
HETATM    2  C1  UNL     1       7.730  -1.952  -1.560  1.00  0.00     0.103 C 
HETATM    3  C2  UNL     1       7.751  -0.548  -1.187  1.00  0.00     0.085 A 
HETATM    4  C3  UNL     1       8.800   0.333  -1.441  1.00  0.00     0.131 A 
HETATM    5  N2  UNL     1       8.452   1.513  -0.945  1.00  0.00    -0.310 N 
ATOM      6  H2  UNL     1       9.017   2.361  -0.977  1.00  0.00     0.186 HD
HETATM    7  N3  UNL     1       7.245   1.407  -0.399  1.00  0.00    -0.303 N 
ATOM      8  H3  UNL     1       6.746   2.173   0.053  1.00  0.00     0.186 HD
HETATM    9  C4  UNL     1       6.768   0.151  -0.523  1.00  0.00     0.052 A 
ENDROOT
BRANCH   9  10
HETATM   10  C5  UNL     1       5.451  -0.377  -0.054  1.00  0.00     0.042 C 
HETATM   11  C6  UNL     1       4.718   0.572   0.840  1.00  0.00     0.041 C 
HETATM   12  C7  UNL     1       3.247   0.718   0.423  1.00  0.00     0.273 C 
HETATM   13  N4  UNL     1       2.727  -0.590   0.241  1.00  0.00     0.088 N 
HETATM   14  C28 UNL     1       3.236  -1.149  -0.968  1.00  0.00     0.273 C 
HETATM   15  C29 UNL     1       4.633  -0.682  -1.308  1.00  0.00     0.041 C 
BRANCH  13  16
HETATM   16  C8  UNL     1       1.288  -0.716   0.306  1.00  0.00     0.274 C 
BRANCH  16  17
HETATM   17  C9  UNL     1       0.833  -0.477   1.696  1.00  0.00     0.055 C 
BRANCH  17  18
HETATM   18  C10 UNL     1      -0.627  -0.564   1.965  1.00  0.00     0.090 C 
HETATM   19  C11 UNL     1      -1.212  -1.898   1.631  1.00  0.00     0.033 C 
HETATM   20  C12 UNL     1      -2.613  -1.632   1.236  1.00  0.00     0.025 C 
HETATM   21  C20 UNL     1      -2.861  -0.198   1.419  1.00  0.00     0.193 C 
HETATM   22  N6  UNL     1      -1.502   0.384   1.410  1.00  0.00    -0.332 N 
HETATM   23  C22 UNL     1      -1.217   1.686   0.932  1.00  0.00     0.225 C 
HETATM   24  O3  UNL     1      -0.036   2.167   1.023  1.00  0.00    -0.273 OA
BRANCH  20  25
HETATM   25  C13 UNL     1      -3.032  -2.244  -0.052  1.00  0.00    -0.001 C 
HETATM   26  C14 UNL     1      -4.491  -1.945  -0.392  1.00  0.00     0.036 C 
HETATM   27  C15 UNL     1      -4.825  -2.972  -1.486  1.00  0.00     0.272 C 
HETATM   28  N5  UNL     1      -3.891  -2.890  -2.584  1.00  0.00     0.088 N 
HETATM   29  C16 UNL     1      -3.866  -1.490  -2.997  1.00  0.00     0.273 C 
HETATM   30  C19 UNL     1      -2.522  -3.195  -2.195  1.00  0.00     0.277 C 
HETATM   31  C17 UNL     1      -2.746  -0.901  -2.180  1.00  0.00     0.037 C 
HETATM   32  C18 UNL     1      -2.238  -1.990  -1.264  1.00  0.00     0.020 C 
ENDBRANCH  20  25
BRANCH  21  33
HETATM   33  C21 UNL     1      -3.442   0.015   2.762  1.00  0.00     0.197 C 
HETATM   34  O1  UNL     1      -4.646  -0.375   2.925  1.00  0.00    -0.646 OA
HETATM   35  O2  UNL     1      -2.747   0.598   3.792  1.00  0.00    -0.646 OA
ENDBRANCH  21  33
BRANCH  23  36
HETATM   36  C23 UNL     1      -2.204   2.593   0.301  1.00  0.00     0.081 C 
HETATM   37  C24 UNL     1      -3.206   3.115   1.266  1.00  0.00     0.017 C 
HETATM   38  C25 UNL     1      -3.361   4.617   0.997  1.00  0.00     0.038 C 
HETATM   39  C26 UNL     1      -1.986   4.992   0.534  1.00  0.00     0.171 C 
HETATM   40  F1  UNL     1      -1.986   6.139  -0.237  1.00  0.00    -0.249 F 
HETATM   41  C27 UNL     1      -1.484   3.799  -0.248  1.00  0.00     0.051 C 
ENDBRANCH  23  36
ENDBRANCH  17  18
ENDBRANCH  16  17
ENDBRANCH  13  16
ENDBRANCH   9  10
TORSDOF 7
