REMARK  7 active torsions:
REMARK  status: ('A' for Active; 'I' for Inactive)
REMARK    1  A    between atoms: O1_2  and  C2_3 
REMARK    2  A    between atoms: C5_7  and  O3_8 
REMARK    3  A    between atoms: C6_10  and  C8_12 
REMARK    4  A    between atoms: C8_12  and  O4_13 
REMARK    5  A    between atoms: C12_18  and  C14_20 
REMARK    6  A    between atoms: C14_20  and  C15_21 
REMARK    7  A    between atoms: C15_21  and  C16_22 
ROOT
HETATM    1  C2  UNL     1       0.810  -1.195  -0.065  1.00  0.00     0.158 C 
HETATM    2  C3  UNL     1      -0.550  -0.764   0.400  1.00  0.00     0.156 C 
HETATM    3  O2  UNL     1      -1.527  -1.641  -0.111  1.00  0.00    -0.380 OA
HETATM    4  C4  UNL     1      -2.656  -1.526   0.689  1.00  0.00     0.200 C 
HETATM    5  C5  UNL     1      -3.238  -0.155   0.761  1.00  0.00     0.152 C 
HETATM    6  C6  UNL     1      -2.463   0.773  -0.132  1.00  0.00     0.011 C 
HETATM    7  C7  UNL     1      -2.785   2.238   0.211  1.00  0.00     0.020 C 
HETATM    8  C9  UNL     1      -0.985   0.608   0.115  1.00  0.00     0.030 C 
HETATM    9  C10 UNL     1      -0.183   1.350  -0.915  1.00  0.00     0.009 C 
HETATM   10  C11 UNL     1       1.275   1.264  -0.430  1.00  0.00     0.012 C 
HETATM   11  C12 UNL     1       1.660  -0.192  -0.712  1.00  0.00    -0.015 C 
HETATM   12  C13 UNL     1       1.366  -0.313  -2.247  1.00  0.00     0.018 C 
ENDROOT
BRANCH  11  13
HETATM   13  C14 UNL     1       3.126  -0.295  -0.613  1.00  0.00     0.022 C 
BRANCH  13  14
HETATM   14  C15 UNL     1       3.826  -0.265   0.678  1.00  0.00     0.114 C 
BRANCH  14  15
HETATM   15  C16 UNL     1       3.648   0.924   1.524  1.00  0.00     0.172 C 
HETATM   16  O5  UNL     1       3.029   0.841   2.643  1.00  0.00    -0.648 OA
HETATM   17  O6  UNL     1       4.142   2.155   1.138  1.00  0.00    -0.648 OA
ENDBRANCH  14  15
ENDBRANCH  13  14
ENDBRANCH  11  13
BRANCH   1  18
HETATM   18  O1  UNL     1       1.495  -1.869   0.934  1.00  0.00    -0.387 OA
HETATM   19  C1  UNL     1       1.622  -3.241   0.631  1.00  0.00     0.202 C 
ENDBRANCH   1  18
BRANCH   6  20
HETATM   20  C8  UNL     1      -2.873   0.528  -1.556  1.00  0.00     0.176 C 
BRANCH  20  21
HETATM   21  O4  UNL     1      -4.242   0.786  -1.634  1.00  0.00    -0.400 OA
ATOM     22  H4  UNL     1      -4.501   0.631  -2.535  1.00  0.00     0.209 HD
ENDBRANCH  20  21
ENDBRANCH   6  20
BRANCH   5  23
HETATM   23  O3  UNL     1      -3.257   0.362   2.055  1.00  0.00    -0.393 OA
ATOM     24  H3  UNL     1      -3.628   1.235   2.101  1.00  0.00     0.210 HD
ENDBRANCH   5  23
TORSDOF 7
