REMARK  3 active torsions:
REMARK  status: ('A' for Active; 'I' for Inactive)
REMARK    1  A    between atoms: C2_2  and  C3_5 
REMARK    2  A    between atoms: C6_9  and  N1_10 
REMARK       I    between atoms: N1_10  and  C7_12 
REMARK       I    between atoms: C7_12  and  N2_14 
REMARK    3  A    between atoms: N2_14  and  C8_16 
ROOT
HETATM    1  N1  UNL     1       2.010   0.074   0.210  1.00  0.00    -0.302 N 
ATOM      2  H1  UNL     1       2.255   0.939  -0.271  1.00  0.00     0.171 HD
HETATM    3  C7  UNL     1       0.656  -0.257   0.424  1.00  0.00     0.321 C 
HETATM    4  O1  UNL     1       0.382  -1.329   1.017  1.00  0.00    -0.247 OA
HETATM    5  N2  UNL     1      -0.416   0.567  -0.002  1.00  0.00    -0.338 N 
ATOM      6  H2  UNL     1      -0.212   1.442  -0.486  1.00  0.00     0.164 HD
ENDROOT
BRANCH   1   7
HETATM    7  C6  UNL     1       3.041  -0.808   0.670  1.00  0.00     0.090 A 
HETATM    8  C3  UNL     1       4.397  -0.667   0.550  1.00  0.00     0.047 A 
HETATM    9  C4  UNL     1       5.160  -1.640   1.080  1.00  0.00     0.023 A 
HETATM   10  C5  UNL     1       4.524  -2.683   1.690  1.00  0.00     0.053 A 
HETATM   11  S1  UNL     1       2.878  -2.285   1.511  1.00  0.00    -0.083 SA
BRANCH   8  12
HETATM   12  C2  UNL     1       4.977   0.543  -0.168  1.00  0.00     0.270 C 
HETATM   13  C1  UNL     1       4.527   0.614  -1.597  1.00  0.00     0.096 C 
HETATM   14  F1  UNL     1       4.600   1.694   0.535  1.00  0.00    -0.201 F 
HETATM   15  F2  UNL     1       6.354   0.518  -0.144  1.00  0.00    -0.201 F 
ENDBRANCH   8  12
ENDBRANCH   1   7
BRANCH   5  16
HETATM   16  C8  UNL     1      -1.795   0.192   0.236  1.00  0.00     0.086 C 
HETATM   17  C9  UNL     1      -2.413   1.235   1.109  1.00  0.00     0.025 C 
HETATM   18  C10 UNL     1      -3.790   1.647   0.683  1.00  0.00     0.002 C 
HETATM   19  C11 UNL     1      -4.825   0.578   0.860  1.00  0.00     0.000 C 
HETATM   20  C12 UNL     1      -4.386  -0.752   0.295  1.00  0.00     0.000 C 
HETATM   21  C13 UNL     1      -3.782  -0.622  -1.071  1.00  0.00     0.002 C 
HETATM   22  C14 UNL     1      -2.462   0.052  -1.106  1.00  0.00     0.025 C 
ENDBRANCH   5  16
TORSDOF 3
