REMARK  3 active torsions:
REMARK  status: ('A' for Active; 'I' for Inactive)
REMARK    1  A    between atoms: C9_11  and  O1_12 
REMARK    2  A    between atoms: O1_12  and  C10_13 
REMARK    3  A    between atoms: C10_13  and  C11_14 
ROOT
HETATM    1  C1  UNL     1       3.127  -1.847  -2.088  1.00  0.00     0.051 C 
HETATM    2  C2  UNL     1       1.908  -1.299  -1.405  1.00  0.00    -0.026 A 
HETATM    3  C3  UNL     1       0.670  -1.847  -1.519  1.00  0.00     0.039 A 
HETATM    4  C4  UNL     1      -0.456  -1.355  -0.898  1.00  0.00     0.044 A 
HETATM    5  N1  UNL     1      -1.756  -1.739  -0.879  1.00  0.00    -0.358 N 
ATOM      6  H1  UNL     1      -2.152  -2.538  -1.373  1.00  0.00     0.166 HD
HETATM    7  C5  UNL     1      -2.426  -0.887  -0.100  1.00  0.00     0.018 A 
HETATM    8  C6  UNL     1      -1.563   0.063   0.395  1.00  0.00    -0.023 A 
HETATM    9  C7  UNL     1      -0.306  -0.237  -0.115  1.00  0.00     0.002 A 
HETATM   10  C8  UNL     1       0.944   0.353   0.027  1.00  0.00     0.051 A 
HETATM   11  C9  UNL     1       2.085  -0.143  -0.600  1.00  0.00     0.076 A 
HETATM   12  C12 UNL     1      -1.976   1.164   1.296  1.00  0.00     0.042 C 
HETATM   13  C13 UNL     1      -3.369   0.949   1.811  1.00  0.00     0.021 C 
HETATM   14  C14 UNL     1      -4.245   0.529   0.656  1.00  0.00     0.064 C 
HETATM   15  S1  UNL     1      -3.855   1.647  -0.740  1.00  0.00    -0.092 SA
HETATM   16  C15 UNL     1      -3.892  -0.880   0.245  1.00  0.00     0.073 C 
ENDROOT
BRANCH  11  17
HETATM   17  O1  UNL     1       3.302   0.395  -0.492  1.00  0.00    -0.342 OA
BRANCH  17  18
HETATM   18  C10 UNL     1       4.040   1.353   0.057  1.00  0.00     0.293 C 
BRANCH  18  19
HETATM   19  C11 UNL     1       4.252   1.425   1.534  1.00  0.00     0.408 C 
HETATM   20  F1  UNL     1       5.075   2.545   1.773  1.00  0.00    -0.169 F 
HETATM   21  F2  UNL     1       5.031   0.344   1.979  1.00  0.00    -0.169 F 
HETATM   22  F3  UNL     1       3.145   1.513   2.318  1.00  0.00    -0.169 F 
ENDBRANCH  18  19
ENDBRANCH  17  18
ENDBRANCH  11  17
TORSDOF 3
