REMARK  4 active torsions:
REMARK  status: ('A' for Active; 'I' for Inactive)
REMARK    1  A    between atoms: C2_2  and  C3_3 
REMARK       I    between atoms: C3_3  and  N1_5 
REMARK    2  A    between atoms: N1_5  and  C4_7 
REMARK    3  A    between atoms: C9_14  and  C10_15 
REMARK    4  A    between atoms: C10_15  and  C13_18 
ROOT
HETATM    1  C4  UNL     1       2.190  -0.359  -0.115  1.00  0.00     0.078 A 
HETATM    2  C5  UNL     1       1.497  -1.531  -0.223  1.00  0.00     0.052 A 
HETATM    3  C6  UNL     1       0.158  -1.469  -0.145  1.00  0.00     0.008 A 
HETATM    4  C7  UNL     1      -0.949  -2.342  -0.199  1.00  0.00     0.017 A 
HETATM    5  C8  UNL     1      -0.952  -3.816  -0.382  1.00  0.00     0.069 C 
HETATM    6  N2  UNL     1      -2.084  -1.629  -0.054  1.00  0.00    -0.360 N 
ATOM      7  H2  UNL     1      -3.025  -2.022  -0.056  1.00  0.00     0.165 HD
HETATM    8  C9  UNL     1      -1.794  -0.327   0.094  1.00  0.00     0.044 A 
HETATM    9  C14 UNL     1      -0.408  -0.231   0.037  1.00  0.00     0.043 A 
HETATM   10  S1  UNL     1       0.954   0.797   0.092  1.00  0.00    -0.070 SA
ENDROOT
BRANCH   8  11
HETATM   11  C10 UNL     1      -2.756   0.768   0.286  1.00  0.00     0.094 C 
HETATM   12  C11 UNL     1      -2.573   1.760  -0.844  1.00  0.00     0.031 C 
HETATM   13  C12 UNL     1      -4.173   0.198   0.153  1.00  0.00     0.031 C 
BRANCH  11  14
HETATM   14  C13 UNL     1      -2.621   1.496   1.596  1.00  0.00     0.400 C 
HETATM   15  F1  UNL     1      -1.381   2.057   1.700  1.00  0.00    -0.170 F 
HETATM   16  F2  UNL     1      -2.770   0.598   2.646  1.00  0.00    -0.170 F 
HETATM   17  F3  UNL     1      -3.633   2.456   1.720  1.00  0.00    -0.170 F 
ENDBRANCH  11  14
ENDBRANCH   8  11
BRANCH   1  18
HETATM   18  N1  UNL     1       3.625  -0.169  -0.167  1.00  0.00    -0.318 N 
HETATM   19  C3  UNL     1       4.149   1.125  -0.035  1.00  0.00     0.245 C 
HETATM   20  O1  UNL     1       3.371   2.095   0.126  1.00  0.00    -0.268 OA
ATOM     21  H1  UNL     1       4.247  -0.967  -0.298  1.00  0.00     0.169 HD
BRANCH  19  22
HETATM   22  C2  UNL     1       5.588   1.325  -0.085  1.00  0.00     0.064 C 
HETATM   23  C1  UNL     1       6.092   2.531   0.037  1.00  0.00     0.017 C 
ENDBRANCH  19  22
ENDBRANCH   1  18
TORSDOF 4
