REMARK  9 active torsions:
REMARK  status: ('A' for Active; 'I' for Inactive)
REMARK    1  A    between atoms: C2_2  and  C3_3 
REMARK    2  A    between atoms: C3_3  and  N1_4 
REMARK    3  A    between atoms: C4_5  and  O1_6 
REMARK    4  A    between atoms: C5_8  and  O2_9 
REMARK    5  A    between atoms: C6_11  and  O3_12 
REMARK    6  A    between atoms: O3_12  and  C7_13 
REMARK    7  A    between atoms: C7_13  and  C8_14 
REMARK    8  A    between atoms: C8_14  and  C9_15 
REMARK    9  A    between atoms: C15_22  and  C16_23 
ROOT
HETATM    1  N1  UNL     1      -3.406  -0.818  -0.934  1.00  0.00    -0.323 N 
HETATM    2  C4  UNL     1      -2.667  -0.670  -2.081  1.00  0.00     0.180 A 
HETATM    3  C5  UNL     1      -1.392  -0.323  -1.737  1.00  0.00     0.153 A 
HETATM    4  C6  UNL     1      -1.314  -0.250  -0.382  1.00  0.00     0.129 A 
HETATM    5  C15 UNL     1      -2.618  -0.571   0.099  1.00  0.00     0.054 A 
ENDROOT
BRANCH   4   6
HETATM    6  O3  UNL     1      -0.191   0.071   0.341  1.00  0.00    -0.346 OA
BRANCH   6   7
HETATM    7  C7  UNL     1       0.752  -0.875   0.800  1.00  0.00     0.176 C 
BRANCH   7   8
HETATM    8  C8  UNL     1       1.832  -0.141   1.544  1.00  0.00     0.031 C 
BRANCH   8   9
HETATM    9  C9  UNL     1       2.491   0.850   0.647  1.00  0.00    -0.009 C 
HETATM   10  C10 UNL     1       3.578   1.587   1.420  1.00  0.00     0.035 C 
HETATM   11  C11 UNL     1       4.766   1.895   0.562  1.00  0.00     0.272 C 
HETATM   12  N2  UNL     1       5.394   0.701   0.029  1.00  0.00     0.084 N 
HETATM   13  C12 UNL     1       5.957   1.034  -1.263  1.00  0.00     0.309 C 
HETATM   14  C13 UNL     1       4.439  -0.384  -0.129  1.00  0.00     0.272 C 
HETATM   15  C14 UNL     1       3.107   0.193  -0.563  1.00  0.00     0.035 C 
ENDBRANCH   8   9
ENDBRANCH   7   8
ENDBRANCH   6   7
ENDBRANCH   4   6
BRANCH   3  16
HETATM   16  O2  UNL     1      -0.331  -0.081  -2.633  1.00  0.00    -0.354 OA
ATOM     17  H2  UNL     1       0.556   0.160  -2.394  1.00  0.00     0.218 HD
ENDBRANCH   3  16
BRANCH   5  18
HETATM   18  C16 UNL     1      -2.803  -0.565   1.562  1.00  0.00     0.039 A 
HETATM   19  C17 UNL     1      -4.128  -0.720   2.265  1.00  0.00     0.011 A 
HETATM   20  C18 UNL     1      -3.149  -1.842   2.264  1.00  0.00     0.011 A 
ENDBRANCH   5  18
BRANCH   2  21
HETATM   21  O1  UNL     1      -3.180  -0.853  -3.351  1.00  0.00    -0.344 OA
ATOM     22  H1  UNL     1      -2.668  -0.751  -4.145  1.00  0.00     0.219 HD
ENDBRANCH   2  21
BRANCH   1  23
HETATM   23  C3  UNL     1      -4.815  -1.199  -0.948  1.00  0.00     0.157 C 
BRANCH  23  24
HETATM   24  C2  UNL     1      -5.713  -0.045  -0.988  1.00  0.00    -0.017 C 
HETATM   25  C1  UNL     1      -5.273   1.198  -1.010  1.00  0.00     0.008 C 
ENDBRANCH  23  24
ENDBRANCH   1  23
TORSDOF 9
