REMARK  7 active torsions:
REMARK  status: ('A' for Active; 'I' for Inactive)
REMARK    1  A    between atoms: C5_7  and  C6_8 
REMARK    2  A    between atoms: C5_7  and  C16_19 
REMARK    3  A    between atoms: C6_8  and  C7_9 
REMARK    4  A    between atoms: C7_9  and  C8_10 
REMARK    5  A    between atoms: C8_10  and  C9_11 
REMARK    6  A    between atoms: C9_11  and  C10_12 
REMARK    7  A    between atoms: C10_12  and  C11_13 
ROOT
HETATM    1  C1  UNL     1      -3.085   1.038   1.476  1.00  0.00     0.079 C 
HETATM    2  C2  UNL     1      -3.697   0.599   0.165  1.00  0.00     0.168 C 
HETATM    3  C3  UNL     1      -5.151   1.073   0.146  1.00  0.00     0.079 C 
HETATM    4  O1  UNL     1      -3.060   1.205  -0.942  1.00  0.00    -0.281 OA
HETATM    5  C4  UNL     1      -2.642   0.217  -1.820  1.00  0.00     0.307 C 
HETATM    6  O2  UNL     1      -1.995   0.358  -2.892  1.00  0.00    -0.261 OA
HETATM    7  C5  UNL     1      -3.108  -1.051  -1.251  1.00  0.00     0.239 C 
HETATM    8  O6  UNL     1      -3.578  -0.757   0.037  1.00  0.00    -0.323 OA
ENDROOT
BRANCH   7   9
HETATM    9  C6  UNL     1      -2.138  -2.158  -1.150  1.00  0.00     0.061 C 
BRANCH   9  10
HETATM   10  C7  UNL     1      -0.927  -2.039  -0.337  1.00  0.00     0.004 C 
BRANCH  10  11
HETATM   11  C8  UNL     1      -0.012  -0.953  -0.754  1.00  0.00     0.000 C 
BRANCH  11  12
HETATM   12  C9  UNL     1       1.268  -0.929   0.127  1.00  0.00     0.002 C 
BRANCH  12  13
HETATM   13  C10 UNL     1       2.089   0.215  -0.414  1.00  0.00     0.032 C 
BRANCH  13  14
HETATM   14  C11 UNL     1       3.388   0.407   0.317  1.00  0.00     0.121 C 
HETATM   15  C12 UNL     1       4.089   1.591  -0.349  1.00  0.00     0.032 C 
HETATM   16  C13 UNL     1       5.559   1.462   0.001  1.00  0.00     0.004 C 
HETATM   17  C14 UNL     1       5.623   0.812   1.371  1.00  0.00     0.026 C 
HETATM   18  C15 UNL     1       4.407   1.147   2.207  1.00  0.00     0.168 C 
HETATM   19  O3  UNL     1       3.232   0.711   1.648  1.00  0.00    -0.386 OA
ENDBRANCH  13  14
ENDBRANCH  12  13
ENDBRANCH  11  12
ENDBRANCH  10  11
ENDBRANCH   9  10
ENDBRANCH   7   9
BRANCH   7  20
HETATM   20  C16 UNL     1      -4.295  -1.551  -2.024  1.00  0.00     0.220 C 
HETATM   21  O4  UNL     1      -4.117  -1.878  -3.216  1.00  0.00    -0.645 OA
HETATM   22  O5  UNL     1      -5.517  -1.636  -1.416  1.00  0.00    -0.645 OA
ENDBRANCH   7  20
TORSDOF 7
