REMARK  4 active torsions:
REMARK  status: ('A' for Active; 'I' for Inactive)
REMARK    1  A    between atoms: C7_7  and  C8_8 
REMARK    2  A    between atoms: C8_8  and  C9_9 
REMARK    3  A    between atoms: C12_12  and  C13_13 
REMARK    4  A    between atoms: C13_13  and  O1_16 
ROOT
HETATM    1  C1  UNL     1      -1.367  -1.582   2.289  1.00  0.00     0.015 C 
HETATM    2  C2  UNL     1      -0.895  -1.722   1.056  1.00  0.00    -0.076 C 
HETATM    3  C3  UNL     1       0.244  -2.643   0.757  1.00  0.00     0.020 C 
HETATM    4  C4  UNL     1       1.598  -2.119   1.179  1.00  0.00     0.019 C 
HETATM    5  C5  UNL     1       1.609  -1.374  -0.168  1.00  0.00    -0.035 C 
HETATM    6  C6  UNL     1       2.992  -1.649  -0.793  1.00  0.00     0.016 C 
HETATM    7  C7  UNL     1       1.489   0.078   0.048  1.00  0.00    -0.005 C 
HETATM    8  C11 UNL     1       0.191   0.661   0.408  1.00  0.00     0.014 C 
HETATM    9  C12 UNL     1      -1.020   0.331  -0.405  1.00  0.00     0.032 C 
HETATM   10  C16 UNL     1      -1.383  -1.054  -0.191  1.00  0.00    -0.014 C 
HETATM   11  C17 UNL     1      -2.813  -1.488  -0.328  1.00  0.00     0.020 C 
HETATM   12  C18 UNL     1      -0.635  -1.854  -1.284  1.00  0.00     0.020 C 
HETATM   13  C19 UNL     1       0.615  -2.247  -0.654  1.00  0.00     0.003 C 
ENDROOT
BRANCH   9  14
HETATM   14  C13 UNL     1      -2.021   1.425  -0.214  1.00  0.00     0.055 C 
HETATM   15  C14 UNL     1      -3.308   1.294  -0.951  1.00  0.00     0.045 C 
HETATM   16  C15 UNL     1      -2.242   1.864   1.207  1.00  0.00     0.045 C 
BRANCH  14  17
HETATM   17  O1  UNL     1      -1.404   2.568  -0.806  1.00  0.00    -0.390 OA
ATOM     18  H1  UNL     1      -2.040   3.263  -0.685  1.00  0.00     0.210 HD
ENDBRANCH  14  17
ENDBRANCH   9  14
BRANCH   7  19
HETATM   19  C8  UNL     1       2.314   0.867  -0.970  1.00  0.00     0.005 C 
BRANCH  19  20
HETATM   20  C9  UNL     1       2.278   2.337  -0.809  1.00  0.00    -0.004 C 
HETATM   21  C10 UNL     1       2.784   2.823   0.528  1.00  0.00     0.005 C 
ENDBRANCH  19  20
ENDBRANCH   7  19
TORSDOF 4
