REMARK  5 active torsions:
REMARK  status: ('A' for Active; 'I' for Inactive)
REMARK    1  A    between atoms: C2_2  and  C3_3 
REMARK    2  A    between atoms: C3_3  and  C5_5 
REMARK    3  A    between atoms: C5_5  and  C6_6 
REMARK    4  A    between atoms: C6_6  and  C7_7 
REMARK    5  A    between atoms: C14_15  and  C15_16 
ROOT
HETATM    1  C7  UNL     1       0.248  -0.566   0.168  1.00  0.00     0.226 C 
HETATM    2  C8  UNL     1       0.596  -1.630  -0.858  1.00  0.00     0.067 C 
HETATM    3  C9  UNL     1      -0.522  -2.597  -1.018  1.00  0.00     0.126 C 
HETATM    4  C10 UNL     1      -0.835  -3.086   0.402  1.00  0.00     0.068 C 
HETATM    5  C11 UNL     1      -1.638  -1.896   0.958  1.00  0.00     0.229 C 
HETATM    6  C12 UNL     1      -2.970  -2.098   0.205  1.00  0.00     0.070 C 
HETATM    7  C13 UNL     1      -2.559  -1.441  -1.095  1.00  0.00     0.158 C 
HETATM    8  O1  UNL     1      -1.596  -2.227  -1.733  1.00  0.00    -0.378 OA
HETATM    9  C14 UNL     1      -1.915  -0.195  -0.647  1.00  0.00     0.260 C 
HETATM   10  N1  UNL     1      -1.166  -0.638   0.524  1.00  0.00     0.105 N 
ENDROOT
BRANCH   1  11
HETATM   11  C6  UNL     1       1.140  -0.542   1.333  1.00  0.00     0.036 C 
BRANCH  11  12
HETATM   12  C5  UNL     1       2.567  -0.270   1.060  1.00  0.00     0.006 C 
BRANCH  12  13
HETATM   13  C3  UNL     1       3.023   1.029   0.545  1.00  0.00    -0.019 C 
HETATM   14  C4  UNL     1       2.605   1.483  -0.811  1.00  0.00     0.010 C 
BRANCH  13  15
HETATM   15  C2  UNL     1       4.584   0.904   0.442  1.00  0.00    -0.000 C 
HETATM   16  C1  UNL     1       5.098   2.277   0.092  1.00  0.00     0.005 C 
ENDBRANCH  13  15
ENDBRANCH  12  13
ENDBRANCH  11  12
ENDBRANCH   1  11
BRANCH   9  17
HETATM   17  C15 UNL     1      -2.685   0.999  -0.319  1.00  0.00    -0.018 C 
HETATM   18  C16 UNL     1      -3.548   1.595  -1.380  1.00  0.00     0.016 C 
HETATM   19  C17 UNL     1      -3.490   0.924   0.952  1.00  0.00     0.016 C 
HETATM   20  C18 UNL     1      -1.656   2.121  -0.003  1.00  0.00     0.016 C 
ENDBRANCH   9  17
TORSDOF 5
