REMARK  11 active torsions:
REMARK  status: ('A' for Active; 'I' for Inactive)
REMARK    1  A    between atoms: C2_2  and  O1_4 
REMARK    2  A    between atoms: O1_4  and  C4_5 
REMARK    3  A    between atoms: C5_6  and  O2_7 
REMARK    4  A    between atoms: C6_9  and  C7_10 
REMARK    5  A    between atoms: N2_14  and  N3_15 
REMARK    6  A    between atoms: C9_22  and  N6_23 
REMARK    7  A    between atoms: C10_26  and  C11_27 
REMARK    8  A    between atoms: C11_27  and  O3_28 
REMARK    9  A    between atoms: O3_28  and  C12_29 
REMARK   10  A    between atoms: C12_29  and  C13_30 
REMARK   11  A    between atoms: C13_30  and  O4_31 
ROOT
HETATM    1  C4  UNL     1      -0.323  -0.846   0.529  1.00  0.00     0.120 A 
HETATM    2  C5  UNL     1       1.066  -1.074   0.393  1.00  0.00     0.131 A 
HETATM    3  C6  UNL     1       1.948  -0.056   0.103  1.00  0.00     0.116 A 
HETATM    4  N5  UNL     1       1.394   1.183  -0.043  1.00  0.00    -0.337 N 
ATOM      5  H5  UNL     1       2.014   1.964  -0.258  1.00  0.00     0.167 HD
HETATM    6  C9  UNL     1       0.090   1.433   0.079  1.00  0.00     0.114 A 
HETATM    7  C10 UNL     1      -0.826   0.414   0.373  1.00  0.00     0.066 A 
ENDROOT
BRANCH   3   8
HETATM    8  C7  UNL     1       3.259  -0.218  -0.034  1.00  0.00     0.152 A 
HETATM    9  N1  UNL     1       4.067  -1.382   0.067  1.00  0.00    -0.333 N 
HETATM   10  C8  UNL     1       5.311  -1.120  -0.136  1.00  0.00     0.228 A 
ATOM     11  H1  UNL     1       3.705  -2.313   0.275  1.00  0.00     0.168 HD
HETATM   12  N2  UNL     1       5.493   0.260  -0.400  1.00  0.00    -0.197 N 
HETATM   13  N4  UNL     1       4.191   0.812  -0.332  1.00  0.00    -0.262 N 
ATOM     14  H4  UNL     1       3.959   1.795  -0.475  1.00  0.00     0.191 HD
BRANCH  12  15
HETATM   15  N3  UNL     1       6.641   0.982  -0.672  1.00  0.00    -0.323 N 
ATOM     16  H32 UNL     1       7.579   0.584  -0.721  1.00  0.00     0.179 HD
ATOM     17  H31 UNL     1       6.772   1.976  -0.862  1.00  0.00     0.179 HD
ENDBRANCH  12  15
ENDBRANCH   3   8
BRANCH   2  18
HETATM   18  O2  UNL     1       1.457  -2.350   0.567  1.00  0.00    -0.356 OA
ATOM     19  H2  UNL     1       2.390  -2.503   0.476  1.00  0.00     0.218 HD
ENDBRANCH   2  18
BRANCH   1  20
HETATM   20  O1  UNL     1      -1.159  -1.929   0.823  1.00  0.00    -0.343 OA
BRANCH  20  21
HETATM   21  C2  UNL     1      -1.714  -2.717  -0.236  1.00  0.00     0.121 C 
HETATM   22  C1  UNL     1      -0.979  -4.074  -0.279  1.00  0.00     0.040 C 
HETATM   23  C3  UNL     1      -3.186  -2.963  -0.067  1.00  0.00     0.040 C 
ENDBRANCH  20  21
ENDBRANCH   1  20
BRANCH   6  24
HETATM   24  N6  UNL     1      -0.361   2.630  -0.074  1.00  0.00    -0.385 N 
ATOM     25  H62 UNL     1       0.306   3.372  -0.288  1.00  0.00     0.157 HD
ATOM     26  H61 UNL     1      -1.359   2.821   0.019  1.00  0.00     0.157 HD
ENDBRANCH   6  24
BRANCH   7  27
HETATM   27  C11 UNL     1      -2.107   0.694   0.508  1.00  0.00     0.152 C 
BRANCH  27  28
HETATM   28  O3  UNL     1      -2.523   2.005   0.329  1.00  0.00    -0.360 OA
BRANCH  28  29
HETATM   29  C12 UNL     1      -3.744   2.287  -0.333  1.00  0.00     0.200 C 
BRANCH  29  30
HETATM   30  C13 UNL     1      -3.973   3.766  -0.402  1.00  0.00     0.190 C 
BRANCH  30  31
HETATM   31  O4  UNL     1      -4.035   4.347   0.851  1.00  0.00    -0.399 OA
ATOM     32  H4  UNL     1      -4.180   5.285   0.807  1.00  0.00     0.209 HD
ENDBRANCH  30  31
ENDBRANCH  29  30
ENDBRANCH  28  29
ENDBRANCH  27  28
ENDBRANCH   7  27
TORSDOF 11
