REMARK  10 active torsions:
REMARK  status: ('A' for Active; 'I' for Inactive)
REMARK    1  A    between atoms: N1_1  and  C1_4 
REMARK    2  A    between atoms: C3_10  and  N4_11 
REMARK    3  A    between atoms: C4_14  and  C5_15 
REMARK    4  A    between atoms: C5_15  and  N5_16 
REMARK    5  A    between atoms: C5_15  and  N6_20 
REMARK    6  A    between atoms: N6_20  and  N7_21 
REMARK    7  A    between atoms: N7_21  and  C6_22 
REMARK    8  A    between atoms: N7_21  and  C7_24 
REMARK    9  A    between atoms: C7_24  and  C8_25 
REMARK   10  A    between atoms: C8_25  and  O3_26 
ROOT
HETATM    1  C1  UNL     1       5.093  -1.000  -1.009  1.00  0.00     0.694 A 
HETATM    2  N2  UNL     1       4.901   0.348  -0.945  1.00  0.00    -0.140 N 
ATOM      3  H2  UNL     1       5.642   1.003  -1.194  1.00  0.00     0.189 HD
HETATM    4  C2  UNL     1       3.688   0.780  -0.538  1.00  0.00     0.361 A 
HETATM    5  O1  UNL     1       3.482   2.024  -0.466  1.00  0.00    -0.245 OA
HETATM    6  N3  UNL     1       2.694  -0.054  -0.206  1.00  0.00    -0.079 N 
HETATM    7  C3  UNL     1       1.481   0.449   0.197  1.00  0.00     0.138 A 
HETATM    8  C4  UNL     1       0.482  -0.405   0.531  1.00  0.00     0.050 A 
HETATM    9  C9  UNL     1       0.773  -1.780   0.432  1.00  0.00     0.120 A 
HETATM   10  N8  UNL     1       1.949  -2.259   0.039  1.00  0.00    -0.200 N 
ATOM     11  H8  UNL     1       2.107  -3.265  -0.015  1.00  0.00     0.183 HD
HETATM   12  C10 UNL     1       2.931  -1.391  -0.287  1.00  0.00     0.709 A 
HETATM   13  N9  UNL     1       4.120  -1.863  -0.684  1.00  0.00    -0.022 N 
ATOM     14  H9  UNL     1       4.283  -2.868  -0.738  1.00  0.00     0.203 HD
ENDROOT
BRANCH   8  15
HETATM   15  C5  UNL     1      -0.826   0.049   1.021  1.00  0.00     0.334 C 
BRANCH  15  16
HETATM   16  N5  UNL     1      -0.772   1.015   2.071  1.00  0.00    -0.055 N 
ATOM     17  H53 UNL     1      -0.208   0.664   2.845  1.00  0.00     0.276 HD
ATOM     18  H52 UNL     1      -0.205   1.814   1.787  1.00  0.00     0.276 HD
ATOM     19  H51 UNL     1      -1.680   1.330   2.411  1.00  0.00     0.276 HD
ENDBRANCH  15  16
BRANCH  15  20
HETATM   20  N6  UNL     1      -1.757   0.404  -0.037  1.00  0.00    -0.098 NA
BRANCH  20  21
HETATM   21  N7  UNL     1      -3.013   0.583   0.505  1.00  0.00    -0.268 N 
BRANCH  21  22
HETATM   22  C6  UNL     1      -3.506   1.684   1.209  1.00  0.00     0.367 C 
HETATM   23  O2  UNL     1      -4.672   1.705   1.650  1.00  0.00    -0.282 OA
ENDBRANCH  21  22
BRANCH  21  24
HETATM   24  C7  UNL     1      -3.946  -0.544   0.310  1.00  0.00     0.173 C 
BRANCH  24  25
HETATM   25  C8  UNL     1      -4.747  -0.362  -0.947  1.00  0.00     0.185 C 
BRANCH  25  26
HETATM   26  O3  UNL     1      -4.007  -0.282  -2.104  1.00  0.00    -0.399 OA
ATOM     27  H3  UNL     1      -4.514  -0.167  -2.899  1.00  0.00     0.209 HD
ENDBRANCH  25  26
ENDBRANCH  24  25
ENDBRANCH  21  24
ENDBRANCH  20  21
ENDBRANCH  15  20
ENDBRANCH   8  15
BRANCH   7  28
HETATM   28  N4  UNL     1       1.374   1.679   0.209  1.00  0.00    -0.384 N 
ATOM     29  H42 UNL     1       2.125   2.321  -0.042  1.00  0.00     0.157 HD
ATOM     30  H41 UNL     1       0.473   2.053   0.508  1.00  0.00     0.157 HD
ENDBRANCH   7  28
BRANCH   1  31
HETATM   31  N1  UNL     1       6.282  -1.378  -1.412  1.00  0.00    -0.234 N 
ATOM     32  H12 UNL     1       7.022  -0.721  -1.659  1.00  0.00     0.174 HD
ATOM     33  H11 UNL     1       6.426  -2.387  -1.460  1.00  0.00     0.174 HD
ENDBRANCH   1  31
TORSDOF 10
