REMARK  9 active torsions:
REMARK  status: ('A' for Active; 'I' for Inactive)
REMARK    1  A    between atoms: O1_2  and  C2_3 
REMARK    2  A    between atoms: C3_4  and  N1_5 
REMARK    3  A    between atoms: C6_10  and  N3_11 
REMARK    4  A    between atoms: C7_15  and  O2_16 
REMARK    5  A    between atoms: O2_16  and  C8_17 
REMARK    6  A    between atoms: C9_18  and  O3_19 
REMARK    7  A    between atoms: C10_21  and  N4_22 
REMARK    8  A    between atoms: C12_27  and  N5_28 
REMARK    9  A    between atoms: C13_32  and  O4_33 
ROOT
HETATM    1  C8  UNL     1      -1.418  -0.006  -0.185  1.00  0.00     0.183 C 
HETATM    2  C9  UNL     1      -1.720  -0.125   1.257  1.00  0.00     0.180 C 
HETATM    3  C10 UNL     1      -3.127   0.107   1.683  1.00  0.00     0.216 C 
HETATM    4  C11 UNL     1      -3.729   1.286   1.006  1.00  0.00     0.071 C 
HETATM    5  C12 UNL     1      -3.599   1.231  -0.504  1.00  0.00     0.216 C 
HETATM    6  C13 UNL     1      -2.192   1.032  -0.949  1.00  0.00     0.180 C 
ENDROOT
BRANCH   1   7
HETATM    7  O2  UNL     1      -0.067   0.392  -0.291  1.00  0.00    -0.371 OA
BRANCH   7   8
HETATM    8  C7  UNL     1       0.717  -0.497  -0.982  1.00  0.00     0.183 C 
HETATM    9  C2  UNL     1       1.931  -0.819  -0.160  1.00  0.00     0.174 C 
HETATM   10  C3  UNL     1       3.117  -0.338  -0.978  1.00  0.00     0.115 C 
HETATM   11  C5  UNL     1       2.532   0.885  -1.654  1.00  0.00     0.063 C 
HETATM   12  C6  UNL     1       1.237   0.291  -2.202  1.00  0.00     0.216 C 
BRANCH   9  13
HETATM   13  O1  UNL     1       2.054  -2.165   0.170  1.00  0.00    -0.386 OA
HETATM   14  C1  UNL     1       2.243  -2.405   1.512  1.00  0.00     0.202 C 
ENDBRANCH   9  13
BRANCH  10  15
HETATM   15  N1  UNL     1       4.263  -0.048  -0.174  1.00  0.00    -0.381 N 
HETATM   16  C4  UNL     1       4.283   0.886   0.693  1.00  0.00     0.185 C 
HETATM   17  N2  UNL     1       5.418   1.175   1.492  1.00  0.00    -0.097 NA
ATOM     18  H1  UNL     1       5.102  -0.614  -0.300  1.00  0.00     0.160 HD
ENDBRANCH  10  15
BRANCH  12  19
HETATM   19  N3  UNL     1       1.481  -0.574  -3.319  1.00  0.00    -0.072 N 
ATOM     20  H33 UNL     1       2.010  -0.098  -4.050  1.00  0.00     0.274 HD
ATOM     21  H32 UNL     1       2.155  -1.303  -3.084  1.00  0.00     0.274 HD
ATOM     22  H31 UNL     1       0.616  -0.971  -3.685  1.00  0.00     0.274 HD
ENDBRANCH  12  19
ENDBRANCH   7   8
ENDBRANCH   1   7
BRANCH   2  23
HETATM   23  O3  UNL     1      -1.332  -1.427   1.658  1.00  0.00    -0.391 OA
ATOM     24  H3  UNL     1      -1.526  -1.503   2.585  1.00  0.00     0.210 HD
ENDBRANCH   2  23
BRANCH   6  25
HETATM   25  O4  UNL     1      -1.526   2.271  -0.809  1.00  0.00    -0.391 OA
ATOM     26  H4  UNL     1      -2.015   2.927  -1.292  1.00  0.00     0.210 HD
ENDBRANCH   6  25
BRANCH   3  27
HETATM   27  N4  UNL     1      -3.952  -1.086   1.584  1.00  0.00    -0.072 N 
ATOM     28  H43 UNL     1      -3.916  -1.477   0.643  1.00  0.00     0.274 HD
ATOM     29  H42 UNL     1      -3.537  -1.860   2.102  1.00  0.00     0.274 HD
ATOM     30  H41 UNL     1      -4.916  -0.927   1.876  1.00  0.00     0.274 HD
ENDBRANCH   3  27
BRANCH   5  31
HETATM   31  N5  UNL     1      -4.538   0.328  -1.112  1.00  0.00    -0.072 N 
ATOM     32  H53 UNL     1      -4.464  -0.604  -0.705  1.00  0.00     0.274 HD
ATOM     33  H52 UNL     1      -5.493   0.554  -0.836  1.00  0.00     0.274 HD
ATOM     34  H51 UNL     1      -4.451   0.291  -2.128  1.00  0.00     0.274 HD
ENDBRANCH   5  31
TORSDOF 9
