REMARK  7 active torsions:
REMARK  status: ('A' for Active; 'I' for Inactive)
REMARK    1  A    between atoms: N1_1  and  C1_4 
REMARK    2  A    between atoms: N3_9  and  C3_10 
REMARK    3  A    between atoms: C3_10  and  C4_11 
REMARK    4  A    between atoms: C4_11  and  N4_12 
REMARK    5  A    between atoms: N4_12  and  N5_14 
REMARK       I    between atoms: N5_14  and  C5_16 
REMARK    6  A    between atoms: C7_22  and  C8_23 
REMARK    7  A    between atoms: C8_23  and  O2_24 
ROOT
HETATM    1  C1  UNL     1      -2.148  -2.498  -0.223  1.00  0.00     0.122 A 
HETATM    2  N2  UNL     1      -1.290  -2.903   0.732  1.00  0.00    -0.294 N 
ATOM      3  H2  UNL     1      -1.190  -3.900   0.924  1.00  0.00     0.172 HD
HETATM    4  C2  UNL     1      -0.569  -2.029   1.431  1.00  0.00     0.329 A 
HETATM    5  O1  UNL     1       0.215  -2.470   2.310  1.00  0.00    -0.246 OA
HETATM    6  N3  UNL     1      -0.617  -0.677   1.266  1.00  0.00    -0.283 N 
HETATM    7  C6  UNL     1      -1.463  -0.242   0.324  1.00  0.00     0.132 A 
HETATM    8  N8  UNL     1      -1.622   1.068   0.071  1.00  0.00    -0.329 N 
ATOM      9  H8  UNL     1      -1.070   1.735   0.610  1.00  0.00     0.168 HD
HETATM   10  C7  UNL     1      -2.470   1.544  -0.854  1.00  0.00     0.109 A 
HETATM   11  N9  UNL     1      -3.193   0.655  -1.557  1.00  0.00    -0.310 N 
ATOM     12  H9  UNL     1      -3.840   1.008  -2.262  1.00  0.00     0.170 HD
HETATM   13  C9  UNL     1      -3.108  -0.672  -1.379  1.00  0.00     0.264 A 
HETATM   14  O3  UNL     1      -3.788  -1.499  -2.042  1.00  0.00    -0.267 OA
HETATM   15  C10 UNL     1      -2.229  -1.136  -0.423  1.00  0.00     0.120 A 
ENDROOT
BRANCH   6  16
HETATM   16  C3  UNL     1       0.176   0.166   2.105  1.00  0.00     0.156 C 
BRANCH  16  17
HETATM   17  C4  UNL     1       1.583   0.391   1.716  1.00  0.00     0.159 C 
BRANCH  17  18
HETATM   18  N4  UNL     1       1.887   0.984   0.469  1.00  0.00    -0.333 N 
ATOM     19  H4  UNL     1       1.165   1.271  -0.192  1.00  0.00     0.180 HD
BRANCH  18  20
HETATM   20  N5  UNL     1       3.281   1.152   0.203  1.00  0.00    -0.280 N 
HETATM   21  C5  UNL     1       3.938   0.266  -0.450  1.00  0.00     0.215 C 
HETATM   22  N6  UNL     1       5.312   0.403  -0.728  1.00  0.00    -0.065 NA
HETATM   23  N7  UNL     1       3.257  -0.886  -0.905  1.00  0.00    -0.065 NA
ATOM     24  H5  UNL     1       3.760   1.988   0.537  1.00  0.00     0.189 HD
ENDBRANCH  18  20
ENDBRANCH  17  18
ENDBRANCH  16  17
ENDBRANCH   6  16
BRANCH   1  25
HETATM   25  N1  UNL     1      -2.855  -3.334  -0.912  1.00  0.00    -0.384 N 
ATOM     26  H12 UNL     1      -2.795  -4.341  -0.764  1.00  0.00     0.157 HD
ATOM     27  H11 UNL     1      -3.505  -3.027  -1.636  1.00  0.00     0.157 HD
ENDBRANCH   1  25
BRANCH  10  28
HETATM   28  C8  UNL     1      -2.613   3.014  -1.100  1.00  0.00     0.240 C 
BRANCH  28  29
HETATM   29  O2  UNL     1      -1.721   3.451  -2.076  1.00  0.00    -0.393 OA
ATOM     30  H2  UNL     1      -1.812   4.384  -2.232  1.00  0.00     0.209 HD
ENDBRANCH  28  29
ENDBRANCH  10  28
TORSDOF 7
