REMARK  7 active torsions:
REMARK  status: ('A' for Active; 'I' for Inactive)
REMARK    1  A    between atoms: C1_4  and  S1_6 
REMARK    2  A    between atoms: S1_6  and  C2_7 
REMARK    3  A    between atoms: C2_7  and  C3_8 
REMARK    4  A    between atoms: C3_8  and  N3_9 
REMARK    5  A    between atoms: C6_18  and  N6_19 
REMARK    6  A    between atoms: N6_19  and  N7_21 
REMARK       I    between atoms: N7_21  and  C7_23 
REMARK    7  A    between atoms: C7_23  and  C8_25 
ROOT
HETATM    1  N3  UNL     1      -0.668  -1.175  -0.591  1.00  0.00    -0.266 N 
HETATM    2  N4  UNL     1      -1.256  -2.368  -0.581  1.00  0.00    -0.247 N 
ATOM      3  H4  UNL     1      -2.259  -2.427  -0.757  1.00  0.00     0.192 HD
HETATM    4  C4  UNL     1      -0.567  -3.499  -0.346  1.00  0.00     0.342 A 
HETATM    5  O1  UNL     1      -1.156  -4.613  -0.345  1.00  0.00    -0.245 OA
HETATM    6  N5  UNL     1       0.761  -3.375  -0.117  1.00  0.00    -0.271 N 
ATOM      7  H5  UNL     1       1.314  -4.213   0.065  1.00  0.00     0.174 HD
HETATM    8  C5  UNL     1       1.381  -2.159  -0.123  1.00  0.00     0.296 A 
HETATM    9  O2  UNL     1       2.604  -2.083   0.091  1.00  0.00    -0.264 OA
HETATM   10  C6  UNL     1       0.648  -1.015  -0.368  1.00  0.00     0.206 A 
ENDROOT
BRANCH  10  11
HETATM   11  N6  UNL     1       1.139   0.153  -0.393  1.00  0.00    -0.277 N 
ATOM     12  H6  UNL     1       0.490   0.916  -0.585  1.00  0.00     0.189 HD
BRANCH  11  13
HETATM   13  N7  UNL     1       2.464   0.503  -0.187  1.00  0.00    -0.262 N 
HETATM   14  C7  UNL     1       2.907   1.340   0.860  1.00  0.00     0.300 C 
HETATM   15  O3  UNL     1       2.063   1.823   1.689  1.00  0.00    -0.263 OA
ATOM     16  H7  UNL     1       3.162   0.133  -0.832  1.00  0.00     0.190 HD
BRANCH  14  17
HETATM   17  C8  UNL     1       4.322   1.645   0.987  1.00  0.00     0.180 C 
HETATM   18  N8  UNL     1       5.137   1.136   0.129  1.00  0.00    -0.383 N 
ATOM     19  H82 UNL     1       4.782   0.535  -0.615  1.00  0.00     0.157 HD
ATOM     20  H81 UNL     1       6.130   1.350   0.218  1.00  0.00     0.157 HD
HETATM   21  N9  UNL     1       4.819   2.485   2.027  1.00  0.00    -0.077 NA
ENDBRANCH  14  17
ENDBRANCH  11  13
ENDBRANCH  10  11
BRANCH   1  22
HETATM   22  C3  UNL     1      -1.465   0.011  -0.850  1.00  0.00     0.161 C 
BRANCH  22  23
HETATM   23  C2  UNL     1      -1.982   0.542   0.447  1.00  0.00     0.104 C 
BRANCH  23  24
HETATM   24  S1  UNL     1      -2.982   2.015   0.234  1.00  0.00    -0.096 SA
BRANCH  24  25
HETATM   25  C1  UNL     1      -4.488   1.603  -0.604  1.00  0.00     0.147 C 
HETATM   26  N1  UNL     1      -5.322   2.537  -0.878  1.00  0.00    -0.382 N 
ATOM     27  H12 UNL     1      -6.189   2.300  -1.360  1.00  0.00     0.157 HD
ATOM     28  H11 UNL     1      -5.133   3.506  -0.623  1.00  0.00     0.157 HD
HETATM   29  N2  UNL     1      -4.750   0.259  -0.958  1.00  0.00    -0.075 NA
ENDBRANCH  24  25
ENDBRANCH  23  24
ENDBRANCH  22  23
ENDBRANCH   1  22
TORSDOF 7
