REMARK  8 active torsions:
REMARK  status: ('A' for Active; 'I' for Inactive)
REMARK    1  A    between atoms: C3_7  and  S1_8 
REMARK    2  A    between atoms: S1_8  and  C4_9 
REMARK    3  A    between atoms: C4_9  and  C5_10 
REMARK    4  A    between atoms: C8_19  and  N5_20 
REMARK    5  A    between atoms: N6_22  and  C9_24 
REMARK       I    between atoms: N8_28  and  C10_29 
REMARK       I    between atoms: C10_29  and  N10_33 
REMARK    6  A    between atoms: N10_33  and  N11_35 
REMARK    7  A    between atoms: C11_38  and  N12_39 
REMARK    8  A    between atoms: N13_42  and  N14_43 
ROOT
HETATM    1  C5  UNL     1      -1.135  -1.589   0.400  1.00  0.00     0.057 A 
HETATM    2  N3  UNL     1      -2.105  -2.439   0.126  1.00  0.00    -0.309 N 
ATOM      3  H3  UNL     1      -2.992  -2.363   0.623  1.00  0.00     0.170 HD
HETATM    4  C6  UNL     1      -1.946  -3.409  -0.801  1.00  0.00     0.327 A 
HETATM    5  O1  UNL     1      -2.880  -4.225  -1.063  1.00  0.00    -0.247 OA
HETATM    6  N4  UNL     1      -0.792  -3.541  -1.475  1.00  0.00    -0.273 N 
ATOM      7  H4  UNL     1      -0.697  -4.281  -2.170  1.00  0.00     0.173 HD
HETATM    8  C7  UNL     1       0.246  -2.706  -1.245  1.00  0.00     0.279 A 
HETATM    9  O2  UNL     1       1.343  -2.823  -1.877  1.00  0.00    -0.265 OA
HETATM   10  C8  UNL     1       0.072  -1.723  -0.302  1.00  0.00     0.140 A 
ENDROOT
BRANCH  10  11
HETATM   11  N5  UNL     1       1.084  -0.801  -0.015  1.00  0.00    -0.292 N 
HETATM   12  N6  UNL     1       2.287  -1.185   0.084  1.00  0.00    -0.280 N 
ATOM     13  H6  UNL     1       2.559  -2.161  -0.038  1.00  0.00     0.188 HD
ATOM     14  H5  UNL     1       0.852   0.184   0.115  1.00  0.00     0.187 HD
BRANCH  12  15
HETATM   15  C9  UNL     1       3.238  -0.159   0.378  1.00  0.00     0.189 A 
HETATM   16  N7  UNL     1       3.138   0.756   1.351  1.00  0.00    -0.220 N 
HETATM   17  O3  UNL     1       4.185   1.501   1.283  1.00  0.00    -0.131 OA
ATOM     18  H7  UNL     1       2.374   0.846   2.021  1.00  0.00     0.198 HD
HETATM   19  N8  UNL     1       4.964   1.125   0.319  1.00  0.00    -0.005 N 
HETATM   20  C10 UNL     1       6.205   1.756  -0.021  1.00  0.00     0.720 C 
HETATM   21  C11 UNL     1       4.414   0.073  -0.290  1.00  0.00     0.195 A 
HETATM   22  N9  UNL     1       7.277   1.131  -0.308  1.00  0.00    -0.231 N 
HETATM   23  N10 UNL     1       6.190   3.178  -0.022  1.00  0.00    -0.137 N 
ATOM     24  H92 UNL     1       7.288   0.111  -0.307  1.00  0.00     0.174 HD
ATOM     25  H91 UNL     1       8.160   1.580  -0.550  1.00  0.00     0.174 HD
ATOM     26  H10 UNL     1       6.479   3.699  -0.850  1.00  0.00     0.205 HD
BRANCH  23  27
HETATM   27  N11 UNL     1       5.774   3.847   1.127  1.00  0.00    -0.331 N 
ATOM     28 2H11 UNL     1       5.488   3.311   1.947  1.00  0.00     0.177 HD
ATOM     29 1H11 UNL     1       5.763   4.867   1.126  1.00  0.00     0.177 HD
ENDBRANCH  23  27
BRANCH  21  30
HETATM   30  N12 UNL     1       4.912  -0.575  -1.299  1.00  0.00    -0.380 N 
ATOM     31 2H12 UNL     1       4.492  -1.379  -1.765  1.00  0.00     0.158 HD
ATOM     32 1H12 UNL     1       5.786  -0.403  -1.796  1.00  0.00     0.158 HD
ENDBRANCH  21  30
ENDBRANCH  12  15
ENDBRANCH  10  11
BRANCH   1  33
HETATM   33  C4  UNL     1      -1.181  -0.559   1.423  1.00  0.00     0.142 C 
BRANCH  33  34
HETATM   34  S1  UNL     1      -2.722  -0.231   2.235  1.00  0.00    -0.085 SA
BRANCH  34  35
HETATM   35  C3  UNL     1      -3.867   0.740   1.229  1.00  0.00     0.182 A 
HETATM   36  N2  UNL     1      -3.801   2.122   1.181  1.00  0.00    -0.277 N 
HETATM   37  N1  UNL     1      -4.756   2.568   0.406  1.00  0.00    -0.286 N 
ATOM     38  H2  UNL     1      -3.118   2.700   1.671  1.00  0.00     0.189 HD
HETATM   39  C2  UNL     1      -5.463   1.541  -0.067  1.00  0.00     0.116 A 
ATOM     40  H1  UNL     1      -4.933   3.550   0.196  1.00  0.00     0.188 HD
HETATM   41  C1  UNL     1      -6.648   1.541  -0.997  1.00  0.00     0.092 C 
HETATM   42  N13 UNL     1      -4.887   0.419   0.463  1.00  0.00    -0.226 N 
BRANCH  42  43
HETATM   43  N14 UNL     1      -5.384  -0.872   0.229  1.00  0.00    -0.335 N 
ATOM     44 2H14 UNL     1      -6.175  -1.121  -0.365  1.00  0.00     0.177 HD
ATOM     45 1H14 UNL     1      -4.955  -1.709   0.624  1.00  0.00     0.177 HD
ENDBRANCH  42  43
ENDBRANCH  34  35
ENDBRANCH  33  34
ENDBRANCH   1  33
TORSDOF 8
