REMARK  2 active torsions:
REMARK  status: ('A' for Active; 'I' for Inactive)
REMARK       I    between atoms: C2_2  and  N1_4 
REMARK    1  A    between atoms: N1_4  and  C3_6 
REMARK    2  A    between atoms: C6_10  and  C7_11 
ROOT
HETATM    1  C7  UNL     1      -0.245   0.750  -0.494  1.00  0.00     0.122 A 
HETATM    2  N2  UNL     1       0.224   1.232  -1.670  1.00  0.00    -0.331 N 
ATOM      3  H2  UNL     1       1.005   0.844  -2.199  1.00  0.00     0.168 HD
HETATM    4  C8  UNL     1      -0.500   2.298  -2.026  1.00  0.00     0.153 A 
HETATM    5  C9  UNL     1      -0.298   3.069  -3.209  1.00  0.00     0.121 C 
HETATM    6  N3  UNL     1      -0.115   3.695  -4.167  1.00  0.00    -0.190 NA
HETATM    7  C10 UNL     1      -1.450   2.494  -1.050  1.00  0.00     0.153 A 
HETATM    8  C11 UNL     1      -2.465   3.542  -1.015  1.00  0.00     0.121 C 
HETATM    9  N4  UNL     1      -3.264   4.378  -0.983  1.00  0.00    -0.190 NA
HETATM   10  N5  UNL     1      -1.257   1.531  -0.140  1.00  0.00    -0.331 N 
ATOM     11  H5  UNL     1      -1.811   1.414   0.708  1.00  0.00     0.168 HD
ENDROOT
BRANCH   1  12
HETATM   12  C6  UNL     1       0.281  -0.478   0.203  1.00  0.00     0.070 A 
HETATM   13  C3  UNL     1      -0.518  -1.327   0.853  1.00  0.00     0.093 A 
HETATM   14  S1  UNL     1       0.622  -2.295   1.761  1.00  0.00    -0.071 SA
HETATM   15  C4  UNL     1       2.071  -1.559   1.242  1.00  0.00     0.037 A 
HETATM   16  C5  UNL     1       1.645  -0.589   0.392  1.00  0.00     0.067 A 
HETATM   17  C13 UNL     1       3.514  -1.861   1.602  1.00  0.00     0.227 A 
HETATM   18  N6  UNL     1       2.694   0.210  -0.223  1.00  0.00    -0.321 N 
HETATM   19  C12 UNL     1       4.053  -0.046   0.075  1.00  0.00     0.217 A 
ATOM     20  H6  UNL     1       2.448   0.958  -0.872  1.00  0.00     0.169 HD
HETATM   21  N7  UNL     1       4.970   0.670  -0.477  1.00  0.00    -0.365 N 
HETATM   22  O2  UNL     1       4.393  -1.036   0.937  1.00  0.00    -0.317 OA
ATOM     23  H72 UNL     1       4.714   1.415  -1.125  1.00  0.00     0.159 HD
ATOM     24  H71 UNL     1       5.950   0.485  -0.262  1.00  0.00     0.159 HD
BRANCH  13  25
HETATM   25  N1  UNL     1      -1.913  -1.588   0.951  1.00  0.00    -0.321 N 
HETATM   26  C2  UNL     1      -2.973  -1.340   0.091  1.00  0.00     0.218 C 
HETATM   27  C1  UNL     1      -4.359  -1.733   0.584  1.00  0.00     0.117 C 
HETATM   28  O1  UNL     1      -2.984  -0.837  -1.043  1.00  0.00    -0.274 OA
ATOM     29  H1  UNL     1      -2.186  -2.045   1.821  1.00  0.00     0.169 HD
ENDBRANCH  13  25
ENDBRANCH   1  12
TORSDOF 2
