REMARK  6 active torsions:
REMARK  status: ('A' for Active; 'I' for Inactive)
REMARK    1  A    between atoms: C2_2  and  C3_3 
REMARK    2  A    between atoms: C3_3  and  O2_5 
REMARK    3  A    between atoms: O2_5  and  C4_6 
REMARK    4  A    between atoms: C5_8  and  O4_9 
REMARK    5  A    between atoms: C12_17  and  O5_18 
REMARK    6  A    between atoms: C16_23  and  O6_24 
ROOT
HETATM    1  C4  UNL     1       2.061  -0.823   0.881  1.00  0.00     0.204 A 
HETATM    2  O3  UNL     1       1.860  -1.906   1.539  1.00  0.00    -0.262 OA
HETATM    3  C5  UNL     1       0.787  -2.496   1.125  1.00  0.00     0.213 A 
HETATM    4  C6  UNL     1       0.200  -1.749   0.089  1.00  0.00     0.100 A 
HETATM    5  C7  UNL     1       1.042  -0.689  -0.040  1.00  0.00     0.032 A 
HETATM    6  C8  UNL     1       0.952   0.470  -1.007  1.00  0.00     0.046 C 
HETATM    7  C9  UNL     1      -0.295   1.159  -0.738  1.00  0.00     0.005 C 
HETATM    8  C10 UNL     1      -0.493   2.632  -0.657  1.00  0.00     0.003 C 
HETATM    9  C11 UNL     1      -2.029   2.767  -0.690  1.00  0.00     0.032 C 
HETATM   10  C12 UNL     1      -2.831   1.840   0.121  1.00  0.00     0.118 C 
HETATM   11  C13 UNL     1      -3.376   0.603  -0.513  1.00  0.00     0.040 C 
HETATM   12  C14 UNL     1      -2.986  -0.727   0.130  1.00  0.00     0.033 C 
HETATM   13  C15 UNL     1      -4.180  -1.457   0.715  1.00  0.00     0.014 C 
HETATM   14  C16 UNL     1      -2.295  -1.625  -0.818  1.00  0.00     0.221 C 
HETATM   15  N1  UNL     1      -0.982  -2.128  -0.577  1.00  0.00    -0.359 N 
ATOM     16  H1  UNL     1      -0.863  -3.038  -1.022  1.00  0.00     0.162 HD
ENDROOT
BRANCH   1  17
HETATM   17  O2  UNL     1       3.156   0.019   1.123  1.00  0.00    -0.254 OA
BRANCH  17  18
HETATM   18  C3  UNL     1       4.359  -0.142   0.458  1.00  0.00     0.265 C 
HETATM   19  O1  UNL     1       4.478  -1.064  -0.383  1.00  0.00    -0.265 OA
BRANCH  18  20
HETATM   20  C2  UNL     1       5.466   0.789   0.771  1.00  0.00     0.107 C 
HETATM   21  C1  UNL     1       6.706   0.510  -0.011  1.00  0.00     0.015 C 
ENDBRANCH  18  20
ENDBRANCH  17  18
ENDBRANCH   1  17
BRANCH   3  22
HETATM   22  O4  UNL     1       0.375  -3.724   1.719  1.00  0.00    -0.339 OA
ATOM     23  H4  UNL     1      -0.414  -4.158   1.415  1.00  0.00     0.220 HD
ENDBRANCH   3  22
BRANCH  14  24
HETATM   24  O6  UNL     1      -3.188  -2.684  -1.173  1.00  0.00    -0.377 OA
ATOM     25  H6  UNL     1      -2.744  -3.261  -1.783  1.00  0.00     0.212 HD
ENDBRANCH  14  24
BRANCH  10  26
HETATM   26  O5  UNL     1      -2.457   1.675   1.455  1.00  0.00    -0.396 OA
ATOM     27  H5  UNL     1      -2.975   1.076   1.979  1.00  0.00     0.210 HD
ENDBRANCH  10  26
TORSDOF 6
