REMARK  3 active torsions:
REMARK  status: ('A' for Active; 'I' for Inactive)
REMARK    1  A    between atoms: C3_5  and  C4_6 
REMARK    2  A    between atoms: C6_10  and  N3_11 
REMARK    3  A    between atoms: N6_20  and  C9_21 
ROOT
HETATM    1  C4  UNL     1       1.214   0.483   0.252  1.00  0.00     0.141 A 
HETATM    2  N2  UNL     1       1.666   1.730   0.557  1.00  0.00    -0.334 N 
ATOM      3  H2  UNL     1       2.632   1.954   0.797  1.00  0.00     0.168 HD
HETATM    4  C5  UNL     1       0.687   2.607   0.500  1.00  0.00     0.122 A 
HETATM    5  C6  UNL     1       0.626   3.982   0.721  1.00  0.00     0.131 A 
HETATM    6  N4  UNL     1      -0.539   4.634   0.588  1.00  0.00    -0.337 N 
ATOM      7  H4  UNL     1      -0.593   5.640   0.748  1.00  0.00     0.168 HD
HETATM    8  C7  UNL     1      -1.647   3.928   0.236  1.00  0.00     0.183 A 
HETATM    9  N5  UNL     1      -1.581   2.581   0.021  1.00  0.00    -0.336 N 
ATOM     10  H5  UNL     1      -2.429   2.079  -0.242  1.00  0.00     0.168 HD
HETATM   11  C8  UNL     1      -0.442   1.905   0.145  1.00  0.00     0.141 A 
HETATM   12  N6  UNL     1      -0.091   0.590  -0.004  1.00  0.00    -0.310 N 
ENDROOT
BRANCH   1  13
HETATM   13  C3  UNL     1       2.055  -0.696   0.231  1.00  0.00     0.120 A 
HETATM   14  N1  UNL     1       1.700  -1.941  -0.053  1.00  0.00    -0.340 N 
HETATM   15  C2  UNL     1       2.771  -2.755   0.036  1.00  0.00     0.079 A 
ATOM     16  H1  UNL     1       0.757  -2.239  -0.302  1.00  0.00     0.167 HD
HETATM   17  C1  UNL     1       2.700  -4.208  -0.223  1.00  0.00     0.089 C 
HETATM   18  N8  UNL     1       3.812  -1.988   0.384  1.00  0.00    -0.333 N 
HETATM   19  C15 UNL     1       3.424  -0.707   0.518  1.00  0.00     0.148 A 
ATOM     20  H8  UNL     1       4.763  -2.327   0.527  1.00  0.00     0.168 HD
HETATM   21  N7  UNL     1       4.211   0.421   0.873  1.00  0.00    -0.080 NA
ENDBRANCH   1  13
BRANCH  12  22
HETATM   22  C9  UNL     1      -1.048  -0.392  -0.372  1.00  0.00     0.093 C 
HETATM   23  C10 UNL     1      -1.852   0.003  -1.599  1.00  0.00     0.026 C 
HETATM   24  C11 UNL     1      -3.332  -0.163  -1.343  1.00  0.00     0.002 C 
HETATM   25  C12 UNL     1      -3.554  -1.601  -0.895  1.00  0.00     0.000 C 
HETATM   26  C13 UNL     1      -2.805  -1.901   0.379  1.00  0.00     0.002 C 
HETATM   27  C14 UNL     1      -2.046  -0.665   0.768  1.00  0.00     0.026 C 
ENDBRANCH  12  22
BRANCH   5  28
HETATM   28  N3  UNL     1       1.717   4.570   1.049  1.00  0.00    -0.383 N 
ATOM     29  H32 UNL     1       2.603   4.074   1.150  1.00  0.00     0.157 HD
ATOM     30  H31 UNL     1       1.672   5.576   1.211  1.00  0.00     0.157 HD
ENDBRANCH   5  28
TORSDOF 3
