REMARK  7 active torsions:
REMARK  status: ('A' for Active; 'I' for Inactive)
REMARK    1  A    between atoms: C2_2  and  C4_4 
REMARK    2  A    between atoms: C4_4  and  C5_5 
REMARK    3  A    between atoms: C10_11  and  C11_12 
REMARK    4  A    between atoms: C11_12  and  C12_13 
REMARK    5  A    between atoms: C15_18  and  N1_19 
REMARK    6  A    between atoms: C19_28  and  C20_29 
REMARK    7  A    between atoms: C20_29  and  C21_30 
ROOT
HETATM    1  C12 UNL     1      -0.770   0.460  -0.697  1.00  0.00     0.071 C 
HETATM    2  C13 UNL     1      -0.483   1.907  -0.592  1.00  0.00     0.202 C 
HETATM    3  O2  UNL     1       0.374   2.290  -1.467  1.00  0.00    -0.289 OA
HETATM    4  C14 UNL     1      -0.913   3.023   0.238  1.00  0.00     0.235 C 
HETATM    5  O3  UNL     1       0.072   3.722   0.586  1.00  0.00    -0.286 OA
HETATM    6  C15 UNL     1      -2.162   3.547   0.770  1.00  0.00     0.359 C 
HETATM    7  C16 UNL     1      -3.383   2.838   0.432  1.00  0.00     0.298 C 
HETATM    8  O4  UNL     1      -4.359   3.302   1.120  1.00  0.00    -0.262 OA
HETATM    9  O5  UNL     1      -3.808   1.840  -0.385  1.00  0.00    -0.314 OA
HETATM   10  C17 UNL     1      -3.245   0.585  -0.810  1.00  0.00     0.132 C 
HETATM   11  C18 UNL     1      -2.894   0.846  -2.288  1.00  0.00     0.040 C 
HETATM   12  C19 UNL     1      -2.097   0.157   0.013  1.00  0.00     0.027 C 
ENDROOT
BRANCH   1  13
HETATM   13  C11 UNL     1       0.350  -0.348  -0.173  1.00  0.00     0.019 C 
BRANCH  13  14
HETATM   14  C10 UNL     1       1.680  -0.192  -0.821  1.00  0.00     0.013 C 
HETATM   15  C5  UNL     1       2.769  -1.086  -0.213  1.00  0.00     0.061 C 
HETATM   16  C6  UNL     1       2.890  -1.846  -1.488  1.00  0.00     0.139 C 
HETATM   17  O1  UNL     1       3.475  -2.816  -1.877  1.00  0.00    -0.297 OA
HETATM   18  C7  UNL     1       1.939  -0.860  -2.117  1.00  0.00     0.018 C 
HETATM   19  C8  UNL     1       2.671   0.006  -3.148  1.00  0.00     0.023 C 
HETATM   20  C9  UNL     1       0.830  -1.598  -2.780  1.00  0.00     0.023 C 
BRANCH  15  21
HETATM   21  C4  UNL     1       4.060  -0.414   0.111  1.00  0.00     0.016 C 
BRANCH  21  22
HETATM   22  C2  UNL     1       4.011   0.379   1.397  1.00  0.00    -0.022 C 
HETATM   23  C1  UNL     1       3.686  -0.442   2.596  1.00  0.00     0.009 C 
HETATM   24  C3  UNL     1       5.421   0.951   1.596  1.00  0.00     0.009 C 
ENDBRANCH  21  22
ENDBRANCH  15  21
ENDBRANCH  13  14
ENDBRANCH   1  13
BRANCH  12  25
HETATM   25  C20 UNL     1      -2.068  -1.165   0.654  1.00  0.00     0.012 C 
BRANCH  25  26
HETATM   26  C21 UNL     1      -3.192  -1.704   1.419  1.00  0.00    -0.022 C 
HETATM   27  C22 UNL     1      -2.712  -3.099   1.963  1.00  0.00     0.009 C 
HETATM   28  C23 UNL     1      -4.445  -2.072   0.667  1.00  0.00     0.009 C 
ENDBRANCH  25  26
ENDBRANCH  12  25
BRANCH   6  29
HETATM   29  N1  UNL     1      -2.040   3.579   2.240  1.00  0.00    -0.059 N 
ATOM     30  H13 UNL     1      -1.787   2.674   2.638  1.00  0.00     0.275 HD
ATOM     31  H12 UNL     1      -1.223   4.099   2.560  1.00  0.00     0.275 HD
ATOM     32  H11 UNL     1      -2.915   3.946   2.613  1.00  0.00     0.275 HD
ENDBRANCH   6  29
TORSDOF 7
