REMARK  7 active torsions:
REMARK  status: ('A' for Active; 'I' for Inactive)
REMARK    1  A    between atoms: N1_4  and  C4_5 
REMARK    2  A    between atoms: C9_10  and  N2_11 
REMARK    3  A    between atoms: N2_11  and  C10_13 
REMARK    4  A    between atoms: C13_16  and  C14_17 
REMARK    5  A    between atoms: C14_17  and  C15_18 
REMARK    6  A    between atoms: C15_18  and  N3_19 
REMARK    7  A    between atoms: N3_19  and  C16_22 
ROOT
HETATM    1  C10 UNL     1      -0.743   0.010   1.135  1.00  0.00     0.237 C 
HETATM    2  C11 UNL     1       0.233   0.021  -0.001  1.00  0.00     0.055 C 
HETATM    3  C12 UNL     1       1.539  -0.648   0.395  1.00  0.00     0.011 C 
HETATM    4  C13 UNL     1       2.000  -0.155   1.745  1.00  0.00     0.011 C 
HETATM    5  C21 UNL     1       0.840  -0.279   2.702  1.00  0.00     0.175 C 
HETATM    6  O2  UNL     1      -0.258  -0.912   2.090  1.00  0.00    -0.366 OA
ENDROOT
BRANCH   1   7
HETATM    7  N2  UNL     1      -2.061  -0.418   0.704  1.00  0.00    -0.199 N 
ATOM      8  H2  UNL     1      -2.344  -1.384   0.869  1.00  0.00     0.180 HD
BRANCH   7   9
HETATM    9  C9  UNL     1      -2.880   0.375   0.124  1.00  0.00     0.685 A 
HETATM   10  N1  UNL     1      -4.087  -0.088  -0.249  1.00  0.00    -0.188 N 
HETATM   11  C3  UNL     1      -4.957   0.740  -0.861  1.00  0.00     0.121 A 
HETATM   12  C2  UNL     1      -4.634   2.071  -1.116  1.00  0.00     0.023 A 
HETATM   13  C1  UNL     1      -5.588   2.991  -1.790  1.00  0.00     0.056 C 
HETATM   14  C22 UNL     1      -3.391   2.529  -0.726  1.00  0.00     0.266 A 
HETATM   15  N4  UNL     1      -2.558   1.659  -0.118  1.00  0.00    -0.155 N 
HETATM   16  O3  UNL     1      -3.061   3.723  -0.938  1.00  0.00    -0.267 OA
ATOM     17  H4  UNL     1      -1.638   1.991   0.173  1.00  0.00     0.187 HD
BRANCH  10  18
HETATM   18  C4  UNL     1      -4.519  -1.460  -0.028  1.00  0.00     0.107 C 
HETATM   19  C5  UNL     1      -4.702  -2.228  -1.295  1.00  0.00     0.026 C 
HETATM   20  C6  UNL     1      -6.150  -2.614  -1.409  1.00  0.00     0.002 C 
HETATM   21  C7  UNL     1      -6.863  -2.059  -0.222  1.00  0.00     0.002 C 
HETATM   22  C8  UNL     1      -5.850  -1.483   0.709  1.00  0.00     0.026 C 
ENDBRANCH  10  18
ENDBRANCH   7   9
ENDBRANCH   1   7
BRANCH   4  23
HETATM   23  C14 UNL     1       2.547   1.228   1.678  1.00  0.00     0.034 C 
BRANCH  23  24
HETATM   24  C15 UNL     1       3.724   1.381   0.777  1.00  0.00     0.233 C 
BRANCH  24  25
HETATM   25  N3  UNL     1       4.846   0.550   1.162  1.00  0.00    -0.071 N 
ATOM     26  H32 UNL     1       5.116   0.708   2.133  1.00  0.00     0.277 HD
ATOM     27  H31 UNL     1       4.580  -0.432   1.233  1.00  0.00     0.277 HD
BRANCH  25  28
HETATM   28  C16 UNL     1       5.965   0.737   0.259  1.00  0.00     0.190 C 
HETATM   29  C17 UNL     1       5.575   0.314  -1.128  1.00  0.00     0.059 C 
HETATM   30  C18 UNL     1       6.736  -0.043  -1.998  1.00  0.00     0.169 C 
HETATM   31  O1  UNL     1       7.607  -0.943  -1.435  1.00  0.00    -0.391 OA
HETATM   32  C19 UNL     1       7.265  -1.332  -0.159  1.00  0.00     0.169 C 
HETATM   33  C20 UNL     1       7.087  -0.152   0.761  1.00  0.00     0.059 C 
ENDBRANCH  25  28
ENDBRANCH  24  25
ENDBRANCH  23  24
ENDBRANCH   4  23
TORSDOF 7
