REMARK  7 active torsions:
REMARK  status: ('A' for Active; 'I' for Inactive)
REMARK    1  A    between atoms: C2_2  and  C4_4 
REMARK    2  A    between atoms: C10_10  and  O1_11 
REMARK    3  A    between atoms: O1_11  and  C11_12 
REMARK    4  A    between atoms: C11_12  and  C12_13 
REMARK    5  A    between atoms: C20_26  and  C21_27 
REMARK    6  A    between atoms: C22_28  and  C23_29 
REMARK    7  A    between atoms: C23_29  and  O3_30 
ROOT
HETATM    1  C12 UNL     1       4.048   0.863  -0.057  1.00  0.00    -0.019 A 
HETATM    2  C13 UNL     1       3.884   1.719   1.008  1.00  0.00     0.013 A 
HETATM    3  C14 UNL     1       4.987   2.357   1.534  1.00  0.00     0.041 A 
HETATM    4  C15 UNL     1       6.210   2.111   0.968  1.00  0.00     0.113 A 
HETATM    5  C16 UNL     1       7.426   2.730   1.447  1.00  0.00     0.117 C 
HETATM    6  N1  UNL     1       8.403   3.208   1.836  1.00  0.00    -0.190 NA
HETATM    7  N2  UNL     1       6.346   1.270  -0.073  1.00  0.00    -0.357 N 
ATOM      8  H2  UNL     1       7.273   1.111  -0.468  1.00  0.00     0.166 HD
HETATM    9  C17 UNL     1       5.293   0.639  -0.600  1.00  0.00     0.098 A 
ENDROOT
BRANCH   1  10
HETATM   10  C11 UNL     1       2.901   0.152  -0.662  1.00  0.00     0.208 C 
BRANCH  10  11
HETATM   11  O1  UNL     1       1.698   0.440  -0.051  1.00  0.00    -0.377 OA
BRANCH  11  12
HETATM   12  C10 UNL     1       0.709  -0.288  -0.710  1.00  0.00     0.184 C 
HETATM   13  C9  UNL     1      -0.224   0.738  -1.377  1.00  0.00     0.257 C 
HETATM   14  C8  UNL     1      -1.340  -0.193  -1.842  1.00  0.00     0.079 C 
HETATM   15  N3  UNL     1      -0.922   1.595  -0.479  1.00  0.00     0.102 N 
HETATM   16  C7  UNL     1      -1.980  -0.338  -0.514  1.00  0.00     0.098 C 
HETATM   17  C6  UNL     1      -2.857  -1.436  -0.438  1.00  0.00     0.041 C 
HETATM   18  O2  UNL     1      -1.129  -0.436   0.608  1.00  0.00    -0.369 OA
HETATM   19  C20 UNL     1      -2.333   1.119  -0.372  1.00  0.00     0.280 C 
HETATM   20  C5  UNL     1      -1.979  -2.698  -0.464  1.00  0.00     0.010 C 
HETATM   21  C4  UNL     1      -0.529  -2.487  -0.257  1.00  0.00     0.021 C 
HETATM   22  C18 UNL     1      -0.056  -1.189   0.230  1.00  0.00     0.158 C 
HETATM   23  C19 UNL     1      -0.923   2.933  -1.016  1.00  0.00     0.311 C 
BRANCH  21  24
HETATM   24  C2  UNL     1      -0.061  -3.566   0.737  1.00  0.00    -0.016 C 
HETATM   25  C1  UNL     1      -0.325  -4.938   0.158  1.00  0.00     0.010 C 
HETATM   26  C3  UNL     1      -0.709  -3.453   2.061  1.00  0.00     0.010 C 
ENDBRANCH  21  24
BRANCH  19  27
HETATM   27  C21 UNL     1      -2.875   1.437   0.948  1.00  0.00     0.010 C 
HETATM   28  C22 UNL     1      -3.733   2.406   1.158  1.00  0.00    -0.003 C 
BRANCH  28  29
HETATM   29  C23 UNL     1      -4.277   3.311   0.129  1.00  0.00     0.191 C 
BRANCH  29  30
HETATM   30  O3  UNL     1      -3.948   4.650   0.428  1.00  0.00    -0.397 OA
ATOM     31  H3  UNL     1      -4.299   5.233  -0.235  1.00  0.00     0.209 HD
ENDBRANCH  29  30
ENDBRANCH  28  29
ENDBRANCH  19  27
ENDBRANCH  11  12
ENDBRANCH  10  11
ENDBRANCH   1  10
TORSDOF 7
