REMARK  9 active torsions:
REMARK  status: ('A' for Active; 'I' for Inactive)
REMARK    1  A    between atoms: C2_2  and  C3_3 
REMARK    2  A    between atoms: C3_3  and  N2_6 
REMARK    3  A    between atoms: N2_6  and  C5_7 
REMARK    4  A    between atoms: N2_6  and  C12_19 
REMARK    5  A    between atoms: C5_7  and  C6_8 
REMARK    6  A    between atoms: C12_19  and  N5_21 
REMARK    7  A    between atoms: N5_21  and  C13_23 
REMARK    8  A    between atoms: C13_23  and  C14_24 
REMARK    9  A    between atoms: C14_24  and  N6_25 
ROOT
HETATM    1  C3  UNL     1      -1.578  -1.555   0.204  1.00  0.00     0.198 C 
HETATM    2  C4  UNL     1      -0.756  -2.229  -0.730  1.00  0.00     0.085 C 
HETATM    3  N1  UNL     1      -0.111  -2.783  -1.523  1.00  0.00    -0.195 NA
ENDROOT
BRANCH   1   4
HETATM    4  C2  UNL     1      -2.008  -2.535   1.325  1.00  0.00     0.036 C 
HETATM    5  C1  UNL     1      -2.780  -3.694   0.744  1.00  0.00     0.008 C 
ENDBRANCH   1   4
BRANCH   1   6
HETATM    6  N2  UNL     1      -1.214  -0.293   0.741  1.00  0.00    -0.316 N 
BRANCH   6   7
HETATM    7  C5  UNL     1      -2.243   0.634   1.052  1.00  0.00     0.110 C 
BRANCH   7   8
HETATM    8  C6  UNL     1      -2.946   1.500   0.183  1.00  0.00     0.024 A 
HETATM    9  C7  UNL     1      -3.982   2.256   0.794  1.00  0.00     0.021 A 
HETATM   10  C8  UNL     1      -4.256   2.029   2.210  1.00  0.00     0.069 C 
HETATM   11  N3  UNL     1      -4.715   3.146   0.120  1.00  0.00    -0.336 N 
HETATM   12  C9  UNL     1      -4.501   3.365  -1.179  1.00  0.00     0.176 A 
ATOM     13  H3  UNL     1      -5.448   3.665   0.604  1.00  0.00     0.168 HD
HETATM   14  S1  UNL     1      -5.413   4.464  -1.984  1.00  0.00    -0.041 SA
HETATM   15  N4  UNL     1      -3.550   2.683  -1.774  1.00  0.00    -0.336 N 
HETATM   16  C10 UNL     1      -2.758   1.751  -1.137  1.00  0.00     0.021 A 
ATOM     17  H4  UNL     1      -3.387   2.853  -2.767  1.00  0.00     0.168 HD
HETATM   18  C11 UNL     1      -1.714   1.098  -1.973  1.00  0.00     0.069 C 
ENDBRANCH   7   8
ENDBRANCH   6   7
BRANCH   6  19
HETATM   19  C12 UNL     1       0.085   0.050   1.138  1.00  0.00     0.175 C 
HETATM   20  S2  UNL     1       0.381   1.593   1.734  1.00  0.00    -0.041 SA
BRANCH  19  21
HETATM   21  N5  UNL     1       1.181  -0.786   1.119  1.00  0.00    -0.365 N 
ATOM     22  H5  UNL     1       1.048  -1.753   0.822  1.00  0.00     0.161 HD
BRANCH  21  23
HETATM   23  C13 UNL     1       2.512  -0.361   1.499  1.00  0.00     0.152 C 
BRANCH  23  24
HETATM   24  C14 UNL     1       3.147   0.541   0.491  1.00  0.00     0.292 C 
BRANCH  24  25
HETATM   25  N6  UNL     1       3.253  -0.136  -0.781  1.00  0.00     0.094 N 
HETATM   26  C15 UNL     1       3.888   0.731  -1.729  1.00  0.00     0.298 C 
HETATM   27  C16 UNL     1       5.386   0.519  -1.731  1.00  0.00     0.198 C 
HETATM   28  O1  UNL     1       5.864  -0.064  -0.588  1.00  0.00    -0.388 OA
HETATM   29  C17 UNL     1       5.296  -1.260  -0.232  1.00  0.00     0.198 C 
HETATM   30  C18 UNL     1       3.904  -1.398  -0.751  1.00  0.00     0.298 C 
ENDBRANCH  24  25
ENDBRANCH  23  24
ENDBRANCH  21  23
ENDBRANCH  19  21
ENDBRANCH   6  19
ENDBRANCH   1   6
TORSDOF 9
