REMARK  4 active torsions:
REMARK  status: ('A' for Active; 'I' for Inactive)
REMARK    1  A    between atoms: C5_7  and  N2_8 
REMARK    2  A    between atoms: N2_8  and  C6_10 
REMARK    3  A    between atoms: C12_17  and  N4_18 
REMARK    4  A    between atoms: N4_18  and  C13_20 
ROOT
HETATM    1  N1  UNL     1       6.355   0.463  -2.619  1.00  0.00    -0.191 NA
HETATM    2  C1  UNL     1       6.011   0.567  -1.501  1.00  0.00     0.102 C 
HETATM    3  C2  UNL     1       5.548   0.707  -0.104  1.00  0.00     0.078 A 
HETATM    4  C3  UNL     1       6.293   1.350   0.812  1.00  0.00     0.033 A 
HETATM    5  C4  UNL     1       5.769   1.452   2.082  1.00  0.00     0.053 A 
HETATM    6  S1  UNL     1       4.273   0.652   1.942  1.00  0.00    -0.083 SA
HETATM    7  C5  UNL     1       4.337   0.208   0.302  1.00  0.00     0.091 A 
ENDROOT
BRANCH   7   8
HETATM    8  N2  UNL     1       3.390  -0.542  -0.459  1.00  0.00    -0.376 N 
ATOM      9  H2  UNL     1       3.600  -0.836  -1.413  1.00  0.00     0.160 HD
BRANCH   8  10
HETATM   10  C6  UNL     1       2.109  -0.877   0.168  1.00  0.00     0.115 C 
HETATM   11  C7  UNL     1       1.356  -1.872  -0.680  1.00  0.00     0.300 C 
HETATM   12  N3  UNL     1       0.200  -1.287  -1.343  1.00  0.00     0.113 N 
HETATM   13  C8  UNL     1       0.710  -0.198  -2.125  1.00  0.00     0.275 C 
HETATM   14  C12 UNL     1      -0.772  -0.811  -0.382  1.00  0.00     0.318 C 
HETATM   15  C9  UNL     1       1.256   0.930  -1.251  1.00  0.00     0.037 C 
HETATM   16  C10 UNL     1       1.300   0.401   0.162  1.00  0.00     0.015 C 
HETATM   17  C11 UNL     1      -0.123   0.049   0.642  1.00  0.00     0.064 C 
BRANCH  14  18
HETATM   18  N4  UNL     1      -1.874  -0.259  -1.009  1.00  0.00    -0.389 N 
ATOM     19  H4  UNL     1      -1.746   0.008  -1.985  1.00  0.00     0.155 HD
BRANCH  18  20
HETATM   20  C13 UNL     1      -3.128  -0.024  -0.475  1.00  0.00     0.078 C 
HETATM   21  C14 UNL     1      -3.184   0.952   0.649  1.00  0.00     0.024 C 
HETATM   22  C15 UNL     1      -4.631   1.250   1.060  1.00  0.00     0.002 C 
HETATM   23  C16 UNL     1      -5.194  -0.011   1.626  1.00  0.00     0.000 C 
HETATM   24  C17 UNL     1      -4.314  -1.231   1.356  1.00  0.00     0.002 C 
HETATM   25  C18 UNL     1      -3.926  -1.251  -0.103  1.00  0.00     0.024 C 
ENDBRANCH  18  20
ENDBRANCH  14  18
ENDBRANCH   8  10
ENDBRANCH   7   8
TORSDOF 4
