REMARK  6 active torsions:
REMARK  status: ('A' for Active; 'I' for Inactive)
REMARK       I    between atoms: C1_2  and  N1_3 
REMARK    1  A    between atoms: C1_2  and  C7_12 
REMARK    2  A    between atoms: N1_3  and  N2_4 
REMARK    3  A    between atoms: C2_6  and  C3_7 
REMARK    4  A    between atoms: C10_15  and  S2_16 
REMARK    5  A    between atoms: S2_16  and  N3_19 
REMARK    6  A    between atoms: N3_19  and  C11_21 
ROOT
HETATM    1  C7  UNL     1       0.616   0.381   0.621  1.00  0.00     0.161 A 
HETATM    2  C8  UNL     1       0.969   1.545  -0.026  1.00  0.00     0.048 A 
HETATM    3  C9  UNL     1      -0.217   2.237  -0.147  1.00  0.00     0.054 A 
HETATM    4  C10 UNL     1      -1.240   1.476   0.425  1.00  0.00     0.190 A 
HETATM    5  O4  UNL     1      -0.666   0.377   0.865  1.00  0.00    -0.290 OA
ENDROOT
BRANCH   1   6
HETATM    6  C1  UNL     1       1.600  -0.701   0.974  1.00  0.00     0.369 C 
HETATM    7  O1  UNL     1       1.060  -1.719   1.515  1.00  0.00    -0.247 OA
HETATM    8  N1  UNL     1       2.909  -0.541   0.714  1.00  0.00    -0.280 NA
BRANCH   8   9
HETATM    9  N2  UNL     1       4.209  -0.382   0.455  1.00  0.00    -0.242 N 
HETATM   10  C2  UNL     1       4.809  -0.350  -0.665  1.00  0.00     0.140 C 
ATOM     11  H2  UNL     1       4.807  -0.270   1.274  1.00  0.00     0.201 HD
BRANCH  10  12
HETATM   12  C3  UNL     1       6.253  -0.163  -0.701  1.00  0.00     0.022 A 
HETATM   13  C4  UNL     1       7.093  -0.003   0.377  1.00  0.00     0.021 A 
HETATM   14  C5  UNL     1       8.398   0.156   0.120  1.00  0.00     0.008 A 
HETATM   15  C6  UNL     1       8.795   0.147  -1.188  1.00  0.00     0.050 A 
HETATM   16  S1  UNL     1       7.329  -0.084  -2.026  1.00  0.00    -0.101 SA
ENDBRANCH  10  12
ENDBRANCH   8   9
ENDBRANCH   1   6
BRANCH   4  17
HETATM   17  S2  UNL     1      -2.893   1.974   0.492  1.00  0.00     0.281 S 
HETATM   18  O2  UNL     1      -3.031   3.303  -0.190  1.00  0.00    -0.199 OA
HETATM   19  O3  UNL     1      -3.283   2.204   1.927  1.00  0.00    -0.199 OA
BRANCH  17  20
HETATM   20  N3  UNL     1      -3.983   0.890  -0.286  1.00  0.00    -0.309 N 
ATOM     21  H3  UNL     1      -4.554   1.164  -1.085  1.00  0.00     0.172 HD
BRANCH  20  22
HETATM   22  C11 UNL     1      -4.025  -0.420   0.274  1.00  0.00     0.093 C 
HETATM   23  C12 UNL     1      -3.827  -1.434  -0.823  1.00  0.00     0.026 C 
HETATM   24  C13 UNL     1      -5.102  -1.275  -1.622  1.00  0.00     0.002 C 
HETATM   25  C14 UNL     1      -6.153  -0.894  -0.595  1.00  0.00     0.002 C 
HETATM   26  C15 UNL     1      -5.456  -0.786   0.719  1.00  0.00     0.026 C 
ENDBRANCH  20  22
ENDBRANCH  17  20
ENDBRANCH   4  17
TORSDOF 6
