REMARK  6 active torsions:
REMARK  status: ('A' for Active; 'I' for Inactive)
REMARK    1  A    between atoms: N2_8  and  S1_9 
REMARK    2  A    between atoms: S1_9  and  C7_12 
REMARK    3  A    between atoms: C12_17  and  N3_18 
REMARK    4  A    between atoms: N3_18  and  N4_20 
REMARK    5  A    between atoms: N4_20  and  C13_22 
REMARK    6  A    between atoms: C13_22  and  C14_23 
ROOT
HETATM    1  N1  UNL     1      -2.681   3.441   1.547  1.00  0.00    -0.197 NA
HETATM    2  C1  UNL     1      -2.884   2.297   1.481  1.00  0.00     0.065 C 
HETATM    3  C2  UNL     1      -3.134   0.871   1.429  1.00  0.00     0.107 C 
HETATM    4  C3  UNL     1      -4.555   0.479   1.197  1.00  0.00     0.020 C 
HETATM    5  C4  UNL     1      -5.079   0.576  -0.182  1.00  0.00     0.002 C 
HETATM    6  C5  UNL     1      -4.217   1.306  -1.170  1.00  0.00     0.015 C 
HETATM    7  C6  UNL     1      -3.048   0.490  -1.573  1.00  0.00     0.107 C 
HETATM    8  N2  UNL     1      -1.874   0.700  -0.706  1.00  0.00    -0.205 NA
HETATM    9  C18 UNL     1      -2.171   0.108   0.590  1.00  0.00     0.126 C 
ENDROOT
BRANCH   8  10
HETATM   10  S1  UNL     1      -0.623  -0.229  -1.427  1.00  0.00     0.246 S 
HETATM   11  O1  UNL     1      -1.202  -0.894  -2.673  1.00  0.00    -0.206 OA
HETATM   12  O2  UNL     1       0.449   0.692  -1.982  1.00  0.00    -0.206 OA
BRANCH  10  13
HETATM   13  C7  UNL     1       0.050  -1.483  -0.458  1.00  0.00     0.102 A 
HETATM   14  C8  UNL     1      -0.412  -2.804  -0.600  1.00  0.00     0.027 A 
HETATM   15  C9  UNL     1      -0.001  -3.843   0.182  1.00  0.00     0.002 A 
HETATM   16  C10 UNL     1       0.918  -3.634   1.178  1.00  0.00     0.002 A 
HETATM   17  C11 UNL     1       1.395  -2.360   1.348  1.00  0.00     0.032 A 
HETATM   18  C12 UNL     1       0.970  -1.301   0.543  1.00  0.00     0.070 A 
BRANCH  18  19
HETATM   19  N3  UNL     1       1.592  -0.011   0.726  1.00  0.00    -0.303 N 
ATOM     20  H3  UNL     1       1.087   0.787   1.111  1.00  0.00     0.186 HD
BRANCH  19  21
HETATM   21  N4  UNL     1       2.913   0.070   0.346  1.00  0.00    -0.330 N 
ATOM     22  H4  UNL     1       3.509  -0.756   0.297  1.00  0.00     0.180 HD
BRANCH  21  23
HETATM   23  C13 UNL     1       3.403   1.364   0.026  1.00  0.00     0.204 C 
BRANCH  23  24
HETATM   24  C14 UNL     1       4.836   1.281  -0.332  1.00  0.00     0.071 A 
HETATM   25  C15 UNL     1       5.889   1.502   0.539  1.00  0.00     0.036 A 
HETATM   26  C16 UNL     1       7.066   1.330  -0.172  1.00  0.00     0.027 A 
HETATM   27  C17 UNL     1       6.655   1.010  -1.450  1.00  0.00     0.142 A 
HETATM   28  O3  UNL     1       5.326   0.993  -1.499  1.00  0.00    -0.325 OA
ENDBRANCH  23  24
ENDBRANCH  21  23
ENDBRANCH  19  21
ENDBRANCH  18  19
ENDBRANCH  10  13
ENDBRANCH   8  10
TORSDOF 6
