REMARK  7 active torsions:
REMARK  status: ('A' for Active; 'I' for Inactive)
REMARK    1  A    between atoms: C7_7  and  N1_8 
REMARK    2  A    between atoms: N1_8  and  C8_10 
REMARK    3  A    between atoms: C8_10  and  C9_12 
REMARK    4  A    between atoms: C9_12  and  C10_13 
REMARK       I    between atoms: C10_13  and  N2_15 
REMARK    5  A    between atoms: N2_15  and  N3_17 
REMARK    6  A    between atoms: C11_19  and  C12_20 
REMARK    7  A    between atoms: C15_23  and  N4_24 
ROOT
HETATM    1  C10 UNL     1       1.454   0.334   0.134  1.00  0.00     0.242 C 
HETATM    2  O1  UNL     1       1.631  -0.758   0.717  1.00  0.00    -0.271 OA
HETATM    3  N2  UNL     1       2.583   1.039  -0.358  1.00  0.00    -0.270 N 
ATOM      4  H2  UNL     1       2.471   1.932  -0.838  1.00  0.00     0.190 HD
ENDROOT
BRANCH   1   5
HETATM    5  C9  UNL     1       0.131   0.948  -0.080  1.00  0.00     0.173 C 
BRANCH   5   6
HETATM    6  C8  UNL     1      -1.001   0.186   0.443  1.00  0.00     0.082 C 
HETATM    7  S1  UNL     1      -0.784  -1.221   1.206  1.00  0.00    -0.065 SA
BRANCH   6   8
HETATM    8  N1  UNL     1      -2.310   0.701   0.280  1.00  0.00    -0.379 N 
ATOM      9  H1  UNL     1      -2.442   1.594  -0.196  1.00  0.00     0.160 HD
BRANCH   8  10
HETATM   10  C7  UNL     1      -3.468  -0.021   0.779  1.00  0.00     0.085 C 
HETATM   11  C2  UNL     1      -4.720   0.799   0.532  1.00  0.00     0.004 C 
HETATM   12  C1  UNL     1      -4.873   1.263  -0.876  1.00  0.00     0.012 C 
HETATM   13  C3  UNL     1      -5.936   0.057   0.973  1.00  0.00     0.006 C 
HETATM   14  C4  UNL     1      -6.020  -1.335   0.435  1.00  0.00     0.001 C 
HETATM   15  C5  UNL     1      -4.874  -1.704  -0.450  1.00  0.00     0.002 C 
HETATM   16  C6  UNL     1      -3.521  -1.380   0.167  1.00  0.00     0.025 C 
ENDBRANCH   8  10
ENDBRANCH   6   8
ENDBRANCH   5   6
ENDBRANCH   1   5
BRANCH   3  17
HETATM   17  N3  UNL     1       3.850   0.485  -0.171  1.00  0.00    -0.308 N 
HETATM   18  C11 UNL     1       4.884   1.176  -0.493  1.00  0.00     0.126 C 
ATOM     19  H3  UNL     1       3.953  -0.453   0.215  1.00  0.00     0.186 HD
BRANCH  18  20
HETATM   20  C12 UNL     1       6.201   0.537  -0.273  1.00  0.00     0.024 A 
HETATM   21  C13 UNL     1       6.486  -0.701   0.232  1.00  0.00     0.023 A 
HETATM   22  C14 UNL     1       7.772  -1.049   0.332  1.00  0.00     0.045 A 
HETATM   23  C15 UNL     1       8.705  -0.139  -0.078  1.00  0.00     0.144 A 
HETATM   24  S2  UNL     1       7.757   1.178  -0.593  1.00  0.00    -0.065 SA
BRANCH  23  25
HETATM   25  N4  UNL     1      10.140  -0.258  -0.078  1.00  0.00    -0.108 N 
HETATM   26  O2  UNL     1      10.850   0.680  -0.492  1.00  0.00    -0.531 OA
HETATM   27  O3  UNL     1      10.762  -1.379   0.367  1.00  0.00    -0.531 OA
ENDBRANCH  23  25
ENDBRANCH  18  20
ENDBRANCH   3  17
TORSDOF 7
