REMARK  3 active torsions:
REMARK  status: ('A' for Active; 'I' for Inactive)
REMARK    1  A    between atoms: C2_2  and  N7_18 
REMARK       I    between atoms: N1_3  and  C3_5 
REMARK       I    between atoms: C3_5  and  N2_6 
REMARK    2  A    between atoms: N2_6  and  N3_8 
REMARK    3  A    between atoms: N5_13  and  N6_15 
ROOT
HETATM    1  C1  UNL     1      -1.570  -0.420  -1.074  1.00  0.00     0.091 C 
HETATM    2  C2  UNL     1      -1.469  -0.507   0.418  1.00  0.00     0.107 C 
HETATM    3  N1  UNL     1      -0.386  -0.137   1.000  1.00  0.00    -0.177 N 
ATOM      4  H1  UNL     1      -0.350  -0.209   2.017  1.00  0.00     0.185 HD
HETATM    5  C3  UNL     1       0.756   0.360   0.344  1.00  0.00     0.713 C 
HETATM    6  N2  UNL     1       1.475  -0.539  -0.492  1.00  0.00    -0.117 N 
ATOM      7  H2  UNL     1       1.081  -0.826  -1.388  1.00  0.00     0.207 HD
HETATM    8  N5  UNL     1       1.123   1.593   0.510  1.00  0.00    -0.137 N 
ATOM      9  H5  UNL     1       0.563   2.183   1.125  1.00  0.00     0.205 HD
ENDROOT
BRANCH   6  10
HETATM   10  N3  UNL     1       2.584  -0.976  -0.133  1.00  0.00    -0.235 N 
HETATM   11  N4  UNL     1       3.329  -1.897   0.265  1.00  0.00    -0.330 N 
ATOM     12  H42 UNL     1       2.681  -2.683   0.315  1.00  0.00     0.178 HD
ATOM     13  H41 UNL     1       4.238  -2.255   0.559  1.00  0.00     0.178 HD
ATOM     14  H3  UNL     1       3.202  -0.167  -0.196  1.00  0.00     0.208 HD
ENDBRANCH   6  10
BRANCH   8  15
HETATM   15  N6  UNL     1       2.229   2.151  -0.098  1.00  0.00    -0.331 N 
ATOM     16  H62 UNL     1       2.778   1.546  -0.709  1.00  0.00     0.177 HD
ATOM     17  H61 UNL     1       2.518   3.121   0.033  1.00  0.00     0.177 HD
ENDBRANCH   8  15
BRANCH   2  18
HETATM   18  N7  UNL     1      -2.529  -0.984   1.225  1.00  0.00    -0.295 N 
HETATM   19  N8  UNL     1      -3.538  -0.236   1.377  1.00  0.00    -0.344 N 
ATOM     20  H82 UNL     1      -3.571   0.678   0.926  1.00  0.00     0.176 HD
ATOM     21  H81 UNL     1      -4.302  -0.580   1.959  1.00  0.00     0.176 HD
ATOM     22  H7  UNL     1      -2.481  -1.901   1.670  1.00  0.00     0.187 HD
ENDBRANCH   2  18
TORSDOF 3
