REMARK  4 active torsions:
REMARK  status: ('A' for Active; 'I' for Inactive)
REMARK    1  A    between atoms: C1_2  and  C2_4 
REMARK    2  A    between atoms: C3_5  and  C4_6 
REMARK    3  A    between atoms: C5_7  and  C6_8 
REMARK    4  A    between atoms: C7_9  and  C8_10 
ROOT
HETATM    1  C4  UNL     1      -1.301   0.200   0.879  1.00  0.00     0.074 C 
HETATM    2  C5  UNL     1      -0.575   0.082  -0.215  1.00  0.00     0.073 C 
ENDROOT
BRANCH   2   3
HETATM    3  C6  UNL     1       0.828   0.371  -0.168  1.00  0.00    -0.076 C 
HETATM    4  C7  UNL     1       2.025   0.612  -0.149  1.00  0.00    -0.067 C 
BRANCH   4   5
HETATM    5  C8  UNL     1       3.462   0.905  -0.151  1.00  0.00     0.290 A 
HETATM    6  C9  UNL     1       4.377  -0.190  -0.262  1.00  0.00     0.279 A 
HETATM    7  N1  UNL     1       4.224   0.429   1.051  1.00  0.00    -0.056 N 
ATOM      8  H12 UNL     1       4.843   0.848   1.745  1.00  0.00     0.278 HD
ATOM      9  H11 UNL     1       3.993   0.113   1.993  1.00  0.00     0.278 HD
ENDBRANCH   4   5
ENDBRANCH   2   3
BRANCH   1  10
HETATM   10  C3  UNL     1      -2.720  -0.097   0.815  1.00  0.00    -0.067 C 
HETATM   11  C2  UNL     1      -3.900  -0.341   0.742  1.00  0.00     0.009 C 
BRANCH  11  12
HETATM   12  C1  UNL     1      -5.312  -0.625   0.631  1.00  0.00     0.258 C 
HETATM   13  O1  UNL     1      -6.091   0.046   1.355  1.00  0.00    -0.637 OA
HETATM   14  O2  UNL     1      -5.818  -1.588  -0.227  1.00  0.00    -0.637 OA
ENDBRANCH  11  12
ENDBRANCH   1  10
TORSDOF 4
