REMARK  1 active torsions:
REMARK  status: ('A' for Active; 'I' for Inactive)
REMARK    1  A    between atoms: O1_1  and  N1_3 
ROOT
HETATM    1  N1  UNL     1       2.110  -0.392  -0.107  1.00  0.00    -0.276 N 
ATOM      2  H1  UNL     1       2.457  -1.298  -0.423  1.00  0.00     0.193 HD
HETATM    3  C1  UNL     1       0.840  -0.262   0.044  1.00  0.00     0.024 C 
HETATM    4  C2  UNL     1      -0.157  -1.326  -0.206  1.00  0.00     0.056 C 
HETATM    5  C3  UNL     1      -1.469  -0.618  -0.395  1.00  0.00     0.007 C 
HETATM    6  C4  UNL     1      -1.321   0.763   0.192  1.00  0.00     0.022 C 
HETATM    7  C5  UNL     1       0.144   0.966   0.493  1.00  0.00     0.105 C 
HETATM    8 BR1  UNL     1       0.440   1.302   2.378  1.00  0.00    -0.085 Br
ENDROOT
BRANCH   1   9
HETATM    9  O1  UNL     1       3.023   0.582   0.122  1.00  0.00    -0.290 OA
ATOM     10  H1  UNL     1       3.962   0.486   0.010  1.00  0.00     0.244 HD
ENDBRANCH   1   9
TORSDOF 1
