REMARK  0 active torsions:
REMARK  status: ('A' for Active; 'I' for Inactive)
ROOT
HETATM    1  C1  UNL     1      -2.144  -0.187   0.815  1.00  0.00     0.015 C 
HETATM    2  C2  UNL     1      -0.991   0.126  -0.148  1.00  0.00    -0.041 C 
HETATM    3  C3  UNL     1      -1.584   0.777  -1.381  1.00  0.00     0.015 C 
HETATM    4  C4  UNL     1      -0.067   1.048   0.552  1.00  0.00     0.062 C 
HETATM    5  C5  UNL     1       1.355   0.855   0.299  1.00  0.00    -0.000 C 
HETATM    6  N1  UNL     1       2.197   1.773   0.595  1.00  0.00    -0.404 N 
ATOM      7  H11 UNL     1       3.192   1.638   0.418  1.00  0.00     0.155 HD
ATOM      8  H12 UNL     1       1.848   2.637   1.009  1.00  0.00     0.155 HD
HETATM    9  C6  UNL     1       1.861  -0.396  -0.301  1.00  0.00     0.156 C 
HETATM   10  C7  UNL     1       3.222  -0.714   0.111  1.00  0.00     0.071 C 
HETATM   11  N2  UNL     1       4.288  -0.978   0.443  1.00  0.00    -0.196 NA
HETATM   12  C8  UNL     1       0.904  -1.487   0.142  1.00  0.00     0.106 C 
HETATM   13 CL1  UNL     1       0.658  -1.464   1.888  1.00  0.00    -0.123 Cl
HETATM   14  C9  UNL     1      -0.403  -1.193  -0.555  1.00  0.00     0.030 C 
ENDROOT
TORSDOF 0
