REMARK  0 active torsions:
REMARK  status: ('A' for Active; 'I' for Inactive)
ROOT
HETATM    1  F1  UNL     1      -0.461   2.749  -0.039  1.00  0.00    -0.243 F 
HETATM    2  C1  UNL     1      -0.521   1.426   0.292  1.00  0.00     0.222 C 
HETATM    3  C2  UNL     1      -1.462   0.644  -0.631  1.00  0.00     0.044 C 
HETATM    4  C3  UNL     1      -1.642  -0.712   0.025  1.00  0.00     0.008 C 
HETATM    5  C4  UNL     1      -0.339  -1.497  -0.080  1.00  0.00     0.044 C 
HETATM    6  C5  UNL     1       0.838  -0.620   0.067  1.00  0.00     0.017 A 
HETATM    7  C6  UNL     1       0.776   0.740   0.240  1.00  0.00     0.076 A 
HETATM    8  N1  UNL     1       2.021   1.234   0.339  1.00  0.00    -0.261 N 
ATOM      9  H1  UNL     1       2.284   2.210   0.472  1.00  0.00     0.194 HD
HETATM   10  O1  UNL     1       2.821   0.219   0.231  1.00  0.00    -0.225 OA
HETATM   11  C7  UNL     1       2.180  -0.909   0.067  1.00  0.00     0.173 A 
HETATM   12  S1  UNL     1       2.844  -2.406  -0.107  1.00  0.00    -0.050 SA
ENDROOT
TORSDOF 0
