REMARK  0 active torsions:
REMARK  status: ('A' for Active; 'I' for Inactive)
ROOT
HETATM    1  C1  UNL     1       2.512   0.142  -0.822  1.00  0.00     0.031 C 
HETATM    2  C2  UNL     1       1.569   0.156   0.341  1.00  0.00     0.049 C 
HETATM    3  C3  UNL     1       2.332   0.390   1.574  1.00  0.00     0.069 C 
HETATM    4  N1  UNL     1       2.936   0.579   2.559  1.00  0.00    -0.196 NA
HETATM    5  C4  UNL     1       0.528   1.246   0.254  1.00  0.00     0.057 C 
HETATM    6  C5  UNL     1      -0.464   1.021  -0.845  1.00  0.00     0.188 C 
HETATM    7  C6  UNL     1      -1.904   1.087  -0.358  1.00  0.00     0.033 C 
HETATM    8  C7  UNL     1      -2.149   0.103   0.749  1.00  0.00     0.004 C 
HETATM    9  C8  UNL     1      -1.655  -1.256   0.396  1.00  0.00     0.033 C 
HETATM   10  C9  UNL     1      -0.371  -1.272  -0.375  1.00  0.00     0.188 C 
HETATM   11  C10 UNL     1       0.854  -1.170   0.492  1.00  0.00     0.057 C 
HETATM   12  N2  UNL     1      -0.318  -0.306  -1.438  1.00  0.00    -0.067 N 
ATOM     13  H21 UNL     1       0.522  -0.393  -2.010  1.00  0.00     0.278 HD
ATOM     14  H22 UNL     1      -1.002  -0.488  -2.172  1.00  0.00     0.278 HD
ENDROOT
TORSDOF 0
