REMARK  2 active torsions:
REMARK  status: ('A' for Active; 'I' for Inactive)
REMARK    1  A    between atoms: C2_3  and  C3_4 
REMARK    2  A    between atoms: N2_6  and  O1_7 
ROOT
HETATM    1  N1  UNL     1       3.733   0.654   1.394  1.00  0.00    -0.197 NA
HETATM    2  C1  UNL     1       2.900   0.122   0.759  1.00  0.00     0.060 C 
HETATM    3  C2  UNL     1       1.866  -0.509  -0.021  1.00  0.00     0.140 C 
ENDROOT
BRANCH   3   4
HETATM    4  C3  UNL     1       0.476  -0.120   0.413  1.00  0.00     0.076 C 
HETATM    5  C4  UNL     1      -0.580  -0.803  -0.429  1.00  0.00     0.137 C 
HETATM    6  N2  UNL     1      -1.796  -0.057  -0.281  1.00  0.00    -0.189 NA
HETATM    7  C5  UNL     1      -1.567   1.276  -0.788  1.00  0.00     0.194 C 
HETATM    8  S1  UNL     1       0.096   1.612  -0.076  1.00  0.00    -0.145 SA
BRANCH   6   9
HETATM    9  O1  UNL     1      -2.255   0.026   0.965  1.00  0.00    -0.312 OA
ATOM     10  H1  UNL     1      -3.060   0.520   1.063  1.00  0.00     0.237 HD
ENDBRANCH   6   9
ENDBRANCH   3   4
TORSDOF 2
