REMARK  4 active torsions:
REMARK  status: ('A' for Active; 'I' for Inactive)
REMARK    1  A    between atoms: C2_2  and  O1_3 
REMARK    2  A    between atoms: O1_3  and  C3_4 
REMARK    3  A    between atoms: C3_4  and  S1_8 
REMARK    4  A    between atoms: S1_8  and  C4_9 
ROOT
HETATM    1  C4  UNL     1       2.939   1.157  -0.216  1.00  0.00     0.206 C 
HETATM    2  C5  UNL     1       3.490  -0.185   0.016  1.00  0.00     0.069 C 
HETATM    3  N2  UNL     1       3.932  -1.232   0.206  1.00  0.00    -0.197 NA
ENDROOT
BRANCH   1   4
HETATM    4  S1  UNL     1       1.450   1.401   0.769  1.00  0.00    -0.073 SA
BRANCH   4   5
HETATM    5  C3  UNL     1       0.118   0.341   0.247  1.00  0.00     0.176 C 
HETATM    6  N1  UNL     1       0.188  -0.505  -0.709  1.00  0.00    -0.374 N 
ATOM      7  H12 UNL     1      -0.575  -1.112  -1.008  1.00  0.00     0.158 HD
ATOM      8  H11 UNL     1       1.083  -0.561  -1.195  1.00  0.00     0.158 HD
BRANCH   5   9
HETATM    9  O1  UNL     1      -1.100   0.417   0.909  1.00  0.00    -0.331 OA
BRANCH   9  10
HETATM   10  C2  UNL     1      -2.341   0.223   0.282  1.00  0.00     0.173 C 
HETATM   11  C1  UNL     1      -2.534  -1.110  -0.348  1.00  0.00     0.034 C 
ENDBRANCH   9  10
ENDBRANCH   5   9
ENDBRANCH   4   5
ENDBRANCH   1   4
TORSDOF 4
