REMARK  1 active torsions:
REMARK  status: ('A' for Active; 'I' for Inactive)
REMARK    1  A    between atoms: C1_2  and  C2_4 
ROOT
HETATM    1  C2  UNL     1       0.835   0.455   0.488  1.00  0.00     0.209 C 
HETATM    2  S1  UNL     1       0.023  -1.187   0.635  1.00  0.00    -0.142 SA
HETATM    3  C3  UNL     1      -1.711  -0.590   0.741  1.00  0.00     0.086 C 
HETATM    4  C4  UNL     1      -1.869   0.310  -0.480  1.00  0.00     0.086 C 
HETATM    5  S2  UNL     1      -0.362   1.283  -0.594  1.00  0.00    -0.142 SA
ENDROOT
BRANCH   1   6
HETATM    6  C1  UNL     1       2.153   0.328  -0.113  1.00  0.00     0.197 C 
HETATM    7  O1  UNL     1       2.450   0.902  -1.177  1.00  0.00    -0.646 OA
HETATM    8  O2  UNL     1       3.106  -0.453   0.515  1.00  0.00    -0.646 OA
ENDBRANCH   1   6
TORSDOF 1
