REMARK  2 active torsions:
REMARK  status: ('A' for Active; 'I' for Inactive)
REMARK    1  A    between atoms: O1_2  and  C2_3 
REMARK    2  A    between atoms: C2_3  and  C5_7 
ROOT
HETATM    1  C2  UNL     1       1.062  -0.202  -0.154  1.00  0.00     0.148 C 
HETATM    2  C3  UNL     1       1.671  -1.584   0.164  1.00  0.00     0.063 C 
HETATM    3  C4  UNL     1       1.370   0.107  -1.526  1.00  0.00     0.098 C 
HETATM    4  N1  UNL     1       1.639   0.345  -2.624  1.00  0.00    -0.194 NA
ENDROOT
BRANCH   1   5
HETATM    5  O1  UNL     1       1.840   0.678   0.644  1.00  0.00    -0.370 OA
HETATM    6  C1  UNL     1       3.173   0.611   0.302  1.00  0.00     0.204 C 
ENDBRANCH   1   5
BRANCH   1   7
HETATM    7  C5  UNL     1      -0.319  -0.095   0.295  1.00  0.00     0.042 C 
HETATM    8  C6  UNL     1      -1.084   1.168   0.268  1.00  0.00    -0.006 C 
HETATM    9  C7  UNL     1      -2.273   0.784   1.172  1.00  0.00     0.005 C 
HETATM   10  C10 UNL     1      -1.674   0.771  -1.055  1.00  0.00     0.010 C 
HETATM   11  C8  UNL     1      -2.576  -0.597   0.549  1.00  0.00     0.005 C 
HETATM   12  C9  UNL     1      -1.464  -0.634  -0.493  1.00  0.00    -0.006 C 
ENDBRANCH   1   7
TORSDOF 2
