REMARK  2 active torsions:
REMARK  status: ('A' for Active; 'I' for Inactive)
REMARK    1  A    between atoms: C5_6  and  C6_7 
REMARK    2  A    between atoms: C6_7  and  O2_8 
ROOT
HETATM    1  C1  UNL     1      -1.890   0.172  -1.635  1.00  0.00     0.029 C 
HETATM    2  C2  UNL     1      -1.445  -0.208  -0.258  1.00  0.00     0.022 C 
HETATM    3  C3  UNL     1      -2.565  -0.287   0.739  1.00  0.00     0.029 C 
HETATM    4  C4  UNL     1      -0.401   0.790   0.263  1.00  0.00     0.188 C 
HETATM    5  O1  UNL     1       0.372   0.259   1.255  1.00  0.00    -0.381 OA
HETATM    6  C5  UNL     1       1.437  -0.487   0.861  1.00  0.00     0.154 C 
HETATM    7  C7  UNL     1       1.202  -1.250  -0.439  1.00  0.00     0.108 C 
HETATM    8  S1  UNL     1      -0.542  -1.787  -0.385  1.00  0.00    -0.155 SA
ENDROOT
BRANCH   6   9
HETATM    9  C6  UNL     1       2.725   0.269   0.707  1.00  0.00     0.196 C 
BRANCH   9  10
HETATM   10  O2  UNL     1       2.581   1.272  -0.247  1.00  0.00    -0.398 OA
ATOM     11  H2  UNL     1       3.396   1.750  -0.344  1.00  0.00     0.209 HD
ENDBRANCH   9  10
ENDBRANCH   6   9
TORSDOF 2
