REMARK  2 active torsions:
REMARK  status: ('A' for Active; 'I' for Inactive)
REMARK    1  A    between atoms: C5_6  and  C6_7 
REMARK    2  A    between atoms: N2_8  and  O1_10 
ROOT
HETATM    1  C1  UNL     1      -3.129   0.859   0.284  1.00  0.00     0.148 C 
HETATM    2  N1  UNL     1      -1.763   0.436   0.306  1.00  0.00    -0.398 N 
HETATM    3  C2  UNL     1      -1.549  -0.954   0.312  1.00  0.00     0.121 C 
HETATM    4  C3  UNL     1      -0.452  -1.265   1.336  1.00  0.00     0.021 C 
HETATM    5  C4  UNL     1       0.750  -0.382   1.140  1.00  0.00     0.012 C 
HETATM    6  C5  UNL     1       1.114  -0.307  -0.326  1.00  0.00     0.031 C 
HETATM    7  C7  UNL     1       0.241   0.595  -1.115  1.00  0.00     0.054 C 
HETATM    8  C8  UNL     1      -0.838   1.261  -0.339  1.00  0.00     0.058 C 
ENDROOT
BRANCH   6   9
HETATM    9  C6  UNL     1       2.552   0.002  -0.414  1.00  0.00     0.091 C 
HETATM   10  N2  UNL     1       3.366  -0.723   0.275  1.00  0.00    -0.284 N 
ATOM     11  H2  UNL     1       2.971  -1.471   0.845  1.00  0.00     0.192 HD
BRANCH  10  12
HETATM   12  O1  UNL     1       4.720  -0.556   0.293  1.00  0.00    -0.291 OA
ATOM     13  H1  UNL     1       5.320  -1.090   0.801  1.00  0.00     0.244 HD
ENDBRANCH  10  12
ENDBRANCH   6   9
TORSDOF 2
