REMARK  4 active torsions:
REMARK  status: ('A' for Active; 'I' for Inactive)
REMARK    1  A    between atoms: C2_2  and  C3_4 
REMARK    2  A    between atoms: C7_9  and  C8_10 
REMARK    3  A    between atoms: C8_10  and  N1_12 
REMARK    4  A    between atoms: N1_12  and  C11_14 
ROOT
HETATM    1  C8  UNL     1      -0.160   0.149   0.903  1.00  0.00     0.116 C 
HETATM    2  C9  UNL     1       0.366   1.454   1.494  1.00  0.00     0.037 C 
ENDROOT
BRANCH   1   3
HETATM    3  C7  UNL     1      -1.599   0.480   0.546  1.00  0.00     0.019 A 
HETATM    4  C3  UNL     1      -2.722  -0.262   0.535  1.00  0.00     0.025 A 
HETATM    5  C4  UNL     1      -3.838   0.278  -0.010  1.00  0.00     0.030 A 
HETATM    6  C5  UNL     1      -3.726   1.557  -0.504  1.00  0.00    -0.020 A 
HETATM    7  C6  UNL     1      -4.801   2.406  -1.165  1.00  0.00     0.056 C 
HETATM    8  S1  UNL     1      -2.099   1.955  -0.192  1.00  0.00    -0.097 SA
BRANCH   4   9
HETATM    9  C2  UNL     1      -2.789  -1.582   1.246  1.00  0.00     0.156 C 
HETATM   10  C1  UNL     1      -3.706  -2.647   0.820  1.00  0.00     0.097 C 
HETATM   11  O1  UNL     1      -2.051  -1.795   2.232  1.00  0.00    -0.293 OA
ENDBRANCH   4   9
ENDBRANCH   1   3
BRANCH   1  12
HETATM   12  N1  UNL     1       0.466  -0.137  -0.348  1.00  0.00    -0.404 N 
HETATM   13  C10 UNL     1      -0.182  -1.136  -1.091  1.00  0.00     0.144 C 
BRANCH  12  14
HETATM   14  C11 UNL     1       1.856  -0.130  -0.494  1.00  0.00     0.079 C 
HETATM   15  C12 UNL     1       2.583   1.171  -0.324  1.00  0.00     0.025 C 
HETATM   16  C13 UNL     1       3.946   1.007  -1.054  1.00  0.00     0.002 C 
HETATM   17  C14 UNL     1       4.689  -0.027  -0.282  1.00  0.00     0.000 C 
HETATM   18  C15 UNL     1       3.882  -0.673   0.816  1.00  0.00     0.002 C 
HETATM   19  C16 UNL     1       2.557  -1.174   0.359  1.00  0.00     0.025 C 
ENDBRANCH  12  14
ENDBRANCH   1  12
TORSDOF 4
