REMARK  6 active torsions:
REMARK  status: ('A' for Active; 'I' for Inactive)
REMARK    1  A    between atoms: C2_2  and  N1_5 
REMARK    2  A    between atoms: N1_5  and  C6_8 
REMARK    3  A    between atoms: C6_8  and  O1_9 
REMARK    4  A    between atoms: C6_8  and  C7_11 
REMARK    5  A    between atoms: C10_14  and  C11_15 
REMARK    6  A    between atoms: C12_16  and  C13_17 
ROOT
HETATM    1  N1  UNL     1      -3.860  -0.245  -0.048  1.00  0.00    -0.254 N 
HETATM    2  C5  UNL     1      -4.141  -1.385   0.703  1.00  0.00     0.187 C 
HETATM    3  N2  UNL     1      -4.427  -2.344   1.330  1.00  0.00    -0.172 NA
ENDROOT
BRANCH   1   4
HETATM    4  C2  UNL     1      -5.024   0.468  -0.659  1.00  0.00     0.039 C 
HETATM    5  C1  UNL     1      -4.891   0.510  -2.161  1.00  0.00     0.039 C 
HETATM    6  C3  UNL     1      -6.296  -0.219  -0.280  1.00  0.00     0.039 C 
HETATM    7  C4  UNL     1      -5.015   1.886  -0.143  1.00  0.00     0.039 C 
ENDBRANCH   1   4
BRANCH   1   8
HETATM    8  C6  UNL     1      -2.598   0.279  -0.275  1.00  0.00     0.187 C 
BRANCH   8   9
HETATM    9  O1  UNL     1      -2.569   1.361  -1.014  1.00  0.00    -0.343 OA
ATOM     10  H1  UNL     1      -1.703   1.720  -1.170  1.00  0.00     0.219 HD
ENDBRANCH   8   9
BRANCH   8  11
HETATM   11  C7  UNL     1      -1.321  -0.208   0.194  1.00  0.00     0.127 A 
HETATM   12  C8  UNL     1      -1.001  -1.279   0.962  1.00  0.00     0.044 A 
HETATM   13  C9  UNL     1       0.385  -1.266   1.100  1.00  0.00     0.040 A 
HETATM   14  C10 UNL     1       0.851  -0.177   0.402  1.00  0.00     0.076 A 
HETATM   15  O2  UNL     1      -0.175   0.416  -0.113  1.00  0.00    -0.306 OA
BRANCH  14  16
HETATM   16  C11 UNL     1       2.261   0.178   0.307  1.00  0.00     0.033 C 
HETATM   17  C12 UNL     1       3.163  -0.553   0.904  1.00  0.00    -0.019 C 
BRANCH  17  18
HETATM   18  C13 UNL     1       4.584  -0.192   0.806  1.00  0.00     0.008 C 
HETATM   19  C14 UNL     1       4.803   0.945  -0.180  1.00  0.00     0.008 C 
HETATM   20  C15 UNL     1       6.334   0.876  -0.288  1.00  0.00     0.001 C 
HETATM   21  C16 UNL     1       6.523  -0.588  -0.597  1.00  0.00     0.001 C 
HETATM   22  C17 UNL     1       5.433  -1.286   0.171  1.00  0.00     0.008 C 
ENDBRANCH  17  18
ENDBRANCH  14  16
ENDBRANCH   8  11
ENDBRANCH   1   8
TORSDOF 6
