REMARK  2 active torsions:
REMARK  status: ('A' for Active; 'I' for Inactive)
REMARK    1  A    between atoms: C2_2  and  C3_3 
REMARK    2  A    between atoms: C3_3  and  N1_5 
ROOT
HETATM    1  N1  UNL     1      -0.165   0.275   0.122  1.00  0.00    -0.160 NA
HETATM    2  O1  UNL     1       0.593  -0.153  -0.908  1.00  0.00    -0.262 OA
HETATM    3  C5  UNL     1       1.913  -0.099  -0.490  1.00  0.00     0.178 C 
HETATM    4  C6  UNL     1       2.605  -1.452  -0.669  1.00  0.00     0.080 C 
HETATM    5  C7  UNL     1       2.672   0.897  -1.332  1.00  0.00     0.080 C 
HETATM    6  O2  UNL     1       1.949   0.203   0.840  1.00  0.00    -0.333 OA
HETATM    7  C8  UNL     1       0.631   0.268   1.302  1.00  0.00     0.221 C 
HETATM    8  C9  UNL     1       0.530   1.514   2.134  1.00  0.00     0.059 C 
ENDROOT
BRANCH   1   9
HETATM    9  C3  UNL     1      -1.265  -0.650   0.239  1.00  0.00     0.085 C 
HETATM   10  C4  UNL     1      -2.241  -0.265   1.322  1.00  0.00     0.029 C 
BRANCH   9  11
HETATM   11  C2  UNL     1      -2.021  -0.841  -1.047  1.00  0.00     0.017 C 
HETATM   12  C1  UNL     1      -2.752   0.386  -1.505  1.00  0.00     0.006 C 
ENDBRANCH   9  11
ENDBRANCH   1   9
TORSDOF 2
