REMARK  1 active torsions:
REMARK  status: ('A' for Active; 'I' for Inactive)
REMARK    1  A    between atoms: N1_2  and  C3_4 
ROOT
HETATM    1  C3  UNL     1      -1.016  -0.714  -0.621  1.00  0.00     0.099 C 
HETATM    2  C4  UNL     1       0.273  -0.479  -0.546  1.00  0.00     0.003 C 
HETATM    3  C5  UNL     1       0.710   0.866  -0.128  1.00  0.00     0.121 C 
HETATM    4  S1  UNL     1       2.345   0.948   0.575  1.00  0.00    -0.163 SA
HETATM    5  C6  UNL     1       3.442  -0.362   0.024  1.00  0.00     0.084 C 
HETATM    6  C7  UNL     1       2.753  -1.712   0.260  1.00  0.00     0.089 C 
HETATM    7  S2  UNL     1       1.401  -1.786  -0.952  1.00  0.00    -0.131 SA
ENDROOT
BRANCH   1   8
HETATM    8  N1  UNL     1      -2.004   0.267  -0.318  1.00  0.00    -0.398 N 
HETATM    9  C1  UNL     1      -2.225   1.425  -1.155  1.00  0.00     0.148 C 
HETATM   10  C2  UNL     1      -2.796   0.066   0.875  1.00  0.00     0.148 C 
ENDBRANCH   1   8
TORSDOF 1
