REMARK  1 active torsions:
REMARK  status: ('A' for Active; 'I' for Inactive)
REMARK    1  A    between atoms: N2_4  and  C1_6 
ROOT
HETATM    1  C1  UNL     1      -1.438   0.683  -0.202  1.00  0.00     0.132 C 
HETATM    2  C2  UNL     1      -2.324  -0.481  -0.338  1.00  0.00     0.030 C 
HETATM    3  C3  UNL     1      -1.699  -1.825  -0.221  1.00  0.00     0.032 C 
HETATM    4  C4  UNL     1      -0.213  -1.842  -0.437  1.00  0.00     0.273 C 
HETATM    5  N3  UNL     1       0.465  -0.789   0.297  1.00  0.00     0.095 N 
HETATM    6  C5  UNL     1       1.862  -0.985   0.112  1.00  0.00     0.273 C 
HETATM    7  C6  UNL     1       2.732   0.164   0.468  1.00  0.00     0.030 C 
HETATM    8  C7  UNL     1       2.184   1.499   0.011  1.00  0.00     0.004 C 
HETATM    9  C8  UNL     1       0.756   1.564   0.521  1.00  0.00     0.038 C 
HETATM   10  C9  UNL     1       0.016   0.456  -0.240  1.00  0.00     0.246 C 
ENDROOT
BRANCH   1  11
HETATM   11  N2  UNL     1      -1.757   1.412   1.017  1.00  0.00    -0.336 N 
HETATM   12  N1  UNL     1      -2.886   1.931   1.057  1.00  0.00    -0.349 N 
ATOM     13  H12 UNL     1      -3.536   1.842   0.276  1.00  0.00     0.176 HD
ATOM     14  H11 UNL     1      -3.110   2.442   1.911  1.00  0.00     0.176 HD
ATOM     15  H2  UNL     1      -1.096   1.492   1.790  1.00  0.00     0.180 HD
ENDBRANCH   1  11
TORSDOF 1
