REMARK  1 active torsions:
REMARK  status: ('A' for Active; 'I' for Inactive)
REMARK    1  A    between atoms: C4_4  and  C5_5 
ROOT
HETATM    1  C1  UNL     1      -2.862   0.254  -0.313  1.00  0.00     0.000 C 
HETATM    2  C2  UNL     1      -2.502  -1.065   0.261  1.00  0.00     0.000 C 
HETATM    3  C3  UNL     1      -1.065  -1.356   0.431  1.00  0.00     0.007 C 
HETATM    4  C4  UNL     1      -0.137  -0.232   0.587  1.00  0.00     0.018 C 
HETATM    5  C8  UNL     1      -0.722   1.131   0.302  1.00  0.00     0.007 C 
HETATM    6  C9  UNL     1      -1.638   0.941  -0.905  1.00  0.00     0.000 C 
ENDROOT
BRANCH   4   7
HETATM    7  C5  UNL     1       1.151  -0.386  -0.233  1.00  0.00     0.169 C 
HETATM    8  C6  UNL     1       2.058   0.792  -0.032  1.00  0.00     0.065 C 
HETATM    9  C7  UNL     1       3.519   0.442  -0.140  1.00  0.00     0.215 C 
HETATM   10  O1  UNL     1       3.748  -0.920  -0.176  1.00  0.00    -0.211 OA
HETATM   11  O2  UNL     1       2.906  -1.500   0.629  1.00  0.00    -0.067 OA
HETATM   12  O3  UNL     1       1.757  -1.597  -0.009  1.00  0.00    -0.205 OA
ENDBRANCH   4   7
TORSDOF 1
