REMARK  4 active torsions:
REMARK  status: ('A' for Active; 'I' for Inactive)
REMARK    1  A    between atoms: C3_5  and  C4_6 
REMARK    2  A    between atoms: C8_14  and  C9_15 
REMARK    3  A    between atoms: C9_15  and  N3_16 
REMARK    4  A    between atoms: C9_15  and  N4_20 
ROOT
HETATM    1  C1  UNL     1      -1.194   2.572   0.735  1.00  0.00     0.043 C 
HETATM    2  C2  UNL     1      -0.525   1.484   0.432  1.00  0.00     0.033 A 
HETATM    3  N1  UNL     1       0.793   1.321   0.623  1.00  0.00    -0.354 N 
ATOM      4  H1  UNL     1       1.416   2.023   1.022  1.00  0.00     0.166 HD
HETATM    5  C3  UNL     1       1.173   0.099   0.212  1.00  0.00     0.064 A 
HETATM    6  C7  UNL     1       0.060  -0.539  -0.256  1.00  0.00     0.045 A 
HETATM    7  C8  UNL     1      -1.020   0.306  -0.130  1.00  0.00     0.027 A 
ENDROOT
BRANCH   7   8
HETATM    8  C9  UNL     1      -2.433   0.095  -0.487  1.00  0.00     0.413 C 
BRANCH   8   9
HETATM    9  N3  UNL     1      -2.515  -0.522  -1.820  1.00  0.00    -0.046 N 
ATOM     10  H33 UNL     1      -2.015   0.018  -2.526  1.00  0.00     0.277 HD
ATOM     11  H32 UNL     1      -1.969  -1.382  -1.881  1.00  0.00     0.277 HD
ATOM     12  H31 UNL     1      -3.494  -0.668  -2.067  1.00  0.00     0.277 HD
ENDBRANCH   8   9
BRANCH   8  13
HETATM   13  N4  UNL     1      -3.013  -0.817   0.483  1.00  0.00    -0.046 N 
ATOM     14  H43 UNL     1      -2.492  -1.690   0.563  1.00  0.00     0.277 HD
ATOM     15  H42 UNL     1      -2.893  -0.498   1.444  1.00  0.00     0.277 HD
ATOM     16  H41 UNL     1      -3.992  -0.963   0.236  1.00  0.00     0.277 HD
ENDBRANCH   8  13
ENDBRANCH   7   8
BRANCH   5  17
HETATM   17  C4  UNL     1       2.380  -0.435   0.234  1.00  0.00     0.118 A 
HETATM   18  N2  UNL     1       3.693  -0.011   0.656  1.00  0.00    -0.315 N 
HETATM   19  C5  UNL     1       4.309  -1.238   0.289  1.00  0.00     0.298 A 
ATOM     20  H2  UNL     1       4.048   0.852   1.067  1.00  0.00     0.169 HD
HETATM   21  O1  UNL     1       5.469  -1.717   0.323  1.00  0.00    -0.264 OA
HETATM   22  C6  UNL     1       2.998  -1.698  -0.148  1.00  0.00     0.268 A 
HETATM   23  O2  UNL     1       2.549  -2.775  -0.661  1.00  0.00    -0.280 OA
ENDBRANCH   5  17
TORSDOF 4
