REMARK  4 active torsions:
REMARK  status: ('A' for Active; 'I' for Inactive)
REMARK    1  A    between atoms: N1_1  and  C1_4 
REMARK    2  A    between atoms: C3_13  and  N5_14 
REMARK    3  A    between atoms: N5_14  and  S1_16 
REMARK    4  A    between atoms: S1_16  and  N6_17 
ROOT
HETATM    1  C1  UNL     1      -1.545   0.950   0.068  1.00  0.00     0.142 A 
HETATM    2  C2  UNL     1      -2.565   0.093  -0.276  1.00  0.00     0.291 A 
HETATM    3  O1  UNL     1      -3.716   0.584  -0.528  1.00  0.00    -0.264 OA
HETATM    4  N2  UNL     1      -2.347  -1.230  -0.341  1.00  0.00    -0.250 N 
ATOM      5  H2  UNL     1      -3.113  -1.854  -0.596  1.00  0.00     0.192 HD
HETATM    6  N3  UNL     1      -1.160  -1.734  -0.080  1.00  0.00    -0.238 N 
ATOM      7  H3  UNL     1      -1.006  -2.741  -0.133  1.00  0.00     0.208 HD
HETATM    8  N4  UNL     1      -0.159  -0.916   0.255  1.00  0.00    -0.268 N 
ATOM      9  H4  UNL     1       0.757  -1.318   0.456  1.00  0.00     0.190 HD
HETATM   10  C3  UNL     1      -0.310   0.405   0.337  1.00  0.00     0.164 A 
ENDROOT
BRANCH  10  11
HETATM   11  N5  UNL     1       0.649   1.200   0.659  1.00  0.00    -0.250 N 
ATOM     12  H5  UNL     1       0.452   2.200   0.701  1.00  0.00     0.182 HD
BRANCH  11  13
HETATM   13  S1  UNL     1       2.248   0.669   1.024  1.00  0.00     0.318 S 
HETATM   14  O2  UNL     1       3.037   1.904   1.396  1.00  0.00    -0.183 OA
HETATM   15  O3  UNL     1       2.235  -0.322   2.148  1.00  0.00    -0.183 OA
BRANCH  13  16
HETATM   16  N6  UNL     1       2.882  -0.095  -0.366  1.00  0.00    -0.311 N 
ATOM     17  H62 UNL     1       2.388  -0.209  -1.251  1.00  0.00     0.170 HD
ATOM     18  H61 UNL     1       3.828  -0.409  -0.150  1.00  0.00     0.170 HD
ENDBRANCH  13  16
ENDBRANCH  11  13
ENDBRANCH  10  11
BRANCH   1  19
HETATM   19  N1  UNL     1      -1.770   2.222   0.127  1.00  0.00    -0.392 N 
ATOM     20  H12 UNL     1      -2.685   2.626  -0.072  1.00  0.00     0.156 HD
ATOM     21  H11 UNL     1      -1.014   2.857   0.382  1.00  0.00     0.156 HD
ENDBRANCH   1  19
TORSDOF 4
