REMARK  3 active torsions:
REMARK  status: ('A' for Active; 'I' for Inactive)
REMARK    1  A    between atoms: C2_7  and  C3_8 
REMARK    2  A    between atoms: C5_13  and  C6_14 
REMARK    3  A    between atoms: C6_14  and  O3_15 
ROOT
HETATM    1  C3  UNL     1       0.008  -0.352   0.196  1.00  0.00     0.141 A 
HETATM    2  N3  UNL     1       0.413  -1.606   0.475  1.00  0.00    -0.305 N 
ATOM      3  H3  UNL     1      -0.195  -2.372   0.765  1.00  0.00     0.170 HD
HETATM    4  C4  UNL     1       1.751  -1.690   0.310  1.00  0.00     0.275 A 
HETATM    5  O2  UNL     1       2.492  -2.700   0.476  1.00  0.00    -0.266 OA
HETATM    6  C5  UNL     1       2.194  -0.445  -0.085  1.00  0.00     0.124 A 
HETATM    7  N4  UNL     1       1.108   0.344  -0.144  1.00  0.00    -0.334 N 
ATOM      8  H4  UNL     1       1.116   1.329  -0.409  1.00  0.00     0.168 HD
ENDROOT
BRANCH   1   9
HETATM    9  C2  UNL     1      -1.249   0.077   0.257  1.00  0.00     0.148 A 
HETATM   10  N2  UNL     1      -2.380  -0.672   0.615  1.00  0.00    -0.291 N 
HETATM   11  N1  UNL     1      -3.540   0.115   0.567  1.00  0.00    -0.262 N 
ATOM     12  H2  UNL     1      -2.361  -1.658   0.876  1.00  0.00     0.187 HD
HETATM   13  C1  UNL     1      -3.175   1.430   0.164  1.00  0.00     0.312 A 
ATOM     14  H1  UNL     1      -4.485  -0.202   0.784  1.00  0.00     0.190 HD
HETATM   15  O1  UNL     1      -3.975   2.392   0.019  1.00  0.00    -0.262 OA
HETATM   16  C7  UNL     1      -1.721   1.423  -0.037  1.00  0.00     0.272 A 
HETATM   17  O4  UNL     1      -1.058   2.429  -0.399  1.00  0.00    -0.280 OA
ENDBRANCH   1   9
BRANCH   6  18
HETATM   18  C6  UNL     1       3.454  -0.107  -0.352  1.00  0.00     0.166 C 
BRANCH  18  19
HETATM   19  O3  UNL     1       3.734   1.201  -0.741  1.00  0.00    -0.370 OA
ATOM     20  H3  UNL     1       4.633   1.442  -0.931  1.00  0.00     0.216 HD
ENDBRANCH  18  19
ENDBRANCH   6  18
TORSDOF 3
