REMARK  8 active torsions:
REMARK  status: ('A' for Active; 'I' for Inactive)
REMARK    1  A    between atoms: C2_2  and  O1_3 
REMARK    2  A    between atoms: C2_2  and  C3_5 
REMARK    3  A    between atoms: C3_5  and  N1_6 
REMARK    4  A    between atoms: N1_6  and  C4_8 
REMARK    5  A    between atoms: C6_12  and  C7_13 
REMARK    6  A    between atoms: C7_13  and  C8_14 
REMARK    7  A    between atoms: N4_19  and  C11_20 
REMARK    8  A    between atoms: N5_23  and  C14_24 
ROOT
HETATM    1  C8  UNL     1      -0.451  -1.166   1.616  1.00  0.00     0.088 A 
HETATM    2  N3  UNL     1      -1.015  -2.382   1.755  1.00  0.00    -0.347 N 
ATOM      3  H3  UNL     1      -1.903  -2.586   2.213  1.00  0.00     0.167 HD
HETATM    4  C9  UNL     1      -0.205  -3.266   1.188  1.00  0.00     0.033 A 
HETATM    5  C10 UNL     1       0.894  -2.557   0.685  1.00  0.00     0.036 A 
HETATM    6  N4  UNL     1       0.724  -1.243   0.962  1.00  0.00    -0.333 N 
HETATM    7  C20 UNL     1       2.002  -3.197  -0.012  1.00  0.00     0.059 C 
HETATM    8  C21 UNL     1       1.475  -3.751  -1.341  1.00  0.00     0.006 C 
HETATM    9  C22 UNL     1       0.305  -4.656  -1.180  1.00  0.00     0.001 C 
HETATM   10  C23 UNL     1       0.271  -5.439   0.088  1.00  0.00     0.006 C 
HETATM   11  C24 UNL     1      -0.522  -4.723   1.159  1.00  0.00     0.059 C 
ENDROOT
BRANCH   1  12
HETATM   12  C7  UNL     1      -1.122   0.055   2.158  1.00  0.00     0.118 C 
BRANCH  12  13
HETATM   13  C6  UNL     1      -2.100   0.606   1.183  1.00  0.00    -0.019 A 
HETATM   14  C5  UNL     1      -3.411   0.142   1.160  1.00  0.00     0.115 A 
HETATM   15  N2  UNL     1      -4.340   0.585   0.323  1.00  0.00    -0.201 N 
HETATM   16  C4  UNL     1      -4.006   1.535  -0.556  1.00  0.00     0.677 A 
ATOM     17  H2  UNL     1      -5.288   0.209   0.350  1.00  0.00     0.183 HD
HETATM   18  N6  UNL     1      -2.739   2.021  -0.574  1.00  0.00    -0.201 N 
HETATM   19  C25 UNL     1      -1.775   1.587   0.267  1.00  0.00     0.115 A 
ATOM     20  H6  UNL     1      -2.504   2.746  -1.252  1.00  0.00     0.183 HD
BRANCH  16  21
HETATM   21  N1  UNL     1      -4.892   1.971  -1.368  1.00  0.00    -0.224 N 
ATOM     22  H1  UNL     1      -4.649   2.696  -2.043  1.00  0.00     0.177 HD
BRANCH  21  23
HETATM   23  C3  UNL     1      -6.228   1.444  -1.334  1.00  0.00     0.169 C 
BRANCH  23  24
HETATM   24  C2  UNL     1      -7.054   1.995  -0.192  1.00  0.00     0.132 C 
HETATM   25  C1  UNL     1      -7.253   3.489  -0.385  1.00  0.00     0.041 C 
BRANCH  24  26
HETATM   26  O1  UNL     1      -8.319   1.416  -0.256  1.00  0.00    -0.394 OA
ATOM     27  H1  UNL     1      -8.195   0.482  -0.135  1.00  0.00     0.210 HD
ENDBRANCH  24  26
ENDBRANCH  23  24
ENDBRANCH  21  23
ENDBRANCH  16  21
ENDBRANCH  12  13
ENDBRANCH   1  12
BRANCH   6  28
HETATM   28  C11 UNL     1       1.622  -0.189   0.624  1.00  0.00     0.097 C 
HETATM   29  C12 UNL     1       1.761   0.096  -0.845  1.00  0.00     0.045 C 
HETATM   30  C13 UNL     1       2.529   1.415  -0.932  1.00  0.00     0.124 C 
HETATM   31  N5  UNL     1       3.805   1.314  -0.337  1.00  0.00    -0.389 N 
HETATM   32  C18 UNL     1       4.076   0.200   0.467  1.00  0.00     0.060 C 
HETATM   33  C19 UNL     1       2.955  -0.274   1.338  1.00  0.00     0.070 C 
BRANCH  31  34
HETATM   34  C14 UNL     1       4.456   2.528  -0.017  1.00  0.00     0.083 C 
HETATM   35  C15 UNL     1       4.739   3.355  -1.254  1.00  0.00     0.025 C 
HETATM   36  C16 UNL     1       6.098   3.663  -0.659  1.00  0.00     0.004 C 
HETATM   37  C17 UNL     1       5.948   2.396   0.192  1.00  0.00     0.025 C 
ENDBRANCH  31  34
ENDBRANCH   6  28
TORSDOF 8
