REMARK  8 active torsions:
REMARK  status: ('A' for Active; 'I' for Inactive)
REMARK    1  A    between atoms: C2_2  and  O1_4 
REMARK    2  A    between atoms: O1_4  and  C4_5 
REMARK    3  A    between atoms: C4_5  and  C5_6 
REMARK    4  A    between atoms: C13_16  and  C14_17 
REMARK    5  A    between atoms: C14_17  and  O4_18 
REMARK    6  A    between atoms: C16_22  and  C17_23 
REMARK    7  A    between atoms: C17_23  and  O6_25 
REMARK    8  A    between atoms: C17_23  and  C19_27 
ROOT
HETATM    1  C5  UNL     1       3.328  -0.275  -0.821  1.00  0.00     0.011 C 
HETATM    2  C6  UNL     1       2.060   0.575  -0.684  1.00  0.00     0.013 C 
HETATM    3  C7  UNL     1       1.097  -0.494  -0.249  1.00  0.00     0.011 C 
HETATM    4  C8  UNL     1       1.872  -1.128   0.864  1.00  0.00     0.029 C 
HETATM    5  C9  UNL     1       2.363  -0.267   1.960  1.00  0.00     0.024 C 
HETATM    6  C10 UNL     1       3.117  -1.512   0.044  1.00  0.00     0.024 C 
HETATM    7  C11 UNL     1       1.096  -2.261   1.345  1.00  0.00     0.204 C 
HETATM    8  O2  UNL     1       1.646  -3.335   1.665  1.00  0.00    -0.288 OA
HETATM    9  C12 UNL     1      -0.345  -2.125   1.449  1.00  0.00     0.209 C 
HETATM   10  O3  UNL     1      -1.005  -2.643   2.379  1.00  0.00    -0.288 OA
HETATM   11  C13 UNL     1      -1.081  -1.333   0.402  1.00  0.00     0.078 C 
HETATM   12  C15 UNL     1      -2.430  -0.909   1.004  1.00  0.00     0.189 C 
HETATM   13  O5  UNL     1      -3.402  -0.634   0.146  1.00  0.00    -0.382 OA
HETATM   14  C16 UNL     1      -3.374   0.227  -0.861  1.00  0.00     0.155 C 
HETATM   15  C22 UNL     1      -2.214   1.126  -1.074  1.00  0.00     0.036 C 
HETATM   16  C23 UNL     1      -0.874   0.529  -1.211  1.00  0.00     0.013 C 
HETATM   17  C24 UNL     1      -0.288  -0.123   0.009  1.00  0.00    -0.020 C 
HETATM   18  C25 UNL     1      -0.354   0.931   1.107  1.00  0.00     0.017 C 
ENDROOT
BRANCH  14  19
HETATM   19  C17 UNL     1      -4.589   1.171  -0.699  1.00  0.00     0.083 C 
HETATM   20  C18 UNL     1      -4.474   1.988   0.535  1.00  0.00     0.049 C 
BRANCH  19  21
HETATM   21  O6  UNL     1      -4.490   2.046  -1.805  1.00  0.00    -0.387 OA
ATOM     22  H6  UNL     1      -5.236   2.626  -1.706  1.00  0.00     0.210 HD
ENDBRANCH  19  21
BRANCH  19  23
HETATM   23  C19 UNL     1      -5.877   0.430  -0.855  1.00  0.00     0.014 C 
HETATM   24  C20 UNL     1      -7.000   1.428  -0.681  1.00  0.00     0.012 C 
HETATM   25  C21 UNL     1      -6.083  -0.686   0.105  1.00  0.00     0.012 C 
ENDBRANCH  19  23
ENDBRANCH  14  19
BRANCH  11  26
HETATM   26  C14 UNL     1      -1.415  -2.304  -0.666  1.00  0.00     0.184 C 
BRANCH  26  27
HETATM   27  O4  UNL     1      -0.352  -2.966  -1.261  1.00  0.00    -0.400 OA
ATOM     28  H4  UNL     1      -0.566  -3.589  -1.946  1.00  0.00     0.209 HD
ENDBRANCH  26  27
ENDBRANCH  11  26
BRANCH   1  29
HETATM   29  C4  UNL     1       4.486   0.558  -0.408  1.00  0.00     0.172 C 
BRANCH  29  30
HETATM   30  O1  UNL     1       5.704  -0.106  -0.488  1.00  0.00    -0.386 OA
BRANCH  30  31
HETATM   31  C2  UNL     1       6.746   0.695  -0.101  1.00  0.00     0.113 C 
HETATM   32  C1  UNL     1       7.696   0.815  -1.285  1.00  0.00     0.039 C 
HETATM   33  C3  UNL     1       7.529   0.167   1.061  1.00  0.00     0.039 C 
ENDBRANCH  30  31
ENDBRANCH  29  30
ENDBRANCH   1  29
TORSDOF 8
