REMARK  8 active torsions:
REMARK  status: ('A' for Active; 'I' for Inactive)
REMARK    1  A    between atoms: C3_3  and  O1_4 
REMARK    2  A    between atoms: O1_4  and  C4_5 
REMARK    3  A    between atoms: C4_5  and  C5_7 
REMARK    4  A    between atoms: C10_13  and  O4_14 
REMARK    5  A    between atoms: C12_16  and  O5_17 
REMARK    6  A    between atoms: C17_23  and  C18_24 
REMARK    7  A    between atoms: C18_24  and  O6_25 
REMARK    8  A    between atoms: C23_31  and  C24_32 
ROOT
HETATM    1  C1  UNL     1      -0.822   2.704   0.725  1.00  0.00     0.022 C 
HETATM    2  C2  UNL     1      -0.431   1.589   0.161  1.00  0.00    -0.024 C 
HETATM    3  C3  UNL     1       1.097   1.392   0.000  1.00  0.00     0.073 C 
HETATM    4  C6  UNL     1       1.266  -0.037   0.110  1.00  0.00     0.022 C 
HETATM    5  C7  UNL     1       1.030  -0.714   1.406  1.00  0.00    -0.000 C 
HETATM    6  C8  UNL     1       2.302  -0.734   2.270  1.00  0.00     0.011 C 
HETATM    7  C9  UNL     1      -0.113  -0.378   2.256  1.00  0.00     0.040 C 
HETATM    8  C10 UNL     1      -1.425  -0.906   1.742  1.00  0.00     0.157 C 
HETATM    9  C12 UNL     1      -2.021  -0.234   0.579  1.00  0.00     0.100 C 
HETATM   10  C13 UNL     1      -3.135  -1.087   0.094  1.00  0.00     0.020 C 
HETATM   11  C14 UNL     1      -2.932  -2.521  -0.175  1.00  0.00     0.013 C 
HETATM   12  C15 UNL     1      -3.923  -0.484  -1.055  1.00  0.00     0.008 C 
HETATM   13  C16 UNL     1      -2.926  -0.176  -2.118  1.00  0.00     0.008 C 
HETATM   14  C17 UNL     1      -1.855   0.766  -1.702  1.00  0.00     0.026 C 
HETATM   15  C19 UNL     1      -1.115   0.400  -0.435  1.00  0.00     0.033 C 
HETATM   16  C20 UNL     1       0.066  -0.360  -0.833  1.00  0.00     0.018 C 
HETATM   17  C21 UNL     1       0.188  -1.704  -1.221  1.00  0.00     0.007 C 
HETATM   18  C22 UNL     1       1.648  -1.626  -1.734  1.00  0.00     0.006 C 
HETATM   19  C23 UNL     1       2.319  -0.771  -0.626  1.00  0.00     0.005 C 
ENDROOT
BRANCH   3  20
HETATM   20  O1  UNL     1       1.842   2.356   0.517  1.00  0.00    -0.276 OA
BRANCH  20  21
HETATM   21  C4  UNL     1       2.458   3.444  -0.012  1.00  0.00     0.326 C 
HETATM   22  O2  UNL     1       2.243   3.492  -1.234  1.00  0.00    -0.256 OA
BRANCH  21  23
HETATM   23  C5  UNL     1       3.243   4.390   0.753  1.00  0.00     0.341 C 
HETATM   24  O3  UNL     1       3.426   4.287   1.992  1.00  0.00    -0.296 OA
ENDBRANCH  21  23
ENDBRANCH  20  21
ENDBRANCH   3  20
BRANCH  19  25
HETATM   25  C24 UNL     1       3.587  -0.220  -1.067  1.00  0.00    -0.017 C 
HETATM   26  C25 UNL     1       4.577   0.258  -0.057  1.00  0.00     0.010 C 
HETATM   27  C26 UNL     1       4.367  -1.288  -1.884  1.00  0.00     0.010 C 
ENDBRANCH  19  25
BRANCH   9  28
HETATM   28  O5  UNL     1      -2.701   0.890   1.151  1.00  0.00    -0.386 OA
ATOM     29  H5  UNL     1      -3.086   1.324   0.399  1.00  0.00     0.210 HD
ENDBRANCH   9  28
BRANCH  14  30
HETATM   30  C18 UNL     1      -2.383   2.140  -1.896  1.00  0.00     0.170 C 
BRANCH  30  31
HETATM   31  O6  UNL     1      -3.509   2.492  -1.226  1.00  0.00    -0.400 OA
ATOM     32  H6  UNL     1      -3.847   3.371  -1.350  1.00  0.00     0.209 HD
ENDBRANCH  30  31
ENDBRANCH  14  30
BRANCH   8  33
HETATM   33  O4  UNL     1      -2.301  -0.681   2.843  1.00  0.00    -0.388 OA
HETATM   34  C11 UNL     1      -2.706  -1.818   3.476  1.00  0.00     0.202 C 
ENDBRANCH   8  33
TORSDOF 8
