REMARK  6 active torsions:
REMARK  status: ('A' for Active; 'I' for Inactive)
REMARK    1  A    between atoms: C6_6  and  C7_7 
REMARK    2  A    between atoms: C11_15  and  C12_16 
REMARK    3  A    between atoms: C12_16  and  N3_17 
REMARK    4  A    between atoms: C15_20  and  N4_21 
REMARK    5  A    between atoms: C18_24  and  C19_25 
REMARK    6  A    between atoms: C18_24  and  N6_28 
ROOT
HETATM    1  C19 UNL     1       5.835   1.417   0.765  1.00  0.00     0.159 C 
HETATM    2  C20 UNL     1       7.153   1.250   1.361  1.00  0.00     0.061 C 
HETATM    3  N5  UNL     1       8.180   1.100   1.828  1.00  0.00    -0.197 NA
ENDROOT
BRANCH   1   4
HETATM    4  C18 UNL     1       5.412   0.106   0.168  1.00  0.00     0.096 C 
HETATM    5  C17 UNL     1       5.365  -0.934   1.278  1.00  0.00     0.056 C 
HETATM    6  C16 UNL     1       4.237  -1.834   0.826  1.00  0.00     0.120 C 
HETATM    7  N4  UNL     1       3.396  -1.094  -0.047  1.00  0.00    -0.406 N 
HETATM    8  C22 UNL     1       4.003   0.136  -0.397  1.00  0.00     0.152 C 
BRANCH   7   9
HETATM    9  C15 UNL     1       2.017  -1.101   0.265  1.00  0.00     0.082 C 
HETATM   10  C14 UNL     1       1.630  -0.505   1.571  1.00  0.00     0.055 C 
HETATM   11  C13 UNL     1       0.697   0.654   1.331  1.00  0.00     0.275 C 
HETATM   12  N3  UNL     1      -0.593   0.243   0.774  1.00  0.00     0.092 N 
HETATM   13  C24 UNL     1      -0.292  -0.684  -0.349  1.00  0.00     0.275 C 
HETATM   14  C23 UNL     1       1.140  -0.534  -0.809  1.00  0.00     0.055 C 
BRANCH  12  15
HETATM   15  C12 UNL     1      -1.147   1.399   0.147  1.00  0.00     0.314 C 
BRANCH  15  16
HETATM   16  C11 UNL     1      -2.559   1.321  -0.263  1.00  0.00     0.005 A 
HETATM   17  C2  UNL     1      -3.119   2.411  -0.945  1.00  0.00    -0.052 A 
HETATM   18  C1  UNL     1      -2.269   3.607  -1.279  1.00  0.00     0.049 C 
HETATM   19  C3  UNL     1      -4.438   2.388  -1.306  1.00  0.00     0.008 A 
HETATM   20  C4  UNL     1      -5.280   1.333  -1.037  1.00  0.00     0.016 A 
HETATM   21  C5  UNL     1      -4.745   0.255  -0.368  1.00  0.00     0.017 A 
HETATM   22  C6  UNL     1      -5.327  -0.931   0.055  1.00  0.00     0.042 A 
HETATM   23  C10 UNL     1      -3.394   0.264   0.009  1.00  0.00     0.069 A 
HETATM   24  N1  UNL     1      -4.351  -1.616   0.670  1.00  0.00    -0.303 N 
HETATM   25  N2  UNL     1      -3.246  -0.913   0.634  1.00  0.00    -0.299 N 
ATOM     26  H1  UNL     1      -4.453  -2.537   1.097  1.00  0.00     0.186 HD
ATOM     27  H2  UNL     1      -2.365  -1.228   1.039  1.00  0.00     0.187 HD
BRANCH  22  28
HETATM   28  C7  UNL     1      -6.761  -1.331  -0.153  1.00  0.00     0.030 C 
HETATM   29  C8  UNL     1      -6.995  -2.709   0.427  1.00  0.00     0.016 C 
HETATM   30  C9  UNL     1      -7.704  -0.308   0.413  1.00  0.00     0.016 C 
ENDBRANCH  22  28
ENDBRANCH  15  16
ENDBRANCH  12  15
ENDBRANCH   7   9
BRANCH   4  31
HETATM   31  N6  UNL     1       6.371  -0.360  -0.812  1.00  0.00    -0.168 N 
HETATM   32  O1  UNL     1       7.671  -0.392  -0.772  1.00  0.00    -0.145 OA
HETATM   33  N7  UNL     1       7.756  -0.917  -1.962  1.00  0.00    -0.189 N 
HETATM   34  C21 UNL     1       6.421  -0.893  -2.024  1.00  0.00     0.370 A 
ATOM     35  H7  UNL     1       8.512  -1.216  -2.578  1.00  0.00     0.202 HD
HETATM   36  O2  UNL     1       5.562  -1.234  -2.874  1.00  0.00    -0.243 OA
ENDBRANCH   4  31
ENDBRANCH   1   4
TORSDOF 6
