REMARK  9 active torsions:
REMARK  status: ('A' for Active; 'I' for Inactive)
REMARK    1  A    between atoms: C3_3  and  C5_5 
REMARK    2  A    between atoms: C5_5  and  O2_7 
REMARK    3  A    between atoms: O2_7  and  C6_8 
REMARK    4  A    between atoms: C8_10  and  C9_11 
REMARK    5  A    between atoms: C13_16  and  O4_17 
REMARK    6  A    between atoms: N1_24  and  O5_26 
REMARK    7  A    between atoms: O5_26  and  C19_27 
REMARK    8  A    between atoms: C19_27  and  C20_28 
REMARK    9  A    between atoms: C20_28  and  O6_29 
ROOT
HETATM    1  C6  UNL     1       2.536  -0.017   0.047  1.00  0.00     0.133 C 
HETATM    2  C7  UNL     1       2.476  -1.493  -0.170  1.00  0.00     0.044 C 
HETATM    3  C8  UNL     1       1.161  -2.048   0.238  1.00  0.00     0.054 C 
HETATM    4  C10 UNL     1      -0.021  -1.113  -0.102  1.00  0.00     0.010 C 
HETATM    5  C11 UNL     1      -1.230  -1.919  -0.192  1.00  0.00     0.007 C 
HETATM    6  C12 UNL     1      -1.458  -2.368  -1.656  1.00  0.00     0.038 C 
HETATM    7  C13 UNL     1      -2.253  -3.616  -1.759  1.00  0.00     0.118 C 
HETATM    8  C14 UNL     1      -3.512  -3.435  -0.938  1.00  0.00     0.033 C 
HETATM    9  C15 UNL     1      -3.687  -1.977  -0.610  1.00  0.00     0.018 C 
HETATM   10  C16 UNL     1      -2.538  -1.532   0.325  1.00  0.00     0.001 C 
HETATM   11  C17 UNL     1      -2.895  -2.290   1.630  1.00  0.00     0.022 C 
HETATM   12  C18 UNL     1      -2.801  -0.146   0.667  1.00  0.00     0.018 C 
HETATM   13  N1  UNL     1      -3.734   0.469  -0.010  1.00  0.00    -0.274 N 
ATOM     14  H1  UNL     1      -4.217  -0.064  -0.733  1.00  0.00     0.193 HD
HETATM   15  C21 UNL     1      -2.165   0.658   1.685  1.00  0.00     0.056 C 
HETATM   16  C22 UNL     1      -0.731   0.416   1.798  1.00  0.00     0.015 C 
HETATM   17  C23 UNL     1       0.073   0.165   0.573  1.00  0.00    -0.037 C 
HETATM   18  C24 UNL     1      -0.056   1.322  -0.434  1.00  0.00     0.015 C 
HETATM   19  C25 UNL     1       1.507   0.366   1.062  1.00  0.00     0.042 C 
ENDROOT
BRANCH   1  20
HETATM   20  O2  UNL     1       3.773   0.473   0.431  1.00  0.00    -0.312 OA
BRANCH  20  21
HETATM   21  C5  UNL     1       4.493   1.409  -0.283  1.00  0.00     0.289 C 
HETATM   22  O1  UNL     1       3.923   1.790  -1.332  1.00  0.00    -0.260 OA
BRANCH  21  23
HETATM   23  C3  UNL     1       5.776   1.852   0.209  1.00  0.00     0.009 C 
HETATM   24  C2  UNL     1       6.484   2.732  -0.433  1.00  0.00    -0.018 C 
HETATM   25  C1  UNL     1       6.069   3.347  -1.684  1.00  0.00     0.036 C 
HETATM   26  C4  UNL     1       6.295   1.289   1.478  1.00  0.00     0.054 C 
ENDBRANCH  21  23
ENDBRANCH  20  21
ENDBRANCH   1  20
BRANCH   3  27
HETATM   27  C9  UNL     1       1.097  -2.624   1.569  1.00  0.00     0.236 C 
HETATM   28  O3  UNL     1       2.104  -2.981   2.153  1.00  0.00    -0.306 OA
ENDBRANCH   3  27
BRANCH   7  29
HETATM   29  O4  UNL     1      -2.661  -3.721  -3.107  1.00  0.00    -0.396 OA
ATOM     30  H4  UNL     1      -3.170  -4.520  -3.173  1.00  0.00     0.210 HD
ENDBRANCH   7  29
BRANCH  13  31
HETATM   31  O5  UNL     1      -4.111   1.752   0.170  1.00  0.00    -0.278 OA
BRANCH  31  32
HETATM   32  C19 UNL     1      -4.065   2.764  -0.790  1.00  0.00     0.227 C 
BRANCH  32  33
HETATM   33  C20 UNL     1      -4.577   4.089  -0.230  1.00  0.00     0.192 C 
BRANCH  33  34
HETATM   34  O6  UNL     1      -3.801   4.494   0.860  1.00  0.00    -0.399 OA
ATOM     35  H6  UNL     1      -4.120   5.318   1.208  1.00  0.00     0.209 HD
ENDBRANCH  33  34
ENDBRANCH  32  33
ENDBRANCH  31  32
ENDBRANCH  13  31
TORSDOF 9
