REMARK  1 active torsions:
REMARK  status: ('A' for Active; 'I' for Inactive)
REMARK    1  A    between atoms: N5_22  and  N6_24 
ROOT
HETATM    1  C1  UNL     1      -0.719  -3.044  -0.609  1.00  0.00     0.161 C 
HETATM    2  N1  UNL     1      -1.621  -2.113  -0.006  1.00  0.00    -0.302 N 
HETATM    3  C2  UNL     1      -2.929  -2.572   0.127  1.00  0.00     0.329 A 
HETATM    4  O1  UNL     1      -3.078  -3.843   0.032  1.00  0.00    -0.246 OA
HETATM    5  N2  UNL     1      -3.979  -1.786   0.339  1.00  0.00    -0.274 N 
ATOM      6  H2  UNL     1      -4.912  -2.189   0.429  1.00  0.00     0.173 HD
HETATM    7  C3  UNL     1      -3.806  -0.470   0.433  1.00  0.00     0.265 A 
HETATM    8  O2  UNL     1      -4.763   0.332   0.625  1.00  0.00    -0.267 OA
HETATM    9  C4  UNL     1      -2.546   0.044   0.320  1.00  0.00     0.104 A 
HETATM   10  C5  UNL     1      -2.375   1.419   0.340  1.00  0.00     0.120 A 
HETATM   11  N3  UNL     1      -3.425   2.092   0.555  1.00  0.00    -0.384 N 
ATOM     12  H31 UNL     1      -3.299   3.104   0.570  1.00  0.00     0.157 HD
ATOM     13  H32 UNL     1      -4.332   1.641   0.678  1.00  0.00     0.157 HD
HETATM   14  N4  UNL     1      -1.171   2.018   0.176  1.00  0.00    -0.322 N 
HETATM   15  C6  UNL     1      -1.078   3.435   0.082  1.00  0.00     0.159 C 
HETATM   16  C7  UNL     1      -0.103   1.214   0.008  1.00  0.00     0.129 A 
HETATM   17  C8  UNL     1      -0.215  -0.210  -0.022  1.00  0.00     0.088 A 
HETATM   18  C9  UNL     1       0.879  -1.001  -0.032  1.00  0.00     0.206 A 
HETATM   19  O3  UNL     1       0.935  -2.192   0.001  1.00  0.00    -0.286 OA
HETATM   20  C10 UNL     1       2.158  -0.402  -0.049  1.00  0.00     0.107 A 
HETATM   21  C11 UNL     1       3.423  -0.970  -0.085  1.00  0.00     0.152 A 
HETATM   22  N5  UNL     1       3.884  -2.126  -0.106  1.00  0.00    -0.290 N 
ATOM     23  H5  UNL     1       4.903  -2.096  -0.132  1.00  0.00     0.188 HD
HETATM   24  N7  UNL     1       4.283   0.110  -0.099  1.00  0.00    -0.282 N 
ATOM     25  H7  UNL     1       5.302   0.062  -0.125  1.00  0.00     0.188 HD
HETATM   26  N8  UNL     1       3.551   1.231  -0.072  1.00  0.00    -0.283 N 
ATOM     27  H8  UNL     1       3.936   2.176  -0.075  1.00  0.00     0.188 HD
HETATM   28  C12 UNL     1       2.243   0.941  -0.041  1.00  0.00     0.141 A 
HETATM   29  N9  UNL     1       1.139   1.756  -0.009  1.00  0.00    -0.321 N 
HETATM   30  C13 UNL     1       1.312   3.163   0.058  1.00  0.00     0.159 C 
HETATM   31  C14 UNL     1      -1.450  -0.797   0.110  1.00  0.00     0.076 A 
ENDROOT
BRANCH  22  32
HETATM   32  N6  UNL     1       3.462  -3.397  -0.105  1.00  0.00    -0.344 N 
ATOM     33  H62 UNL     1       2.442  -3.400  -0.079  1.00  0.00     0.176 HD
ATOM     34  H61 UNL     1       3.840  -4.344  -0.122  1.00  0.00     0.176 HD
ENDBRANCH  22  32
TORSDOF 1
