REMARK  7 active torsions:
REMARK  status: ('A' for Active; 'I' for Inactive)
REMARK    1  A    between atoms: C2_3  and  O1_4 
REMARK    2  A    between atoms: C3_6  and  C4_7 
REMARK    3  A    between atoms: N3_18  and  C11_19 
REMARK    4  A    between atoms: C11_19  and  O4_25 
REMARK    5  A    between atoms: N4_20  and  N5_22 
REMARK    6  A    between atoms: O4_25  and  N6_26 
REMARK    7  A    between atoms: N7_28  and  N8_30 
ROOT
HETATM    1  C1  UNL     1       1.245  -4.516   1.232  1.00  0.00     0.163 C 
HETATM    2  N1  UNL     1       1.127  -3.137   0.773  1.00  0.00    -0.282 N 
HETATM    3  C2  UNL     1       0.051  -2.348   1.009  1.00  0.00     0.174 A 
HETATM    4  C3  UNL     1       0.328  -1.145   0.418  1.00  0.00     0.099 A 
HETATM    5  N3  UNL     1       1.542  -1.215  -0.155  1.00  0.00    -0.222 N 
HETATM    6  C12 UNL     1       2.027  -2.443   0.067  1.00  0.00     0.338 A 
HETATM    7  O5  UNL     1       3.172  -2.860  -0.342  1.00  0.00    -0.246 OA
ENDROOT
BRANCH   5   8
HETATM    8  C11 UNL     1       2.226  -0.181  -0.884  1.00  0.00     0.274 C 
HETATM    9  N4  UNL     1       2.656  -0.391  -2.058  1.00  0.00    -0.270 N 
ATOM     10  H4  UNL     1       2.508  -1.308  -2.478  1.00  0.00     0.190 HD
BRANCH   9  11
HETATM   11  N5  UNL     1       3.322   0.583  -2.794  1.00  0.00    -0.342 N 
ATOM     12  H52 UNL     1       3.461   1.495  -2.358  1.00  0.00     0.176 HD
ATOM     13  H51 UNL     1       3.668   0.414  -3.739  1.00  0.00     0.176 HD
ENDBRANCH   9  11
BRANCH   8  14
HETATM   14  O4  UNL     1       2.416   1.057  -0.293  1.00  0.00    -0.182 OA
BRANCH  14  15
HETATM   15  N6  UNL     1       3.335   1.921  -0.845  1.00  0.00    -0.184 N 
HETATM   16  N7  UNL     1       3.682   2.985  -0.282  1.00  0.00    -0.229 N 
ATOM     17  H7  UNL     1       4.366   3.600  -0.722  1.00  0.00     0.209 HD
ATOM     18  H6  UNL     1       3.749   1.686  -1.747  1.00  0.00     0.218 HD
BRANCH  16  19
HETATM   19  N8  UNL     1       3.118   3.325   0.966  1.00  0.00    -0.329 N 
ATOM     20  H82 UNL     1       2.435   2.699   1.393  1.00  0.00     0.178 HD
ATOM     21  H81 UNL     1       3.401   4.191   1.424  1.00  0.00     0.178 HD
ENDBRANCH  16  19
ENDBRANCH  14  15
ENDBRANCH   8  14
ENDBRANCH   5   8
BRANCH   4  22
HETATM   22  C4  UNL     1      -0.541   0.022   0.371  1.00  0.00     0.048 C 
HETATM   23  C5  UNL     1      -1.753   0.120  -0.056  1.00  0.00     0.029 C 
HETATM   24  C6  UNL     1      -2.660  -0.848  -0.630  1.00  0.00     0.255 C 
HETATM   25  C8  UNL     1      -2.556   1.390  -0.007  1.00  0.00     0.066 C 
HETATM   26  O2  UNL     1      -2.351  -1.940  -1.168  1.00  0.00    -0.268 OA
HETATM   27  N2  UNL     1      -4.001  -0.372  -0.499  1.00  0.00    -0.293 N 
HETATM   28  C7  UNL     1      -3.956   0.903   0.155  1.00  0.00     0.237 C 
ATOM     29  H2  UNL     1      -4.842  -0.854  -0.815  1.00  0.00     0.172 HD
HETATM   30  O3  UNL     1      -4.863   1.500   0.739  1.00  0.00    -0.272 OA
HETATM   31  C9  UNL     1      -2.333   2.102  -1.318  1.00  0.00     0.030 C 
HETATM   32  C10 UNL     1      -2.086   2.184   1.182  1.00  0.00     0.030 C 
ENDBRANCH   4  22
BRANCH   3  33
HETATM   33  O1  UNL     1      -1.094  -2.750   1.732  1.00  0.00    -0.344 OA
ATOM     34  H1  UNL     1      -1.848  -2.197   1.897  1.00  0.00     0.219 HD
ENDBRANCH   3  33
TORSDOF 7
