REMARK  14 active torsions:
REMARK  status: ('A' for Active; 'I' for Inactive)
REMARK    1  A    between atoms: C2_2  and  C3_3 
REMARK    2  A    between atoms: C3_3  and  N1_4 
REMARK    3  A    between atoms: C3_3  and  C13_19 
REMARK       I    between atoms: N1_4  and  C4_6 
REMARK    4  A    between atoms: C4_6  and  C5_8 
REMARK    5  A    between atoms: C5_8  and  C6_9 
REMARK       I    between atoms: C13_19  and  N3_21 
REMARK    6  A    between atoms: N3_21  and  C14_23 
REMARK    7  A    between atoms: C14_23  and  C16_26 
REMARK    8  A    between atoms: C16_26  and  N5_27 
REMARK    9  A    between atoms: C16_26  and  C23_45 
REMARK   10  A    between atoms: N5_27  and  C17_29 
REMARK   11  A    between atoms: C17_29  and  C18_30 
REMARK   12  A    between atoms: C17_29  and  C22_38 
REMARK   13  A    between atoms: C18_30  and  C19_31 
REMARK       I    between atoms: C22_38  and  N8_40 
REMARK   14  A    between atoms: N8_40  and  N9_42 
ROOT
HETATM    1  C14 UNL     1      -0.299  -0.527  -0.249  1.00  0.00     0.222 C 
HETATM    2  C15 UNL     1      -0.080   0.921  -0.475  1.00  0.00     0.087 C 
HETATM    3  N4  UNL     1       0.109   2.044  -0.661  1.00  0.00    -0.195 NA
ENDROOT
BRANCH   1   4
HETATM    4  N3  UNL     1       0.388  -0.890   0.961  1.00  0.00    -0.340 N 
HETATM    5  C13 UNL     1       1.620  -1.588   0.991  1.00  0.00     0.241 C 
HETATM    6  O3  UNL     1       2.214  -1.943  -0.047  1.00  0.00    -0.271 OA
ATOM      7  H3  UNL     1      -0.037  -0.629   1.851  1.00  0.00     0.164 HD
BRANCH   5   8
HETATM    8  C3  UNL     1       2.266  -1.923   2.310  1.00  0.00     0.176 C 
BRANCH   8   9
HETATM    9  C2  UNL     1       1.933  -3.301   2.771  1.00  0.00     0.030 C 
HETATM   10  C1  UNL     1       0.469  -3.411   3.040  1.00  0.00     0.007 C 
ENDBRANCH   8   9
BRANCH   8  11
HETATM   11  N1  UNL     1       3.703  -1.778   2.046  1.00  0.00    -0.347 N 
HETATM   12  C4  UNL     1       4.318  -0.546   2.336  1.00  0.00     0.225 C 
HETATM   13  O1  UNL     1       3.639   0.420   2.808  1.00  0.00    -0.273 OA
ATOM     14  H1  UNL     1       4.243  -2.553   1.661  1.00  0.00     0.163 HD
BRANCH  12  15
HETATM   15  C5  UNL     1       5.783  -0.387   2.078  1.00  0.00     0.187 C 
BRANCH  15  16
HETATM   16  C6  UNL     1       5.870   0.593   0.931  1.00  0.00     0.133 A 
HETATM   17  N2  UNL     1       5.956   0.269  -0.371  1.00  0.00    -0.338 N 
HETATM   18  C7  UNL     1       6.015   1.374  -1.128  1.00  0.00     0.068 A 
ATOM     19  H2  UNL     1       5.974  -0.685  -0.733  1.00  0.00     0.168 HD
HETATM   20  C8  UNL     1       6.107   1.637  -2.478  1.00  0.00     0.032 A 
HETATM   21  C12 UNL     1       5.961   2.429  -0.222  1.00  0.00     0.104 A 
HETATM   22  C9  UNL     1       6.149   2.927  -2.972  1.00  0.00     0.002 A 
HETATM   23  C10 UNL     1       6.095   3.952  -2.050  1.00  0.00     0.003 A 
HETATM   24  C11 UNL     1       6.004   3.724  -0.713  1.00  0.00     0.040 A 
HETATM   25  O2  UNL     1       5.877   1.903   0.980  1.00  0.00    -0.295 OA
ENDBRANCH  15  16
ENDBRANCH  12  15
ENDBRANCH   8  11
ENDBRANCH   5   8
ENDBRANCH   1   4
BRANCH   1  26
HETATM   26  C16 UNL     1      -1.814  -0.693  -0.089  1.00  0.00     0.185 C 
BRANCH  26  27
HETATM   27  N5  UNL     1      -2.480  -0.336  -1.293  1.00  0.00    -0.396 N 
ATOM     28  H5  UNL     1      -2.059   0.331  -1.939  1.00  0.00     0.155 HD
BRANCH  27  29
HETATM   29  C17 UNL     1      -3.742  -0.923  -1.583  1.00  0.00     0.177 C 
BRANCH  29  30
HETATM   30  C18 UNL     1      -4.911  -0.526  -0.764  1.00  0.00     0.093 C 
BRANCH  30  31
HETATM   31  C19 UNL     1      -5.238   0.922  -0.868  1.00  0.00     0.028 A 
HETATM   32  C20 UNL     1      -6.282   1.515  -0.209  1.00  0.00     0.114 A 
HETATM   33  N6  UNL     1      -6.313   2.831  -0.498  1.00  0.00    -0.360 N 
HETATM   34  C21 UNL     1      -5.301   3.053  -1.328  1.00  0.00     0.180 A 
ATOM     35  H6  UNL     1      -6.980   3.519  -0.149  1.00  0.00     0.166 HD
HETATM   36  N7  UNL     1      -4.636   1.908  -1.566  1.00  0.00    -0.354 N 
ATOM     37  H7  UNL     1      -3.820   1.803  -2.169  1.00  0.00     0.166 HD
ENDBRANCH  30  31
ENDBRANCH  29  30
BRANCH  29  38
HETATM   38  C22 UNL     1      -4.038  -0.909  -3.050  1.00  0.00     0.258 C 
HETATM   39  O4  UNL     1      -3.174  -0.449  -3.825  1.00  0.00    -0.269 OA
HETATM   40  N8  UNL     1      -5.257  -1.400  -3.550  1.00  0.00    -0.275 N 
ATOM     41  H8  UNL     1      -5.965  -1.780  -2.922  1.00  0.00     0.189 HD
BRANCH  40  42
HETATM   42  N9  UNL     1      -5.477  -1.352  -4.957  1.00  0.00    -0.343 N 
ATOM     43  H92 UNL     1      -4.759  -0.968  -5.572  1.00  0.00     0.176 HD
ATOM     44  H91 UNL     1      -6.361  -1.708  -5.320  1.00  0.00     0.176 HD
ENDBRANCH  40  42
ENDBRANCH  29  38
ENDBRANCH  27  29
ENDBRANCH  26  27
BRANCH  26  45
HETATM   45  C23 UNL     1      -2.252  -0.065   1.166  1.00  0.00     0.139 A 
HETATM   46  N10 UNL     1      -2.537  -0.709   2.347  1.00  0.00    -0.270 N 
HETATM   47  N11 UNL     1      -2.842   0.211   3.232  1.00  0.00    -0.227 N 
ATOM     48  H10 UNL     1      -2.515  -1.716   2.506  1.00  0.00     0.190 HD
HETATM   49  N12 UNL     1      -2.769   1.406   2.687  1.00  0.00    -0.227 N 
ATOM     50  H11 UNL     1      -3.098   0.026   4.202  1.00  0.00     0.210 HD
HETATM   51  N13 UNL     1      -2.411   1.243   1.436  1.00  0.00    -0.270 N 
ATOM     52  H12 UNL     1      -2.956   2.295   3.151  1.00  0.00     0.210 HD
ATOM     53  H13 UNL     1      -2.273   1.999   0.765  1.00  0.00     0.190 HD
ENDBRANCH  26  45
ENDBRANCH   1  26
TORSDOF 14
