REMARK  15 active torsions:
REMARK  status: ('A' for Active; 'I' for Inactive)
REMARK       I    between atoms: C2_2  and  N1_4 
REMARK    1  A    between atoms: N1_4  and  C3_6 
REMARK    2  A    between atoms: C3_6  and  N2_7 
REMARK    3  A    between atoms: C3_6  and  C4_11 
REMARK       I    between atoms: C4_11  and  N3_13 
REMARK    4  A    between atoms: N3_13  and  C5_15 
REMARK    5  A    between atoms: C5_15  and  C6_16 
REMARK    6  A    between atoms: C5_15  and  C19_45 
REMARK       I    between atoms: C6_16  and  N4_18 
REMARK    7  A    between atoms: N4_18  and  C7_20 
REMARK    8  A    between atoms: C7_20  and  C8_21 
REMARK    9  A    between atoms: C7_20  and  C9_25 
REMARK       I    between atoms: C9_25  and  N6_27 
REMARK       I    between atoms: N6_27  and  C10_29 
REMARK   10  A    between atoms: C10_29  and  C11_31 
REMARK   11  A    between atoms: C11_31  and  O6_32 
REMARK   12  A    between atoms: C11_31  and  O7_34 
REMARK   13  A    between atoms: O7_34  and  C12_35 
REMARK   14  A    between atoms: C12_35  and  C13_36 
REMARK   15  A    between atoms: C16_39  and  N7_40 
ROOT
HETATM    1  C6  UNL     1      -2.066  -0.138   1.196  1.00  0.00     0.247 C 
HETATM    2  O3  UNL     1      -2.402   0.054   2.383  1.00  0.00    -0.271 OA
HETATM    3  N4  UNL     1      -0.849  -0.818   0.932  1.00  0.00    -0.341 N 
ATOM      4  H4  UNL     1      -0.547  -0.994  -0.026  1.00  0.00     0.163 HD
ENDROOT
BRANCH   3   5
HETATM    5  C7  UNL     1      -0.047  -1.255   2.053  1.00  0.00     0.215 C 
BRANCH   5   6
HETATM    6  C8  UNL     1       0.083  -2.729   2.050  1.00  0.00     0.087 C 
HETATM    7  N5  UNL     1       1.175  -3.312   1.730  1.00  0.00    -0.409 N 
ATOM      8  H52 UNL     1       1.971  -2.729   1.472  1.00  0.00     0.155 HD
ATOM      9  H51 UNL     1       1.265  -4.328   1.728  1.00  0.00     0.155 HD
ENDBRANCH   5   6
BRANCH   5  10
HETATM   10  C9  UNL     1       1.277  -0.572   1.970  1.00  0.00     0.252 C 
HETATM   11  O4  UNL     1       1.501   0.202   1.022  1.00  0.00    -0.270 OA
HETATM   12  N6  UNL     1       2.262  -0.800   2.956  1.00  0.00    -0.291 N 
HETATM   13  C10 UNL     1       3.537  -0.240   3.067  1.00  0.00     0.279 C 
ATOM     14  H6  UNL     1       2.008  -1.464   3.687  1.00  0.00     0.172 HD
HETATM   15  O5  UNL     1       4.188  -0.549   4.133  1.00  0.00    -0.268 OA
BRANCH  13  16
HETATM   16  C11 UNL     1       4.165   0.634   2.109  1.00  0.00     0.351 C 
BRANCH  16  17
HETATM   17  O6  UNL     1       5.176   1.364   2.885  1.00  0.00    -0.363 OA
ATOM     18  H6  UNL     1       5.590   1.940   2.253  1.00  0.00     0.213 HD
ENDBRANCH  16  17
BRANCH  16  19
HETATM   19  O7  UNL     1       5.009  -0.034   1.208  1.00  0.00    -0.348 OA
BRANCH  19  20
HETATM   20  C12 UNL     1       4.895   0.536  -0.040  1.00  0.00     0.210 C 
BRANCH  20  21
HETATM   21  C13 UNL     1       5.822  -0.126  -1.007  1.00  0.00    -0.034 A 
HETATM   22  C14 UNL     1       7.069   0.416  -1.190  1.00  0.00     0.012 A 
HETATM   23  C15 UNL     1       7.964  -0.163  -2.078  1.00  0.00     0.037 A 
HETATM   24  C16 UNL     1       7.571  -1.281  -2.759  1.00  0.00     0.102 A 
HETATM   25  C17 UNL     1       6.311  -1.834  -2.578  1.00  0.00     0.037 A 
HETATM   26  C18 UNL     1       5.434  -1.241  -1.689  1.00  0.00     0.012 A 
BRANCH  24  27
HETATM   27  N7  UNL     1       8.449  -1.903  -3.672  1.00  0.00    -0.116 N 
HETATM   28  O8  UNL     1       9.587  -1.397  -3.835  1.00  0.00    -0.532 OA
HETATM   29  O9  UNL     1       8.044  -3.022  -4.343  1.00  0.00    -0.532 OA
ENDBRANCH  24  27
ENDBRANCH  20  21
ENDBRANCH  19  20
ENDBRANCH  16  19
ENDBRANCH  13  16
ENDBRANCH   5  10
ENDBRANCH   3   5
BRANCH   1  30
HETATM   30  C5  UNL     1      -2.876   0.309   0.033  1.00  0.00     0.227 C 
BRANCH  30  31
HETATM   31  N3  UNL     1      -4.076   0.980   0.423  1.00  0.00    -0.339 N 
HETATM   32  C4  UNL     1      -5.385   0.553   0.020  1.00  0.00     0.269 C 
HETATM   33  O2  UNL     1      -5.473  -0.460  -0.710  1.00  0.00    -0.269 OA
ATOM     34  H3  UNL     1      -3.998   1.805   1.018  1.00  0.00     0.163 HD
BRANCH  32  35
HETATM   35  C3  UNL     1      -6.608   1.256   0.429  1.00  0.00     0.376 C 
BRANCH  35  36
HETATM   36  N1  UNL     1      -7.753   0.599  -0.149  1.00  0.00    -0.326 N 
HETATM   37  C2  UNL     1      -8.575   1.344  -1.049  1.00  0.00     0.215 C 
HETATM   38  C1  UNL     1      -9.750   0.654  -1.635  1.00  0.00     0.117 C 
HETATM   39  O1  UNL     1      -8.329   2.525  -1.340  1.00  0.00    -0.274 OA
ATOM     40  H1  UNL     1      -7.971  -0.371   0.078  1.00  0.00     0.165 HD
ENDBRANCH  35  36
BRANCH  35  41
HETATM   41  N2  UNL     1      -6.739   1.192   1.896  1.00  0.00    -0.049 N 
ATOM     42  H23 UNL     1      -7.624   1.574   2.230  1.00  0.00     0.277 HD
ATOM     43  H22 UNL     1      -6.863   0.240   2.240  1.00  0.00     0.277 HD
ATOM     44  H21 UNL     1      -5.929   1.657   2.305  1.00  0.00     0.277 HD
ENDBRANCH  35  41
ENDBRANCH  32  35
ENDBRANCH  30  31
BRANCH  30  45
HETATM   45  C19 UNL     1      -2.018   1.226  -0.831  1.00  0.00     0.048 A 
HETATM   46  C20 UNL     1      -1.841   2.531  -0.441  1.00  0.00     0.078 A 
HETATM   47  S1  UNL     1      -0.844   3.129  -1.694  1.00  0.00    -0.095 SA
HETATM   48  C21 UNL     1      -0.716   1.701  -2.624  1.00  0.00     0.138 A 
HETATM   49  N8  UNL     1      -1.445   0.844  -1.923  1.00  0.00    -0.361 N 
ATOM     50  H8  UNL     1      -1.553  -0.117  -2.246  1.00  0.00     0.165 HD
ENDBRANCH  30  45
ENDBRANCH   1  30
TORSDOF 15
