REMARK  19 active torsions:
REMARK  status: ('A' for Active; 'I' for Inactive)
REMARK    1  A    between atoms: N2_6  and  N3_7 
REMARK    2  A    between atoms: N3_7  and  C3_9 
REMARK    3  A    between atoms: C3_9  and  C4_10 
REMARK    4  A    between atoms: C4_10  and  O2_11 
REMARK    5  A    between atoms: C4_10  and  C5_13 
REMARK    6  A    between atoms: C5_13  and  O3_14 
REMARK    7  A    between atoms: C5_13  and  C6_16 
REMARK    8  A    between atoms: C6_16  and  C7_17 
REMARK    9  A    between atoms: C6_16  and  O7_27 
REMARK   10  A    between atoms: C7_17  and  C8_18 
REMARK   11  A    between atoms: C8_18  and  O4_19 
REMARK   12  A    between atoms: C8_18  and  C9_21 
REMARK   13  A    between atoms: C9_21  and  O5_22 
REMARK   14  A    between atoms: C9_21  and  C10_24 
REMARK   15  A    between atoms: C10_24  and  O6_25 
REMARK   16  A    between atoms: O7_27  and  C11_28 
REMARK   17  A    between atoms: C11_28  and  N4_29 
REMARK   18  A    between atoms: C14_35  and  C15_36 
REMARK   19  A    between atoms: C18_39  and  C19_40 
ROOT
HETATM    1  C3  UNL     1       0.190  -0.164  -0.568  1.00  0.00     0.142 C 
ENDROOT
BRANCH   1   2
HETATM    2  N3  UNL     1       0.251  -1.562  -0.618  1.00  0.00    -0.304 N 
ATOM      3  H3  UNL     1      -0.316  -2.132   0.010  1.00  0.00     0.186 HD
BRANCH   2   4
HETATM    4  N2  UNL     1       1.112  -2.163  -1.555  1.00  0.00    -0.260 N 
HETATM    5  C2  UNL     1       0.420  -3.294  -2.173  1.00  0.00     0.207 C 
HETATM    6  N1  UNL     1       0.951  -4.170  -2.920  1.00  0.00    -0.303 N 
HETATM    7  C1  UNL     1       2.338  -4.054  -3.183  1.00  0.00     0.323 C 
ATOM      8  H1  UNL     1       0.400  -4.931  -3.317  1.00  0.00     0.171 HD
HETATM    9  O1  UNL     1       2.940  -4.891  -3.921  1.00  0.00    -0.247 OA
HETATM   10  N8  UNL     1       3.067  -3.004  -2.621  1.00  0.00    -0.316 N 
HETATM   11  C14 UNL     1       2.378  -1.835  -2.015  1.00  0.00     0.244 C 
ATOM     12  H8  UNL     1       4.086  -3.040  -2.626  1.00  0.00     0.166 HD
BRANCH  11  13
HETATM   13  C15 UNL     1       3.365  -1.138  -1.197  1.00  0.00    -0.014 A 
HETATM   14  C16 UNL     1       3.991  -0.035  -1.744  1.00  0.00     0.012 A 
HETATM   15  C17 UNL     1       5.018   0.638  -1.111  1.00  0.00     0.014 A 
HETATM   16  C18 UNL     1       5.472   0.233   0.106  1.00  0.00    -0.009 A 
HETATM   17  C24 UNL     1       4.866  -0.861   0.680  1.00  0.00     0.014 A 
HETATM   18  C25 UNL     1       3.817  -1.535   0.023  1.00  0.00     0.012 A 
BRANCH  16  19
HETATM   19  C19 UNL     1       6.596   0.912   0.794  1.00  0.00     0.042 A 
HETATM   20  C20 UNL     1       7.231   2.018   0.284  1.00  0.00     0.030 A 
HETATM   21  C21 UNL     1       8.278   2.609   0.967  1.00  0.00     0.004 A 
HETATM   22  C22 UNL     1       8.721   2.114   2.178  1.00  0.00     0.017 A 
HETATM   23  C23 UNL     1       8.054   1.007   2.653  1.00  0.00     0.088 A 
HETATM   24  N7  UNL     1       7.035   0.434   1.988  1.00  0.00    -0.365 N 
ATOM     25  H7  UNL     1       6.578  -0.384   2.392  1.00  0.00     0.165 HD
ENDBRANCH  16  19
ENDBRANCH  11  13
ENDBRANCH   2   4
ENDBRANCH   1   2
BRANCH   1  26
HETATM   26  C4  UNL     1      -1.093   0.471  -1.033  1.00  0.00     0.091 C 
BRANCH  26  27
HETATM   27  O2  UNL     1      -1.006   1.839  -0.910  1.00  0.00    -0.361 OA
ATOM     28  H2  UNL     1      -1.816   2.240  -1.203  1.00  0.00     0.217 HD
ENDBRANCH  26  27
BRANCH  26  29
HETATM   29  C5  UNL     1      -2.370  -0.198  -0.950  1.00  0.00     0.205 C 
BRANCH  29  30
HETATM   30  O3  UNL     1      -3.185   0.200  -2.077  1.00  0.00    -0.386 OA
ATOM     31  H3  UNL     1      -4.025  -0.240  -2.022  1.00  0.00     0.210 HD
ENDBRANCH  29  30
BRANCH  29  32
HETATM   32  C6  UNL     1      -3.310   0.144   0.211  1.00  0.00     0.167 C 
BRANCH  32  33
HETATM   33  C7  UNL     1      -3.871   1.523   0.040  1.00  0.00     0.070 C 
BRANCH  33  34
HETATM   34  C8  UNL     1      -4.804   1.908   1.154  1.00  0.00     0.151 C 
BRANCH  34  35
HETATM   35  O4  UNL     1      -5.920   1.115   1.227  1.00  0.00    -0.393 OA
ATOM     36  H4  UNL     1      -6.510   1.358   1.931  1.00  0.00     0.210 HD
ENDBRANCH  34  35
BRANCH  34  37
HETATM   37  C9  UNL     1      -5.123   3.359   1.221  1.00  0.00     0.170 C 
BRANCH  37  38
HETATM   38  O5  UNL     1      -5.706   3.604   2.495  1.00  0.00    -0.391 OA
ATOM     39  H5  UNL     1      -5.910   4.531   2.538  1.00  0.00     0.210 HD
ENDBRANCH  37  38
BRANCH  37  40
HETATM   40  C10 UNL     1      -6.115   3.782   0.184  1.00  0.00     0.198 C 
BRANCH  40  41
HETATM   41  O6  UNL     1      -5.693   3.594  -1.120  1.00  0.00    -0.398 OA
ATOM     42  H6  UNL     1      -6.323   3.863  -1.778  1.00  0.00     0.209 HD
ENDBRANCH  40  41
ENDBRANCH  37  40
ENDBRANCH  34  37
ENDBRANCH  33  34
ENDBRANCH  32  33
BRANCH  32  43
HETATM   43  O7  UNL     1      -2.801  -0.143   1.424  1.00  0.00    -0.337 OA
BRANCH  43  44
HETATM   44  C11 UNL     1      -3.343  -1.167   2.152  1.00  0.00     0.248 C 
BRANCH  44  45
HETATM   45  N4  UNL     1      -3.280  -2.463   1.528  1.00  0.00    -0.239 N 
HETATM   46  C12 UNL     1      -4.210  -3.039   0.753  1.00  0.00     0.134 A 
HETATM   47  C13 UNL     1      -3.736  -4.273   0.345  1.00  0.00     0.123 A 
HETATM   48  N5  UNL     1      -2.514  -4.390   0.903  1.00  0.00    -0.293 N 
HETATM   49  N6  UNL     1      -2.250  -3.291   1.617  1.00  0.00    -0.015 NA
ATOM     50  H5  UNL     1      -1.890  -5.190   0.797  1.00  0.00     0.183 HD
ENDBRANCH  44  45
ENDBRANCH  43  44
ENDBRANCH  32  43
ENDBRANCH  29  32
ENDBRANCH  26  29
ENDBRANCH   1  26
TORSDOF 19
