REMARK  18 active torsions:
REMARK  status: ('A' for Active; 'I' for Inactive)
REMARK    1  A    between atoms: C1_4  and  C2_6 
REMARK    2  A    between atoms: C2_6  and  C3_7 
REMARK    3  A    between atoms: C3_7  and  N3_8 
REMARK    4  A    between atoms: N3_8  and  C4_9 
REMARK    5  A    between atoms: N3_8  and  C6_15 
REMARK    6  A    between atoms: C4_9  and  C5_10 
REMARK    7  A    between atoms: C5_10  and  N4_11 
REMARK    8  A    between atoms: C9_18  and  N5_19 
REMARK    9  A    between atoms: N5_19  and  C10_21 
REMARK   10  A    between atoms: C10_21  and  C11_22 
REMARK   11  A    between atoms: C11_22  and  S1_23 
REMARK   12  A    between atoms: S1_23  and  C12_24 
REMARK   13  A    between atoms: C13_27  and  N7_28 
REMARK   14  A    between atoms: N10_39  and  C16_41 
REMARK   15  A    between atoms: C16_41  and  C17_42 
REMARK   16  A    between atoms: C17_42  and  O3_43 
REMARK   17  A    between atoms: O3_43  and  N11_44 
REMARK   18  A    between atoms: C18_47  and  N12_48 
ROOT
HETATM    1  C10 UNL     1       1.988   1.450   0.027  1.00  0.00     0.087 C 
HETATM    2  N10 UNL     1       1.761   2.243   0.997  1.00  0.00    -0.377 N 
ATOM      3  H10 UNL     1       0.947   2.854   0.930  1.00  0.00     0.160 HD
ENDROOT
BRANCH   1   4
HETATM    4  N5  UNL     1       1.073   1.454  -1.106  1.00  0.00    -0.344 N 
ATOM      5  H5  UNL     1       1.381   1.844  -1.997  1.00  0.00     0.167 HD
BRANCH   4   6
HETATM    6  C9  UNL     1      -0.214   0.936  -0.997  1.00  0.00     0.067 A 
HETATM    7  C8  UNL     1      -0.609   0.319   0.204  1.00  0.00     0.034 A 
HETATM    8  C7  UNL     1      -1.880  -0.179   0.316  1.00  0.00     0.031 A 
HETATM    9  C6  UNL     1      -2.819  -0.114  -0.687  1.00  0.00     0.032 A 
HETATM   10  C19 UNL     1      -2.389   0.506  -1.861  1.00  0.00     0.067 A 
HETATM   11  C18 UNL     1      -1.111   1.026  -2.029  1.00  0.00     0.131 A 
BRANCH   9  12
HETATM   12  N3  UNL     1      -4.132  -0.662  -0.592  1.00  0.00    -0.379 N 
BRANCH  12  13
HETATM   13  C3  UNL     1      -5.260   0.104  -0.957  1.00  0.00     0.130 C 
BRANCH  13  14
HETATM   14  C2  UNL     1      -6.287   0.394   0.059  1.00  0.00     0.092 C 
BRANCH  14  15
HETATM   15  C1  UNL     1      -5.903   1.177   1.235  1.00  0.00     0.088 C 
HETATM   16  N1  UNL     1      -4.790   1.819   1.328  1.00  0.00    -0.391 N 
ATOM     17  H12 UNL     1      -4.522   2.365   2.147  1.00  0.00     0.157 HD
ATOM     18  H11 UNL     1      -4.118   1.784   0.562  1.00  0.00     0.157 HD
HETATM   19  N2  UNL     1      -6.850   1.226   2.315  1.00  0.00    -0.088 NA
ENDBRANCH  14  15
ENDBRANCH  13  14
ENDBRANCH  12  13
BRANCH  12  20
HETATM   20  C4  UNL     1      -4.189  -2.060  -0.173  1.00  0.00     0.150 C 
BRANCH  20  21
HETATM   21  C5  UNL     1      -4.565  -3.001  -1.271  1.00  0.00     0.249 C 
BRANCH  21  22
HETATM   22  N4  UNL     1      -5.841  -2.786  -1.870  1.00  0.00    -0.078 N 
ATOM     23  H43 UNL     1      -6.565  -2.786  -1.151  1.00  0.00     0.274 HD
ATOM     24  H42 UNL     1      -5.910  -1.823  -2.200  1.00  0.00     0.274 HD
ATOM     25  H41 UNL     1      -6.098  -3.428  -2.620  1.00  0.00     0.274 HD
ENDBRANCH  21  22
ENDBRANCH  20  21
ENDBRANCH  12  20
ENDBRANCH   9  12
BRANCH  11  26
HETATM   26  N12 UNL     1      -0.851   1.627  -3.289  1.00  0.00    -0.113 N 
HETATM   27  O6  UNL     1       0.249   1.545  -3.824  1.00  0.00    -0.532 OA
HETATM   28  O7  UNL     1      -1.915   2.286  -3.904  1.00  0.00    -0.532 OA
ENDBRANCH  11  26
ENDBRANCH   4   6
ENDBRANCH   1   4
BRANCH   1  29
HETATM   29  C11 UNL     1       3.149   0.572  -0.058  1.00  0.00     0.158 C 
BRANCH  29  30
HETATM   30  S1  UNL     1       2.640  -1.164  -0.027  1.00  0.00    -0.086 SA
BRANCH  30  31
HETATM   31  C12 UNL     1       4.142  -2.143  -0.256  1.00  0.00     0.162 C 
HETATM   32  N6  UNL     1       4.841  -2.509   0.826  1.00  0.00    -0.170 N 
HETATM   33  C13 UNL     1       6.170  -2.839   0.915  1.00  0.00     0.680 C 
ATOM     34  H6  UNL     1       4.316  -2.548   1.700  1.00  0.00     0.186 HD
HETATM   35  N8  UNL     1       7.097  -2.876  -0.077  1.00  0.00    -0.152 N 
HETATM   36  C14 UNL     1       6.901  -2.863  -1.408  1.00  0.00     0.328 C 
ATOM     37  H8  UNL     1       8.070  -2.919   0.227  1.00  0.00     0.188 HD
HETATM   38  O1  UNL     1       7.941  -3.047  -2.087  1.00  0.00    -0.261 OA
HETATM   39  C15 UNL     1       5.697  -2.669  -2.048  1.00  0.00     0.316 C 
HETATM   40  O2  UNL     1       5.766  -2.719  -3.297  1.00  0.00    -0.262 OA
HETATM   41  N9  UNL     1       4.457  -2.434  -1.541  1.00  0.00    -0.299 N 
ATOM     42  H9  UNL     1       3.680  -2.482  -2.200  1.00  0.00     0.171 HD
BRANCH  33  43
HETATM   43  N7  UNL     1       6.626  -3.154   2.062  1.00  0.00    -0.234 N 
ATOM     44  H72 UNL     1       5.930  -3.126   2.807  1.00  0.00     0.174 HD
ATOM     45  H71 UNL     1       7.614  -3.399   2.128  1.00  0.00     0.174 HD
ENDBRANCH  33  43
ENDBRANCH  30  31
ENDBRANCH  29  30
ENDBRANCH   1  29
BRANCH   2  46
HETATM   46  C16 UNL     1       2.590   2.339   2.207  1.00  0.00     0.150 C 
BRANCH  46  47
HETATM   47  C17 UNL     1       3.572   3.489   2.074  1.00  0.00     0.227 C 
BRANCH  47  48
HETATM   48  O3  UNL     1       4.320   3.504   3.269  1.00  0.00    -0.220 OA
BRANCH  48  49
HETATM   49  N11 UNL     1       5.317   4.384   3.563  1.00  0.00     0.004 N 
HETATM   50  O4  UNL     1       5.622   5.292   2.777  1.00  0.00    -0.511 OA
HETATM   51  O5  UNL     1       5.996   4.263   4.744  1.00  0.00    -0.511 OA
ENDBRANCH  48  49
ENDBRANCH  47  48
ENDBRANCH  46  47
ENDBRANCH   2  46
TORSDOF 18
