REMARK  7 active torsions:
REMARK  status: ('A' for Active; 'I' for Inactive)
REMARK    1  A    between atoms: C2_2  and  C3_3 
REMARK    2  A    between atoms: C3_3  and  C4_4 
REMARK    3  A    between atoms: C4_4  and  C5_5 
REMARK    4  A    between atoms: C4_4  and  N1_7 
REMARK    5  A    between atoms: N1_7  and  C7_9 
REMARK    6  A    between atoms: C8_12  and  S1_13 
REMARK    7  A    between atoms: S1_13  and  N3_15 
ROOT
HETATM    1  C7  UNL     1       0.720  -0.555   0.289  1.00  0.00     0.695 A 
HETATM    2  N2  UNL     1       1.973  -0.427   0.771  1.00  0.00    -0.165 N 
ATOM      3  H2  UNL     1       2.264  -0.615   1.730  1.00  0.00     0.186 HD
HETATM    4  C8  UNL     1       2.779  -0.007  -0.231  1.00  0.00     0.210 A 
HETATM    5  N4  UNL     1       1.997   0.116  -1.314  1.00  0.00    -0.263 N 
ATOM      6  H4  UNL     1       2.307   0.417  -2.238  1.00  0.00     0.189 HD
HETATM    7  N5  UNL     1       0.754  -0.218  -0.988  1.00  0.00    -0.130 N 
ATOM      8  H5  UNL     1      -0.046  -0.215  -1.621  1.00  0.00     0.205 HD
ENDROOT
BRANCH   1   9
HETATM    9  N1  UNL     1      -0.274  -0.934   0.981  1.00  0.00    -0.220 N 
ATOM     10  H1  UNL     1      -0.059  -1.143   1.956  1.00  0.00     0.178 HD
BRANCH   9  11
HETATM   11  C4  UNL     1      -1.624  -1.113   0.625  1.00  0.00     0.099 C 
BRANCH  11  12
HETATM   12  C3  UNL     1      -2.370   0.099   0.166  1.00  0.00     0.025 C 
BRANCH  12  13
HETATM   13  C2  UNL     1      -2.186   1.287   1.080  1.00  0.00    -0.002 C 
HETATM   14  C1  UNL     1      -2.995   2.428   0.488  1.00  0.00     0.005 C 
ENDBRANCH  12  13
ENDBRANCH  11  12
BRANCH  11  15
HETATM   15  C5  UNL     1      -1.884  -2.235  -0.367  1.00  0.00     0.021 C 
HETATM   16  C6  UNL     1      -3.390  -2.527  -0.416  1.00  0.00     0.007 C 
ENDBRANCH  11  15
ENDBRANCH   9  11
ENDBRANCH   1   9
BRANCH   4  17
HETATM   17  S1  UNL     1       4.494   0.324  -0.172  1.00  0.00     0.080 S 
HETATM   18  C9  UNL     1       4.874   1.601   0.994  1.00  0.00     0.145 C 
HETATM   19  O1  UNL     1       5.175  -0.972   0.187  1.00  0.00    -0.242 OA
BRANCH  17  20
HETATM   20  N3  UNL     1       4.959   0.683  -1.608  1.00  0.00    -0.354 N 
ATOM     21  H32 UNL     1       4.358   0.716  -2.431  1.00  0.00     0.166 HD
ATOM     22  H31 UNL     1       5.960   0.876  -1.574  1.00  0.00     0.166 HD
ENDBRANCH  17  20
ENDBRANCH   4  17
TORSDOF 7
