REMARK  1 active torsions:
REMARK  status: ('A' for Active; 'I' for Inactive)
REMARK    1  A    between atoms: C2_2  and  C3_4 
ROOT
HETATM    1  C3  UNL     1       1.110   0.250   0.077  1.00  0.00    -0.057 C 
HETATM    2  C4  UNL     1       1.301  -0.114  -1.183  1.00  0.00    -0.014 C 
HETATM    3  C5  UNL     1      -0.060  -0.267  -1.805  1.00  0.00     0.054 A 
HETATM    4  C6  UNL     1      -0.964  -1.078  -0.984  1.00  0.00     0.055 A 
HETATM    5  C7  UNL     1      -1.130  -0.892   0.508  1.00  0.00     0.155 C 
HETATM    6  C8  UNL     1      -0.319   0.381   0.393  1.00  0.00     0.074 C 
HETATM    7  C9  UNL     1      -0.919   0.493  -0.976  1.00  0.00     0.102 A 
HETATM    8  O1  UNL     1      -2.194   0.815  -0.965  1.00  0.00    -0.262 OA
HETATM    9  S1  UNL     1      -2.879  -0.202   0.648  1.00  0.00     0.271 S 
HETATM   10  O2  UNL     1      -3.595  -1.364   1.079  1.00  0.00    -0.198 OA
HETATM   11  O3  UNL     1      -3.598   1.081   1.046  1.00  0.00    -0.198 OA
ENDROOT
BRANCH   1  12
HETATM   12  C2  UNL     1       2.205   0.507   1.053  1.00  0.00     0.107 C 
HETATM   13  C1  UNL     1       3.565   0.281   0.411  1.00  0.00     0.031 C 
HETATM   14 CL1  UNL     1       2.088  -0.633   2.426  1.00  0.00    -0.121 Cl
ENDBRANCH   1  12
TORSDOF 1
