REMARK  6 active torsions:
REMARK  status: ('A' for Active; 'I' for Inactive)
REMARK    1  A    between atoms: C2_2  and  C5_5 
REMARK    2  A    between atoms: C5_5  and  N1_6 
REMARK    3  A    between atoms: C5_5  and  C6_10 
REMARK    4  A    between atoms: N1_6  and  N2_7 
REMARK       I    between atoms: C6_10  and  N3_12 
REMARK    5  A    between atoms: N3_12  and  C7_14 
REMARK    6  A    between atoms: N4_19  and  O3_20 
ROOT
HETATM    1  C6  UNL     1       0.458   0.767   0.250  1.00  0.00     0.286 C 
HETATM    2  O1  UNL     1       0.771   1.196   1.385  1.00  0.00    -0.265 OA
HETATM    3  N3  UNL     1       1.381   0.022  -0.490  1.00  0.00    -0.303 N 
ATOM      4  H3  UNL     1       1.073  -0.302  -1.407  1.00  0.00     0.171 HD
ENDROOT
BRANCH   1   5
HETATM    5  C5  UNL     1      -0.882   1.093  -0.208  1.00  0.00     0.183 C 
BRANCH   5   6
HETATM    6  C2  UNL     1      -1.986   0.108  -0.059  1.00  0.00     0.012 C 
HETATM    7  C1  UNL     1      -3.284   0.658  -0.602  1.00  0.00     0.022 C 
HETATM    8  C3  UNL     1      -1.679  -1.165  -0.852  1.00  0.00     0.022 C 
HETATM    9  C4  UNL     1      -2.171  -0.207   1.399  1.00  0.00     0.022 C 
ENDBRANCH   5   6
BRANCH   5  10
HETATM   10  N1  UNL     1      -1.125   2.202  -0.732  1.00  0.00    -0.331 NA
BRANCH  10  11
HETATM   11  N2  UNL     1      -1.382   3.332  -1.198  1.00  0.00    -0.280 N 
ATOM     12  H22 UNL     1      -1.522   3.333  -0.188  1.00  0.00     0.191 HD
ATOM     13  H21 UNL     1      -1.580   4.237  -1.625  1.00  0.00     0.191 HD
ENDBRANCH  10  11
ENDBRANCH   5  10
ENDBRANCH   1   5
BRANCH   3  14
HETATM   14  C7  UNL     1       2.690  -0.329  -0.107  1.00  0.00     0.165 A 
HETATM   15  C8  UNL     1       3.381  -0.045   1.047  1.00  0.00     0.105 A 
HETATM   16  C9  UNL     1       4.654  -0.621   0.942  1.00  0.00     0.174 A 
HETATM   17 CL1  UNL     1       5.916  -0.536   2.171  1.00  0.00    -0.054 Cl
HETATM   18  O2  UNL     1       4.672  -1.197  -0.213  1.00  0.00    -0.196 OA
HETATM   19  N4  UNL     1       3.564  -1.057  -0.856  1.00  0.00    -0.103 N 
BRANCH  19  20
HETATM   20  O3  UNL     1       3.309  -1.563  -2.099  1.00  0.00    -0.261 OA
ATOM     21  H3  UNL     1       3.919  -2.071  -2.621  1.00  0.00     0.247 HD
ENDBRANCH  19  20
ENDBRANCH   3  14
TORSDOF 6
