REMARK  3 active torsions:
REMARK  status: ('A' for Active; 'I' for Inactive)
REMARK    1  A    between atoms: C3_5  and  C5_7 
REMARK    2  A    between atoms: C6_8  and  C7_9 
REMARK    3  A    between atoms: C7_9  and  C8_10 
ROOT
HETATM    1  C1  UNL     1      -3.271   1.137   0.918  1.00  0.00     0.162 C 
HETATM    2  N1  UNL     1      -2.186   0.406   0.282  1.00  0.00    -0.293 N 
HETATM    3  C2  UNL     1      -1.245   0.968  -0.620  1.00  0.00     0.266 A 
HETATM    4  O1  UNL     1      -1.224   2.158  -0.986  1.00  0.00    -0.269 OA
HETATM    5  C3  UNL     1      -0.337  -0.145  -1.004  1.00  0.00     0.174 A 
HETATM    6  C4  UNL     1      -0.373  -0.425  -2.484  1.00  0.00     0.064 C 
HETATM    7  N2  UNL     1      -0.853  -1.275  -0.268  1.00  0.00    -0.337 N 
ATOM      8  H2  UNL     1      -0.450  -2.211  -0.309  1.00  0.00     0.164 HD
HETATM    9  C9  UNL     1      -1.866  -0.972   0.437  1.00  0.00     0.194 A 
HETATM   10  N3  UNL     1      -2.586  -1.860   1.261  1.00  0.00    -0.063 NA
ENDROOT
BRANCH   5  11
HETATM   11  C5  UNL     1       1.015   0.229  -0.551  1.00  0.00    -0.065 C 
HETATM   12  C6  UNL     1       2.119   0.529  -0.159  1.00  0.00    -0.101 C 
BRANCH  12  13
HETATM   13  C7  UNL     1       3.451   0.879   0.336  1.00  0.00     0.130 C 
BRANCH  13  14
HETATM   14  C8  UNL     1       4.095  -0.322   1.040  1.00  0.00     0.189 C 
HETATM   15 CL1  UNL     1       4.219  -1.638  -0.144  1.00  0.00    -0.107 Cl
HETATM   16 CL2  UNL     1       5.647   0.138   1.720  1.00  0.00    -0.107 Cl
ENDBRANCH  13  14
ENDBRANCH  12  13
ENDBRANCH   5  11
TORSDOF 3
