REMARK  7 active torsions:
REMARK  status: ('A' for Active; 'I' for Inactive)
REMARK    1  A    between atoms: C2_2  and  O1_3 
REMARK    2  A    between atoms: O1_3  and  C3_4 
REMARK    3  A    between atoms: C5_6  and  N1_7 
REMARK    4  A    between atoms: C10_20  and  C11_21 
REMARK    5  A    between atoms: C13_23  and  C14_24 
REMARK    6  A    between atoms: C15_26  and  S1_27 
REMARK    7  A    between atoms: S1_27  and  C16_28 
ROOT
HETATM    1  C3  UNL     1      -0.528  -0.679  -0.010  1.00  0.00     0.176 C 
HETATM    2  C4  UNL     1      -1.477   0.162   0.865  1.00  0.00     0.083 C 
HETATM    3  C5  UNL     1      -1.868   1.374   0.094  1.00  0.00     0.210 C 
HETATM    4  N3  UNL     1      -1.350   1.304  -1.281  1.00  0.00    -0.115 NA
HETATM    5  N4  UNL     1       0.038   1.156  -1.323  1.00  0.00    -0.302 N 
ATOM      6  H4  UNL     1       0.644   1.802  -1.828  1.00  0.00     0.182 HD
HETATM    7  C10 UNL     1       0.505   0.115  -0.659  1.00  0.00     0.068 C 
ENDROOT
BRANCH   7   8
HETATM    8  C11 UNL     1       1.949  -0.107  -0.651  1.00  0.00     0.033 A 
HETATM    9  C12 UNL     1       2.713  -1.075  -0.076  1.00  0.00     0.037 A 
HETATM   10  C13 UNL     1       4.053  -1.001  -0.251  1.00  0.00     0.027 A 
HETATM   11  C15 UNL     1       4.516   0.056  -1.001  1.00  0.00     0.060 A 
HETATM   12  S2  UNL     1       3.096   0.887  -1.423  1.00  0.00    -0.080 SA
BRANCH  10  13
HETATM   13  C14 UNL     1       5.029  -1.972   0.303  1.00  0.00     0.272 C 
HETATM   14  O4  UNL     1       4.600  -2.928   0.977  1.00  0.00    -0.301 OA
ENDBRANCH  10  13
BRANCH  11  15
HETATM   15  S1  UNL     1       6.236   0.449  -1.423  1.00  0.00    -0.053 SA
BRANCH  15  16
HETATM   16  C16 UNL     1       6.819   1.520  -0.051  1.00  0.00     0.421 C 
HETATM   17  F2  UNL     1       6.132   2.715  -0.067  1.00  0.00    -0.202 F 
HETATM   18  F3  UNL     1       6.468   0.859   1.124  1.00  0.00    -0.202 F 
ENDBRANCH  15  16
ENDBRANCH  11  15
ENDBRANCH   7   8
BRANCH   1  19
HETATM   19  O1  UNL     1      -0.125  -1.811   0.640  1.00  0.00    -0.380 OA
BRANCH  19  20
HETATM   20  C2  UNL     1      -0.675  -2.935   0.074  1.00  0.00     0.164 C 
HETATM   21  C1  UNL     1      -0.168  -4.131   0.860  1.00  0.00     0.033 C 
ENDBRANCH  19  20
ENDBRANCH   1  19
BRANCH   3  22
HETATM   22  N1  UNL     1      -3.240   1.750   0.146  1.00  0.00    -0.286 N 
HETATM   23  C6  UNL     1      -3.559   3.016   0.520  1.00  0.00     0.145 A 
HETATM   24  C7  UNL     1      -4.847   3.484   0.603  1.00  0.00     0.199 A 
HETATM   25  F1  UNL     1      -5.160   4.743   0.976  1.00  0.00    -0.199 F 
HETATM   26  C8  UNL     1      -5.850   2.578   0.277  1.00  0.00     0.289 A 
HETATM   27  O2  UNL     1      -7.053   2.960   0.337  1.00  0.00    -0.265 OA
HETATM   28  N2  UNL     1      -5.499   1.339  -0.089  1.00  0.00    -0.273 N 
HETATM   29  C9  UNL     1      -4.233   0.904  -0.163  1.00  0.00     0.330 A 
ATOM     30  H2  UNL     1      -6.243   0.683  -0.327  1.00  0.00     0.173 HD
HETATM   31  O3  UNL     1      -3.984  -0.304  -0.523  1.00  0.00    -0.246 OA
ENDBRANCH   3  22
TORSDOF 7
