REMARK  10 active torsions:
REMARK  status: ('A' for Active; 'I' for Inactive)
REMARK    1  A    between atoms: O1_2  and  C2_3 
REMARK    2  A    between atoms: C4_5  and  C5_6 
REMARK    3  A    between atoms: C12_15  and  C13_16 
REMARK    4  A    between atoms: N1_17  and  N2_19 
REMARK    5  A    between atoms: N2_19  and  C14_21 
REMARK    6  A    between atoms: C14_21  and  C15_22 
REMARK    7  A    between atoms: C14_21  and  O4_27 
REMARK    8  A    between atoms: C15_22  and  C16_23 
REMARK    9  A    between atoms: O4_27  and  N3_28 
REMARK   10  A    between atoms: C17_33  and  O5_34 
ROOT
HETATM    1  C2  UNL     1      -1.844   2.556  -0.636  1.00  0.00     0.119 A 
HETATM    2  C3  UNL     1      -1.922   1.518   0.269  1.00  0.00     0.053 A 
HETATM    3  C4  UNL     1      -0.970   0.543   0.350  1.00  0.00     0.002 A 
HETATM    4  C12 UNL     1       0.115   0.610  -0.504  1.00  0.00     0.060 A 
HETATM    5  N4  UNL     1       0.188   1.616  -1.390  1.00  0.00    -0.333 N 
ATOM      6  H4  UNL     1       0.986   1.654  -2.024  1.00  0.00     0.168 HD
HETATM    7  C17 UNL     1      -0.754   2.579  -1.475  1.00  0.00     0.176 A 
ENDROOT
BRANCH   4   8
HETATM    8  C13 UNL     1       1.228  -0.311  -0.432  1.00  0.00     0.137 C 
HETATM    9  N1  UNL     1       2.275  -0.158  -1.174  1.00  0.00    -0.312 N 
ATOM     10  H1  UNL     1       2.327   0.617  -1.834  1.00  0.00     0.185 HD
BRANCH   9  11
HETATM   11  N2  UNL     1       3.346  -1.072  -1.064  1.00  0.00    -0.305 N 
ATOM     12  H2  UNL     1       3.215  -2.035  -1.373  1.00  0.00     0.183 HD
BRANCH  11  13
HETATM   13  C14 UNL     1       4.634  -0.665  -0.518  1.00  0.00     0.273 C 
BRANCH  13  14
HETATM   14  C15 UNL     1       5.508  -0.110  -1.603  1.00  0.00     0.174 C 
BRANCH  14  15
HETATM   15  C16 UNL     1       5.764  -1.180  -2.691  1.00  0.00     0.392 C 
HETATM   16  F1  UNL     1       4.639  -1.620  -3.289  1.00  0.00    -0.171 F 
HETATM   17  F2  UNL     1       6.642  -0.567  -3.604  1.00  0.00    -0.171 F 
HETATM   18  F3  UNL     1       6.427  -2.187  -2.001  1.00  0.00    -0.171 F 
ENDBRANCH  14  15
ENDBRANCH  13  14
BRANCH  13  19
HETATM   19  O4  UNL     1       5.169  -1.786   0.078  1.00  0.00    -0.260 OA
BRANCH  19  20
HETATM   20  N3  UNL     1       5.212  -1.622   1.400  1.00  0.00    -0.309 N 
ATOM     21  H32 UNL     1       4.892  -0.783   1.885  1.00  0.00     0.184 HD
ATOM     22  H31 UNL     1       5.608  -2.452   1.841  1.00  0.00     0.184 HD
ENDBRANCH  19  20
ENDBRANCH  13  19
ENDBRANCH  11  13
ENDBRANCH   9  11
ENDBRANCH   4   8
BRANCH   3  23
HETATM   23  C5  UNL     1      -1.012  -0.525   1.381  1.00  0.00     0.163 C 
HETATM   24  O2  UNL     1      -1.292   0.107   2.639  1.00  0.00    -0.380 OA
HETATM   25  C6  UNL     1      -1.872  -0.817   3.436  1.00  0.00     0.176 C 
HETATM   26  C7  UNL     1      -2.291  -1.999   2.633  1.00  0.00     0.043 C 
HETATM   27  C8  UNL     1      -3.787  -2.164   2.710  1.00  0.00     0.175 C 
HETATM   28  C11 UNL     1      -2.084  -1.512   1.214  1.00  0.00     0.056 C 
HETATM   29  O3  UNL     1      -4.327  -1.220   1.834  1.00  0.00    -0.385 OA
HETATM   30  C9  UNL     1      -3.431  -1.220   0.750  1.00  0.00     0.124 C 
HETATM   31  C10 UNL     1      -3.887  -2.466  -0.098  1.00  0.00     0.040 C 
ENDBRANCH   3  23
BRANCH   7  32
HETATM   32  O5  UNL     1      -0.604   3.549  -2.380  1.00  0.00    -0.339 OA
HETATM   33  C18 UNL     1       0.051   4.026  -3.385  1.00  0.00     0.211 C 
ENDBRANCH   7  32
BRANCH   1  34
HETATM   34  O1  UNL     1      -2.781   3.562  -0.756  1.00  0.00    -0.352 OA
HETATM   35  C1  UNL     1      -3.938   3.658   0.062  1.00  0.00     0.210 C 
ENDBRANCH   1  34
TORSDOF 10
