REMARK  12 active torsions:
REMARK  status: ('A' for Active; 'I' for Inactive)
REMARK    1  A    between atoms: C2_2  and  O1_3 
REMARK    2  A    between atoms: O1_3  and  C3_4 
REMARK    3  A    between atoms: C3_4  and  N1_5 
REMARK    4  A    between atoms: C3_4  and  C8_15 
REMARK    5  A    between atoms: N1_5  and  N2_6 
REMARK    6  A    between atoms: N2_6  and  C5_8 
REMARK    7  A    between atoms: C8_15  and  O2_16 
REMARK    8  A    between atoms: C8_15  and  C9_18 
REMARK    9  A    between atoms: C8_15  and  C18_30 
REMARK   10  A    between atoms: C11_20  and  O3_21 
REMARK   11  A    between atoms: C13_23  and  O4_24 
REMARK   12  A    between atoms: C15_26  and  O5_27 
ROOT
HETATM    1  C8  UNL     1       0.064  -1.721   0.050  1.00  0.00     0.264 C 
ENDROOT
BRANCH   1   2
HETATM    2  C3  UNL     1      -0.976  -0.888  -0.679  1.00  0.00     0.266 C 
BRANCH   2   3
HETATM    3  O1  UNL     1      -0.670  -0.551  -1.992  1.00  0.00    -0.325 OA
BRANCH   3   4
HETATM    4  C2  UNL     1      -1.590  -0.239  -2.995  1.00  0.00     0.173 C 
HETATM    5  C1  UNL     1      -2.502  -1.402  -3.218  1.00  0.00     0.034 C 
ENDBRANCH   3   4
ENDBRANCH   2   3
BRANCH   2   6
HETATM    6  N1  UNL     1      -2.014  -0.502  -0.236  1.00  0.00    -0.296 NA
BRANCH   6   7
HETATM    7  N2  UNL     1      -3.142  -0.068   0.209  1.00  0.00    -0.198 N 
HETATM    8  C4  UNL     1      -4.369  -0.885   0.159  1.00  0.00     0.197 C 
BRANCH   7   9
HETATM    9  C5  UNL     1      -3.355   1.236   0.799  1.00  0.00     0.202 A 
HETATM   10  N3  UNL     1      -2.860   2.320   0.336  1.00  0.00    -0.359 N 
HETATM   11  C6  UNL     1      -3.251   3.461   1.142  1.00  0.00     0.142 A 
ATOM     12  H3  UNL     1      -2.267   2.375  -0.492  1.00  0.00     0.162 HD
HETATM   13  C7  UNL     1      -4.094   2.929   2.256  1.00  0.00     0.142 A 
HETATM   14  N4  UNL     1      -4.131   1.499   1.957  1.00  0.00    -0.359 N 
ATOM     15  H4  UNL     1      -4.637   0.798   2.498  1.00  0.00     0.162 HD
ENDBRANCH   7   9
ENDBRANCH   6   7
ENDBRANCH   2   6
ENDBRANCH   1   2
BRANCH   1  16
HETATM   16  O2  UNL     1       0.289  -2.904  -0.735  1.00  0.00    -0.368 OA
ATOM     17  H2  UNL     1       0.939  -3.425  -0.279  1.00  0.00     0.212 HD
ENDBRANCH   1  16
BRANCH   1  18
HETATM   18  C9  UNL     1       1.382  -1.081   0.091  1.00  0.00    -0.000 A 
HETATM   19  C10 UNL     1       1.988  -0.819   1.291  1.00  0.00     0.050 A 
HETATM   20  C11 UNL     1       3.266  -0.247   1.401  1.00  0.00     0.104 A 
HETATM   21  C13 UNL     1       3.926   0.059   0.239  1.00  0.00     0.135 A 
HETATM   22  C15 UNL     1       3.309  -0.208  -0.991  1.00  0.00     0.104 A 
HETATM   23  C17 UNL     1       2.053  -0.771  -1.072  1.00  0.00     0.050 A 
BRANCH  20  24
HETATM   24  O3  UNL     1       3.866   0.011   2.625  1.00  0.00    -0.353 OA
HETATM   25  C12 UNL     1       3.288  -0.259   3.863  1.00  0.00     0.210 C 
ENDBRANCH  20  24
BRANCH  21  26
HETATM   26  O4  UNL     1       5.176   0.620   0.206  1.00  0.00    -0.351 OA
HETATM   27  C14 UNL     1       5.443   1.997   0.196  1.00  0.00     0.210 C 
ENDBRANCH  21  26
BRANCH  22  28
HETATM   28  O5  UNL     1       3.963   0.096  -2.172  1.00  0.00    -0.353 OA
HETATM   29  C16 UNL     1       3.349  -0.169  -3.399  1.00  0.00     0.210 C 
ENDBRANCH  22  28
ENDBRANCH   1  18
BRANCH   1  30
HETATM   30  C18 UNL     1      -0.480  -2.249   1.331  1.00  0.00     0.431 C 
HETATM   31  F1  UNL     1       0.387  -3.038   2.055  1.00  0.00    -0.167 F 
HETATM   32  F2  UNL     1      -1.568  -3.100   1.062  1.00  0.00    -0.167 F 
HETATM   33  F3  UNL     1      -0.900  -1.243   2.212  1.00  0.00    -0.167 F 
ENDBRANCH   1  30
TORSDOF 12
