REMARK  10 active torsions:
REMARK  status: ('A' for Active; 'I' for Inactive)
REMARK    1  A    between atoms: O1_1  and  C1_3 
REMARK    2  A    between atoms: C1_3  and  C2_4 
REMARK    3  A    between atoms: C2_4  and  C3_5 
REMARK    4  A    between atoms: C5_7  and  C6_8 
REMARK    5  A    between atoms: C8_10  and  N1_11 
REMARK    6  A    between atoms: N1_11  and  C9_13 
REMARK    7  A    between atoms: C9_13  and  C10_14 
REMARK    8  A    between atoms: C10_14  and  C11_15 
REMARK    9  A    between atoms: C12_18  and  C13_19 
REMARK   10  A    between atoms: C17_29  and  C18_30 
ROOT
HETATM    1  C6  UNL     1      -2.815  -0.422  -0.014  1.00  0.00     0.073 A 
HETATM    2  C7  UNL     1      -1.600   0.212   0.020  1.00  0.00     0.081 A 
HETATM    3  C8  UNL     1      -0.377  -0.434  -0.252  1.00  0.00     0.108 A 
HETATM    4  N4  UNL     1      -0.481  -1.740  -0.552  1.00  0.00    -0.325 N 
ATOM      5  H4  UNL     1       0.371  -2.261  -0.757  1.00  0.00     0.169 HD
HETATM    6  C17 UNL     1      -1.650  -2.388  -0.594  1.00  0.00     0.192 A 
HETATM    7  N5  UNL     1      -2.798  -1.727  -0.328  1.00  0.00    -0.336 N 
ATOM      8  H5  UNL     1      -3.681  -2.236  -0.367  1.00  0.00     0.167 HD
ENDROOT
BRANCH   3   9
HETATM    9  N1  UNL     1       0.688   0.201  -0.212  1.00  0.00    -0.355 N 
ATOM     10  H1  UNL     1       0.499   1.174   0.030  1.00  0.00     0.166 HD
BRANCH   9  11
HETATM   11  C9  UNL     1       2.051   0.019  -0.389  1.00  0.00     0.070 C 
BRANCH  11  12
HETATM   12  C10 UNL     1       2.729  -0.339   0.923  1.00  0.00     0.131 C 
BRANCH  12  13
HETATM   13  C11 UNL     1       4.200  -0.473   0.668  1.00  0.00     0.153 A 
HETATM   14  N2  UNL     1       5.148   0.505   0.752  1.00  0.00    -0.321 N 
HETATM   15  C12 UNL     1       6.354   0.024   0.454  1.00  0.00     0.162 A 
ATOM     16  H2  UNL     1       4.959   1.474   1.008  1.00  0.00     0.169 HD
HETATM   17  N3  UNL     1       6.144  -1.290   0.176  1.00  0.00    -0.241 N 
HETATM   18  O3  UNL     1       4.863  -1.554   0.312  1.00  0.00    -0.222 OA
ATOM     19  H3  UNL     1       6.863  -1.962  -0.094  1.00  0.00     0.196 HD
BRANCH  15  20
HETATM   20  C13 UNL     1       7.664   0.696   0.405  1.00  0.00     0.120 A 
HETATM   21  C14 UNL     1       7.932   2.015   0.678  1.00  0.00     0.043 A 
HETATM   22  C15 UNL     1       9.280   2.215   0.515  1.00  0.00     0.027 A 
HETATM   23  C16 UNL     1       9.786   0.977   0.140  1.00  0.00     0.142 A 
HETATM   24  O2  UNL     1       8.792   0.138   0.092  1.00  0.00    -0.319 OA
ENDBRANCH  15  20
ENDBRANCH  12  13
ENDBRANCH  11  12
ENDBRANCH   9  11
ENDBRANCH   3   9
BRANCH   1  25
HETATM   25  C5  UNL     1      -4.044   0.332   0.283  1.00  0.00     0.127 A 
HETATM   26  C4  UNL     1      -5.319  -0.142   0.156  1.00  0.00     0.068 A 
HETATM   27  C3  UNL     1      -6.174   0.871   0.519  1.00  0.00     0.037 A 
HETATM   28  N6  UNL     1      -5.371   1.901   0.848  1.00  0.00    -0.265 N 
HETATM   29  O4  UNL     1      -4.112   1.579   0.707  1.00  0.00    -0.236 OA
ATOM     30  H6  UNL     1      -5.702   2.812   1.165  1.00  0.00     0.194 HD
BRANCH  27  31
HETATM   31  C2  UNL     1      -7.657   0.852   0.519  1.00  0.00     0.085 C 
BRANCH  31  32
HETATM   32  C1  UNL     1      -8.214   1.365  -0.803  1.00  0.00     0.170 C 
BRANCH  32  33
HETATM   33  O1  UNL     1      -7.778   2.685  -1.020  1.00  0.00    -0.400 OA
ATOM     34  H1  UNL     1      -8.125   3.005  -1.844  1.00  0.00     0.209 HD
ENDBRANCH  32  33
ENDBRANCH  31  32
ENDBRANCH  27  31
ENDBRANCH   1  25
BRANCH   6  35
HETATM   35  C18 UNL     1      -1.674  -3.828  -0.913  1.00  0.00     0.449 C 
HETATM   36  F1  UNL     1      -2.573  -4.502  -0.067  1.00  0.00    -0.163 F 
HETATM   37  F2  UNL     1      -2.148  -4.016  -2.194  1.00  0.00    -0.163 F 
HETATM   38  F3  UNL     1      -0.446  -4.442  -0.745  1.00  0.00    -0.163 F 
ENDBRANCH   6  35
TORSDOF 10
