REMARK  0 active torsions:
REMARK  status: ('A' for Active; 'I' for Inactive)
ROOT
HETATM    1  C1  UNL     1       2.887  -0.418  -0.831  1.00  0.00     0.007 C 
HETATM    2  C2  UNL     1       2.227  -1.612  -0.226  1.00  0.00     0.044 C 
HETATM    3  C3  UNL     1       0.723  -1.537  -0.244  1.00  0.00     0.064 C 
HETATM    4  N1  UNL     1       0.264  -0.373   0.390  1.00  0.00    -0.332 N 
HETATM    5  C4  UNL     1       1.187   0.671   0.527  1.00  0.00     0.114 C 
HETATM    6  C5  UNL     1       1.988   0.808  -0.777  1.00  0.00     0.027 C 
HETATM    7  C6  UNL     1       0.669   1.985   0.948  1.00  0.00     0.257 C 
HETATM    8  N2  UNL     1      -0.694   2.259   0.611  1.00  0.00    -0.066 N 
ATOM      9  H21 UNL     1      -0.820   2.472  -0.379  1.00  0.00     0.277 HD
ATOM     10  H22 UNL     1      -1.021   3.149   0.986  1.00  0.00     0.277 HD
HETATM   11  C7  UNL     1      -1.500   1.139   1.048  1.00  0.00     0.326 C 
HETATM   12  C8  UNL     1      -1.108  -0.055   0.246  1.00  0.00     0.275 C 
HETATM   13  O1  UNL     1      -1.540   0.116  -1.050  1.00  0.00    -0.335 OA
HETATM   14  C9  UNL     1      -2.709  -0.581  -1.225  1.00  0.00     0.199 C 
HETATM   15  C10 UNL     1      -3.047  -1.165   0.127  1.00  0.00     0.199 C 
HETATM   16  O2  UNL     1      -1.831  -1.156   0.768  1.00  0.00    -0.335 OA
ENDROOT
TORSDOF 0
