REMARK  0 active torsions:
REMARK  status: ('A' for Active; 'I' for Inactive)
ROOT
HETATM    1  C1  UNL     1      -3.040   0.960  -0.461  1.00  0.00     0.004 C 
HETATM    2  C2  UNL     1      -3.088  -0.410   0.139  1.00  0.00     0.030 C 
HETATM    3  C3  UNL     1      -1.880  -1.240  -0.104  1.00  0.00     0.273 C 
HETATM    4  N1  UNL     1      -0.711  -0.519  -0.487  1.00  0.00     0.098 N 
HETATM    5  C4  UNL     1       0.487  -1.171   0.042  1.00  0.00     0.341 C 
HETATM    6  C5  UNL     1       1.542  -0.072   0.004  1.00  0.00     0.192 C 
HETATM    7  C6  UNL     1       0.754   1.226  -0.217  1.00  0.00     0.106 C 
HETATM    8  C7  UNL     1      -0.634   0.770   0.214  1.00  0.00     0.228 C 
HETATM    9  C8  UNL     1      -1.721   1.656  -0.282  1.00  0.00     0.036 C 
HETATM   10  O1  UNL     1       2.199  -0.069   1.210  1.00  0.00    -0.351 OA
HETATM   11  C9  UNL     1       3.384  -0.802   0.964  1.00  0.00     0.198 C 
HETATM   12  C10 UNL     1       3.732  -0.233  -0.418  1.00  0.00     0.198 C 
HETATM   13  O2  UNL     1       2.458  -0.246  -1.005  1.00  0.00    -0.351 OA
ENDROOT
TORSDOF 0
