REMARK  2 active torsions:
REMARK  status: ('A' for Active; 'I' for Inactive)
REMARK    1  A    between atoms: C2_2  and  O1_3 
REMARK    2  A    between atoms: C9_11  and  N1_12 
ROOT
HETATM    1  C1  UNL     1       1.971  -0.541  -1.337  1.00  0.00     0.048 C 
HETATM    2  C2  UNL     1       0.991  -0.385  -0.220  1.00  0.00     0.086 C 
HETATM    3  C3  UNL     1      -0.239  -1.215  -0.443  1.00  0.00     0.022 C 
HETATM    4  C4  UNL     1      -1.279  -0.532  -1.286  1.00  0.00     0.008 C 
HETATM    5  C5  UNL     1      -1.663   0.829  -0.775  1.00  0.00     0.007 C 
HETATM    6  C6  UNL     1      -0.828   1.070   0.489  1.00  0.00     0.019 C 
HETATM    7  C7  UNL     1      -1.198  -0.023   1.457  1.00  0.00     0.007 C 
HETATM    8  C8  UNL     1      -0.861  -1.400   0.950  1.00  0.00     0.008 C 
HETATM    9  C9  UNL     1       0.610   1.034   0.068  1.00  0.00     0.221 C 
ENDROOT
BRANCH   9  10
HETATM   10  N1  UNL     1       1.500   1.686   0.991  1.00  0.00    -0.072 N 
ATOM     11  H13 UNL     1       1.582   1.150   1.855  1.00  0.00     0.274 HD
ATOM     12  H12 UNL     1       2.465   1.629   0.665  1.00  0.00     0.274 HD
ATOM     13  H11 UNL     1       1.240   2.653   1.187  1.00  0.00     0.274 HD
ENDBRANCH   9  10
BRANCH   2  14
HETATM   14  O1  UNL     1       1.599  -0.887   0.955  1.00  0.00    -0.388 OA
ATOM     15  H1  UNL     1       0.976  -0.788   1.665  1.00  0.00     0.210 HD
ENDBRANCH   2  14
TORSDOF 2
