REMARK  2 active torsions:
REMARK  status: ('A' for Active; 'I' for Inactive)
REMARK    1  A    between atoms: C3_3  and  O1_4 
REMARK    2  A    between atoms: C6_8  and  O2_9 
ROOT
HETATM    1  C1  UNL     1      -0.460  -1.621   1.356  1.00  0.00     0.013 C 
HETATM    2  C2  UNL     1      -0.249  -1.170  -0.079  1.00  0.00     0.021 C 
HETATM    3  C3  UNL     1       1.214  -1.258  -0.372  1.00  0.00     0.122 C 
HETATM    4  C4  UNL     1       2.029  -0.155   0.225  1.00  0.00     0.034 C 
HETATM    5  C5  UNL     1       1.373   1.183   0.201  1.00  0.00     0.035 C 
HETATM    6  C6  UNL     1      -0.065   1.146   0.641  1.00  0.00     0.126 C 
HETATM    7  C7  UNL     1      -0.834   0.191  -0.236  1.00  0.00    -0.016 C 
HETATM    8  C8  UNL     1      -2.286   0.124   0.225  1.00  0.00     0.018 C 
HETATM    9  C9  UNL     1      -0.826   0.697  -1.646  1.00  0.00     0.018 C 
ENDROOT
BRANCH   3  10
HETATM   10  O1  UNL     1       1.438  -1.428  -1.739  1.00  0.00    -0.395 OA
ATOM     11  H1  UNL     1       2.368  -1.484  -1.925  1.00  0.00     0.210 HD
ENDBRANCH   3  10
BRANCH   6  12
HETATM   12  O2  UNL     1      -0.622   2.407   0.529  1.00  0.00    -0.395 OA
ATOM     13  H2  UNL     1      -1.530   2.384   0.807  1.00  0.00     0.210 HD
ENDBRANCH   6  12
TORSDOF 2
