REMARK  3 active torsions:
REMARK  status: ('A' for Active; 'I' for Inactive)
REMARK    1  A    between atoms: C2_2  and  N1_5 
REMARK    2  A    between atoms: N1_5  and  S1_7 
REMARK    3  A    between atoms: S1_7  and  N2_9 
ROOT
HETATM    1  N1  UNL     1      -0.339   0.781  -0.326  1.00  0.00    -0.328 N 
ATOM      2  H1  UNL     1      -0.674   1.687  -0.654  1.00  0.00     0.171 HD
ENDROOT
BRANCH   1   3
HETATM    3  C2  UNL     1      -1.328  -0.058   0.111  1.00  0.00     0.028 C 
HETATM    4  C1  UNL     1      -2.678   0.670   0.046  1.00  0.00     0.038 C 
HETATM    5  C3  UNL     1      -1.457  -1.236  -0.865  1.00  0.00     0.038 C 
HETATM    6  C4  UNL     1      -1.204  -0.630   1.482  1.00  0.00     0.038 C 
ENDBRANCH   1   3
BRANCH   1   7
HETATM    7  S1  UNL     1       1.507   0.567  -0.429  1.00  0.00     0.097 S 
HETATM    8  C5  UNL     1       2.356  -1.099  -0.582  1.00  0.00     0.160 C 
HETATM    9  O1  UNL     1       1.511   0.561   1.291  1.00  0.00    -0.229 OA
BRANCH   7  10
HETATM   10  N2  UNL     1       2.605   2.115  -0.336  1.00  0.00    -0.345 N 
ATOM     11  H22 UNL     1       2.177   3.035  -0.232  1.00  0.00     0.167 HD
ATOM     12  H21 UNL     1       3.617   1.998  -0.392  1.00  0.00     0.167 HD
ENDBRANCH   7  10
ENDBRANCH   1   7
TORSDOF 3
