REMARK  5 active torsions:
REMARK  status: ('A' for Active; 'I' for Inactive)
REMARK    1  A    between atoms: C2_2  and  C3_3 
REMARK    2  A    between atoms: C3_3  and  C4_4 
REMARK    3  A    between atoms: C4_4  and  N1_5 
REMARK    4  A    between atoms: C6_8  and  N2_9 
REMARK    5  A    between atoms: N2_9  and  C7_11 
ROOT
HETATM    1  N1  UNL     1       1.343  -0.021  -0.493  1.00  0.00    -0.303 N 
HETATM    2  C5  UNL     1       0.373  -0.979  -0.508  1.00  0.00     0.292 A 
HETATM    3  O1  UNL     1       0.770  -2.154  -0.694  1.00  0.00    -0.264 OA
HETATM    4  C6  UNL     1      -0.975  -0.724  -0.334  1.00  0.00     0.173 A 
HETATM    5  N3  UNL     1      -1.341   0.556  -0.138  1.00  0.00    -0.322 N 
ATOM      6  H3  UNL     1      -2.326   0.784  -0.006  1.00  0.00     0.169 HD
HETATM    7  C11 UNL     1      -0.435   1.525  -0.115  1.00  0.00     0.146 A 
HETATM    8  C12 UNL     1       0.940   1.248  -0.295  1.00  0.00     0.151 A 
HETATM    9  C13 UNL     1       1.821   2.292  -0.267  1.00  0.00     0.280 A 
HETATM   10  O2  UNL     1       3.042   2.100  -0.422  1.00  0.00    -0.265 OA
HETATM   11  N4  UNL     1       1.358   3.565  -0.067  1.00  0.00    -0.273 N 
ATOM     12  H4  UNL     1       2.015   4.345  -0.046  1.00  0.00     0.173 HD
HETATM   13  C14 UNL     1       0.050   3.793   0.101  1.00  0.00     0.330 A 
HETATM   14  O3  UNL     1      -0.374   4.980   0.287  1.00  0.00    -0.246 OA
HETATM   15  N5  UNL     1      -0.849   2.793   0.079  1.00  0.00    -0.287 N 
HETATM   16  C15 UNL     1      -2.274   3.051   0.263  1.00  0.00     0.163 C 
ENDROOT
BRANCH   4  17
HETATM   17  N2  UNL     1      -1.834  -1.657  -0.358  1.00  0.00    -0.364 N 
ATOM     18  H2  UNL     1      -1.443  -2.586  -0.514  1.00  0.00     0.162 HD
BRANCH  17  19
HETATM   19  C7  UNL     1      -3.238  -1.632  -0.206  1.00  0.00     0.021 C 
HETATM   20  C8  UNL     1      -3.712  -1.140   1.124  1.00  0.00     0.037 C 
HETATM   21  C9  UNL     1      -3.707  -3.096  -0.338  1.00  0.00     0.037 C 
HETATM   22  C10 UNL     1      -3.959  -0.843  -1.270  1.00  0.00     0.037 C 
ENDBRANCH  17  19
ENDBRANCH   4  17
BRANCH   1  23
HETATM   23  C4  UNL     1       2.708  -0.349  -0.682  1.00  0.00     0.133 C 
BRANCH  23  24
HETATM   24  C3  UNL     1       3.474  -0.741   0.553  1.00  0.00     0.020 C 
BRANCH  24  25
HETATM   25  C2  UNL     1       4.922  -1.064   0.260  1.00  0.00    -0.003 C 
HETATM   26  C1  UNL     1       5.597  -1.441   1.547  1.00  0.00     0.005 C 
ENDBRANCH  24  25
ENDBRANCH  23  24
ENDBRANCH   1  23
TORSDOF 5
