REMARK  4 active torsions:
REMARK  status: ('A' for Active; 'I' for Inactive)
REMARK    1  A    between atoms: C2_2  and  O1_3 
REMARK       I    between atoms: N1_6  and  C4_8 
REMARK    2  A    between atoms: C4_8  and  C5_10 
REMARK    3  A    between atoms: C5_10  and  C6_11 
REMARK    4  A    between atoms: C7_14  and  C8_15 
ROOT
HETATM    1  C1  UNL     1       0.551   0.051   1.807  1.00  0.00     0.053 C 
HETATM    2  C2  UNL     1      -0.186  -0.745   0.785  1.00  0.00     0.106 C 
HETATM    3  C3  UNL     1       0.320  -0.601  -0.604  1.00  0.00     0.070 C 
HETATM    4  N1  UNL     1       1.518  -0.596  -1.071  1.00  0.00    -0.328 N 
ATOM      5  H1  UNL     1       1.619  -0.478  -2.079  1.00  0.00     0.168 HD
HETATM    6  C4  UNL     1       2.704  -0.737  -0.326  1.00  0.00     0.231 C 
HETATM    7  O2  UNL     1       3.032  -1.823   0.209  1.00  0.00    -0.273 OA
HETATM    8  C7  UNL     1      -0.918  -0.457  -1.447  1.00  0.00     0.197 C 
HETATM    9  O7  UNL     1      -1.715  -1.566  -1.326  1.00  0.00    -0.362 OA
HETATM   10  C9  UNL     1      -2.287  -1.554  -0.045  1.00  0.00     0.183 C 
HETATM   11  C10 UNL     1      -1.635  -0.373   0.644  1.00  0.00     0.024 C 
HETATM   12  C11 UNL     1      -2.315   0.137   1.819  1.00  0.00     0.022 C 
HETATM   13  C12 UNL     1      -1.681   0.554  -0.584  1.00  0.00     0.012 C 
HETATM   14  C13 UNL     1      -3.067   0.680  -1.130  1.00  0.00     0.020 C 
HETATM   15  C14 UNL     1      -0.957   1.824  -0.389  1.00  0.00     0.020 C 
ENDROOT
BRANCH   2  16
HETATM   16  O1  UNL     1      -0.085  -2.095   1.134  1.00  0.00    -0.383 OA
ATOM     17  H1  UNL     1      -0.555  -2.602   0.483  1.00  0.00     0.211 HD
ENDBRANCH   2  16
BRANCH   8  18
HETATM   18  C8  UNL     1      -0.666  -0.005  -2.789  1.00  0.00     0.216 C 
HETATM   19  O5  UNL     1       0.045   0.995  -3.051  1.00  0.00    -0.645 OA
HETATM   20  O6  UNL     1      -1.219  -0.686  -3.864  1.00  0.00    -0.645 OA
ENDBRANCH   8  18
BRANCH   6  21
HETATM   21  C5  UNL     1       3.586   0.424  -0.170  1.00  0.00     0.216 C 
BRANCH  21  22
HETATM   22  C6  UNL     1       4.798   0.144   0.633  1.00  0.00     0.181 C 
HETATM   23  O3  UNL     1       5.044  -0.979   1.130  1.00  0.00    -0.648 OA
HETATM   24  O4  UNL     1       5.744   1.137   0.880  1.00  0.00    -0.648 OA
ENDBRANCH  21  22
ENDBRANCH   6  21
TORSDOF 4
