REMARK  5 active torsions:
REMARK  status: ('A' for Active; 'I' for Inactive)
REMARK    1  A    between atoms: C10_11  and  O2_12 
REMARK    2  A    between atoms: O2_12  and  C11_13 
REMARK    3  A    between atoms: C14_17  and  O4_18 
REMARK    4  A    between atoms: C15_20  and  O5_21 
REMARK    5  A    between atoms: C16_23  and  O6_24 
ROOT
HETATM    1  C1  UNL     1      -1.185   3.744  -0.049  1.00  0.00     0.017 C 
HETATM    2  C2  UNL     1      -1.453   2.596   0.163  1.00  0.00    -0.080 C 
HETATM    3  C3  UNL     1      -1.778   1.210   0.419  1.00  0.00     0.025 C 
HETATM    4  C4  UNL     1      -2.602   0.926   1.454  1.00  0.00     0.023 C 
HETATM    5  C5  UNL     1      -2.929  -0.500   1.700  1.00  0.00     0.142 C 
HETATM    6  C6  UNL     1      -4.200  -0.479   2.565  1.00  0.00     0.044 C 
HETATM    7  O1  UNL     1      -3.367  -1.012   0.461  1.00  0.00    -0.369 OA
HETATM    8  C7  UNL     1      -2.316  -1.037  -0.450  1.00  0.00     0.085 C 
HETATM    9  C8  UNL     1      -1.764  -2.467  -0.433  1.00  0.00     0.049 C 
HETATM   10  C9  UNL     1      -2.952  -0.902  -1.843  1.00  0.00     0.049 C 
HETATM   11  C10 UNL     1      -1.292   0.014  -0.309  1.00  0.00     0.200 C 
ENDROOT
BRANCH  11  12
HETATM   12  O2  UNL     1      -0.135  -0.403   0.349  1.00  0.00    -0.345 OA
BRANCH  12  13
HETATM   13  C11 UNL     1       1.038  -0.123  -0.395  1.00  0.00     0.292 C 
HETATM   14  O3  UNL     1       1.764   0.723   0.406  1.00  0.00    -0.351 OA
HETATM   15  C12 UNL     1       3.108   0.648   0.411  1.00  0.00     0.152 C 
HETATM   16  C13 UNL     1       3.704   2.004   0.728  1.00  0.00     0.042 C 
HETATM   17  C14 UNL     1       3.768   0.104  -0.827  1.00  0.00     0.178 C 
HETATM   18  C15 UNL     1       3.098  -1.150  -1.319  1.00  0.00     0.183 C 
HETATM   19  C16 UNL     1       1.790  -1.402  -0.587  1.00  0.00     0.204 C 
BRANCH  17  20
HETATM   20  O4  UNL     1       3.760   1.071  -1.808  1.00  0.00    -0.390 OA
ATOM     21  H4  UNL     1       4.177   0.728  -2.590  1.00  0.00     0.210 HD
ENDBRANCH  17  20
BRANCH  18  22
HETATM   22  O5  UNL     1       3.883  -2.288  -1.197  1.00  0.00    -0.390 OA
ATOM     23  H5  UNL     1       3.460  -3.080  -1.508  1.00  0.00     0.210 HD
ENDBRANCH  18  22
BRANCH  19  24
HETATM   24  O6  UNL     1       2.038  -1.971   0.661  1.00  0.00    -0.388 OA
ATOM     25  H6  UNL     1       2.516  -2.783   0.539  1.00  0.00     0.210 HD
ENDBRANCH  19  24
ENDBRANCH  12  13
ENDBRANCH  11  12
TORSDOF 5
