REMARK  4 active torsions:
REMARK  status: ('A' for Active; 'I' for Inactive)
REMARK    1  A    between atoms: C2_2  and  O1_3 
REMARK    2  A    between atoms: O1_3  and  C3_4 
REMARK    3  A    between atoms: C3_4  and  C4_6 
REMARK    4  A    between atoms: C4_6  and  C5_7 
ROOT
HETATM    1  C5  UNL     1       0.217  -0.699   0.326  1.00  0.00     0.142 C 
HETATM    2  O3  UNL     1      -0.279   0.372   1.081  1.00  0.00    -0.358 OA
HETATM    3  C6  UNL     1      -1.570  -0.041   1.403  1.00  0.00     0.249 C 
HETATM    4  N1  UNL     1      -2.335   0.998   2.039  1.00  0.00    -0.274 N 
ATOM      5  H1  UNL     1      -2.886   0.881   2.889  1.00  0.00     0.176 HD
HETATM    6  S1  UNL     1      -2.181   2.493   1.139  1.00  0.00     0.322 S 
HETATM    7  O4  UNL     1      -3.405   3.292   1.401  1.00  0.00    -0.182 OA
HETATM    8  O5  UNL     1      -0.913   3.189   1.440  1.00  0.00    -0.182 OA
HETATM    9  N2  UNL     1      -2.258   1.970  -0.530  1.00  0.00    -0.256 N 
ATOM     10  H2  UNL     1      -2.075   2.618  -1.296  1.00  0.00     0.181 HD
HETATM   11  C7  UNL     1      -2.587   0.599  -0.779  1.00  0.00     0.099 C 
HETATM   12  N3  UNL     1      -3.334   0.300  -1.799  1.00  0.00    -0.388 N 
ATOM     13  H31 UNL     1      -3.568  -0.677  -1.976  1.00  0.00     0.157 HD
ATOM     14  H32 UNL     1      -3.665   1.058  -2.395  1.00  0.00     0.157 HD
HETATM   15  C8  UNL     1      -2.105  -0.506   0.090  1.00  0.00     0.069 C 
HETATM   16  C9  UNL     1      -3.294  -1.444   0.258  1.00  0.00     0.029 C 
HETATM   17  C10 UNL     1      -0.910  -1.235  -0.473  1.00  0.00    -0.002 C 
HETATM   18  C11 UNL     1      -0.747  -1.105  -1.954  1.00  0.00     0.019 C 
HETATM   19  C12 UNL     1      -1.041  -2.737  -0.178  1.00  0.00     0.019 C 
ENDROOT
BRANCH   1  20
HETATM   20  C4  UNL     1       1.393  -0.239  -0.502  1.00  0.00     0.143 C 
BRANCH  20  21
HETATM   21  C3  UNL     1       2.492   0.279   0.381  1.00  0.00     0.261 C 
HETATM   22  O2  UNL     1       2.368   0.293   1.645  1.00  0.00    -0.265 OA
BRANCH  21  23
HETATM   23  O1  UNL     1       3.679   0.760  -0.134  1.00  0.00    -0.322 OA
BRANCH  23  24
HETATM   24  C2  UNL     1       4.715   1.248   0.699  1.00  0.00     0.174 C 
HETATM   25  C1  UNL     1       5.844   1.682  -0.232  1.00  0.00     0.034 C 
ENDBRANCH  23  24
ENDBRANCH  21  23
ENDBRANCH  20  21
ENDBRANCH   1  20
TORSDOF 4
