REMARK  8 active torsions:
REMARK  status: ('A' for Active; 'I' for Inactive)
REMARK    1  A    between atoms: N1_1  and  N2_4 
REMARK    2  A    between atoms: N2_4  and  N3_5 
REMARK    3  A    between atoms: N3_5  and  C1_7 
REMARK    4  A    between atoms: C2_11  and  C3_12 
REMARK    5  A    between atoms: C3_12  and  O1_13 
REMARK    6  A    between atoms: C4_16  and  C5_17 
REMARK    7  A    between atoms: C13_25  and  O3_26 
REMARK    8  A    between atoms: C15_29  and  O4_30 
ROOT
HETATM    1  C1  UNL     1       2.940   0.737   0.964  1.00  0.00     0.346 C 
HETATM    2  N4  UNL     1       3.501  -0.239   0.091  1.00  0.00    -0.021 N 
ATOM      3  H41 UNL     1       4.411  -0.567   0.416  1.00  0.00     0.283 HD
ATOM      4  H42 UNL     1       3.799   0.166  -0.797  1.00  0.00     0.283 HD
HETATM    5  C2  UNL     1       2.562  -1.329  -0.094  1.00  0.00     0.347 C 
HETATM    6  O2  UNL     1       1.359  -0.890  -0.641  1.00  0.00    -0.348 OA
HETATM    7  C4  UNL     1       0.760  -0.079   0.350  1.00  0.00     0.168 C 
HETATM    8  C15 UNL     1       1.585   1.176   0.378  1.00  0.00     0.200 C 
ENDROOT
BRANCH   7   9
HETATM    9  C5  UNL     1      -0.699   0.105   0.114  1.00  0.00     0.015 C 
HETATM   10  C6  UNL     1      -1.273   0.966   1.208  1.00  0.00     0.019 C 
HETATM   11  C7  UNL     1      -2.779   1.112   1.102  1.00  0.00    -0.013 C 
HETATM   12  C8  UNL     1      -3.060   1.747  -0.240  1.00  0.00     0.009 C 
HETATM   13  C12 UNL     1      -3.408  -0.228   1.275  1.00  0.00     0.012 C 
HETATM   14  C9  UNL     1      -2.565   0.797  -1.308  1.00  0.00    -0.013 C 
HETATM   15  C10 UNL     1      -3.286  -0.509  -1.149  1.00  0.00     0.012 C 
HETATM   16  C14 UNL     1      -1.062   0.651  -1.220  1.00  0.00     0.019 C 
HETATM   17  C11 UNL     1      -2.882  -1.127   0.176  1.00  0.00     0.016 C 
HETATM   18  C13 UNL     1      -1.393  -1.262   0.229  1.00  0.00     0.133 C 
BRANCH  18  19
HETATM   19  O3  UNL     1      -1.036  -1.917   1.392  1.00  0.00    -0.394 OA
ATOM     20  H3  UNL     1      -1.465  -2.762   1.463  1.00  0.00     0.210 HD
ENDBRANCH  18  19
ENDBRANCH   7   9
BRANCH   8  21
HETATM   21  O4  UNL     1       1.766   1.595  -0.945  1.00  0.00    -0.389 OA
ATOM     22  H4  UNL     1       0.930   1.866  -1.306  1.00  0.00     0.210 HD
ENDBRANCH   8  21
BRANCH   5  23
HETATM   23  C3  UNL     1       3.219  -2.383  -0.959  1.00  0.00     0.225 C 
BRANCH  23  24
HETATM   24  O1  UNL     1       3.549  -1.797  -2.199  1.00  0.00    -0.397 OA
ATOM     25  H1  UNL     1       3.961  -2.459  -2.742  1.00  0.00     0.209 HD
ENDBRANCH  23  24
ENDBRANCH   5  23
BRANCH   1  26
HETATM   26  N3  UNL     1       3.771   1.828   1.288  1.00  0.00    -0.218 N 
ATOM     27  H3  UNL     1       3.660   2.227   2.220  1.00  0.00     0.199 HD
BRANCH  26  28
HETATM   28  N2  UNL     1       4.607   2.343   0.571  1.00  0.00    -0.246 NA
BRANCH  28  29
HETATM   29  N1  UNL     1       5.332   2.758  -0.302  1.00  0.00    -0.261 N 
ATOM     30  H12 UNL     1       4.761   2.259  -0.984  1.00  0.00     0.193 HD
ATOM     31  H11 UNL     1       6.033   3.190  -0.904  1.00  0.00     0.193 HD
ENDBRANCH  28  29
ENDBRANCH  26  28
ENDBRANCH   1  26
TORSDOF 8
