REMARK  8 active torsions:
REMARK  status: ('A' for Active; 'I' for Inactive)
REMARK    1  A    between atoms: C2_2  and  C3_3 
REMARK    2  A    between atoms: C4_4  and  O1_5 
REMARK    3  A    between atoms: C6_9  and  C7_10 
REMARK    4  A    between atoms: C7_10  and  N2_11 
REMARK    5  A    between atoms: N2_11  and  N3_13 
REMARK    6  A    between atoms: N3_13  and  N4_14 
REMARK    7  A    between atoms: C13_23  and  O2_24 
REMARK    8  A    between atoms: C14_26  and  O3_27 
ROOT
HETATM    1  C3  UNL     1       2.160  -0.394   0.290  1.00  0.00     0.047 C 
HETATM    2  C4  UNL     1       1.406  -0.460   1.596  1.00  0.00     0.153 C 
HETATM    3  C5  UNL     1      -0.036  -0.944   1.359  1.00  0.00     0.308 C 
HETATM    4  N1  UNL     1      -0.373  -0.543   0.039  1.00  0.00     0.136 N 
HETATM    5  C6  UNL     1      -1.613  -0.965  -0.496  1.00  0.00     0.477 C 
HETATM    6  N5  UNL     1      -2.521   0.163  -0.377  1.00  0.00     0.131 N 
HETATM    7  C8  UNL     1      -3.595   0.100  -1.324  1.00  0.00     0.314 C 
HETATM    8  C9  UNL     1      -1.681   1.340  -0.530  1.00  0.00     0.188 C 
HETATM    9  C10 UNL     1      -2.209   2.368   0.461  1.00  0.00     0.051 C 
HETATM   10  C11 UNL     1      -1.725   1.950  -1.883  1.00  0.00     0.051 C 
HETATM   11  C12 UNL     1      -0.327   0.908  -0.071  1.00  0.00     0.294 C 
HETATM   12  C13 UNL     1       0.800   1.290  -0.976  1.00  0.00     0.183 C 
HETATM   13  C14 UNL     1       2.130   0.977  -0.331  1.00  0.00     0.155 C 
ENDROOT
BRANCH   5  14
HETATM   14  C7  UNL     1      -2.243  -2.174   0.090  1.00  0.00     0.224 C 
BRANCH  14  15
HETATM   15  N2  UNL     1      -1.467  -3.385  -0.016  1.00  0.00    -0.249 N 
ATOM     16  H2  UNL     1      -0.657  -3.437  -0.633  1.00  0.00     0.197 HD
BRANCH  15  17
HETATM   17  N3  UNL     1      -1.809  -4.346   0.655  1.00  0.00    -0.248 NA
BRANCH  17  18
HETATM   18  N4  UNL     1      -1.879  -5.260   1.500  1.00  0.00    -0.261 N 
ATOM     19  H42 UNL     1      -1.002  -4.994   1.948  1.00  0.00     0.193 HD
ATOM     20  H41 UNL     1      -2.165  -6.063   2.061  1.00  0.00     0.193 HD
ENDBRANCH  17  18
ENDBRANCH  15  17
ENDBRANCH  14  15
ENDBRANCH   5  14
BRANCH   2  21
HETATM   21  O1  UNL     1       2.052  -1.446   2.370  1.00  0.00    -0.393 OA
ATOM     22  H1  UNL     1       1.577  -1.488   3.192  1.00  0.00     0.210 HD
ENDBRANCH   2  21
BRANCH  12  23
HETATM   23  O2  UNL     1       0.786   2.691  -1.164  1.00  0.00    -0.391 OA
ATOM     24  H2  UNL     1       1.502   2.934  -1.739  1.00  0.00     0.210 HD
ENDBRANCH  12  23
BRANCH   1  25
HETATM   25  C2  UNL     1       3.584  -0.905   0.450  1.00  0.00     0.005 C 
HETATM   26  C1  UNL     1       4.357  -0.094   1.460  1.00  0.00     0.005 C 
ENDBRANCH   1  25
BRANCH  13  27
HETATM   27  O3  UNL     1       3.077   0.969  -1.369  1.00  0.00    -0.392 OA
ATOM     28  H3  UNL     1       3.058   1.834  -1.761  1.00  0.00     0.210 HD
ENDBRANCH  13  27
TORSDOF 8
