REMARK  1 active torsions:
REMARK  status: ('A' for Active; 'I' for Inactive)
REMARK    1  A    between atoms: C2_2  and  N1_3 
ROOT
HETATM    1  C1  UNL     1      -1.985  -0.618   0.613  1.00  0.00     0.037 C 
HETATM    2  C2  UNL     1      -0.806   0.055  -0.107  1.00  0.00     0.066 C 
HETATM    3  C3  UNL     1       0.003  -1.063  -0.676  1.00  0.00     0.031 C 
HETATM    4  C4  UNL     1       1.449  -0.757  -0.865  1.00  0.00     0.029 C 
HETATM    5  C5  UNL     1       2.029   0.138   0.192  1.00  0.00     0.232 C 
HETATM    6  N2  UNL     1       1.121   0.181   1.335  1.00  0.00    -0.073 N 
ATOM      7  H21 UNL     1       1.539   0.562   2.184  1.00  0.00     0.277 HD
ATOM      8  H22 UNL     1       0.895  -0.736   1.721  1.00  0.00     0.277 HD
HETATM    9  C6  UNL     1      -0.042   0.929   0.856  1.00  0.00     0.259 C 
ENDROOT
BRANCH   2  10
HETATM   10  N1  UNL     1      -1.426   0.845  -1.164  1.00  0.00    -0.131 NA
HETATM   11 CL1  UNL     1      -2.509   2.024  -0.555  1.00  0.00    -0.003 Cl
ENDBRANCH   2  10
TORSDOF 1
