REMARK  1 active torsions:
REMARK  status: ('A' for Active; 'I' for Inactive)
REMARK    1  A    between atoms: C5_6  and  C6_7 
ROOT
HETATM    1  F1  UNL     1      -2.019   1.904  -0.542  1.00  0.00    -0.219 F 
HETATM    2  C1  UNL     1      -1.855   1.204   0.642  1.00  0.00     0.368 C 
HETATM    3  C2  UNL     1      -2.708  -0.035   0.608  1.00  0.00     0.067 C 
HETATM    4  C3  UNL     1      -2.153  -1.161  -0.161  1.00  0.00     0.007 C 
HETATM    5  C4  UNL     1      -0.713  -1.160  -0.447  1.00  0.00     0.035 C 
HETATM    6  C5  UNL     1      -0.021   0.147  -0.290  1.00  0.00     0.219 C 
HETATM    7  N2  UNL     1      -0.456   0.882   0.891  1.00  0.00    -0.038 N 
ATOM      8  H21 UNL     1      -0.296   0.386   1.768  1.00  0.00     0.281 HD
ATOM      9  H22 UNL     1       0.122   1.694   1.108  1.00  0.00     0.281 HD
ENDROOT
BRANCH   6  10
HETATM   10  C6  UNL     1       1.469   0.049  -0.233  1.00  0.00     0.218 C 
HETATM   11  C7  UNL     1       2.053  -0.771   0.879  1.00  0.00     0.062 C 
HETATM   12  C8  UNL     1       3.159   0.291   0.830  1.00  0.00     0.235 C 
HETATM   13  N1  UNL     1       2.128   1.211   0.339  1.00  0.00    -0.069 N 
ATOM     14  H12 UNL     1       2.369   2.019  -0.235  1.00  0.00     0.277 HD
ATOM     15  H11 UNL     1       1.635   1.841   0.972  1.00  0.00     0.277 HD
ENDBRANCH   6  10
TORSDOF 1
