REMARK  1 active torsions:
REMARK  status: ('A' for Active; 'I' for Inactive)
REMARK    1  A    between atoms: C3_3  and  C4_4 
ROOT
HETATM    1  C4  UNL     1      -0.210  -1.064   0.759  1.00  0.00     0.216 C 
HETATM    2  C5  UNL     1      -1.172   0.006   1.136  1.00  0.00     0.092 C 
HETATM    3  C6  UNL     1      -1.730   0.443  -0.148  1.00  0.00     0.028 C 
HETATM    4  N1  UNL     1      -2.338   1.547  -0.359  1.00  0.00    -0.403 N 
ATOM      5  H11 UNL     1      -2.726   1.851  -1.252  1.00  0.00     0.155 HD
ATOM      6  H12 UNL     1      -2.521   2.277   0.330  1.00  0.00     0.155 HD
HETATM    7  C7  UNL     1      -1.466  -0.612  -1.143  1.00  0.00     0.326 C 
HETATM    8 CL1  UNL     1      -3.044  -1.309  -1.646  1.00  0.00    -0.088 Cl
HETATM    9  N2  UNL     1      -0.713  -1.616  -0.454  1.00  0.00    -0.045 N 
ATOM     10  H21 UNL     1      -1.251  -2.469  -0.300  1.00  0.00     0.280 HD
ATOM     11  H22 UNL     1       0.024  -2.016  -1.034  1.00  0.00     0.280 HD
ENDROOT
BRANCH   1  12
HETATM   12  C3  UNL     1       1.180  -0.596   0.567  1.00  0.00     0.002 C 
HETATM   13  C2  UNL     1       1.527   0.626   0.255  1.00  0.00    -0.033 C 
HETATM   14  C1  UNL     1       2.935   1.015   0.081  1.00  0.00     0.036 C 
ENDBRANCH   1  12
TORSDOF 1
