REMARK  2 active torsions:
REMARK  status: ('A' for Active; 'I' for Inactive)
REMARK    1  A    between atoms: C2_2  and  C3_3 
REMARK    2  A    between atoms: C3_3  and  N1_4 
ROOT
HETATM    1  N1  UNL     1       1.118   0.457   1.077  1.00  0.00    -0.358 N 
ATOM      2  H1  UNL     1       1.491   1.023   1.839  1.00  0.00     0.162 HD
HETATM    3  C4  UNL     1      -0.152   0.491   0.878  1.00  0.00     0.192 A 
HETATM    4  N2  UNL     1      -1.044   1.263   1.652  1.00  0.00    -0.274 N 
ATOM      5  H2  UNL     1      -0.769   1.859   2.433  1.00  0.00     0.189 HD
HETATM    6  N3  UNL     1      -2.212   1.115   1.250  1.00  0.00    -0.305 N 
ATOM      7  H3  UNL     1      -3.022   1.579   1.662  1.00  0.00     0.183 HD
HETATM    8  C5  UNL     1      -2.280   0.227   0.154  1.00  0.00     0.120 A 
HETATM    9  C6  UNL     1      -3.408  -0.738   0.012  1.00  0.00     0.059 A 
HETATM   10  C7  UNL     1      -3.265   0.382  -0.942  1.00  0.00     0.059 A 
HETATM   11  N4  UNL     1      -0.934  -0.183  -0.092  1.00  0.00    -0.333 N 
ATOM     12  H4  UNL     1      -0.606  -0.825  -0.813  1.00  0.00     0.165 HD
ENDROOT
BRANCH   1  13
HETATM   13  C3  UNL     1       2.051  -0.317   0.309  1.00  0.00     0.149 C 
BRANCH  13  14
HETATM   14  C2  UNL     1       3.337   0.403   0.084  1.00  0.00    -0.018 C 
HETATM   15  C1  UNL     1       4.477  -0.105   0.518  1.00  0.00     0.008 C 
ENDBRANCH  13  14
ENDBRANCH   1  13
TORSDOF 2
