REMARK  4 active torsions:
REMARK  status: ('A' for Active; 'I' for Inactive)
REMARK    1  A    between atoms: C2_2  and  N1_5 
REMARK    2  A    between atoms: N1_5  and  C5_7 
REMARK    3  A    between atoms: C5_7  and  N2_9 
REMARK    4  A    between atoms: N2_9  and  C6_11 
ROOT
HETATM    1  C5  UNL     1      -1.007  -0.258  -1.117  1.00  0.00     0.168 C 
HETATM    2  S1  UNL     1      -2.097  -0.095  -2.359  1.00  0.00    -0.041 SA
ENDROOT
BRANCH   1   3
HETATM    3  N1  UNL     1      -1.446  -0.190   0.228  1.00  0.00    -0.359 N 
ATOM      4  H1  UNL     1      -0.757  -0.295   0.973  1.00  0.00     0.162 HD
BRANCH   3   5
HETATM    5  C2  UNL     1      -2.832   0.023   0.589  1.00  0.00     0.021 C 
HETATM    6  C1  UNL     1      -3.290   1.346   0.024  1.00  0.00     0.037 C 
HETATM    7  C3  UNL     1      -2.993   0.083   2.090  1.00  0.00     0.037 C 
HETATM    8  C4  UNL     1      -3.735  -1.055   0.050  1.00  0.00     0.037 C 
ENDBRANCH   3   5
ENDBRANCH   1   3
BRANCH   1   9
HETATM    9  N2  UNL     1       0.347  -0.462  -1.496  1.00  0.00    -0.363 N 
ATOM     10  H2  UNL     1       0.588  -0.505  -2.486  1.00  0.00     0.162 HD
BRANCH   9  11
HETATM   11  C6  UNL     1       1.388  -0.609  -0.506  1.00  0.00     0.083 C 
HETATM   12  C7  UNL     1       1.610   0.629   0.329  1.00  0.00     0.025 C 
HETATM   13  C8  UNL     1       2.879   1.354  -0.041  1.00  0.00     0.002 C 
HETATM   14  C9  UNL     1       4.092   0.491  -0.039  1.00  0.00     0.000 C 
HETATM   15  C10 UNL     1       3.774  -0.965  -0.190  1.00  0.00     0.002 C 
HETATM   16  C11 UNL     1       2.635  -1.087  -1.181  1.00  0.00     0.025 C 
ENDBRANCH   9  11
ENDBRANCH   1   9
TORSDOF 4
