REMARK  4 active torsions:
REMARK  status: ('A' for Active; 'I' for Inactive)
REMARK    1  A    between atoms: C6_7  and  N1_8 
REMARK    2  A    between atoms: N1_8  and  C7_10 
REMARK    3  A    between atoms: C7_10  and  N2_12 
REMARK    4  A    between atoms: N2_12  and  C8_14 
ROOT
HETATM    1  N1  UNL     1      -0.008   1.083  -0.268  1.00  0.00    -0.363 N 
ATOM      2  H1  UNL     1       0.065   2.025   0.117  1.00  0.00     0.162 HD
ENDROOT
BRANCH   1   3
HETATM    3  C6  UNL     1      -1.263   0.610  -0.817  1.00  0.00     0.086 C 
HETATM    4  C5  UNL     1      -2.261   1.733  -0.703  1.00  0.00     0.062 C 
HETATM    5  C4  UNL     1      -3.638   1.362  -1.143  1.00  0.00     0.172 C 
HETATM    6  C3  UNL     1      -3.934  -0.087  -0.744  1.00  0.00     0.041 C 
HETATM    7  F1  UNL     1      -4.531   2.135  -0.389  1.00  0.00    -0.249 F 
HETATM    8  C2  UNL     1      -3.091  -0.359   0.485  1.00  0.00    -0.014 C 
HETATM    9  C1  UNL     1      -3.617  -1.548   1.257  1.00  0.00     0.010 C 
HETATM   10  C12 UNL     1      -1.675  -0.598  -0.002  1.00  0.00     0.029 C 
ENDBRANCH   1   3
BRANCH   1  11
HETATM   11  C7  UNL     1       1.114   0.224  -0.272  1.00  0.00     0.168 C 
HETATM   12  S1  UNL     1       0.969  -1.269  -0.896  1.00  0.00    -0.041 SA
BRANCH  11  13
HETATM   13  N2  UNL     1       2.336   0.710   0.274  1.00  0.00    -0.359 N 
ATOM     14  H2  UNL     1       2.383   1.656   0.654  1.00  0.00     0.162 HD
BRANCH  13  15
HETATM   15  C8  UNL     1       3.513  -0.135   0.292  1.00  0.00     0.021 C 
HETATM   16  C9  UNL     1       3.837  -0.508  -1.131  1.00  0.00     0.037 C 
HETATM   17  C10 UNL     1       3.261  -1.379   1.105  1.00  0.00     0.037 C 
HETATM   18  C11 UNL     1       4.696   0.590   0.912  1.00  0.00     0.037 C 
ENDBRANCH  13  15
ENDBRANCH  11  13
ENDBRANCH   1  11
TORSDOF 4
