REMARK  3 active torsions:
REMARK  status: ('A' for Active; 'I' for Inactive)
REMARK    1  A    between atoms: C2_2  and  C3_4 
REMARK    2  A    between atoms: C3_4  and  N2_8 
REMARK    3  A    between atoms: N2_8  and  C4_10 
ROOT
HETATM    1  C4  UNL     1       0.302   0.094  -0.300  1.00  0.00     0.091 C 
HETATM    2  C5  UNL     1      -0.311   0.014   1.065  1.00  0.00     0.009 C 
HETATM    3  C6  UNL     1      -1.216  -1.167   1.253  1.00  0.00     0.011 C 
HETATM    4  C7  UNL     1      -2.308  -1.173   0.216  1.00  0.00    -0.013 C 
HETATM    5  C8  UNL     1      -3.155   0.068   0.344  1.00  0.00     0.009 C 
HETATM    6  C9  UNL     1      -2.254   1.263   0.147  1.00  0.00    -0.013 C 
HETATM    7  C10 UNL     1      -1.189   1.249   1.230  1.00  0.00     0.011 C 
HETATM    8  C11 UNL     1      -1.628   1.235  -1.237  1.00  0.00     0.011 C 
HETATM    9  C12 UNL     1      -0.764  -0.003  -1.337  1.00  0.00     0.009 C 
HETATM   10  C13 UNL     1      -1.666  -1.202  -1.142  1.00  0.00     0.011 C 
ENDROOT
BRANCH   1  11
HETATM   11  N2  UNL     1       1.359  -0.831  -0.535  1.00  0.00    -0.373 N 
ATOM     12  H2  UNL     1       1.234  -1.498  -1.296  1.00  0.00     0.161 HD
BRANCH  11  13
HETATM   13  C3  UNL     1       2.564  -0.904   0.194  1.00  0.00     0.089 C 
HETATM   14  N1  UNL     1       2.568  -1.569   1.286  1.00  0.00    -0.388 N 
ATOM     15  H12 UNL     1       3.440  -1.622   1.813  1.00  0.00     0.157 HD
ATOM     16  H11 UNL     1       1.709  -2.024   1.596  1.00  0.00     0.157 HD
BRANCH  13  17
HETATM   17  C2  UNL     1       3.810  -0.244  -0.256  1.00  0.00     0.145 C 
HETATM   18  C1  UNL     1       3.646   1.262  -0.385  1.00  0.00     0.034 C 
HETATM   19 CL1  UNL     1       4.320  -0.892  -1.853  1.00  0.00    -0.117 Cl
ENDBRANCH  13  17
ENDBRANCH  11  13
ENDBRANCH   1  11
TORSDOF 3
