REMARK  2 active torsions:
REMARK  status: ('A' for Active; 'I' for Inactive)
REMARK    1  A    between atoms: C5_6  and  C6_7 
REMARK    2  A    between atoms: C6_7  and  O2_10 
ROOT
HETATM    1  C1  UNL     1      -2.320   0.590  -1.410  1.00  0.00     0.078 C 
HETATM    2  C2  UNL     1      -1.774   0.146  -0.080  1.00  0.00     0.157 C 
HETATM    3  C3  UNL     1      -2.922  -0.473   0.700  1.00  0.00     0.078 C 
HETATM    4  O1  UNL     1      -1.333   1.236   0.619  1.00  0.00    -0.353 OA
HETATM    5  C4  UNL     1      -0.006   1.014   0.981  1.00  0.00     0.206 C 
HETATM    6  C5  UNL     1       0.286  -0.393   0.598  1.00  0.00     0.182 C 
HETATM    7  O3  UNL     1      -0.723  -0.729  -0.259  1.00  0.00    -0.345 OA
ENDROOT
BRANCH   6   8
HETATM    8  C6  UNL     1       1.666  -0.584   0.019  1.00  0.00     0.079 C 
HETATM    9  C7  UNL     1       2.733  -0.215   1.028  1.00  0.00     0.048 C 
HETATM   10  C8  UNL     1       1.900   0.239  -1.213  1.00  0.00     0.048 C 
BRANCH   8  11
HETATM   11  O2  UNL     1       1.848  -1.921  -0.326  1.00  0.00    -0.388 OA
ATOM     12  H2  UNL     1       2.717  -2.041  -0.691  1.00  0.00     0.210 HD
ENDBRANCH   8  11
ENDBRANCH   6   8
TORSDOF 2
