REMARK  5 active torsions:
REMARK  status: ('A' for Active; 'I' for Inactive)
REMARK    1  A    between atoms: C2_2  and  O1_3 
REMARK    2  A    between atoms: C2_2  and  C3_5 
REMARK    3  A    between atoms: C3_5  and  O3_7 
REMARK    4  A    between atoms: O3_7  and  C4_8 
REMARK    5  A    between atoms: C9_14  and  O5_15 
ROOT
HETATM    1  C4  UNL     1       0.664   0.648  -0.448  1.00  0.00     0.189 C 
HETATM    2  C5  UNL     1      -0.514   0.451   0.498  1.00  0.00     0.093 C 
HETATM    3  C6  UNL     1      -0.750  -0.999   0.844  1.00  0.00     0.068 C 
HETATM    4  C7  UNL     1       0.351  -1.607   1.652  1.00  0.00     0.046 C 
HETATM    5  C8  UNL     1      -2.012  -1.039   1.687  1.00  0.00     0.046 C 
HETATM    6  O4  UNL     1      -1.042  -1.763  -0.311  1.00  0.00    -0.326 OA
HETATM    7  C9  UNL     1      -0.210  -1.427  -1.332  1.00  0.00     0.306 C 
HETATM    8  N1  UNL     1      -0.721  -1.269  -2.650  1.00  0.00    -0.027 NA
HETATM    9  O6  UNL     1      -0.075  -0.051  -2.720  1.00  0.00    -0.257 OA
HETATM   10  C10 UNL     1      -0.226   0.071  -1.441  1.00  0.00     0.220 C 
HETATM   11  C11 UNL     1      -1.355   0.742  -0.764  1.00  0.00     0.142 C 
HETATM   12  C12 UNL     1      -1.574   2.179  -1.044  1.00  0.00     0.211 C 
HETATM   13  O7  UNL     1      -2.266   2.731   0.044  1.00  0.00    -0.380 OA
HETATM   14  C13 UNL     1      -3.543   2.222   0.116  1.00  0.00     0.251 C 
HETATM   15  C14 UNL     1      -3.708   0.925  -0.594  1.00  0.00     0.136 C 
HETATM   16  N2  UNL     1      -4.877   0.590  -1.034  1.00  0.00    -0.382 N 
ATOM     17  H21 UNL     1      -4.990  -0.299  -1.521  1.00  0.00     0.158 HD
ATOM     18  H22 UNL     1      -5.686   1.198  -0.904  1.00  0.00     0.158 HD
HETATM   19  O8  UNL     1      -2.605   0.096  -0.771  1.00  0.00    -0.320 OA
ENDROOT
BRANCH   1  20
HETATM   20  O3  UNL     1       1.808  -0.080  -0.204  1.00  0.00    -0.310 OA
BRANCH  20  21
HETATM   21  C3  UNL     1       3.032   0.546  -0.041  1.00  0.00     0.287 C 
HETATM   22  O2  UNL     1       3.027   1.800  -0.128  1.00  0.00    -0.262 OA
BRANCH  21  23
HETATM   23  C2  UNL     1       4.298  -0.203   0.225  1.00  0.00     0.213 C 
HETATM   24  C1  UNL     1       4.191  -0.966   1.498  1.00  0.00     0.050 C 
BRANCH  23  25
HETATM   25  O1  UNL     1       5.357   0.686   0.337  1.00  0.00    -0.386 OA
ATOM     26  H1  UNL     1       5.425   1.173  -0.476  1.00  0.00     0.210 HD
ENDBRANCH  23  25
ENDBRANCH  21  23
ENDBRANCH  20  21
ENDBRANCH   1  20
BRANCH   7  27
HETATM   27  O5  UNL     1       1.049  -2.019  -1.356  1.00  0.00    -0.348 OA
ATOM     28  H5  UNL     1       1.630  -1.784  -2.070  1.00  0.00     0.214 HD
ENDBRANCH   7  27
TORSDOF 5
