REMARK  2 active torsions:
REMARK  status: ('A' for Active; 'I' for Inactive)
REMARK    1  A    between atoms: N2_5  and  N3_6 
REMARK    2  A    between atoms: N9_24  and  C9_25 
ROOT
HETATM    1  N3  UNL     1      -1.674   2.500  -0.146  1.00  0.00    -0.215 N 
ATOM      2  H3  UNL     1      -1.100   3.006  -0.820  1.00  0.00     0.201 HD
HETATM    3  C3  UNL     1      -2.452   3.195   0.774  1.00  0.00     0.199 C 
HETATM    4  N4  UNL     1      -3.115   3.760   1.536  1.00  0.00    -0.170 NA
ENDROOT
BRANCH   1   5
HETATM    5  N2  UNL     1      -1.685   1.126  -0.139  1.00  0.00    -0.161 N 
HETATM    6  N1  UNL     1      -2.905   0.450  -0.089  1.00  0.00    -0.280 N 
HETATM    7  C2  UNL     1      -2.998  -0.777   0.255  1.00  0.00     0.067 C 
ATOM      8  H1  UNL     1      -3.756   0.955  -0.337  1.00  0.00     0.188 HD
HETATM    9  C1  UNL     1      -4.291  -1.516   0.314  1.00  0.00     0.074 C 
HETATM   10  C5  UNL     1      -1.800  -1.521   0.616  1.00  0.00     0.122 C 
HETATM   11  N5  UNL     1      -0.528  -0.840   0.572  1.00  0.00    -0.318 N 
HETATM   12  N6  UNL     1      -1.861  -2.760   0.967  1.00  0.00    -0.384 N 
HETATM   13  C4  UNL     1      -0.459   0.400  -0.180  1.00  0.00     0.295 C 
ATOM     14  H5  UNL     1       0.291  -1.215   1.051  1.00  0.00     0.166 HD
HETATM   15  N7  UNL     1      -0.020   0.181  -1.542  1.00  0.00    -0.301 N 
HETATM   16  S1  UNL     1       0.906   1.356   0.603  1.00  0.00     0.028 SA
HETATM   17  C6  UNL     1       1.343   0.355  -1.918  1.00  0.00     0.259 C 
ATOM     18  H7  UNL     1      -0.700  -0.104  -2.247  1.00  0.00     0.167 HD
HETATM   19  O1  UNL     1       1.625   0.905  -3.038  1.00  0.00    -0.270 OA
HETATM   20  C7  UNL     1       2.461  -0.086  -1.047  1.00  0.00     0.292 C 
HETATM   21  C8  UNL     1       2.483  -1.565  -1.139  1.00  0.00     0.095 C 
HETATM   22  N9  UNL     1       2.309   0.400   0.256  1.00  0.00    -0.294 N 
HETATM   23  N8  UNL     1       2.481  -2.722  -1.222  1.00  0.00    -0.195 NA
ATOM     24  H62 UNL     1      -2.760  -3.241   0.998  1.00  0.00     0.157 HD
ATOM     25  H61 UNL     1      -1.022  -3.281   1.220  1.00  0.00     0.157 HD
BRANCH  22  26
HETATM   26  C9  UNL     1       3.456   0.645   1.034  1.00  0.00     0.307 C 
HETATM   27  C10 UNL     1       4.185  -0.602   1.253  1.00  0.00     0.100 C 
HETATM   28  N10 UNL     1       4.785  -1.597   1.444  1.00  0.00    -0.194 NA
HETATM   29  C11 UNL     1       4.306   1.667   0.420  1.00  0.00     0.100 C 
HETATM   30  N11 UNL     1       4.966   2.495  -0.066  1.00  0.00    -0.194 NA
ENDBRANCH  22  26
ENDBRANCH   1   5
TORSDOF 2
