REMARK  5 active torsions:
REMARK  status: ('A' for Active; 'I' for Inactive)
REMARK    1  A    between atoms: O1_2  and  C2_3 
REMARK    2  A    between atoms: C2_3  and  C3_5 
REMARK    3  A    between atoms: C4_6  and  O3_7 
REMARK    4  A    between atoms: C5_9  and  O4_10 
REMARK    5  A    between atoms: C6_12  and  O5_13 
ROOT
HETATM    1  C3  UNL     1      -1.530   0.241  -0.437  1.00  0.00     0.089 A 
HETATM    2  C4  UNL     1      -2.537   1.241  -0.477  1.00  0.00     0.119 A 
HETATM    3  C5  UNL     1      -2.344   2.531  -0.105  1.00  0.00     0.134 A 
HETATM    4  C6  UNL     1      -1.107   2.880   0.333  1.00  0.00     0.117 A 
HETATM    5  C7  UNL     1      -0.084   1.971   0.386  1.00  0.00     0.065 A 
HETATM    6  C8  UNL     1      -0.278   0.629  -0.017  1.00  0.00     0.028 A 
HETATM    7  C9  UNL     1       0.982  -0.078   0.120  1.00  0.00     0.070 A 
HETATM    8  C10 UNL     1       1.917   0.808   0.679  1.00  0.00     0.111 A 
HETATM    9  C11 UNL     1       3.211   0.425   0.903  1.00  0.00     0.267 A 
HETATM   10  O6  UNL     1       4.002   1.265   1.411  1.00  0.00    -0.267 OA
HETATM   11  N1  UNL     1       3.571  -0.812   0.576  1.00  0.00    -0.270 N 
HETATM   12  C12 UNL     1       4.920  -1.246   0.824  1.00  0.00     0.164 C 
HETATM   13  C13 UNL     1       2.684  -1.665   0.024  1.00  0.00     0.331 A 
HETATM   14  O7  UNL     1       3.080  -2.818  -0.268  1.00  0.00    -0.246 OA
HETATM   15  N2  UNL     1       1.408  -1.297  -0.210  1.00  0.00    -0.302 N 
HETATM   16  C14 UNL     1       0.807  -2.094  -1.276  1.00  0.00     0.161 C 
HETATM   17  C15 UNL     1       1.286   2.100   0.843  1.00  0.00     0.203 A 
HETATM   18  O8  UNL     1       1.829   3.146   1.301  1.00  0.00    -0.286 OA
ENDROOT
BRANCH   1  19
HETATM   19  C2  UNL     1      -2.019  -1.123  -0.317  1.00  0.00     0.296 C 
HETATM   20  O2  UNL     1      -1.643  -2.260  -0.238  1.00  0.00    -0.259 OA
BRANCH  19  21
HETATM   21  O1  UNL     1      -3.475  -1.211  -0.266  1.00  0.00    -0.322 OA
HETATM   22  C1  UNL     1      -4.127  -2.462  -0.147  1.00  0.00     0.213 C 
ENDBRANCH  19  21
ENDBRANCH   1  19
BRANCH   2  23
HETATM   23  O3  UNL     1      -3.782   0.841  -0.933  1.00  0.00    -0.357 OA
ATOM     24  H3  UNL     1      -4.456   1.510  -0.960  1.00  0.00     0.217 HD
ENDBRANCH   2  23
BRANCH   3  25
HETATM   25  O4  UNL     1      -3.362   3.463  -0.167  1.00  0.00    -0.356 OA
ATOM     26  H4  UNL     1      -3.227   4.367   0.094  1.00  0.00     0.218 HD
ENDBRANCH   3  25
BRANCH   4  27
HETATM   27  O5  UNL     1      -0.868   4.180   0.735  1.00  0.00    -0.357 OA
ATOM     28  H5  UNL     1      -0.003   4.424   1.041  1.00  0.00     0.217 HD
ENDBRANCH   4  27
TORSDOF 5
