REMARK  10 active torsions:
REMARK  status: ('A' for Active; 'I' for Inactive)
REMARK    1  A    between atoms: C2_2  and  C3_3 
REMARK    2  A    between atoms: C4_4  and  O1_5 
REMARK    3  A    between atoms: C5_7  and  C6_8 
REMARK    4  A    between atoms: C6_8  and  N1_9 
REMARK    5  A    between atoms: C10_20  and  C11_21 
REMARK    6  A    between atoms: C12_22  and  C13_23 
REMARK    7  A    between atoms: C13_23  and  C14_24 
REMARK    8  A    between atoms: C14_24  and  N5_25 
REMARK       I    between atoms: N7_33  and  C20_35 
REMARK    9  A    between atoms: C20_35  and  C21_37 
REMARK   10  A    between atoms: C21_37  and  C22_38 
ROOT
HETATM    1  C6  UNL     1       1.377  -0.231  -1.347  1.00  0.00     0.105 C 
ENDROOT
BRANCH   1   2
HETATM    2  C5  UNL     1      -0.021  -0.330  -0.808  1.00  0.00     0.029 A 
HETATM    3  C4  UNL     1      -0.435  -1.484  -0.199  1.00  0.00     0.088 A 
HETATM    4  C3  UNL     1      -1.725  -1.528   0.261  1.00  0.00     0.020 A 
HETATM    5  C19 UNL     1      -2.595  -0.455   0.124  1.00  0.00     0.116 A 
HETATM    6  N6  UNL     1      -2.153   0.660  -0.478  1.00  0.00    -0.351 N 
HETATM    7  N7  UNL     1      -3.797  -0.542   0.573  1.00  0.00    -0.313 N 
HETATM    8  C18 UNL     1      -0.864   0.725  -0.946  1.00  0.00     0.105 A 
ATOM      9  H6  UNL     1      -2.776   1.460  -0.588  1.00  0.00     0.166 HD
HETATM   10  C20 UNL     1      -4.768   0.510   0.479  1.00  0.00     0.223 C 
ATOM     11  H7  UNL     1      -4.077  -1.413   1.024  1.00  0.00     0.170 HD
HETATM   12  O2  UNL     1      -4.563   1.564   1.119  1.00  0.00    -0.273 OA
BRANCH   3  13
HETATM   13  O1  UNL     1       0.414  -2.576  -0.048  1.00  0.00    -0.359 OA
ATOM     14  H1  UNL     1       1.308  -2.545  -0.367  1.00  0.00     0.217 HD
ENDBRANCH   3  13
BRANCH   4  15
HETATM   15  C2  UNL     1      -2.249  -2.740   0.943  1.00  0.00     0.041 C 
HETATM   16  C1  UNL     1      -2.547  -3.872  -0.012  1.00  0.00     0.010 C 
ENDBRANCH   4  15
BRANCH  10  17
HETATM   17  C21 UNL     1      -5.953   0.318  -0.353  1.00  0.00     0.111 C 
BRANCH  17  18
HETATM   18  C22 UNL     1      -7.269   0.605   0.269  1.00  0.00    -0.043 C 
HETATM   19  C23 UNL     1      -8.332   0.321  -0.805  1.00  0.00     0.015 C 
HETATM   20  C24 UNL     1      -7.592  -0.326   1.422  1.00  0.00     0.015 C 
HETATM   21  C25 UNL     1      -7.507   2.014   0.707  1.00  0.00     0.015 C 
ENDBRANCH  17  18
ENDBRANCH  10  17
ENDBRANCH   1   2
BRANCH   1  22
HETATM   22  N1  UNL     1       1.683   0.968  -1.911  1.00  0.00    -0.349 N 
HETATM   23  C7  UNL     1       2.355   1.967  -2.057  1.00  0.00     0.135 A 
HETATM   24  N2  UNL     1       2.035   2.969  -2.977  1.00  0.00    -0.283 N 
HETATM   25  C17 UNL     1       3.527   2.368  -1.418  1.00  0.00     0.075 A 
HETATM   26  N3  UNL     1       2.935   3.895  -2.899  1.00  0.00    -0.283 N 
ATOM     27  H2  UNL     1       1.230   2.970  -3.603  1.00  0.00     0.188 HD
HETATM   28  C8  UNL     1       3.859   3.588  -1.978  1.00  0.00     0.135 A 
ATOM     29  H3  UNL     1       2.941   4.745  -3.463  1.00  0.00     0.188 HD
HETATM   30  N4  UNL     1       5.002   3.996  -1.367  1.00  0.00    -0.349 N 
HETATM   31  C9  UNL     1       5.383   3.088  -0.466  1.00  0.00     0.111 A 
ATOM     32  H4  UNL     1       5.495   4.866  -1.567  1.00  0.00     0.167 HD
HETATM   33  C10 UNL     1       4.465   2.027  -0.466  1.00  0.00     0.051 A 
ATOM     34  H1  UNL     1       0.929   1.101  -2.585  1.00  0.00     0.166 HD
BRANCH  33  35
HETATM   35  C11 UNL     1       4.527   0.863   0.360  1.00  0.00    -0.064 C 
HETATM   36  C12 UNL     1       4.603  -0.112   1.058  1.00  0.00    -0.099 C 
BRANCH  36  37
HETATM   37  C13 UNL     1       4.663  -1.325   1.902  1.00  0.00     0.113 C 
BRANCH  37  38
HETATM   38  C14 UNL     1       5.812  -2.217   1.504  1.00  0.00     0.128 C 
BRANCH  38  39
HETATM   39  N5  UNL     1       7.096  -1.634   1.613  1.00  0.00    -0.420 N 
HETATM   40  C15 UNL     1       7.581  -1.345   2.911  1.00  0.00     0.142 C 
HETATM   41  C16 UNL     1       7.541  -0.790   0.568  1.00  0.00     0.142 C 
ENDBRANCH  38  39
ENDBRANCH  37  38
ENDBRANCH  36  37
ENDBRANCH  33  35
ENDBRANCH   1  22
TORSDOF 10
