REMARK  7 active torsions:
REMARK  status: ('A' for Active; 'I' for Inactive)
REMARK    1  A    between atoms: C6_8  and  C7_9 
REMARK    2  A    between atoms: C12_14  and  C13_15 
REMARK    3  A    between atoms: C12_14  and  C20_25 
REMARK       I    between atoms: C13_15  and  N2_17 
REMARK    4  A    between atoms: N2_17  and  C14_19 
REMARK    5  A    between atoms: C14_19  and  C15_20 
REMARK    6  A    between atoms: C20_25  and  O2_26 
REMARK    7  A    between atoms: C20_25  and  N3_28 
ROOT
HETATM    1  C7  UNL     1       0.874   2.420   0.374  1.00  0.00    -0.041 C 
HETATM    2  C8  UNL     1       2.194   3.029  -0.045  1.00  0.00     0.037 C 
HETATM    3  C9  UNL     1       2.541   2.587  -1.460  1.00  0.00     0.004 C 
HETATM    4  C10 UNL     1       2.491   1.123  -1.649  1.00  0.00     0.002 C 
HETATM    5  C11 UNL     1       1.165   0.565  -1.255  1.00  0.00     0.032 C 
HETATM    6  C12 UNL     1       0.731   0.941   0.112  1.00  0.00     0.129 C 
ENDROOT
BRANCH   6   7
HETATM    7  C13 UNL     1      -0.709   0.572   0.302  1.00  0.00     0.238 C 
HETATM    8  O1  UNL     1      -1.315   0.976   1.363  1.00  0.00    -0.272 OA
HETATM    9  N2  UNL     1      -1.490  -0.186  -0.589  1.00  0.00    -0.359 N 
ATOM     10  H2  UNL     1      -1.075  -0.572  -1.437  1.00  0.00     0.162 HD
BRANCH   9  11
HETATM   11  C14 UNL     1      -2.883  -0.412  -0.291  1.00  0.00     0.127 C 
BRANCH  11  12
HETATM   12  C15 UNL     1      -3.670  -1.161  -1.298  1.00  0.00     0.003 C 
HETATM   13  C16 UNL     1      -3.180  -2.553  -1.548  1.00  0.00     0.006 C 
HETATM   14  C17 UNL     1      -4.253  -3.463  -0.950  1.00  0.00     0.000 C 
HETATM   15  C18 UNL     1      -5.556  -2.677  -1.043  1.00  0.00     0.000 C 
HETATM   16  C19 UNL     1      -5.110  -1.258  -0.828  1.00  0.00     0.006 C 
ENDBRANCH  11  12
ENDBRANCH   9  11
ENDBRANCH   6   7
BRANCH   6  17
HETATM   17  C20 UNL     1       1.494   0.105   1.078  1.00  0.00     0.136 C 
BRANCH  17  18
HETATM   18  O2  UNL     1       2.073   0.881   1.993  1.00  0.00    -0.348 OA
ATOM     19  H2  UNL     1       2.560   0.347   2.610  1.00  0.00     0.219 HD
ENDBRANCH  17  18
BRANCH  17  20
HETATM   20  N3  UNL     1       1.743  -1.219   1.275  1.00  0.00    -0.359 N 
HETATM   21  C21 UNL     1       2.520  -1.539   2.539  1.00  0.00     0.131 C 
HETATM   22  C22 UNL     1       3.894  -1.953   2.134  1.00  0.00     0.079 C 
HETATM   23  C23 UNL     1       3.868  -2.878   0.996  1.00  0.00     0.039 A 
HETATM   24  N4  UNL     1       4.829  -3.649   0.479  1.00  0.00    -0.303 N 
HETATM   25  C25 UNL     1       2.733  -3.113   0.210  1.00  0.00     0.029 A 
HETATM   26  N5  UNL     1       4.348  -4.331  -0.567  1.00  0.00    -0.285 N 
ATOM     27  H4  UNL     1       5.785  -3.709   0.829  1.00  0.00     0.186 HD
HETATM   28  C24 UNL     1       3.061  -4.017  -0.750  1.00  0.00     0.123 A 
ATOM     29  H5  UNL     1       4.881  -4.989  -1.137  1.00  0.00     0.188 HD
HETATM   30  N6  UNL     1       2.290  -4.501  -1.667  1.00  0.00    -0.384 N 
ATOM     31  H62 UNL     1       2.536  -5.180  -2.388  1.00  0.00     0.157 HD
ATOM     32  H61 UNL     1       1.308  -4.262  -1.807  1.00  0.00     0.157 HD
HETATM   33  C26 UNL     1       1.442  -2.417   0.557  1.00  0.00     0.169 C 
ENDBRANCH  17  20
ENDBRANCH   6  17
BRANCH   1  34
HETATM   34  C6  UNL     1      -0.223   3.332   0.658  1.00  0.00    -0.003 A 
HETATM   35  C2  UNL     1      -1.366   3.595  -0.085  1.00  0.00    -0.034 A 
HETATM   36  C1  UNL     1      -1.624   3.319  -1.502  1.00  0.00     0.050 C 
HETATM   37  C3  UNL     1      -2.246   4.371   0.667  1.00  0.00     0.095 A 
HETATM   38  N1  UNL     1      -1.690   4.607   1.848  1.00  0.00    -0.368 N 
HETATM   39  C4  UNL     1      -0.499   4.011   1.876  1.00  0.00     0.016 A 
ATOM     40  H1  UNL     1      -2.104   5.151   2.605  1.00  0.00     0.165 HD
HETATM   41  C5  UNL     1       0.378   4.113   3.068  1.00  0.00     0.069 C 
ENDBRANCH   1  34
TORSDOF 7
