REMARK  7 active torsions:
REMARK  status: ('A' for Active; 'I' for Inactive)
REMARK    1  A    between atoms: C2_2  and  C3_3 
REMARK    2  A    between atoms: C3_3  and  O1_4 
REMARK    3  A    between atoms: C3_3  and  N1_6 
REMARK    4  A    between atoms: N1_6  and  C4_7 
REMARK    5  A    between atoms: N1_6  and  C10_18 
REMARK    6  A    between atoms: C5_9  and  O3_10 
REMARK    7  A    between atoms: C6_12  and  C7_13 
ROOT
HETATM    1  C4  UNL     1       0.563   0.083  -0.347  1.00  0.00     0.174 A 
HETATM    2  O2  UNL     1       1.429  -0.113  -1.339  1.00  0.00    -0.268 OA
HETATM    3  C5  UNL     1       2.663   0.007  -0.916  1.00  0.00     0.201 A 
HETATM    4  C6  UNL     1       2.598   0.298   0.435  1.00  0.00     0.093 A 
HETATM    5  C9  UNL     1       1.273   0.346   0.794  1.00  0.00     0.104 A 
HETATM    6 CL1  UNL     1       0.649   0.676   2.385  1.00  0.00    -0.079 Cl
ENDROOT
BRANCH   1   7
HETATM    7  N1  UNL     1      -0.875   0.015  -0.511  1.00  0.00    -0.325 N 
BRANCH   7   8
HETATM    8  C3  UNL     1      -1.555   1.202  -0.856  1.00  0.00     0.222 C 
BRANCH   8   9
HETATM    9  C2  UNL     1      -1.976   2.179   0.155  1.00  0.00     0.049 C 
HETATM   10  C1  UNL     1      -2.974   1.748   1.177  1.00  0.00     0.009 C 
ENDBRANCH   8   9
BRANCH   8  11
HETATM   11  O1  UNL     1      -0.638   1.913  -1.706  1.00  0.00    -0.377 OA
ATOM     12  H1  UNL     1      -0.365   1.281  -2.360  1.00  0.00     0.212 HD
ENDBRANCH   8  11
ENDBRANCH   7   8
BRANCH   7  13
HETATM   13  C10 UNL     1      -1.452  -1.256  -0.307  1.00  0.00     0.026 C 
HETATM   14  C11 UNL     1      -2.294  -1.516   0.882  1.00  0.00     0.037 C 
HETATM   15  C12 UNL     1      -0.393  -2.378  -0.452  1.00  0.00     0.037 C 
HETATM   16  C13 UNL     1      -2.398  -1.514  -1.523  1.00  0.00     0.037 C 
ENDBRANCH   7  13
ENDBRANCH   1   7
BRANCH   3  17
HETATM   17  O3  UNL     1       3.835  -0.126  -1.651  1.00  0.00    -0.340 OA
ATOM     18  H3  UNL     1       4.730  -0.039  -1.344  1.00  0.00     0.220 HD
ENDBRANCH   3  17
BRANCH   4  19
HETATM   19  C7  UNL     1       3.702   0.520   1.342  1.00  0.00     0.162 C 
HETATM   20  C8  UNL     1       5.092   0.438   0.819  1.00  0.00     0.097 C 
HETATM   21  O4  UNL     1       3.560   0.781   2.561  1.00  0.00    -0.293 OA
ENDBRANCH   4  19
TORSDOF 7
