REMARK  9 active torsions:
REMARK  status: ('A' for Active; 'I' for Inactive)
REMARK    1  A    between atoms: C2_2  and  C4_4 
REMARK    2  A    between atoms: C4_4  and  O1_5 
REMARK    3  A    between atoms: C4_4  and  C5_7 
REMARK    4  A    between atoms: C5_7  and  O2_8 
REMARK    5  A    between atoms: C5_7  and  C6_10 
REMARK    6  A    between atoms: C8_12  and  N1_13 
REMARK    7  A    between atoms: N1_13  and  N2_15 
REMARK    8  A    between atoms: C9_17  and  C10_18 
REMARK    9  A    between atoms: C17_25  and  O3_26 
ROOT
HETATM    1  C6  UNL     1      -2.535  -0.466  -0.677  1.00  0.00     0.089 A 
HETATM    2  C7  UNL     1      -1.722   0.419  -0.001  1.00  0.00     0.071 A 
HETATM    3  C8  UNL     1      -0.768  -0.339   0.661  1.00  0.00     0.108 A 
HETATM    4  C17 UNL     1      -1.055  -1.648   0.350  1.00  0.00     0.212 A 
HETATM    5  O4  UNL     1      -2.096  -1.667  -0.434  1.00  0.00    -0.288 OA
ENDROOT
BRANCH   3   6
HETATM    6  N1  UNL     1       0.270   0.182   1.480  1.00  0.00    -0.297 N 
ATOM      7  H1  UNL     1       0.104   0.314   2.478  1.00  0.00     0.187 HD
BRANCH   6   8
HETATM    8  N2  UNL     1       1.501   0.512   0.945  1.00  0.00    -0.315 N 
HETATM    9  C9  UNL     1       1.901  -0.033  -0.151  1.00  0.00     0.084 C 
ATOM     10  H2  UNL     1       2.096   1.191   1.421  1.00  0.00     0.185 HD
BRANCH   9  11
HETATM   11  C10 UNL     1       3.211   0.309  -0.735  1.00  0.00     0.025 C 
HETATM   12  C11 UNL     1       4.071  -0.913  -0.785  1.00  0.00     0.010 C 
HETATM   13  C12 UNL     1       4.774  -1.193   0.522  1.00  0.00     0.001 C 
HETATM   14  C13 UNL     1       5.847  -0.221   0.852  1.00  0.00     0.000 C 
HETATM   15  C14 UNL     1       6.203   0.724  -0.250  1.00  0.00     0.000 C 
HETATM   16  C15 UNL     1       5.193   1.807  -0.447  1.00  0.00     0.001 C 
HETATM   17  C16 UNL     1       3.824   1.441   0.058  1.00  0.00     0.010 C 
ENDBRANCH   9  11
ENDBRANCH   6   8
ENDBRANCH   3   6
BRANCH   4  18
HETATM   18  O3  UNL     1      -0.358  -2.762   0.794  1.00  0.00    -0.339 OA
ATOM     19  H3  UNL     1      -0.556  -3.666   0.579  1.00  0.00     0.220 HD
ENDBRANCH   4  18
BRANCH   1  20
HETATM   20  C5  UNL     1      -3.718  -0.118  -1.542  1.00  0.00     0.204 C 
BRANCH  20  21
HETATM   21  C4  UNL     1      -4.952  -0.527  -0.768  1.00  0.00     0.156 C 
BRANCH  21  22
HETATM   22  C2  UNL     1      -5.107   0.265   0.507  1.00  0.00     0.009 C 
HETATM   23  C1  UNL     1      -5.196   1.738   0.292  1.00  0.00     0.012 C 
HETATM   24  C3  UNL     1      -6.419  -0.197   1.143  1.00  0.00     0.012 C 
ENDBRANCH  21  22
BRANCH  21  25
HETATM   25  O1  UNL     1      -4.882  -1.874  -0.418  1.00  0.00    -0.392 OA
ATOM     26  H1  UNL     1      -4.784  -2.373  -1.221  1.00  0.00     0.210 HD
ENDBRANCH  21  25
ENDBRANCH  20  21
BRANCH  20  27
HETATM   27  O2  UNL     1      -3.622  -0.879  -2.699  1.00  0.00    -0.386 OA
ATOM     28  H2  UNL     1      -2.847  -0.622  -3.185  1.00  0.00     0.210 HD
ENDBRANCH  20  27
ENDBRANCH   1  20
TORSDOF 9
