REMARK  19 active torsions:
REMARK  status: ('A' for Active; 'I' for Inactive)
REMARK    1  A    between atoms: N1_1  and  C1_5 
REMARK    2  A    between atoms: C2_6  and  O1_7 
REMARK    3  A    between atoms: O1_7  and  C3_8 
REMARK    4  A    between atoms: C4_10  and  S1_11 
REMARK    5  A    between atoms: S1_11  and  C5_12 
REMARK    6  A    between atoms: C5_12  and  C6_13 
REMARK    7  A    between atoms: C6_13  and  C7_14 
REMARK    8  A    between atoms: C7_14  and  O3_15 
REMARK    9  A    between atoms: C8_17  and  O4_18 
REMARK   10  A    between atoms: C9_20  and  O5_21 
REMARK   11  A    between atoms: C10_23  and  O6_24 
REMARK   12  A    between atoms: C11_27  and  O8_28 
REMARK   13  A    between atoms: C11_27  and  S2_30 
REMARK   14  A    between atoms: S2_30  and  S3_31 
REMARK   15  A    between atoms: S3_31  and  C12_32 
REMARK   16  A    between atoms: C13_34  and  O10_35 
REMARK   17  A    between atoms: C14_37  and  O11_38 
REMARK   18  A    between atoms: C15_40  and  O12_41 
REMARK   19  A    between atoms: C16_43  and  O13_44 
ROOT
HETATM    1  C1  UNL     1       0.778   0.416  -0.753  1.00  0.00     0.312 C 
HETATM    2  C2  UNL     1      -0.214  -0.683  -1.033  1.00  0.00     0.304 C 
HETATM    3  O7  UNL     1       0.861  -1.536  -1.282  1.00  0.00    -0.311 OA
HETATM    4  C11 UNL     1       1.847  -0.644  -0.865  1.00  0.00     0.261 C 
ENDROOT
BRANCH   2   5
HETATM    5  O1  UNL     1      -0.925  -1.178   0.047  1.00  0.00    -0.326 OA
BRANCH   5   6
HETATM    6  C3  UNL     1      -2.258  -1.400  -0.226  1.00  0.00     0.295 C 
HETATM    7  O2  UNL     1      -3.014  -0.608   0.631  1.00  0.00    -0.340 OA
HETATM    8  C4  UNL     1      -4.308  -0.356   0.077  1.00  0.00     0.217 C 
HETATM    9  C8  UNL     1      -4.776  -1.702  -0.505  1.00  0.00     0.188 C 
HETATM   10  C9  UNL     1      -4.148  -2.789   0.374  1.00  0.00     0.183 C 
HETATM   11  C10 UNL     1      -2.666  -2.843  -0.026  1.00  0.00     0.204 C 
BRANCH   8  12
HETATM   12  S1  UNL     1      -5.400   0.148   1.369  1.00  0.00    -0.135 SA
BRANCH  12  13
HETATM   13  C5  UNL     1      -7.034   0.641   0.962  1.00  0.00     0.079 C 
BRANCH  13  14
HETATM   14  C6  UNL     1      -7.240   1.950   0.274  1.00  0.00     0.036 C 
BRANCH  14  15
HETATM   15  C7  UNL     1      -6.559   2.070  -1.040  1.00  0.00     0.165 C 
BRANCH  15  16
HETATM   16  O3  UNL     1      -6.963   1.078  -1.934  1.00  0.00    -0.401 OA
ATOM     17  H3  UNL     1      -6.527   1.155  -2.775  1.00  0.00     0.209 HD
ENDBRANCH  15  16
ENDBRANCH  14  15
ENDBRANCH  13  14
ENDBRANCH  12  13
ENDBRANCH   8  12
BRANCH   9  18
HETATM   18  O4  UNL     1      -6.133  -1.846  -0.423  1.00  0.00    -0.389 OA
ATOM     19  H4  UNL     1      -6.422  -2.677  -0.782  1.00  0.00     0.210 HD
ENDBRANCH   9  18
BRANCH  10  20
HETATM   20  O5  UNL     1      -4.245  -2.367   1.683  1.00  0.00    -0.390 OA
ATOM     21  H5  UNL     1      -3.856  -3.041   2.228  1.00  0.00     0.210 HD
ENDBRANCH  10  20
BRANCH  11  22
HETATM   22  O6  UNL     1      -2.615  -3.574  -1.212  1.00  0.00    -0.388 OA
ATOM     23  H6  UNL     1      -2.871  -4.480  -1.086  1.00  0.00     0.210 HD
ENDBRANCH  11  22
ENDBRANCH   5   6
ENDBRANCH   2   5
BRANCH   1  24
HETATM   24  N1  UNL     1       0.632   1.029   0.551  1.00  0.00    -0.064 N 
ATOM     25  H13 UNL     1      -0.321   1.367   0.682  1.00  0.00     0.275 HD
ATOM     26  H12 UNL     1       0.667   0.321   1.284  1.00  0.00     0.275 HD
ATOM     27  H11 UNL     1       1.304   1.773   0.741  1.00  0.00     0.275 HD
ENDBRANCH   1  24
BRANCH   4  28
HETATM   28  O8  UNL     1       2.794  -0.379  -1.862  1.00  0.00    -0.354 OA
ATOM     29  H8  UNL     1       3.467  -1.046  -1.932  1.00  0.00     0.214 HD
ENDBRANCH   4  28
BRANCH   4  30
HETATM   30  S2  UNL     1       2.585  -1.010   0.749  1.00  0.00    -0.025 SA
BRANCH  30  31
HETATM   31  S3  UNL     1       3.654   0.719   1.376  1.00  0.00    -0.057 SA
BRANCH  31  32
HETATM   32  C12 UNL     1       5.367   0.546   0.741  1.00  0.00     0.228 C 
HETATM   33  O9  UNL     1       5.412   0.590  -0.636  1.00  0.00    -0.340 OA
HETATM   34  C13 UNL     1       6.599   1.085  -1.151  1.00  0.00     0.289 C 
HETATM   35  C14 UNL     1       7.789   0.812  -0.259  1.00  0.00     0.204 C 
HETATM   36  C15 UNL     1       7.654   1.513   1.068  1.00  0.00     0.183 C 
HETATM   37  C16 UNL     1       6.184   1.628   1.396  1.00  0.00     0.189 C 
BRANCH  34  38
HETATM   38  O10 UNL     1       6.837   0.410  -2.358  1.00  0.00    -0.368 OA
ATOM     39  H10 UNL     1       7.651   0.749  -2.711  1.00  0.00     0.212 HD
ENDBRANCH  34  38
BRANCH  35  40
HETATM   40  O11 UNL     1       7.974  -0.539  -0.030  1.00  0.00    -0.388 OA
ATOM     41  H11 UNL     1       8.722  -0.711   0.530  1.00  0.00     0.210 HD
ENDBRANCH  35  40
BRANCH  36  42
HETATM   42  O12 UNL     1       8.336   0.820   2.061  1.00  0.00    -0.390 OA
ATOM     43  H12 UNL     1       8.251   1.262   2.898  1.00  0.00     0.210 HD
ENDBRANCH  36  42
BRANCH  37  44
HETATM   44  O13 UNL     1       5.942   1.616   2.761  1.00  0.00    -0.389 OA
ATOM     45  H13 UNL     1       6.457   2.299   3.174  1.00  0.00     0.210 HD
ENDBRANCH  37  44
ENDBRANCH  31  32
ENDBRANCH  30  31
ENDBRANCH   4  30
TORSDOF 19
