REMARK  17 active torsions:
REMARK  status: ('A' for Active; 'I' for Inactive)
REMARK    1  A    between atoms: C3_4  and  N1_5 
REMARK    2  A    between atoms: N1_5  and  O2_7 
REMARK    3  A    between atoms: N2_10  and  O3_12 
REMARK    4  A    between atoms: C5_14  and  O4_15 
REMARK    5  A    between atoms: O4_15  and  C6_16 
REMARK    6  A    between atoms: C7_17  and  N3_18 
REMARK    7  A    between atoms: C9_23  and  N4_24 
REMARK    8  A    between atoms: C10_28  and  O5_29 
REMARK    9  A    between atoms: O5_29  and  C11_30 
REMARK   10  A    between atoms: N5_33  and  C13_35 
REMARK   11  A    between atoms: C13_35  and  C14_36 
REMARK   12  A    between atoms: C14_36  and  C15_37 
REMARK   13  A    between atoms: C15_37  and  O7_38 
REMARK   14  A    between atoms: C16_40  and  N6_41 
REMARK   15  A    between atoms: C17_45  and  O8_46 
REMARK   16  A    between atoms: C18_48  and  O9_49 
REMARK   17  A    between atoms: C19_51  and  N7_53 
ROOT
HETATM    1  C6  UNL     1      -1.457   0.464  -1.143  1.00  0.00     0.184 C 
HETATM    2  C7  UNL     1      -1.198   0.956  -2.519  1.00  0.00     0.217 C 
HETATM    3  C8  UNL     1      -0.188   2.057  -2.638  1.00  0.00     0.071 C 
HETATM    4  C9  UNL     1       1.109   1.795  -1.967  1.00  0.00     0.217 C 
HETATM    5  C10 UNL     1       0.985   0.605  -1.047  1.00  0.00     0.186 C 
HETATM    6  C18 UNL     1      -0.285   0.748  -0.234  1.00  0.00     0.180 C 
ENDROOT
BRANCH   1   7
HETATM    7  O4  UNL     1      -2.666   0.846  -0.605  1.00  0.00    -0.367 OA
BRANCH   7   8
HETATM    8  C5  UNL     1      -3.574  -0.094  -0.285  1.00  0.00     0.212 C 
HETATM    9  C4  UNL     1      -4.845   0.178  -1.075  1.00  0.00     0.091 C 
HETATM   10  C3  UNL     1      -5.986  -0.671  -0.669  1.00  0.00     0.293 C 
HETATM   11  N2  UNL     1      -4.935   1.043  -1.959  1.00  0.00    -0.270 N 
HETATM   12  O1  UNL     1      -6.388  -0.190   0.580  1.00  0.00    -0.352 OA
HETATM   13  C2  UNL     1      -5.490   0.687   1.130  1.00  0.00     0.159 C 
HETATM   14  C1  UNL     1      -5.867   0.929   2.573  1.00  0.00     0.042 C 
HETATM   15  C19 UNL     1      -4.110   0.007   1.161  1.00  0.00     0.176 C 
HETATM   16  C20 UNL     1      -4.336  -1.352   1.756  1.00  0.00     0.052 C 
ATOM     17  H2  UNL     1      -4.057   1.538  -2.116  1.00  0.00     0.193 HD
BRANCH  10  18
HETATM   18  N1  UNL     1      -7.099  -0.657  -1.549  1.00  0.00    -0.270 N 
ATOM     19  H1  UNL     1      -8.000  -0.269  -1.270  1.00  0.00     0.190 HD
BRANCH  18  20
HETATM   20  O2  UNL     1      -6.904  -1.178  -2.759  1.00  0.00    -0.292 OA
ATOM     21  H2  UNL     1      -7.649  -1.169  -3.348  1.00  0.00     0.244 HD
ENDBRANCH  18  20
ENDBRANCH  10  18
BRANCH  15  22
HETATM   22  N7  UNL     1      -3.256   0.859   1.930  1.00  0.00    -0.065 N 
ATOM     23  H73 UNL     1      -3.226   1.819   1.586  1.00  0.00     0.275 HD
ATOM     24  H72 UNL     1      -3.624   1.069   2.858  1.00  0.00     0.275 HD
ATOM     25  H71 UNL     1      -2.341   0.408   1.951  1.00  0.00     0.275 HD
ENDBRANCH  15  22
BRANCH  11  26
HETATM   26  O3  UNL     1      -5.916   1.472  -2.749  1.00  0.00    -0.290 OA
ATOM     27  H3  UNL     1      -5.985   2.135  -3.426  1.00  0.00     0.244 HD
ENDBRANCH  11  26
ENDBRANCH   7   8
ENDBRANCH   1   7
BRANCH   2  28
HETATM   28  N3  UNL     1      -0.774  -0.109  -3.446  1.00  0.00    -0.072 N 
ATOM     29  H33 UNL     1       0.037  -0.607  -3.080  1.00  0.00     0.274 HD
ATOM     30  H32 UNL     1      -1.450  -0.873  -3.455  1.00  0.00     0.274 HD
ATOM     31  H31 UNL     1      -0.596   0.229  -4.392  1.00  0.00     0.274 HD
ENDBRANCH   2  28
BRANCH   6  32
HETATM   32  O9  UNL     1      -0.154  -0.273   0.745  1.00  0.00    -0.390 OA
ATOM     33  H9  UNL     1       0.583  -0.094   1.317  1.00  0.00     0.210 HD
ENDBRANCH   6  32
BRANCH   5  34
HETATM   34  O5  UNL     1       2.099   0.543  -0.175  1.00  0.00    -0.348 OA
BRANCH  34  35
HETATM   35  C11 UNL     1       2.715  -0.674  -0.306  1.00  0.00     0.299 C 
HETATM   36  O6  UNL     1       4.029  -0.411  -0.829  1.00  0.00    -0.304 OA
HETATM   37  C12 UNL     1       4.947  -0.588   0.201  1.00  0.00     0.150 C 
HETATM   38  N5  UNL     1       6.035   0.041   0.462  1.00  0.00    -0.372 N 
HETATM   39  C16 UNL     1       4.390  -1.715   0.988  1.00  0.00     0.290 C 
ATOM     40  H5  UNL     1       6.321   0.803  -0.152  1.00  0.00     0.161 HD
HETATM   41  C17 UNL     1       2.914  -1.406   0.977  1.00  0.00     0.212 C 
BRANCH  38  42
HETATM   42  C13 UNL     1       6.861  -0.287   1.582  1.00  0.00     0.123 C 
BRANCH  42  43
HETATM   43  C14 UNL     1       8.222   0.364   1.366  1.00  0.00     0.045 C 
BRANCH  43  44
HETATM   44  C15 UNL     1       9.133   0.038   2.550  1.00  0.00     0.165 C 
BRANCH  44  45
HETATM   45  O7  UNL     1       9.282  -1.339   2.643  1.00  0.00    -0.401 OA
ATOM     46  H7  UNL     1       9.848  -1.542   3.379  1.00  0.00     0.209 HD
ENDBRANCH  44  45
ENDBRANCH  43  44
ENDBRANCH  42  43
ENDBRANCH  38  42
BRANCH  39  47
HETATM   47  N6  UNL     1       4.653  -2.927   0.234  1.00  0.00    -0.065 N 
ATOM     48  H63 UNL     1       4.298  -2.890  -0.721  1.00  0.00     0.275 HD
ATOM     49  H62 UNL     1       5.639  -3.049   0.001  1.00  0.00     0.275 HD
ATOM     50  H61 UNL     1       4.270  -3.702   0.775  1.00  0.00     0.275 HD
ENDBRANCH  39  47
BRANCH  41  51
HETATM   51  O8  UNL     1       2.257  -2.635   1.021  1.00  0.00    -0.388 OA
ATOM     52  H8  UNL     1       2.384  -3.102   1.839  1.00  0.00     0.210 HD
ENDBRANCH  41  51
ENDBRANCH  34  35
ENDBRANCH   5  34
BRANCH   4  53
HETATM   53  N4  UNL     1       1.498   2.938  -1.124  1.00  0.00    -0.072 N 
ATOM     54  H43 UNL     1       1.515   3.810  -1.653  1.00  0.00     0.274 HD
ATOM     55  H42 UNL     1       0.768   3.180  -0.454  1.00  0.00     0.274 HD
ATOM     56  H41 UNL     1       2.390   2.758  -0.663  1.00  0.00     0.274 HD
ENDBRANCH   4  53
TORSDOF 17
