REMARK  17 active torsions:
REMARK  status: ('A' for Active; 'I' for Inactive)
REMARK    1  A    between atoms: O1_2  and  C2_3 
REMARK    2  A    between atoms: C2_3  and  C3_5 
REMARK    3  A    between atoms: C4_6  and  N1_7 
REMARK    4  A    between atoms: C9_12  and  N2_13 
REMARK    5  A    between atoms: C10_22  and  O4_23 
REMARK    6  A    between atoms: C11_25  and  O5_26 
REMARK    7  A    between atoms: O5_26  and  C12_27 
REMARK       I    between atoms: C12_27  and  N6_29 
REMARK    8  A    between atoms: N6_29  and  C13_31 
REMARK    9  A    between atoms: C13_31  and  C14_32 
REMARK   10  A    between atoms: C14_32  and  O7_33 
REMARK   11  A    between atoms: C14_32  and  C15_35 
REMARK   12  A    between atoms: C15_35  and  O8_36 
REMARK   13  A    between atoms: C15_35  and  C16_38 
REMARK   14  A    between atoms: C16_38  and  O9_39 
REMARK   15  A    between atoms: C16_38  and  C17_41 
REMARK   16  A    between atoms: C17_41  and  O10_42 
REMARK   17  A    between atoms: C18_44  and  O11_46 
ROOT
HETATM    1  C3  UNL     1       2.326  -0.997   0.620  1.00  0.00     0.105 C 
HETATM    2  C4  UNL     1       2.897   0.123   1.044  1.00  0.00     0.168 C 
HETATM    3  O3  UNL     1       2.298   0.692   2.191  1.00  0.00    -0.300 OA
HETATM    4  C10 UNL     1       0.898   0.821   2.315  1.00  0.00     0.298 C 
HETATM    5  C11 UNL     1       0.187  -0.397   1.777  1.00  0.00     0.228 C 
HETATM    6  C18 UNL     1       1.183  -1.479   1.380  1.00  0.00     0.123 C 
HETATM    7  C19 UNL     1       0.423  -2.604   0.732  1.00  0.00     0.055 C 
ENDROOT
BRANCH   5   8
HETATM    8  O5  UNL     1      -0.738  -0.111   0.752  1.00  0.00    -0.290 OA
BRANCH   8   9
HETATM    9  C12 UNL     1      -2.100  -0.337   0.846  1.00  0.00     0.361 C 
HETATM   10  O6  UNL     1      -2.530  -0.822   1.903  1.00  0.00    -0.239 OA
HETATM   11  N6  UNL     1      -2.916  -0.001  -0.267  1.00  0.00    -0.334 N 
ATOM     12  H6  UNL     1      -2.526   0.397  -1.121  1.00  0.00     0.164 HD
BRANCH  11  13
HETATM   13  C13 UNL     1      -4.353  -0.260  -0.117  1.00  0.00     0.159 C 
BRANCH  13  14
HETATM   14  C14 UNL     1      -5.098   0.143  -1.373  1.00  0.00     0.167 C 
BRANCH  14  15
HETATM   15  O7  UNL     1      -4.957   1.471  -1.676  1.00  0.00    -0.391 OA
ATOM     16  H7  UNL     1      -5.424   1.724  -2.464  1.00  0.00     0.210 HD
ENDBRANCH  14  15
BRANCH  14  17
HETATM   17  C15 UNL     1      -6.531  -0.316  -1.215  1.00  0.00     0.179 C 
BRANCH  17  18
HETATM   18  O8  UNL     1      -6.444  -1.692  -0.920  1.00  0.00    -0.390 OA
ATOM     19  H8  UNL     1      -7.344  -1.980  -0.821  1.00  0.00     0.210 HD
ENDBRANCH  17  18
BRANCH  17  20
HETATM   20  C16 UNL     1      -7.208   0.335  -0.029  1.00  0.00     0.173 C 
BRANCH  20  21
HETATM   21  O9  UNL     1      -8.471  -0.276   0.102  1.00  0.00    -0.391 OA
ATOM     22  H9  UNL     1      -8.896   0.133   0.847  1.00  0.00     0.210 HD
ENDBRANCH  20  21
BRANCH  20  23
HETATM   23  C17 UNL     1      -7.460   1.798  -0.202  1.00  0.00     0.198 C 
BRANCH  23  24
HETATM   24  O10 UNL     1      -8.237   2.004  -1.347  1.00  0.00    -0.398 OA
ATOM     25  H10 UNL     1      -8.397   2.934  -1.457  1.00  0.00     0.209 HD
ENDBRANCH  23  24
ENDBRANCH  20  23
ENDBRANCH  17  20
ENDBRANCH  14  17
ENDBRANCH  13  14
ENDBRANCH  11  13
ENDBRANCH   8   9
ENDBRANCH   5   8
BRANCH   4  26
HETATM   26  O4  UNL     1       0.622   1.073   3.656  1.00  0.00    -0.368 OA
ATOM     27  H4  UNL     1      -0.320   1.160   3.739  1.00  0.00     0.212 HD
ENDBRANCH   4  26
BRANCH   6  28
HETATM   28  O11 UNL     1       1.708  -2.041   2.575  1.00  0.00    -0.382 OA
ATOM     29  H11 UNL     1       0.962  -2.356   3.071  1.00  0.00     0.211 HD
ENDBRANCH   6  28
BRANCH   1  30
HETATM   30  C2  UNL     1       2.831  -1.692  -0.540  1.00  0.00     0.296 C 
HETATM   31  O2  UNL     1       2.330  -2.754  -0.974  1.00  0.00    -0.259 OA
BRANCH  30  32
HETATM   32  O1  UNL     1       3.918  -1.192  -1.232  1.00  0.00    -0.323 OA
HETATM   33  C1  UNL     1       4.396  -1.876  -2.354  1.00  0.00     0.213 C 
ENDBRANCH  30  32
ENDBRANCH   1  30
BRANCH   2  34
HETATM   34  N1  UNL     1       4.018   0.760   0.451  1.00  0.00    -0.286 N 
HETATM   35  C5  UNL     1       3.850   1.687  -0.541  1.00  0.00     0.103 A 
HETATM   36  C6  UNL     1       4.906   2.352  -1.125  1.00  0.00     0.051 A 
HETATM   37  C7  UNL     1       6.194   2.106  -0.727  1.00  0.00     0.079 A 
HETATM   38  C8  UNL     1       6.387   1.170   0.278  1.00  0.00     0.118 A 
HETATM   39  N5  UNL     1       7.481   2.591  -1.099  1.00  0.00    -0.282 N 
HETATM   40  C9  UNL     1       5.298   0.534   0.829  1.00  0.00     0.138 A 
HETATM   41  N3  UNL     1       7.793   1.128   0.475  1.00  0.00    -0.278 N 
HETATM   42  N4  UNL     1       8.475   1.753  -0.569  1.00  0.00    -0.022 NA
ATOM     43  H3  UNL     1       8.247   0.695   1.279  1.00  0.00     0.184 HD
ATOM     44  H5  UNL     1       7.654   3.422  -1.665  1.00  0.00     0.184 HD
BRANCH  40  45
HETATM   45  N2  UNL     1       5.502  -0.338   1.781  1.00  0.00    -0.383 N 
ATOM     46  H22 UNL     1       4.695  -0.809   2.189  1.00  0.00     0.157 HD
ATOM     47  H21 UNL     1       6.467  -0.508   2.066  1.00  0.00     0.157 HD
ENDBRANCH  40  45
ENDBRANCH   2  34
TORSDOF 17
