REMARK  16 active torsions:
REMARK  status: ('A' for Active; 'I' for Inactive)
REMARK    1  A    between atoms: O1_2  and  C2_3 
REMARK    2  A    between atoms: C2_3  and  C3_4 
REMARK    3  A    between atoms: C3_4  and  C4_5 
REMARK    4  A    between atoms: C4_5  and  N1_6 
REMARK    5  A    between atoms: N1_6  and  C5_8 
REMARK    6  A    between atoms: C6_11  and  N3_12 
REMARK    7  A    between atoms: N3_12  and  C7_14 
REMARK    8  A    between atoms: C7_14  and  C8_15 
REMARK    9  A    between atoms: C8_15  and  C9_16 
REMARK   10  A    between atoms: C10_17  and  C11_18 
REMARK   11  A    between atoms: C11_18  and  N4_19 
REMARK       I    between atoms: N4_19  and  C12_21 
REMARK       I    between atoms: C12_21  and  N6_25 
REMARK   12  A    between atoms: N6_25  and  C13_27 
REMARK   13  A    between atoms: C13_27  and  C14_28 
REMARK   14  A    between atoms: C14_28  and  C15_29 
REMARK   15  A    between atoms: C21_37  and  N8_38 
REMARK   16  A    between atoms: N8_38  and  C22_40 
ROOT
HETATM    1  C5  UNL     1      -2.832   1.510  -1.115  1.00  0.00     0.707 A 
HETATM    2  N2  UNL     1      -1.543   1.357  -1.398  1.00  0.00    -0.022 N 
ATOM      3  H2  UNL     1      -1.041   2.153  -1.792  1.00  0.00     0.203 HD
HETATM    4  C6  UNL     1      -0.846   0.195  -1.193  1.00  0.00     0.707 A 
HETATM    5  N7  UNL     1      -1.568  -0.823  -0.668  1.00  0.00    -0.021 N 
ATOM      6  H7  UNL     1      -1.116  -1.719  -0.488  1.00  0.00     0.203 HD
HETATM    7  C21 UNL     1      -2.873  -0.670  -0.380  1.00  0.00     0.711 A 
HETATM    8  N10 UNL     1      -3.518   0.490  -0.598  1.00  0.00    -0.021 N 
ATOM      9  H10 UNL     1      -4.508   0.587  -0.373  1.00  0.00     0.203 HD
ENDROOT
BRANCH   4  10
HETATM   10  N3  UNL     1       0.375   0.145  -1.443  1.00  0.00    -0.225 N 
ATOM     11  H3  UNL     1       0.743   1.030  -1.792  1.00  0.00     0.177 HD
BRANCH  10  12
HETATM   12  C7  UNL     1       1.363  -0.858  -1.353  1.00  0.00     0.142 C 
BRANCH  12  13
HETATM   13  C8  UNL     1       1.040  -2.213  -1.814  1.00  0.00     0.047 C 
BRANCH  13  14
HETATM   14  C9  UNL     1       2.045  -3.307  -1.748  1.00  0.00    -0.024 C 
HETATM   15  C10 UNL     1       3.271  -3.277  -2.499  1.00  0.00     0.013 C 
BRANCH  15  16
HETATM   16  C11 UNL     1       4.371  -2.363  -2.273  1.00  0.00     0.106 C 
BRANCH  16  17
HETATM   17  N4  UNL     1       5.086  -2.476  -1.067  1.00  0.00    -0.203 N 
HETATM   18  C12 UNL     1       4.676  -2.130   0.231  1.00  0.00     0.671 C 
HETATM   19  N5  UNL     1       4.446  -3.022   1.174  1.00  0.00    -0.235 N 
HETATM   20  N6  UNL     1       4.544  -0.751   0.522  1.00  0.00    -0.226 N 
ATOM     21  H52 UNL     1       4.541  -4.016   0.964  1.00  0.00     0.174 HD
ATOM     22  H51 UNL     1       4.148  -2.771   2.117  1.00  0.00     0.174 HD
ATOM     23  H6  UNL     1       3.652  -0.404   0.876  1.00  0.00     0.177 HD
ATOM     24  H4  UNL     1       6.028  -2.860  -1.146  1.00  0.00     0.183 HD
BRANCH  20  25
HETATM   25  C13 UNL     1       5.618   0.169   0.336  1.00  0.00     0.142 C 
BRANCH  25  26
HETATM   26  C14 UNL     1       6.702  -0.044   1.345  1.00  0.00     0.058 C 
BRANCH  26  27
HETATM   27  C15 UNL     1       7.754   0.963   1.076  1.00  0.00    -0.057 A 
HETATM   28  C16 UNL     1       8.831   0.777   0.244  1.00  0.00     0.007 A 
HETATM   29  C17 UNL     1       9.774   1.760   0.027  1.00  0.00     0.001 A 
HETATM   30  C18 UNL     1       9.633   2.996   0.676  1.00  0.00     0.000 A 
HETATM   31  C19 UNL     1       8.560   3.190   1.509  1.00  0.00     0.001 A 
HETATM   32  C20 UNL     1       7.637   2.191   1.705  1.00  0.00     0.007 A 
ENDBRANCH  26  27
ENDBRANCH  25  26
ENDBRANCH  20  25
ENDBRANCH  16  17
ENDBRANCH  15  16
ENDBRANCH  13  14
ENDBRANCH  12  13
ENDBRANCH  10  12
ENDBRANCH   4  10
BRANCH   1  33
HETATM   33  N1  UNL     1      -3.377   2.668  -1.358  1.00  0.00    -0.225 N 
ATOM     34  H1  UNL     1      -2.802   3.410  -1.757  1.00  0.00     0.177 HD
BRANCH  33  35
HETATM   35  C4  UNL     1      -4.800   2.942  -1.075  1.00  0.00     0.140 C 
BRANCH  35  36
HETATM   36  C3  UNL     1      -4.985   3.318   0.345  1.00  0.00     0.046 C 
BRANCH  36  37
HETATM   37  C2  UNL     1      -6.306   3.690   0.858  1.00  0.00     0.168 C 
BRANCH  37  38
HETATM   38  O1  UNL     1      -7.362   2.896   0.872  1.00  0.00    -0.396 OA
HETATM   39  C1  UNL     1      -7.988   2.370  -0.175  1.00  0.00     0.201 C 
ENDBRANCH  37  38
ENDBRANCH  36  37
ENDBRANCH  35  36
ENDBRANCH  33  35
ENDBRANCH   1  33
BRANCH   7  40
HETATM   40  N8  UNL     1      -3.479  -1.698   0.130  1.00  0.00    -0.189 N 
ATOM     41  H8  UNL     1      -2.925  -2.542   0.275  1.00  0.00     0.184 HD
BRANCH  40  42
HETATM   42  C22 UNL     1      -4.827  -1.746   0.498  1.00  0.00     0.067 A 
HETATM   43  C23 UNL     1      -5.715  -2.480  -0.265  1.00  0.00     0.075 A 
HETATM   44  C24 UNL     1      -7.020  -2.493   0.147  1.00  0.00     0.134 A 
HETATM   45  F1  UNL     1      -7.905  -3.211  -0.587  1.00  0.00    -0.205 F 
HETATM   46  C25 UNL     1      -7.369  -1.788   1.275  1.00  0.00     0.132 A 
HETATM   47  N9  UNL     1      -6.484  -1.071   2.013  1.00  0.00    -0.366 N 
HETATM   48  C26 UNL     1      -6.950  -0.351   3.200  1.00  0.00     0.155 C 
HETATM   49  C27 UNL     1      -5.211  -1.055   1.618  1.00  0.00     0.120 A 
ENDBRANCH  40  42
ENDBRANCH   7  40
TORSDOF 16
