REMARK  17 active torsions:
REMARK  status: ('A' for Active; 'I' for Inactive)
REMARK       I    between atoms: C1_2  and  N5_24 
REMARK    1  A    between atoms: N2_3  and  C2_5 
REMARK    2  A    between atoms: C2_5  and  C3_6 
REMARK    3  A    between atoms: C3_6  and  C4_7 
REMARK    4  A    between atoms: C4_7  and  C5_8 
REMARK    5  A    between atoms: C5_8  and  S1_9 
REMARK    6  A    between atoms: S1_9  and  C6_10 
REMARK    7  A    between atoms: C6_10  and  C7_11 
REMARK    8  A    between atoms: C7_11  and  N3_12 
REMARK    9  A    between atoms: N3_12  and  C8_14 
REMARK   10  A    between atoms: C8_14  and  N4_16 
REMARK   11  A    between atoms: N4_16  and  C9_18 
REMARK   12  A    between atoms: N5_24  and  C15_26 
REMARK   13  A    between atoms: C15_26  and  C16_27 
REMARK   14  A    between atoms: C16_27  and  C17_28 
REMARK   15  A    between atoms: C17_28  and  N6_29 
REMARK       I    between atoms: N6_29  and  C18_31 
REMARK   16  A    between atoms: C18_31  and  C19_33 
REMARK   17  A    between atoms: N7_38  and  O2_39 
ROOT
HETATM    1  N1  UNL     1      -5.179   0.787   2.001  1.00  0.00    -0.064 NA
HETATM    2  C1  UNL     1      -3.857   0.343   1.724  1.00  0.00     0.183 C 
HETATM    3  N2  UNL     1      -3.000   1.235   1.335  1.00  0.00    -0.365 N 
ATOM      4  H2  UNL     1      -3.297   2.206   1.242  1.00  0.00     0.162 HD
HETATM    5  N5  UNL     1      -3.416  -0.988   1.871  1.00  0.00    -0.365 N 
ATOM      6  H5  UNL     1      -2.623  -1.165   2.487  1.00  0.00     0.162 HD
ENDROOT
BRANCH   3   7
HETATM    7  C2  UNL     1      -1.618   0.878   1.027  1.00  0.00     0.122 C 
BRANCH   7   8
HETATM    8  C3  UNL     1      -0.741   1.401   2.115  1.00  0.00     0.020 C 
BRANCH   8   9
HETATM    9  C4  UNL     1       0.726   1.081   1.847  1.00  0.00     0.012 C 
BRANCH   9  10
HETATM   10  C5  UNL     1       0.934  -0.401   1.777  1.00  0.00     0.074 C 
BRANCH  10  11
HETATM   11  S1  UNL     1       2.634  -0.815   1.500  1.00  0.00    -0.164 SA
BRANCH  11  12
HETATM   12  C6  UNL     1       3.320  -0.468  -0.105  1.00  0.00     0.118 C 
BRANCH  12  13
HETATM   13  C7  UNL     1       3.437   0.951  -0.499  1.00  0.00     0.073 C 
BRANCH  13  14
HETATM   14  N3  UNL     1       4.177   1.831   0.317  1.00  0.00    -0.346 N 
ATOM     15  H3  UNL     1       3.569   2.471   0.829  1.00  0.00     0.167 HD
BRANCH  14  16
HETATM   16  C8  UNL     1       5.508   2.053   0.604  1.00  0.00     0.171 C 
HETATM   17  S2  UNL     1       5.735   3.313   1.741  1.00  0.00    -0.041 SA
BRANCH  16  18
HETATM   18  N4  UNL     1       6.689   1.493   0.186  1.00  0.00    -0.362 N 
ATOM     19  H4  UNL     1       7.504   1.936   0.610  1.00  0.00     0.162 HD
BRANCH  18  20
HETATM   20  C9  UNL     1       7.042   0.428  -0.710  1.00  0.00     0.083 C 
HETATM   21  C10 UNL     1       7.233  -0.878  -0.054  1.00  0.00     0.025 C 
HETATM   22  C11 UNL     1       8.575  -1.461   0.028  1.00  0.00     0.002 C 
HETATM   23  C12 UNL     1       9.693  -0.752  -0.659  1.00  0.00     0.000 C 
HETATM   24  C13 UNL     1       9.472   0.740  -0.741  1.00  0.00     0.002 C 
HETATM   25  C14 UNL     1       8.205   0.904  -1.548  1.00  0.00     0.025 C 
ENDBRANCH  18  20
ENDBRANCH  16  18
ENDBRANCH  14  16
ENDBRANCH  13  14
ENDBRANCH  12  13
ENDBRANCH  11  12
ENDBRANCH  10  11
ENDBRANCH   9  10
ENDBRANCH   8   9
ENDBRANCH   7   8
ENDBRANCH   3   7
BRANCH   5  26
HETATM   26  C15 UNL     1      -4.008  -2.093   1.215  1.00  0.00     0.123 C 
BRANCH  26  27
HETATM   27  C16 UNL     1      -3.843  -2.250  -0.244  1.00  0.00     0.039 C 
BRANCH  27  28
HETATM   28  C17 UNL     1      -4.398  -1.218  -1.147  1.00  0.00     0.124 C 
BRANCH  28  29
HETATM   29  N6  UNL     1      -5.836  -1.118  -0.994  1.00  0.00    -0.357 N 
HETATM   30  C18 UNL     1      -6.625  -0.208  -1.737  1.00  0.00     0.253 C 
HETATM   31  O1  UNL     1      -6.005   0.540  -2.568  1.00  0.00    -0.268 OA
ATOM     32  H6  UNL     1      -6.299  -1.730  -0.322  1.00  0.00     0.162 HD
BRANCH  30  33
HETATM   33  C19 UNL     1      -8.069  -0.102  -1.588  1.00  0.00     0.050 A 
HETATM   34  C20 UNL     1      -8.829  -0.904  -0.771  1.00  0.00     0.023 A 
HETATM   35  C21 UNL     1     -10.214  -0.749  -0.669  1.00  0.00     0.065 A 
HETATM   36  C22 UNL     1     -10.861   0.225  -1.396  1.00  0.00     0.214 A 
HETATM   37  F1  UNL     1     -12.207   0.413  -1.328  1.00  0.00    -0.184 F 
HETATM   38  N7  UNL     1     -10.098   1.004  -2.194  1.00  0.00    -0.208 N 
HETATM   39  C23 UNL     1      -8.766   0.870  -2.304  1.00  0.00     0.142 A 
BRANCH  38  40
HETATM   40  O2  UNL     1     -10.771   1.984  -2.921  1.00  0.00    -0.281 OA
ATOM     41  H2  UNL     1     -10.235   2.532  -3.482  1.00  0.00     0.245 HD
ENDBRANCH  38  40
ENDBRANCH  30  33
ENDBRANCH  28  29
ENDBRANCH  27  28
ENDBRANCH  26  27
ENDBRANCH   5  26
TORSDOF 17
