REMARK  15 active torsions:
REMARK  status: ('A' for Active; 'I' for Inactive)
REMARK    1  A    between atoms: N1_2  and  C2_5 
REMARK    2  A    between atoms: C2_5  and  C3_6 
REMARK    3  A    between atoms: C3_6  and  C4_7 
REMARK    4  A    between atoms: N3_13  and  C8_14 
REMARK    5  A    between atoms: C8_14  and  C9_15 
REMARK    6  A    between atoms: C9_15  and  C10_16 
REMARK    7  A    between atoms: C10_16  and  C11_17 
REMARK    8  A    between atoms: C11_17  and  N4_18 
REMARK    9  A    between atoms: N4_18  and  C12_19 
REMARK   10  A    between atoms: N4_18  and  C14_23 
REMARK   11  A    between atoms: C12_19  and  C13_20 
REMARK   12  A    between atoms: C13_20  and  O1_21 
REMARK   13  A    between atoms: C14_23  and  C15_24 
REMARK   14  A    between atoms: C15_24  and  O2_25 
REMARK   15  A    between atoms: C16_27  and  N5_28 
ROOT
HETATM    1  C4  UNL     1       3.767  -1.765   1.720  1.00  0.00     0.040 A 
HETATM    2  N2  UNL     1       3.705  -0.938   2.809  1.00  0.00    -0.367 N 
ATOM      3  H2  UNL     1       4.301  -1.136   3.613  1.00  0.00     0.165 HD
HETATM    4  C5  UNL     1       2.885   0.126   2.855  1.00  0.00     0.090 A 
HETATM    5  C6  UNL     1       2.036   0.492   1.837  1.00  0.00     0.050 A 
HETATM    6  C7  UNL     1       2.029  -0.283   0.699  1.00  0.00     0.082 A 
HETATM    7  N3  UNL     1       1.348  -0.250  -0.458  1.00  0.00    -0.181 N 
HETATM    8  C16 UNL     1       1.771  -1.306  -1.195  1.00  0.00     0.679 A 
HETATM    9  N6  UNL     1       2.708  -2.010  -0.525  1.00  0.00    -0.188 N 
ATOM     10  H6  UNL     1       3.173  -2.847  -0.876  1.00  0.00     0.184 HD
HETATM   11  C17 UNL     1       2.938  -1.446   0.671  1.00  0.00     0.099 A 
ENDROOT
BRANCH   7  12
HETATM   12  C8  UNL     1       0.350   0.710  -0.865  1.00  0.00     0.148 C 
BRANCH  12  13
HETATM   13  C9  UNL     1      -1.038   0.272  -0.428  1.00  0.00     0.022 C 
BRANCH  13  14
HETATM   14  C10 UNL     1      -2.080   1.307  -0.873  1.00  0.00     0.032 C 
BRANCH  14  15
HETATM   15  C11 UNL     1      -3.459   0.855  -0.429  1.00  0.00     0.272 C 
BRANCH  15  16
HETATM   16  N4  UNL     1      -4.494   1.776  -0.787  1.00  0.00     0.092 N 
BRANCH  16  17
HETATM   17  C12 UNL     1      -4.669   1.760  -2.206  1.00  0.00     0.298 C 
BRANCH  17  18
HETATM   18  C13 UNL     1      -5.414   2.899  -2.814  1.00  0.00     0.194 C 
BRANCH  18  19
HETATM   19  O1  UNL     1      -6.703   3.123  -2.440  1.00  0.00    -0.399 OA
ATOM     20  H1  UNL     1      -7.178   3.849  -2.827  1.00  0.00     0.209 HD
ENDBRANCH  18  19
ENDBRANCH  17  18
ENDBRANCH  16  17
BRANCH  16  21
HETATM   21  C14 UNL     1      -5.710   1.522  -0.101  1.00  0.00     0.298 C 
BRANCH  21  22
HETATM   22  C15 UNL     1      -5.803   1.861   1.343  1.00  0.00     0.194 C 
BRANCH  22  23
HETATM   23  O2  UNL     1      -4.899   1.190   2.121  1.00  0.00    -0.399 OA
ATOM     24  H2  UNL     1      -4.958   1.407   3.044  1.00  0.00     0.209 HD
ENDBRANCH  22  23
ENDBRANCH  21  22
ENDBRANCH  16  21
ENDBRANCH  15  16
ENDBRANCH  14  15
ENDBRANCH  13  14
ENDBRANCH  12  13
ENDBRANCH   7  12
BRANCH   8  25
HETATM   25  N5  UNL     1       1.339  -1.575  -2.350  1.00  0.00    -0.234 N 
ATOM     26  H52 UNL     1       0.631  -1.043  -2.856  1.00  0.00     0.174 HD
ATOM     27  H51 UNL     1       1.657  -2.370  -2.905  1.00  0.00     0.174 HD
ENDBRANCH   8  25
BRANCH   1  28
HETATM   28  C3  UNL     1       4.718  -2.894   1.719  1.00  0.00     0.087 C 
BRANCH  28  29
HETATM   29  C2  UNL     1       6.025  -2.649   1.065  1.00  0.00     0.237 C 
BRANCH  29  30
HETATM   30  N1  UNL     1       6.022  -2.295  -0.309  1.00  0.00    -0.079 N 
HETATM   31  C1  UNL     1       7.411  -2.102  -0.737  1.00  0.00     0.267 C 
ATOM     32  H12 UNL     1       5.434  -1.485  -0.505  1.00  0.00     0.276 HD
ATOM     33  H11 UNL     1       5.523  -2.971  -0.888  1.00  0.00     0.276 HD
ENDBRANCH  29  30
ENDBRANCH  28  29
ENDBRANCH   1  28
TORSDOF 15
