REMARK  17 active torsions:
REMARK  status: ('A' for Active; 'I' for Inactive)
REMARK    1  A    between atoms: N1_1  and  C1_4 
REMARK    2  A    between atoms: C2_9  and  N4_10 
REMARK    3  A    between atoms: N4_10  and  C3_12 
REMARK    4  A    between atoms: C3_12  and  C4_13 
REMARK    5  A    between atoms: C4_13  and  C5_14 
REMARK    6  A    between atoms: C5_14  and  N5_15 
REMARK       I    between atoms: N5_15  and  C6_17 
REMARK    7  A    between atoms: N7_19  and  C7_21 
REMARK    8  A    between atoms: C7_21  and  C8_22 
REMARK    9  A    between atoms: C8_22  and  C9_23 
REMARK   10  A    between atoms: C9_23  and  O1_24 
REMARK   11  A    between atoms: O1_24  and  C10_25 
REMARK   12  A    between atoms: C10_25  and  C11_26 
REMARK   13  A    between atoms: C11_26  and  C12_27 
REMARK   14  A    between atoms: C12_27  and  C13_28 
REMARK   15  A    between atoms: C13_28  and  C14_29 
REMARK   16  A    between atoms: C14_29  and  C15_30 
REMARK   17  A    between atoms: C15_30  and  N8_31 
ROOT
HETATM    1  N5  UNL     1       2.789  -1.342  -0.797  1.00  0.00    -0.365 N 
ATOM      2  H5  UNL     1       2.741  -1.378  -1.815  1.00  0.00     0.162 HD
HETATM    3  C6  UNL     1       1.611  -1.238  -0.011  1.00  0.00     0.183 C 
HETATM    4  N6  UNL     1       0.927  -2.442   0.378  1.00  0.00    -0.064 NA
HETATM    5  N7  UNL     1       1.117  -0.099   0.376  1.00  0.00    -0.365 N 
ATOM      6  H7  UNL     1       1.587   0.767   0.111  1.00  0.00     0.162 HD
ENDROOT
BRANCH   1   7
HETATM    7  C5  UNL     1       4.060  -1.396  -0.108  1.00  0.00     0.123 C 
BRANCH   7   8
HETATM    8  C4  UNL     1       4.337  -0.050   0.549  1.00  0.00     0.040 C 
BRANCH   8   9
HETATM    9  C3  UNL     1       5.666  -0.083   1.279  1.00  0.00     0.139 C 
BRANCH   9  10
HETATM   10  N4  UNL     1       6.718  -0.375   0.359  1.00  0.00    -0.224 N 
ATOM     11  H4  UNL     1       6.626  -1.232  -0.186  1.00  0.00     0.177 HD
BRANCH  10  12
HETATM   12  C2  UNL     1       7.764   0.331   0.150  1.00  0.00     0.707 A 
HETATM   13  N3  UNL     1       8.041   1.495   0.787  1.00  0.00    -0.117 N 
HETATM   14  N2  UNL     1       9.205   1.919   0.297  1.00  0.00    -0.118 N 
ATOM     15  H3  UNL     1       7.472   1.954   1.499  1.00  0.00     0.206 HD
HETATM   16  C1  UNL     1       9.646   1.031  -0.632  1.00  0.00     0.705 A 
ATOM     17  H2  UNL     1       9.688   2.773   0.575  1.00  0.00     0.206 HD
HETATM   18  N9  UNL     1       8.737   0.046  -0.713  1.00  0.00    -0.020 N 
ATOM     19  H9  UNL     1       8.783  -0.770  -1.323  1.00  0.00     0.203 HD
BRANCH  16  20
HETATM   20  N1  UNL     1      10.745   1.132  -1.305  1.00  0.00    -0.233 N 
ATOM     21  H12 UNL     1      11.435   1.880  -1.243  1.00  0.00     0.174 HD
ATOM     22  H11 UNL     1      11.076   0.465  -2.002  1.00  0.00     0.174 HD
ENDBRANCH  16  20
ENDBRANCH  10  12
ENDBRANCH   9  10
ENDBRANCH   8   9
ENDBRANCH   7   8
ENDBRANCH   1   7
BRANCH   5  23
HETATM   23  C7  UNL     1      -0.079  -0.038   1.171  1.00  0.00     0.124 C 
BRANCH  23  24
HETATM   24  C8  UNL     1      -1.175   0.677   0.371  1.00  0.00     0.046 C 
BRANCH  24  25
HETATM   25  C9  UNL     1      -2.388   0.710   1.233  1.00  0.00     0.169 C 
BRANCH  25  26
HETATM   26  O1  UNL     1      -3.496   1.307   0.710  1.00  0.00    -0.391 OA
BRANCH  26  27
HETATM   27  C10 UNL     1      -3.992   0.770  -0.442  1.00  0.00     0.167 C 
BRANCH  27  28
HETATM   28  C11 UNL     1      -4.399  -0.669  -0.301  1.00  0.00     0.026 C 
BRANCH  28  29
HETATM   29  C12 UNL     1      -5.461  -0.849   0.733  1.00  0.00     0.002 C 
BRANCH  29  30
HETATM   30  C13 UNL     1      -6.730  -0.110   0.475  1.00  0.00     0.002 C 
BRANCH  30  31
HETATM   31  C14 UNL     1      -7.408  -0.493  -0.813  1.00  0.00     0.027 C 
BRANCH  31  32
HETATM   32  C15 UNL     1      -8.677   0.367  -0.889  1.00  0.00     0.229 C 
BRANCH  32  33
HETATM   33  N8  UNL     1      -8.334   1.778  -0.887  1.00  0.00    -0.079 N 
ATOM     34  H83 UNL     1      -7.754   2.027  -0.085  1.00  0.00     0.274 HD
ATOM     35  H82 UNL     1      -7.674   2.009  -1.629  1.00  0.00     0.274 HD
ATOM     36  H81 UNL     1      -9.177   2.350  -0.938  1.00  0.00     0.274 HD
ENDBRANCH  32  33
ENDBRANCH  31  32
ENDBRANCH  30  31
ENDBRANCH  29  30
ENDBRANCH  28  29
ENDBRANCH  27  28
ENDBRANCH  26  27
ENDBRANCH  25  26
ENDBRANCH  24  25
ENDBRANCH  23  24
ENDBRANCH   5  23
TORSDOF 17
