REMARK  4 active torsions:
REMARK  status: ('A' for Active; 'I' for Inactive)
REMARK    1  A    between atoms: C5_11  and  N3_12 
REMARK    2  A    between atoms: N4_14  and  C6_16 
REMARK    3  A    between atoms: N5_22  and  C11_23 
REMARK    4  A    between atoms: C11_23  and  C12_24 
ROOT
HETATM    1  C6  UNL     1      -0.366  -0.989  -1.060  1.00  0.00     0.124 A 
HETATM    2  C7  UNL     1      -0.470  -2.117  -1.844  1.00  0.00     0.071 A 
HETATM    3  C8  UNL     1      -1.733  -2.180  -2.365  1.00  0.00     0.037 A 
HETATM    4 BR1  UNL     1      -2.469  -3.522  -3.531  1.00  0.00    -0.049 Br
HETATM    5  C9  UNL     1      -2.394  -1.062  -1.878  1.00  0.00     0.027 A 
HETATM    6  C10 UNL     1      -3.816  -0.748  -2.210  1.00  0.00     0.070 C 
HETATM    7  N5  UNL     1      -1.554  -0.360  -1.095  1.00  0.00    -0.329 N 
ENDROOT
BRANCH   1   8
HETATM    8  N4  UNL     1       0.815  -0.579  -0.341  1.00  0.00    -0.285 N 
HETATM    9  N3  UNL     1       1.933  -0.512  -0.966  1.00  0.00    -0.292 N 
ATOM     10  H3  UNL     1       1.949  -0.753  -1.957  1.00  0.00     0.187 HD
ATOM     11  H4  UNL     1       0.762  -0.346   0.651  1.00  0.00     0.188 HD
BRANCH   9  12
HETATM   12  C5  UNL     1       3.132  -0.126  -0.358  1.00  0.00     0.139 A 
HETATM   13  C2  UNL     1       3.243   1.084   0.277  1.00  0.00     0.043 A 
HETATM   14  C1  UNL     1       2.079   1.985   0.315  1.00  0.00     0.071 C 
HETATM   15  N1  UNL     1       4.433   1.421   0.857  1.00  0.00    -0.310 N 
HETATM   16  C3  UNL     1       5.475   0.587   0.810  1.00  0.00     0.327 A 
ATOM     17  H1  UNL     1       4.527   2.319   1.331  1.00  0.00     0.170 HD
HETATM   18  O1  UNL     1       6.548   0.930   1.352  1.00  0.00    -0.247 OA
HETATM   19  N2  UNL     1       5.376  -0.601   0.190  1.00  0.00    -0.273 N 
HETATM   20  C4  UNL     1       4.219  -0.955  -0.388  1.00  0.00     0.279 A 
ATOM     21  H2  UNL     1       6.178  -1.231   0.159  1.00  0.00     0.173 HD
HETATM   22  O2  UNL     1       4.106  -2.061  -0.972  1.00  0.00    -0.265 OA
ENDBRANCH   9  12
ENDBRANCH   1   8
BRANCH   7  23
HETATM   23  C11 UNL     1      -1.849   0.868  -0.397  1.00  0.00     0.187 C 
BRANCH  23  24
HETATM   24  C12 UNL     1      -2.380   0.612   0.973  1.00  0.00     0.030 A 
HETATM   25  C13 UNL     1      -3.727   0.453   1.317  1.00  0.00     0.054 A 
HETATM   26  C14 UNL     1      -3.820   0.233   2.673  1.00  0.00     0.074 A 
HETATM   27 CL1  UNL     1      -5.280  -0.024   3.593  1.00  0.00    -0.081 Cl
HETATM   28  C15 UNL     1      -2.541   0.256   3.161  1.00  0.00     0.125 A 
HETATM   29 CL2  UNL     1      -2.083   0.026   4.857  1.00  0.00    -0.063 Cl
HETATM   30  N6  UNL     1      -1.712   0.482   2.130  1.00  0.00    -0.347 N 
ATOM     31  H6  UNL     1      -0.698   0.547   2.215  1.00  0.00     0.167 HD
ENDBRANCH  23  24
ENDBRANCH   7  23
TORSDOF 4
