REMARK  7 active torsions:
REMARK  status: ('A' for Active; 'I' for Inactive)
REMARK    1  A    between atoms: O1_2  and  C2_3 
REMARK    2  A    between atoms: C3_6  and  N2_7 
REMARK    3  A    between atoms: N2_7  and  C4_9 
REMARK    4  A    between atoms: C7_12  and  N3_13 
REMARK    5  A    between atoms: N3_13  and  C8_15 
REMARK    6  A    between atoms: C9_18  and  C10_19 
REMARK    7  A    between atoms: C12_23  and  C13_24 
ROOT
HETATM    1  N3  UNL     1       0.833   0.738  -0.466  1.00  0.00    -0.192 N 
ATOM      2  H3  UNL     1       0.797   0.803  -1.483  1.00  0.00     0.184 HD
ENDROOT
BRANCH   1   3
HETATM    3  C7  UNL     1       2.080   0.922   0.146  1.00  0.00     0.049 A 
HETATM    4  C6  UNL     1       2.799  -0.143   0.610  1.00  0.00     0.032 A 
HETATM    5  C5  UNL     1       4.012   0.052   1.211  1.00  0.00     0.032 A 
HETATM    6  C4  UNL     1       4.528   1.318   1.361  1.00  0.00     0.049 A 
HETATM    7  C20 UNL     1       3.803   2.404   0.892  1.00  0.00     0.032 A 
HETATM    8  C19 UNL     1       2.584   2.195   0.289  1.00  0.00     0.032 A 
BRANCH   6   9
HETATM    9  N2  UNL     1       5.770   1.550   1.988  1.00  0.00    -0.192 N 
ATOM     10  H2  UNL     1       5.831   2.172   2.794  1.00  0.00     0.184 HD
BRANCH   9  11
HETATM   11  C3  UNL     1       6.824   0.970   1.535  1.00  0.00     0.684 A 
HETATM   12  N1  UNL     1       6.719   0.149   0.466  1.00  0.00    -0.167 N 
HETATM   13  C2  UNL     1       7.819  -0.482  -0.022  1.00  0.00     0.197 A 
ATOM     14  H1  UNL     1       5.811   0.003   0.024  1.00  0.00     0.186 HD
HETATM   15  C22 UNL     1       9.041  -0.281   0.578  1.00  0.00     0.183 A 
HETATM   16  C21 UNL     1       9.139   0.562   1.673  1.00  0.00     0.152 A 
HETATM   17  F2  UNL     1      10.133  -0.922   0.078  1.00  0.00    -0.200 F 
HETATM   18  N8  UNL     1       8.032   1.172   2.132  1.00  0.00    -0.199 N 
ATOM     19  H8  UNL     1       8.097   1.794   2.938  1.00  0.00     0.183 HD
BRANCH  13  20
HETATM   20  O1  UNL     1       7.729  -1.324  -1.115  1.00  0.00    -0.338 OA
HETATM   21  C1  UNL     1       6.530  -1.588  -1.791  1.00  0.00     0.211 C 
ENDBRANCH  13  20
ENDBRANCH   9  11
ENDBRANCH   6   9
ENDBRANCH   1   3
BRANCH   1  22
HETATM   22  C8  UNL     1      -0.260   0.496   0.144  1.00  0.00     0.683 A 
HETATM   23  N4  UNL     1      -1.402   0.339  -0.568  1.00  0.00    -0.186 N 
HETATM   24  C9  UNL     1      -2.580   0.084   0.029  1.00  0.00     0.117 A 
ATOM     25  H4  UNL     1      -1.367   0.416  -1.584  1.00  0.00     0.184 HD
HETATM   26  C17 UNL     1      -2.617  -0.019   1.404  1.00  0.00     0.161 A 
HETATM   27  F1  UNL     1      -3.797  -0.274   2.017  1.00  0.00    -0.202 F 
HETATM   28  C18 UNL     1      -1.459   0.139   2.137  1.00  0.00     0.150 A 
HETATM   29  N7  UNL     1      -0.298   0.394   1.498  1.00  0.00    -0.199 N 
ATOM     30  H7  UNL     1       0.560   0.511   2.037  1.00  0.00     0.183 HD
BRANCH  24  31
HETATM   31  C10 UNL     1      -3.820  -0.081  -0.735  1.00  0.00     0.079 A 
HETATM   32  C11 UNL     1      -3.886   0.010  -2.103  1.00  0.00     0.121 A 
HETATM   33  N5  UNL     1      -5.175  -0.191  -2.488  1.00  0.00    -0.353 N 
HETATM   34  C12 UNL     1      -5.892  -0.402  -1.369  1.00  0.00     0.089 A 
ATOM     35  H5  UNL     1      -5.531  -0.183  -3.444  1.00  0.00     0.166 HD
HETATM   36  N6  UNL     1      -5.048  -0.332  -0.311  1.00  0.00    -0.342 N 
ATOM     37  H6  UNL     1      -5.319  -0.454   0.665  1.00  0.00     0.167 HD
BRANCH  34  38
HETATM   38  C13 UNL     1      -7.347  -0.671  -1.246  1.00  0.00     0.007 C 
HETATM   39  C14 UNL     1      -7.554  -1.661  -0.114  1.00  0.00     0.022 C 
HETATM   40  C15 UNL     1      -7.930  -1.277  -2.487  1.00  0.00     0.022 C 
HETATM   41  C16 UNL     1      -8.023   0.619  -0.846  1.00  0.00     0.022 C 
ENDBRANCH  34  38
ENDBRANCH  24  31
ENDBRANCH   1  22
TORSDOF 7
