REMARK  4 active torsions:
REMARK  status: ('A' for Active; 'I' for Inactive)
REMARK    1  A    between atoms: O1_2  and  C2_3 
REMARK    2  A    between atoms: C7_8  and  C8_9 
REMARK    3  A    between atoms: C8_9  and  N1_10 
REMARK    4  A    between atoms: N5_19  and  C11_21 
ROOT
HETATM    1  N1  UNL     1       1.357   1.370   0.428  1.00  0.00    -0.228 N 
HETATM    2  N2  UNL     1       1.069   0.708   1.536  1.00  0.00    -0.265 N 
ATOM      3  H2  UNL     1       1.739   0.520   2.282  1.00  0.00     0.190 HD
HETATM    4  C9  UNL     1      -0.208   0.315   1.558  1.00  0.00     0.168 A 
HETATM    5  N3  UNL     1      -1.173  -0.334   2.252  1.00  0.00    -0.281 N 
ATOM      6  H3  UNL     1      -1.047  -0.770   3.165  1.00  0.00     0.188 HD
HETATM    7  N4  UNL     1      -2.315  -0.316   1.558  1.00  0.00    -0.282 N 
ATOM      8  H4  UNL     1      -3.202  -0.731   1.844  1.00  0.00     0.188 HD
HETATM    9  C10 UNL     1      -2.079   0.350   0.413  1.00  0.00     0.153 A 
HETATM   10  N5  UNL     1      -2.898   0.610  -0.558  1.00  0.00    -0.338 N 
ATOM     11  H5  UNL     1      -2.578   1.131  -1.374  1.00  0.00     0.167 HD
HETATM   12  C17 UNL     1      -0.759   0.768   0.369  1.00  0.00     0.142 A 
HETATM   13  N6  UNL     1       0.222   1.398  -0.279  1.00  0.00    -0.277 N 
ATOM     14  H6  UNL     1       0.120   1.842  -1.192  1.00  0.00     0.189 HD
ENDROOT
BRANCH   1  15
HETATM   15  C8  UNL     1       2.627   1.963   0.015  1.00  0.00     0.211 C 
BRANCH  15  16
HETATM   16  C7  UNL     1       3.421   0.968  -0.749  1.00  0.00    -0.004 A 
HETATM   17  C2  UNL     1       4.082  -0.059  -0.105  1.00  0.00     0.076 A 
HETATM   18  C3  UNL     1       4.824  -0.996  -0.804  1.00  0.00     0.037 A 
HETATM   19  C4  UNL     1       4.920  -0.921  -2.180  1.00  0.00     0.003 A 
HETATM   20  C5  UNL     1       4.272   0.090  -2.836  1.00  0.00     0.001 A 
HETATM   21  C6  UNL     1       3.534   1.019  -2.122  1.00  0.00     0.012 A 
BRANCH  17  22
HETATM   22  O1  UNL     1       3.962  -0.099   1.268  1.00  0.00    -0.355 OA
HETATM   23  C1  UNL     1       4.536  -1.035   2.128  1.00  0.00     0.210 C 
ENDBRANCH  17  22
ENDBRANCH  15  16
ENDBRANCH   1  15
BRANCH  10  24
HETATM   24  C11 UNL     1      -4.240   0.165  -0.477  1.00  0.00     0.051 A 
HETATM   25  C12 UNL     1      -5.120   0.814   0.361  1.00  0.00     0.031 A 
HETATM   26  C13 UNL     1      -6.434   0.362   0.427  1.00  0.00     0.002 A 
HETATM   27  C14 UNL     1      -6.888  -0.706  -0.311  1.00  0.00     0.002 A 
HETATM   28  C15 UNL     1      -5.993  -1.344  -1.146  1.00  0.00     0.021 A 
HETATM   29  C16 UNL     1      -4.687  -0.916  -1.229  1.00  0.00     0.037 A 
HETATM   30 BR1  UNL     1      -3.441  -1.783  -2.373  1.00  0.00    -0.049 Br
ENDBRANCH  10  24
TORSDOF 4
