REMARK  5 active torsions:
REMARK  status: ('A' for Active; 'I' for Inactive)
REMARK    1  A    between atoms: O1_2  and  C2_3 
REMARK    2  A    between atoms: C5_6  and  N1_7 
REMARK    3  A    between atoms: N1_7  and  C6_9 
REMARK    4  A    between atoms: C7_12  and  O2_13 
REMARK    5  A    between atoms: O2_13  and  C8_14 
ROOT
HETATM    1  C2  UNL     1       4.937   0.067  -0.111  1.00  0.00     0.069 A 
HETATM    2  C3  UNL     1       4.555  -1.258  -0.177  1.00  0.00     0.039 A 
HETATM    3  C4  UNL     1       3.264  -1.654  -0.487  1.00  0.00     0.034 A 
HETATM    4  C5  UNL     1       2.313  -0.695  -0.743  1.00  0.00     0.070 A 
HETATM    5  C16 UNL     1       2.688   0.645  -0.679  1.00  0.00     0.074 A 
HETATM    6  C17 UNL     1       1.734   1.673  -0.937  1.00  0.00     0.102 C 
HETATM    7  N4  UNL     1       0.966   2.510  -1.161  1.00  0.00    -0.191 NA
HETATM    8  C18 UNL     1       3.981   1.023  -0.368  1.00  0.00     0.061 A 
ENDROOT
BRANCH   4   9
HETATM    9  N1  UNL     1       0.983  -1.002  -1.065  1.00  0.00    -0.190 N 
ATOM     10  H1  UNL     1       0.735  -1.165  -2.041  1.00  0.00     0.184 HD
BRANCH   9  11
HETATM   11  C6  UNL     1       0.061  -1.085  -0.161  1.00  0.00     0.684 A 
HETATM   12  N2  UNL     1      -1.200  -1.379  -0.493  1.00  0.00    -0.169 N 
HETATM   13  C7  UNL     1      -2.213  -1.478   0.435  1.00  0.00     0.181 A 
ATOM     14  H2  UNL     1      -1.422  -1.537  -1.476  1.00  0.00     0.186 HD
HETATM   15  C14 UNL     1      -1.921  -1.269   1.752  1.00  0.00     0.078 A 
HETATM   16 BR1  UNL     1      -3.225  -1.397   3.116  1.00  0.00    -0.045 Br
HETATM   17  C15 UNL     1      -0.600  -0.963   2.080  1.00  0.00     0.129 A 
HETATM   18  N3  UNL     1       0.322  -0.884   1.138  1.00  0.00    -0.200 N 
ATOM     19  H3  UNL     1       1.278  -0.659   1.412  1.00  0.00     0.183 HD
BRANCH  13  20
HETATM   20  O2  UNL     1      -3.495  -1.790  -0.013  1.00  0.00    -0.292 OA
BRANCH  20  21
HETATM   21  C8  UNL     1      -4.414  -0.773  -0.292  1.00  0.00     0.077 A 
HETATM   22  C9  UNL     1      -5.557  -0.622   0.448  1.00  0.00     0.037 A 
HETATM   23  C10 UNL     1      -6.451   0.412   0.140  1.00  0.00     0.003 A 
HETATM   24  C11 UNL     1      -6.157   1.254  -0.903  1.00  0.00     0.000 A 
HETATM   25  C12 UNL     1      -5.012   1.107  -1.649  1.00  0.00     0.003 A 
HETATM   26  C13 UNL     1      -4.127   0.099  -1.359  1.00  0.00     0.037 A 
ENDBRANCH  20  21
ENDBRANCH  13  20
ENDBRANCH   9  11
ENDBRANCH   4   9
BRANCH   1  27
HETATM   27  O1  UNL     1       6.254   0.424   0.207  1.00  0.00    -0.356 OA
HETATM   28  C1  UNL     1       6.618   1.781   0.268  1.00  0.00     0.210 C 
ENDBRANCH   1  27
TORSDOF 5
