REMARK  5 active torsions:
REMARK  status: ('A' for Active; 'I' for Inactive)
REMARK       I    between atoms: N1_2  and  C2_4 
REMARK    1  A    between atoms: C2_4  and  O2_6 
REMARK    2  A    between atoms: O2_6  and  C3_7 
REMARK    3  A    between atoms: C8_12  and  N2_13 
REMARK       I    between atoms: N2_13  and  C9_15 
REMARK    4  A    between atoms: C9_15  and  C10_17 
REMARK    5  A    between atoms: C14_23  and  O4_24 
ROOT
HETATM    1  C3  UNL     1       5.217   0.274  -1.365  1.00  0.00     0.083 A 
HETATM    2  C4  UNL     1       4.437   1.371  -1.740  1.00  0.00     0.038 A 
HETATM    3  C5  UNL     1       3.075   1.384  -1.533  1.00  0.00     0.016 A 
HETATM    4  C6  UNL     1       2.434   0.321  -0.950  1.00  0.00    -0.007 A 
HETATM    5  C7  UNL     1       1.049   0.323  -0.734  1.00  0.00     0.049 A 
HETATM    6  C8  UNL     1       0.463  -0.759  -0.152  1.00  0.00     0.104 A 
HETATM    7  C19 UNL     1       1.263  -1.854   0.220  1.00  0.00     0.272 A 
HETATM    8  O5  UNL     1       0.760  -2.873   0.761  1.00  0.00    -0.266 OA
HETATM    9  N4  UNL     1       2.600  -1.847   0.007  1.00  0.00    -0.321 N 
ATOM     10  H4  UNL     1       3.167  -2.649   0.281  1.00  0.00     0.169 HD
HETATM   11  C20 UNL     1       3.175  -0.777  -0.568  1.00  0.00     0.048 A 
HETATM   12  C21 UNL     1       4.526  -0.779  -0.779  1.00  0.00     0.067 A 
ENDROOT
BRANCH   6  13
HETATM   13  N2  UNL     1      -0.939  -0.889   0.127  1.00  0.00    -0.318 N 
HETATM   14  C9  UNL     1      -1.948   0.017  -0.127  1.00  0.00     0.260 C 
HETATM   15  O3  UNL     1      -1.619   1.118  -0.678  1.00  0.00    -0.267 OA
ATOM     16  H2  UNL     1      -1.226  -1.762   0.569  1.00  0.00     0.169 HD
BRANCH  14  17
HETATM   17  C10 UNL     1      -3.350  -0.141   0.165  1.00  0.00     0.083 A 
HETATM   18  C11 UNL     1      -4.247   0.896  -0.166  1.00  0.00     0.030 A 
HETATM   19  C12 UNL     1      -5.575   0.817   0.078  1.00  0.00    -0.034 A 
HETATM   20  C13 UNL     1      -6.104  -0.300   0.668  1.00  0.00     0.017 A 
HETATM   21  C18 UNL     1      -6.701   1.786  -0.191  1.00  0.00     0.041 C 
HETATM   22  N3  UNL     1      -5.254  -1.280   0.980  1.00  0.00    -0.339 N 
HETATM   23  C16 UNL     1      -7.597  -0.157   0.843  1.00  0.00     0.058 C 
HETATM   24  C14 UNL     1      -3.907  -1.240   0.750  1.00  0.00     0.158 A 
ATOM     25  H3  UNL     1      -5.636  -2.117   1.421  1.00  0.00     0.168 HD
HETATM   26  C17 UNL     1      -7.745   1.351   0.784  1.00  0.00     0.011 C 
BRANCH  24  27
HETATM   27  O4  UNL     1      -3.151  -2.354   1.137  1.00  0.00    -0.340 OA
HETATM   28  C15 UNL     1      -3.798  -3.440   1.731  1.00  0.00     0.211 C 
ENDBRANCH  24  27
ENDBRANCH  14  17
ENDBRANCH   6  13
BRANCH   1  29
HETATM   29  O2  UNL     1       6.587   0.238  -1.563  1.00  0.00    -0.262 OA
BRANCH  29  30
HETATM   30  C2  UNL     1       7.502   0.696  -0.618  1.00  0.00     0.365 C 
HETATM   31  N1  UNL     1       8.900   0.657  -0.826  1.00  0.00    -0.341 N 
HETATM   32  C1  UNL     1       9.777   1.154   0.210  1.00  0.00     0.151 C 
ATOM     33  H1  UNL     1       9.284   0.284  -1.694  1.00  0.00     0.164 HD
HETATM   34  O1  UNL     1       7.050   1.156   0.449  1.00  0.00    -0.238 OA
ENDBRANCH  29  30
ENDBRANCH   1  29
TORSDOF 5
