REMARK  6 active torsions:
REMARK  status: ('A' for Active; 'I' for Inactive)
REMARK    1  A    between atoms: C3_6  and  C4_7 
REMARK    2  A    between atoms: C8_12  and  C9_13 
REMARK    3  A    between atoms: C9_13  and  C10_14 
REMARK    4  A    between atoms: C10_14  and  O3_15 
REMARK    5  A    between atoms: C12_20  and  C13_21 
REMARK    6  A    between atoms: C13_21  and  C14_23 
ROOT
HETATM    1  O1  UNL     1      -0.015   1.415  -2.637  1.00  0.00    -0.266 OA
HETATM    2  C1  UNL     1      -0.562   1.076  -1.667  1.00  0.00     0.272 C 
HETATM    3  N1  UNL     1      -2.004   0.915  -1.820  1.00  0.00    -0.323 N 
ATOM      4  H1  UNL     1      -2.440   1.095  -2.725  1.00  0.00     0.169 HD
HETATM    5  C2  UNL     1      -2.820   0.503  -0.702  1.00  0.00     0.037 C 
HETATM    6  C3  UNL     1      -4.050   0.908  -0.587  1.00  0.00     0.064 C 
HETATM    7  C8  UNL     1      -2.092  -0.388   0.261  1.00  0.00     0.134 C 
HETATM    8  N2  UNL     1      -0.930   0.392   0.646  1.00  0.00    -0.375 N 
ATOM      9  H2  UNL     1      -0.774   0.643   1.622  1.00  0.00     0.160 HD
HETATM   10  C11 UNL     1      -0.002   0.805  -0.372  1.00  0.00     0.101 C 
HETATM   11  C12 UNL     1       1.248   0.921  -0.057  1.00  0.00     0.090 C 
ENDROOT
BRANCH  11  12
HETATM   12  C13 UNL     1       2.369   1.324  -0.839  1.00  0.00     0.188 C 
HETATM   13  O4  UNL     1       2.364   1.659  -2.019  1.00  0.00    -0.287 OA
BRANCH  12  14
HETATM   14  C14 UNL     1       3.741   1.368  -0.216  1.00  0.00     0.065 A 
HETATM   15  C15 UNL     1       4.329   2.432   0.425  1.00  0.00     0.119 A 
HETATM   16 CL1  UNL     1       3.570   4.013   0.657  1.00  0.00    -0.063 Cl
HETATM   17  N3  UNL     1       5.533   2.032   0.812  1.00  0.00    -0.345 N 
HETATM   18  C16 UNL     1       5.734   0.738   0.436  1.00  0.00     0.044 A 
ATOM     19  H3  UNL     1       6.208   2.607   1.316  1.00  0.00     0.167 HD
HETATM   20  C17 UNL     1       6.784  -0.145   0.582  1.00  0.00     0.030 A 
HETATM   21  C21 UNL     1       4.600   0.300  -0.221  1.00  0.00     0.008 A 
HETATM   22  C18 UNL     1       6.738  -1.444   0.095  1.00  0.00     0.002 A 
HETATM   23  C19 UNL     1       5.605  -1.883  -0.561  1.00  0.00     0.001 A 
HETATM   24  C20 UNL     1       4.558  -0.998  -0.704  1.00  0.00     0.015 A 
ENDBRANCH  12  14
ENDBRANCH  11  12
BRANCH   7  25
HETATM   25  C9  UNL     1      -1.558  -1.639  -0.389  1.00  0.00     0.057 C 
BRANCH  25  26
HETATM   26  C10 UNL     1      -2.560  -2.536  -1.017  1.00  0.00     0.166 C 
BRANCH  26  27
HETATM   27  O3  UNL     1      -3.481  -3.047  -0.116  1.00  0.00    -0.401 OA
ATOM     28  H3  UNL     1      -4.122  -3.621  -0.518  1.00  0.00     0.209 HD
ENDBRANCH  26  27
ENDBRANCH  25  26
ENDBRANCH   7  25
BRANCH   6  29
HETATM   29  C4  UNL     1      -5.006   0.610   0.450  1.00  0.00     0.076 A 
HETATM   30  C5  UNL     1      -5.967   1.506   0.939  1.00  0.00     0.039 A 
HETATM   31  C6  UNL     1      -6.680   0.849   1.914  1.00  0.00     0.027 A 
HETATM   32  C7  UNL     1      -6.128  -0.410   1.978  1.00  0.00     0.142 A 
HETATM   33  O2  UNL     1      -5.155  -0.493   1.101  1.00  0.00    -0.323 OA
ENDBRANCH   6  29
TORSDOF 6
