REMARK  8 active torsions:
REMARK  status: ('A' for Active; 'I' for Inactive)
REMARK    1  A    between atoms: C5_6  and  C6_7 
REMARK    2  A    between atoms: C7_10  and  C8_11 
REMARK    3  A    between atoms: C8_11  and  O2_12 
REMARK    4  A    between atoms: C8_11  and  N2_14 
REMARK    5  A    between atoms: N2_14  and  C9_16 
REMARK    6  A    between atoms: C19_27  and  C20_28 
REMARK    7  A    between atoms: C20_28  and  O3_29 
REMARK    8  A    between atoms: C21_33  and  O4_34 
ROOT
HETATM    1  C6  UNL     1       2.629  -0.261   0.375  1.00  0.00     0.122 A 
HETATM    2  N1  UNL     1       1.621   0.592   0.568  1.00  0.00    -0.337 N 
ATOM      3  H1  UNL     1       1.719   1.546   0.916  1.00  0.00     0.168 HD
HETATM    4  C7  UNL     1       0.427  -0.007   0.228  1.00  0.00     0.110 A 
HETATM    5  C19 UNL     1       0.760  -1.264  -0.185  1.00  0.00     0.066 A 
HETATM    6  N3  UNL     1       2.118  -1.400  -0.085  1.00  0.00    -0.341 N 
ATOM      7  H3  UNL     1       2.651  -2.237  -0.324  1.00  0.00     0.167 HD
ENDROOT
BRANCH   4   8
HETATM    8  C8  UNL     1      -0.864   0.650   0.343  1.00  0.00     0.170 C 
BRANCH   8   9
HETATM    9  O2  UNL     1      -0.801   1.874   0.780  1.00  0.00    -0.344 OA
ATOM     10  H2  UNL     1      -1.645   2.304   0.855  1.00  0.00     0.219 HD
ENDBRANCH   8   9
BRANCH   8  11
HETATM   11  N2  UNL     1      -2.124   0.144   0.053  1.00  0.00    -0.334 N 
ATOM     12  H2  UNL     1      -2.137  -0.817  -0.289  1.00  0.00     0.168 HD
BRANCH  11  13
HETATM   13  C9  UNL     1      -3.396   0.762   0.161  1.00  0.00     0.046 A 
HETATM   14  C10 UNL     1      -3.499   2.115   0.346  1.00  0.00     0.054 A 
HETATM   15  C11 UNL     1      -4.771   2.697   0.425  1.00  0.00     0.037 A 
HETATM   16 CL1  UNL     1      -4.896   4.430   0.664  1.00  0.00    -0.084 Cl
HETATM   17  C12 UNL     1      -5.901   1.937   0.318  1.00  0.00     0.036 A 
HETATM   18  C13 UNL     1      -5.770   0.567   0.130  1.00  0.00    -0.022 A 
HETATM   19  C14 UNL     1      -6.926  -0.216   0.028  1.00  0.00     0.012 A 
HETATM   20  C18 UNL     1      -4.538  -0.035   0.049  1.00  0.00     0.001 A 
HETATM   21  C15 UNL     1      -6.870  -1.580  -0.152  1.00  0.00     0.001 A 
HETATM   22  C16 UNL     1      -5.640  -2.186  -0.233  1.00  0.00     0.001 A 
HETATM   23  C17 UNL     1      -4.484  -1.405  -0.131  1.00  0.00     0.014 A 
ENDBRANCH  11  13
ENDBRANCH   8  11
ENDBRANCH   4   8
BRANCH   5  24
HETATM   24  C20 UNL     1      -0.125  -2.359  -0.678  1.00  0.00     0.223 C 
BRANCH  24  25
HETATM   25  O3  UNL     1       0.679  -3.477  -1.011  1.00  0.00    -0.395 OA
ATOM     26  H3  UNL     1       0.115  -4.174  -1.325  1.00  0.00     0.209 HD
ENDBRANCH  24  25
ENDBRANCH   5  24
BRANCH   1  27
HETATM   27  C5  UNL     1       4.055   0.035   0.619  1.00  0.00     0.083 C 
HETATM   28  C4  UNL     1       5.007  -0.752   1.373  1.00  0.00     0.166 C 
HETATM   29  C3  UNL     1       6.338  -0.196   1.018  1.00  0.00     0.095 C 
HETATM   30  O1  UNL     1       4.694  -1.694   2.147  1.00  0.00    -0.292 OA
HETATM   31  C2  UNL     1       6.012   1.214   0.608  1.00  0.00     0.046 C 
HETATM   32  C1  UNL     1       6.915   1.698  -0.506  1.00  0.00     0.017 C 
HETATM   33  C21 UNL     1       4.603   1.148   0.177  1.00  0.00     0.065 C 
BRANCH  33  34
HETATM   34  O4  UNL     1       3.973   2.151  -0.597  1.00  0.00    -0.363 OA
ATOM     35  H4  UNL     1       3.065   2.108  -0.875  1.00  0.00     0.217 HD
ENDBRANCH  33  34
ENDBRANCH   1  27
TORSDOF 8
