REMARK  6 active torsions:
REMARK  status: ('A' for Active; 'I' for Inactive)
REMARK    1  A    between atoms: O1_2  and  C2_3 
REMARK    2  A    between atoms: C4_5  and  O2_6 
REMARK    3  A    between atoms: O2_6  and  C5_7 
REMARK    4  A    between atoms: C5_7  and  C6_8 
REMARK    5  A    between atoms: C10_13  and  N1_14 
REMARK       I    between atoms: N1_14  and  C11_15 
REMARK       I    between atoms: C11_15  and  N2_17 
REMARK    6  A    between atoms: N2_17  and  C12_19 
ROOT
HETATM    1  N1  UNL     1      -0.254  -0.853  -1.862  1.00  0.00    -0.349 NA
HETATM    2  C11 UNL     1       1.038  -0.530  -1.806  1.00  0.00     0.412 C 
HETATM    3  O4  UNL     1       1.822  -0.302  -2.778  1.00  0.00    -0.229 OA
HETATM    4  N2  UNL     1       1.715  -0.411  -0.520  1.00  0.00    -0.129 N 
ATOM      5  H2  UNL     1       1.184  -0.585   0.334  1.00  0.00     0.190 HD
ENDROOT
BRANCH   1   6
HETATM    6  C10 UNL     1      -1.589  -1.186  -1.922  1.00  0.00     0.149 A 
HETATM    7  C4  UNL     1      -2.316  -0.886  -0.690  1.00  0.00     0.112 A 
HETATM    8  C3  UNL     1      -3.631  -1.236  -0.621  1.00  0.00     0.080 A 
HETATM    9  C2  UNL     1      -4.283  -1.849  -1.654  1.00  0.00     0.109 A 
HETATM   10  C21 UNL     1      -3.623  -2.139  -2.820  1.00  0.00     0.152 A 
HETATM   11  C20 UNL     1      -2.279  -1.799  -2.932  1.00  0.00     0.093 A 
HETATM   12  F1  UNL     1      -4.205  -2.745  -3.871  1.00  0.00    -0.203 F 
BRANCH   7  13
HETATM   13  O2  UNL     1      -1.571  -0.286   0.246  1.00  0.00    -0.341 OA
BRANCH  13  14
HETATM   14  C5  UNL     1      -1.792   0.189   1.481  1.00  0.00     0.240 C 
BRANCH  14  15
HETATM   15  C6  UNL     1      -2.739   1.340   1.582  1.00  0.00     0.076 A 
HETATM   16  C7  UNL     1      -3.424   2.012   0.607  1.00  0.00     0.037 A 
HETATM   17  C8  UNL     1      -4.174   3.013   1.220  1.00  0.00     0.027 A 
HETATM   18  C9  UNL     1      -3.889   2.881   2.556  1.00  0.00     0.142 A 
HETATM   19  O3  UNL     1      -3.061   1.909   2.724  1.00  0.00    -0.325 OA
ENDBRANCH  14  15
ENDBRANCH  13  14
ENDBRANCH   7  13
BRANCH   9  20
HETATM   20  O1  UNL     1      -5.605  -2.184  -1.542  1.00  0.00    -0.353 OA
HETATM   21  C1  UNL     1      -6.437  -1.970  -0.445  1.00  0.00     0.210 C 
ENDBRANCH   9  20
ENDBRANCH   1   6
BRANCH   4  22
HETATM   22  C12 UNL     1       3.090  -0.061  -0.414  1.00  0.00     0.690 A 
HETATM   23  N3  UNL     1       3.865   0.198  -1.478  1.00  0.00    -0.155 N 
HETATM   24  C13 UNL     1       5.165   0.511  -1.398  1.00  0.00     0.272 A 
ATOM     25  H3  UNL     1       3.439   0.154  -2.404  1.00  0.00     0.187 HD
HETATM   26  O5  UNL     1       5.899   0.754  -2.381  1.00  0.00    -0.267 OA
HETATM   27  C14 UNL     1       5.719   0.563  -0.125  1.00  0.00     0.060 A 
HETATM   28  C15 UNL     1       7.060   0.877   0.070  1.00  0.00     0.019 A 
HETATM   29  C19 UNL     1       4.960   0.304   0.994  1.00  0.00     0.065 A 
HETATM   30  C16 UNL     1       7.600   0.924   1.343  1.00  0.00     0.001 A 
HETATM   31  C17 UNL     1       6.840   0.663   2.464  1.00  0.00     0.002 A 
HETATM   32  C18 UNL     1       5.510   0.352   2.282  1.00  0.00     0.031 A 
HETATM   33  N4  UNL     1       3.674   0.003   0.807  1.00  0.00    -0.190 N 
ATOM     34  H4  UNL     1       3.099  -0.189   1.627  1.00  0.00     0.184 HD
ENDBRANCH   4  22
TORSDOF 6
