REMARK  5 active torsions:
REMARK  status: ('A' for Active; 'I' for Inactive)
REMARK    1  A    between atoms: C3_4  and  N2_5 
REMARK       I    between atoms: N2_5  and  C4_7 
REMARK    2  A    between atoms: C4_7  and  C5_9 
REMARK    3  A    between atoms: C5_9  and  O2_10 
REMARK    4  A    between atoms: O2_10  and  C6_11 
REMARK    5  A    between atoms: C6_11  and  C7_12 
ROOT
HETATM    1  N2  UNL     1       1.578  -0.558   0.992  1.00  0.00    -0.325 N 
ATOM      2  H2  UNL     1       1.591  -1.572   0.882  1.00  0.00     0.169 HD
HETATM    3  C4  UNL     1       0.613  -0.021   1.860  1.00  0.00     0.245 C 
HETATM    4  O1  UNL     1       0.491   1.180   2.088  1.00  0.00    -0.271 OA
ENDROOT
BRANCH   3   5
HETATM    5  C5  UNL     1      -0.313  -1.003   2.538  1.00  0.00     0.270 C 
BRANCH   5   6
HETATM    6  O2  UNL     1      -1.239  -0.479   3.340  1.00  0.00    -0.379 OA
BRANCH   6   7
HETATM    7  C6  UNL     1      -2.216   0.343   2.939  1.00  0.00     0.201 C 
BRANCH   7   8
HETATM    8  C7  UNL     1      -3.218  -0.159   1.951  1.00  0.00     0.157 C 
HETATM    9  C8  UNL     1      -2.711  -0.252   0.534  1.00  0.00     0.076 C 
HETATM   10  C9  UNL     1      -3.962  -0.026  -0.292  1.00  0.00    -0.021 A 
HETATM   11  C10 UNL     1      -4.343  -0.377  -1.568  1.00  0.00     0.035 A 
HETATM   12  C14 UNL     1      -4.798   0.695   0.531  1.00  0.00     0.077 A 
HETATM   13  C11 UNL     1      -5.573  -0.025  -2.082  1.00  0.00     0.059 A 
HETATM   14 CL1  UNL     1      -6.085  -0.457  -3.699  1.00  0.00    -0.082 Cl
HETATM   15  C12 UNL     1      -6.433   0.702  -1.270  1.00  0.00     0.070 A 
HETATM   16  N3  UNL     1      -7.710   1.087  -1.756  1.00  0.00    -0.101 NA
HETATM   17  C13 UNL     1      -6.026   1.043   0.011  1.00  0.00     0.065 A 
HETATM   18  O3  UNL     1      -4.179   0.918   1.764  1.00  0.00    -0.343 OA
ENDBRANCH   7   8
ENDBRANCH   6   7
ENDBRANCH   5   6
ENDBRANCH   3   5
BRANCH   1  19
HETATM   19  C3  UNL     1       2.531   0.181   0.259  1.00  0.00     0.043 A 
HETATM   20  C2  UNL     1       2.557   1.543   0.125  1.00  0.00     0.056 A 
HETATM   21  C1  UNL     1       3.499   2.235  -0.653  1.00  0.00     0.049 A 
HETATM   22  N1  UNL     1       3.421   3.646  -0.712  1.00  0.00    -0.102 NA
HETATM   23  C17 UNL     1       4.445   1.517  -1.317  1.00  0.00     0.042 A 
HETATM   24  C16 UNL     1       4.451   0.146  -1.207  1.00  0.00     0.020 A 
HETATM   25  C15 UNL     1       3.525  -0.529  -0.441  1.00  0.00    -0.017 A 
HETATM   26  C18 UNL     1       5.460  -0.646  -1.934  1.00  0.00     0.160 C 
HETATM   27  C21 UNL     1       3.667  -1.997  -0.396  1.00  0.00     0.042 C 
HETATM   28  C20 UNL     1       5.123  -2.438  -0.268  1.00  0.00     0.012 C 
HETATM   29  C19 UNL     1       5.948  -1.947  -1.423  1.00  0.00     0.084 C 
HETATM   30  O4  UNL     1       5.915  -0.210  -3.007  1.00  0.00    -0.292 OA
ENDBRANCH   1  19
TORSDOF 5
