REMARK  16 active torsions:
REMARK  status: ('A' for Active; 'I' for Inactive)
REMARK    1  A    between atoms: N1_1  and  N2_4 
REMARK    2  A    between atoms: N2_4  and  C1_6 
REMARK    3  A    between atoms: C1_6  and  O1_7 
REMARK    4  A    between atoms: C1_6  and  N3_9 
REMARK    5  A    between atoms: N3_9  and  C2_11 
REMARK    6  A    between atoms: C4_13  and  C5_14 
REMARK    7  A    between atoms: C6_18  and  C7_19 
REMARK    8  A    between atoms: C7_19  and  C8_20 
REMARK    9  A    between atoms: C8_20  and  O4_21 
REMARK   10  A    between atoms: C8_20  and  C9_23 
REMARK   11  A    between atoms: C9_23  and  O5_24 
REMARK   12  A    between atoms: C9_23  and  C10_26 
REMARK   13  A    between atoms: C10_26  and  O6_27 
REMARK   14  A    between atoms: C11_30  and  O8_31 
REMARK   15  A    between atoms: C11_30  and  S1_33 
REMARK   16  A    between atoms: S1_33  and  C12_34 
ROOT
HETATM    1  C2  UNL     1      -0.771   2.750  -0.534  1.00  0.00     0.028 C 
HETATM    2  C3  UNL     1       0.362   3.401   0.138  1.00  0.00     0.102 C 
HETATM    3  C4  UNL     1       1.569   2.551  -0.187  1.00  0.00     0.332 C 
HETATM    4  N4  UNL     1       1.110   1.379  -0.852  1.00  0.00     0.149 N 
HETATM    5  C6  UNL     1       1.408   0.135  -0.179  1.00  0.00     0.366 C 
HETATM    6  O7  UNL     1       0.226  -0.526   0.076  1.00  0.00    -0.308 OA
HETATM    7  C11 UNL     1      -0.827   0.282  -0.298  1.00  0.00     0.261 C 
HETATM    8  C15 UNL     1      -0.301   1.452  -1.054  1.00  0.00     0.346 C 
ENDROOT
BRANCH   7   9
HETATM    9  O8  UNL     1      -1.531   0.744   0.819  1.00  0.00    -0.355 OA
ATOM     10  H8  UNL     1      -2.256   1.301   0.561  1.00  0.00     0.214 HD
ENDBRANCH   7   9
BRANCH   7  11
HETATM   11  S1  UNL     1      -1.907  -0.673  -1.398  1.00  0.00    -0.023 SA
BRANCH  11  12
HETATM   12  C12 UNL     1      -2.713  -2.019  -0.567  1.00  0.00     0.167 A 
HETATM   13  N5  UNL     1      -3.905  -1.901   0.038  1.00  0.00    -0.310 N 
HETATM   14  C13 UNL     1      -4.480  -2.946   0.657  1.00  0.00     0.208 A 
ATOM     15  H5  UNL     1      -4.384  -1.000   0.028  1.00  0.00     0.170 HD
HETATM   16  N6  UNL     1      -5.742  -2.836   1.302  1.00  0.00    -0.063 NA
HETATM   17  N7  UNL     1      -3.865  -4.141   0.682  1.00  0.00    -0.163 N 
HETATM   18  C14 UNL     1      -2.673  -4.246   0.073  1.00  0.00     0.680 A 
ATOM     19  H7  UNL     1      -4.290  -4.942   1.149  1.00  0.00     0.187 HD
HETATM   20  N8  UNL     1      -2.052  -5.376   0.078  1.00  0.00    -0.234 N 
HETATM   21  N9  UNL     1      -2.095  -3.209  -0.546  1.00  0.00    -0.170 N 
ATOM     22  H82 UNL     1      -2.492  -6.166   0.550  1.00  0.00     0.174 HD
ATOM     23  H81 UNL     1      -1.146  -5.456  -0.385  1.00  0.00     0.174 HD
ATOM     24  H9  UNL     1      -1.189  -3.324  -1.000  1.00  0.00     0.186 HD
ENDBRANCH  11  12
ENDBRANCH   7  11
BRANCH   5  25
HETATM   25  C7  UNL     1       2.205  -0.690  -1.167  1.00  0.00     0.099 C 
BRANCH  25  26
HETATM   26  C8  UNL     1       2.619  -2.030  -0.663  1.00  0.00     0.153 C 
BRANCH  26  27
HETATM   27  O4  UNL     1       3.343  -2.641  -1.713  1.00  0.00    -0.393 OA
ATOM     28  H4  UNL     1       3.607  -3.495  -1.392  1.00  0.00     0.210 HD
ENDBRANCH  26  27
BRANCH  26  29
HETATM   29  C9  UNL     1       3.620  -1.848   0.472  1.00  0.00     0.170 C 
BRANCH  29  30
HETATM   30  O5  UNL     1       4.679  -1.050   0.102  1.00  0.00    -0.391 OA
ATOM     31  H5  UNL     1       5.303  -0.937   0.809  1.00  0.00     0.210 HD
ENDBRANCH  29  30
BRANCH  29  32
HETATM   32  C10 UNL     1       4.153  -3.215   0.887  1.00  0.00     0.198 C 
BRANCH  32  33
HETATM   33  O6  UNL     1       5.019  -3.115   1.951  1.00  0.00    -0.398 OA
ATOM     34  H6  UNL     1       5.351  -3.967   2.210  1.00  0.00     0.209 HD
ENDBRANCH  32  33
ENDBRANCH  29  32
ENDBRANCH  26  29
ENDBRANCH  25  26
ENDBRANCH   5  25
BRANCH   1  35
HETATM   35  N3  UNL     1      -1.944   3.200  -0.657  1.00  0.00    -0.351 N 
ATOM     36  H3  UNL     1      -2.607   2.609  -1.159  1.00  0.00     0.163 HD
BRANCH  35  37
HETATM   37  C1  UNL     1      -2.440   4.435  -0.175  1.00  0.00     0.341 C 
BRANCH  37  38
HETATM   38  N2  UNL     1      -3.029   4.264   1.143  1.00  0.00    -0.297 N 
ATOM     39  H2  UNL     1      -2.644   3.562   1.775  1.00  0.00     0.184 HD
BRANCH  38  40
HETATM   40  N1  UNL     1      -3.991   4.955   1.515  1.00  0.00    -0.346 N 
ATOM     41  H12 UNL     1      -4.364   5.652   0.871  1.00  0.00     0.176 HD
ATOM     42  H11 UNL     1      -4.404   4.835   2.440  1.00  0.00     0.176 HD
ENDBRANCH  38  40
ENDBRANCH  37  38
BRANCH  37  43
HETATM   43  O1  UNL     1      -3.428   4.937  -1.036  1.00  0.00    -0.359 OA
ATOM     44  H1  UNL     1      -3.043   5.049  -1.897  1.00  0.00     0.214 HD
ENDBRANCH  37  43
ENDBRANCH  35  37
ENDBRANCH   1  35
BRANCH   3  45
HETATM   45  C5  UNL     1       2.466   3.324  -1.081  1.00  0.00     0.208 C 
HETATM   46  O2  UNL     1       2.699   2.892  -2.235  1.00  0.00    -0.646 OA
HETATM   47  O3  UNL     1       3.074   4.515  -0.715  1.00  0.00    -0.646 OA
ENDBRANCH   3  45
TORSDOF 16
