REMARK  2 active torsions:
REMARK  status: ('A' for Active; 'I' for Inactive)
REMARK    1  A    between atoms: C2_3  and  N1_4 
REMARK    2  A    between atoms: N1_4  and  C3_6 
ROOT
HETATM    1  O1  UNL     1       1.328  -2.167   0.213  1.00  0.00    -0.285 OA
HETATM    2  C1  UNL     1       0.299  -1.483   0.113  1.00  0.00     0.210 A 
HETATM    3  C2  UNL     1       0.429  -0.031   0.044  1.00  0.00     0.097 A 
HETATM    4  C9  UNL     1      -0.812   0.734  -0.073  1.00  0.00     0.035 A 
HETATM    5  C10 UNL     1      -2.046   0.089  -0.115  1.00  0.00     0.057 A 
HETATM    6  N2  UNL     1      -3.017   1.016  -0.225  1.00  0.00    -0.354 N 
ATOM      7  H2  UNL     1      -4.016   0.818  -0.277  1.00  0.00     0.166 HD
HETATM    8  C11 UNL     1      -2.466   2.244  -0.256  1.00  0.00     0.043 A 
HETATM    9  C12 UNL     1      -3.030   3.493  -0.357  1.00  0.00     0.030 A 
HETATM   10  C13 UNL     1      -2.209   4.584  -0.364  1.00  0.00     0.002 A 
HETATM   11  C14 UNL     1      -0.829   4.421  -0.270  1.00  0.00     0.001 A 
HETATM   12  C15 UNL     1      -0.250   3.175  -0.168  1.00  0.00     0.014 A 
HETATM   13  C16 UNL     1      -1.080   2.075  -0.161  1.00  0.00     0.005 A 
HETATM   14  C17 UNL     1      -2.174  -1.354  -0.047  1.00  0.00     0.006 A 
HETATM   15  C18 UNL     1      -3.410  -1.986  -0.090  1.00  0.00     0.014 A 
HETATM   16  C19 UNL     1      -3.520  -3.359  -0.024  1.00  0.00     0.001 A 
HETATM   17  C20 UNL     1      -2.395  -4.116   0.086  1.00  0.00     0.001 A 
HETATM   18  C21 UNL     1      -1.137  -3.502   0.131  1.00  0.00     0.016 A 
HETATM   19  C22 UNL     1      -1.034  -2.119   0.064  1.00  0.00     0.029 A 
ENDROOT
BRANCH   3  20
HETATM   20  N1  UNL     1       1.528   0.604   0.078  1.00  0.00    -0.352 N 
ATOM     21  H1  UNL     1       1.469   1.621   0.020  1.00  0.00     0.166 HD
BRANCH  20  22
HETATM   22  C3  UNL     1       2.813   0.057   0.187  1.00  0.00     0.032 A 
HETATM   23  C4  UNL     1       3.487  -0.276  -0.964  1.00  0.00     0.029 A 
HETATM   24  C5  UNL     1       4.751  -0.815  -0.905  1.00  0.00     0.002 A 
HETATM   25  C6  UNL     1       5.376  -1.037   0.295  1.00  0.00     0.000 A 
HETATM   26  C7  UNL     1       4.688  -0.699   1.436  1.00  0.00     0.002 A 
HETATM   27  C8  UNL     1       3.426  -0.159   1.396  1.00  0.00     0.029 A 
ENDBRANCH  20  22
ENDBRANCH   3  20
TORSDOF 2
