REMARK  11 active torsions:
REMARK  status: ('A' for Active; 'I' for Inactive)
REMARK    1  A    between atoms: N1_1  and  C1_4 
REMARK    2  A    between atoms: C4_13  and  N6_14 
REMARK    3  A    between atoms: C5_19  and  C6_20 
REMARK    4  A    between atoms: C6_20  and  C7_21 
REMARK    5  A    between atoms: C6_20  and  N9_29 
REMARK    6  A    between atoms: C7_21  and  C8_22 
REMARK    7  A    between atoms: C8_22  and  N8_23 
REMARK    8  A    between atoms: N8_23  and  S1_25 
REMARK    9  A    between atoms: N9_29  and  C9_30 
REMARK   10  A    between atoms: C9_30  and  O4_31 
REMARK   11  A    between atoms: C9_30  and  O5_33 
ROOT
HETATM    1  C1  UNL     1       4.824   1.852   1.742  1.00  0.00     0.705 A 
HETATM    2  N2  UNL     1       4.223   0.735   1.295  1.00  0.00    -0.019 N 
ATOM      3  H2  UNL     1       4.684  -0.164   1.439  1.00  0.00     0.203 HD
HETATM    4  C2  UNL     1       3.028   0.763   0.661  1.00  0.00     0.737 A 
HETATM    5  N3  UNL     1       2.239  -0.194   0.127  1.00  0.00    -0.159 N 
HETATM    6  C3  UNL     1       1.122   0.349  -0.408  1.00  0.00     0.176 A 
HETATM    7  N4  UNL     1       1.294   1.684  -0.161  1.00  0.00    -0.246 N 
ATOM      8  H4  UNL     1       0.628   2.407  -0.433  1.00  0.00     0.190 HD
HETATM    9  N5  UNL     1       2.410   1.919   0.463  1.00  0.00     0.092 N 
HETATM   10  C4  UNL     1       3.000   3.063   0.908  1.00  0.00     0.727 A 
HETATM   11  N7  UNL     1       4.187   3.031   1.537  1.00  0.00    -0.020 N 
ATOM     12  H7  UNL     1       4.612   3.900   1.862  1.00  0.00     0.203 HD
HETATM   13  C5  UNL     1      -0.035  -0.191  -1.112  1.00  0.00     0.151 C 
HETATM   14  O6  UNL     1       0.134  -1.413  -1.686  1.00  0.00    -0.342 OA
HETATM   15  C10 UNL     1       0.695  -2.411  -0.962  1.00  0.00     0.218 C 
HETATM   16  C11 UNL     1       2.201  -2.329  -1.071  1.00  0.00     0.187 A 
HETATM   17  C12 UNL     1       2.925  -2.465  -2.272  1.00  0.00     0.276 A 
HETATM   18  N10 UNL     1       2.927  -3.575  -1.304  1.00  0.00    -0.058 N 
ATOM     19 1H10 UNL     1       2.704  -4.570  -1.319  1.00  0.00     0.278 HD
ATOM     20 2H10 UNL     1       3.630  -4.125  -0.811  1.00  0.00     0.278 HD
HETATM   21  C13 UNL     1       2.637  -1.575   0.170  1.00  0.00     0.192 C 
ENDROOT
BRANCH  13  22
HETATM   22  C6  UNL     1      -1.351  -0.029  -0.383  1.00  0.00     0.122 C 
BRANCH  22  23
HETATM   23  C7  UNL     1      -1.719   1.398  -0.022  1.00  0.00     0.096 C 
BRANCH  23  24
HETATM   24  C8  UNL     1      -3.098   1.529   0.524  1.00  0.00     0.141 C 
BRANCH  24  25
HETATM   25  N8  UNL     1      -4.130   1.124  -0.381  1.00  0.00    -0.300 N 
ATOM     26  H8  UNL     1      -3.927   0.773  -1.317  1.00  0.00     0.174 HD
BRANCH  25  27
HETATM   27  S1  UNL     1      -5.717   1.267   0.210  1.00  0.00     0.204 S 
HETATM   28  O1  UNL     1      -6.689   1.647  -0.869  1.00  0.00    -0.578 OA
HETATM   29  O2  UNL     1      -5.814   2.282   1.312  1.00  0.00    -0.578 OA
HETATM   30  O3  UNL     1      -6.215  -0.196   0.861  1.00  0.00    -0.578 OA
ENDBRANCH  25  27
ENDBRANCH  24  25
ENDBRANCH  23  24
ENDBRANCH  22  23
BRANCH  22  31
HETATM   31  N9  UNL     1      -2.048  -0.912  -0.113  1.00  0.00    -0.392 NA
BRANCH  31  32
HETATM   32  C9  UNL     1      -2.839  -1.913   0.193  1.00  0.00     0.449 C 
BRANCH  32  33
HETATM   33  O4  UNL     1      -2.303  -3.007   0.926  1.00  0.00    -0.344 OA
ATOM     34  H4  UNL     1      -2.876  -3.732   1.148  1.00  0.00     0.215 HD
ENDBRANCH  32  33
BRANCH  32  35
HETATM   35  O5  UNL     1      -3.447  -2.566  -0.935  1.00  0.00    -0.344 OA
ATOM     36  H5  UNL     1      -4.020  -3.291  -0.713  1.00  0.00     0.215 HD
ENDBRANCH  32  35
ENDBRANCH  31  32
ENDBRANCH  22  31
ENDBRANCH  13  22
BRANCH  10  37
HETATM   37  N6  UNL     1       2.436   4.194   0.737  1.00  0.00    -0.232 N 
ATOM     38  H62 UNL     1       1.535   4.218   0.260  1.00  0.00     0.174 HD
ATOM     39  H61 UNL     1       2.878   5.051   1.070  1.00  0.00     0.174 HD
ENDBRANCH  10  37
BRANCH   1  40
HETATM   40  N1  UNL     1       5.981   1.813   2.354  1.00  0.00    -0.234 N 
ATOM     41  H12 UNL     1       6.460   0.926   2.508  1.00  0.00     0.174 HD
ATOM     42  H11 UNL     1       6.437   2.660   2.693  1.00  0.00     0.174 HD
ENDBRANCH   1  40
TORSDOF 11
