REMARK  13 active torsions:
REMARK  status: ('A' for Active; 'I' for Inactive)
REMARK    1  A    between atoms: C2_2  and  O1_4 
REMARK    2  A    between atoms: C2_2  and  C4_6 
REMARK    3  A    between atoms: C4_6  and  O2_7 
REMARK    4  A    between atoms: C4_6  and  C5_9 
REMARK    5  A    between atoms: C7_13  and  O5_14 
REMARK    6  A    between atoms: O5_14  and  C8_15 
REMARK    7  A    between atoms: C9_18  and  N2_19 
REMARK    8  A    between atoms: N2_19  and  O6_21 
REMARK    9  A    between atoms: C12_26  and  O7_28 
REMARK   10  A    between atoms: C14_30  and  O8_31 
REMARK   11  A    between atoms: C15_33  and  O9_34 
REMARK   12  A    between atoms: C16_36  and  O10_37 
REMARK   13  A    between atoms: C16_36  and  C17_39 
ROOT
HETATM    1  C8  UNL     1       2.160   0.073   0.554  1.00  0.00     0.251 C 
HETATM    2  N1  UNL     1       2.717   1.166   1.274  1.00  0.00    -0.371 N 
ATOM      3  H1  UNL     1       2.175   1.699   1.954  1.00  0.00     0.158 HD
HETATM    4  C9  UNL     1       4.087   1.471   0.984  1.00  0.00     0.221 C 
HETATM    5  C10 UNL     1       4.941   0.285   0.740  1.00  0.00     0.173 C 
HETATM    6  C11 UNL     1       6.304   0.591   0.373  1.00  0.00     0.071 C 
HETATM    7  N3  UNL     1       7.424   0.818   0.087  1.00  0.00    -0.197 NA
HETATM    8  C12 UNL     1       4.332  -0.685  -0.254  1.00  0.00     0.104 C 
HETATM    9  C13 UNL     1       5.283  -1.859  -0.358  1.00  0.00     0.050 C 
HETATM   10  C14 UNL     1       3.024  -1.121   0.374  1.00  0.00     0.202 C 
ENDROOT
BRANCH   4  11
HETATM   11  N2  UNL     1       4.087   2.319  -0.186  1.00  0.00    -0.280 N 
ATOM     12  H2  UNL     1       3.228   2.574  -0.673  1.00  0.00     0.189 HD
BRANCH  11  13
HETATM   13  O6  UNL     1       5.281   2.744  -0.585  1.00  0.00    -0.292 OA
ATOM     14  H6  UNL     1       5.281   3.302  -1.354  1.00  0.00     0.244 HD
ENDBRANCH  11  13
ENDBRANCH   4  11
BRANCH   8  15
HETATM   15  O7  UNL     1       4.136  -0.061  -1.477  1.00  0.00    -0.386 OA
ATOM     16  H7  UNL     1       3.755  -0.669  -2.100  1.00  0.00     0.210 HD
ENDBRANCH   8  15
BRANCH  10  17
HETATM   17  O8  UNL     1       3.315  -1.649   1.630  1.00  0.00    -0.388 OA
ATOM     18  H8  UNL     1       3.868  -2.413   1.515  1.00  0.00     0.210 HD
ENDBRANCH  10  17
BRANCH   1  19
HETATM   19  O5  UNL     1       0.993  -0.359   1.223  1.00  0.00    -0.346 OA
BRANCH  19  20
HETATM   20  C7  UNL     1      -0.134  -0.191   0.425  1.00  0.00     0.256 C 
HETATM   21  C6  UNL     1      -1.038   0.764   1.118  1.00  0.00     0.291 C 
HETATM   22  O3  UNL     1      -2.372   0.710   0.845  1.00  0.00    -0.307 OA
HETATM   23  O4  UNL     1      -0.625   1.623   1.950  1.00  0.00    -0.262 OA
HETATM   24  C5  UNL     1      -3.057  -0.329   0.208  1.00  0.00     0.211 C 
HETATM   25  C16 UNL     1      -2.202  -1.414  -0.318  1.00  0.00     0.204 C 
HETATM   26  C15 UNL     1      -0.843  -1.507   0.351  1.00  0.00     0.205 C 
BRANCH  24  27
HETATM   27  C4  UNL     1      -3.950   0.299  -0.853  1.00  0.00     0.184 C 
BRANCH  27  28
HETATM   28  C2  UNL     1      -4.984   1.202  -0.240  1.00  0.00     0.079 C 
HETATM   29  C1  UNL     1      -5.966   0.424   0.628  1.00  0.00     0.048 C 
HETATM   30  C3  UNL     1      -4.432   2.313   0.575  1.00  0.00     0.048 C 
BRANCH  28  31
HETATM   31  O1  UNL     1      -5.735   1.743  -1.283  1.00  0.00    -0.388 OA
ATOM     32  H1  UNL     1      -5.123   2.228  -1.824  1.00  0.00     0.210 HD
ENDBRANCH  28  31
ENDBRANCH  27  28
BRANCH  27  33
HETATM   33  O2  UNL     1      -4.679  -0.675  -1.550  1.00  0.00    -0.390 OA
ATOM     34  H2  UNL     1      -4.026  -1.246  -1.937  1.00  0.00     0.210 HD
ENDBRANCH  27  33
ENDBRANCH  24  27
BRANCH  25  35
HETATM   35  O10 UNL     1      -2.829  -2.653  -0.035  1.00  0.00    -0.374 OA
ATOM     36  H10 UNL     1      -2.279  -3.350  -0.373  1.00  0.00     0.211 HD
ENDBRANCH  25  35
BRANCH  25  37
HETATM   37  C17 UNL     1      -1.978  -1.388  -1.772  1.00  0.00     0.214 C 
HETATM   38  O11 UNL     1      -1.427  -0.409  -2.370  1.00  0.00    -0.646 OA
HETATM   39  O12 UNL     1      -2.353  -2.443  -2.628  1.00  0.00    -0.646 OA
ENDBRANCH  25  37
BRANCH  26  40
HETATM   40  O9  UNL     1      -0.932  -2.018   1.643  1.00  0.00    -0.389 OA
ATOM     41  H9  UNL     1      -1.382  -2.853   1.596  1.00  0.00     0.210 HD
ENDBRANCH  26  40
ENDBRANCH  19  20
ENDBRANCH   1  19
TORSDOF 13
