REMARK  13 active torsions:
REMARK  status: ('A' for Active; 'I' for Inactive)
REMARK    1  A    between atoms: C4_5  and  O2_6 
REMARK    2  A    between atoms: O2_6  and  C5_7 
REMARK    3  A    between atoms: C5_7  and  C6_9 
REMARK    4  A    between atoms: C6_9  and  N1_10 
REMARK    5  A    between atoms: N1_10  and  O4_11 
REMARK    6  A    between atoms: N1_10  and  C7_13 
REMARK    7  A    between atoms: C8_16  and  N3_17 
REMARK    8  A    between atoms: C9_22  and  C10_23 
REMARK    9  A    between atoms: C10_23  and  O5_24 
REMARK   10  A    between atoms: C10_23  and  O6_26 
REMARK   11  A    between atoms: C11_28  and  C12_29 
REMARK   12  A    between atoms: C12_29  and  N5_30 
REMARK   13  A    between atoms: C12_29  and  N6_34 
ROOT
HETATM    1  C7  UNL     1      -2.224  -1.167   0.649  1.00  0.00     0.155 A 
HETATM    2  N2  UNL     1      -2.358  -2.482   1.023  1.00  0.00    -0.174 N 
ATOM      3  H2  UNL     1      -1.555  -2.969   1.423  1.00  0.00     0.186 HD
HETATM    4  C8  UNL     1      -3.515  -3.143   0.877  1.00  0.00     0.677 A 
HETATM    5  N4  UNL     1      -4.581  -2.520   0.354  1.00  0.00    -0.190 N 
ATOM      6  H4  UNL     1      -5.457  -3.032   0.246  1.00  0.00     0.184 HD
HETATM    7  C9  UNL     1      -4.517  -1.230  -0.031  1.00  0.00     0.094 A 
HETATM    8  C11 UNL     1      -3.304  -0.530   0.118  1.00  0.00     0.073 A 
ENDROOT
BRANCH   1   9
HETATM    9  N1  UNL     1      -0.967  -0.566   0.832  1.00  0.00    -0.234 N 
BRANCH   9  10
HETATM   10  C6  UNL     1      -0.582   0.113   2.036  1.00  0.00     0.269 C 
BRANCH  10  11
HETATM   11  C5  UNL     1       0.784   0.676   2.014  1.00  0.00     0.282 C 
HETATM   12  O3  UNL     1       1.193   1.283   3.031  1.00  0.00    -0.263 OA
BRANCH  11  13
HETATM   13  O2  UNL     1       1.609   0.559   0.939  1.00  0.00    -0.272 OA
BRANCH  13  14
HETATM   14  C4  UNL     1       2.938   1.102   0.908  1.00  0.00     0.417 C 
HETATM   15  O1  UNL     1       3.843   0.114   0.789  1.00  0.00    -0.328 OA
HETATM   16  C2  UNL     1       4.767   0.126  -0.188  1.00  0.00     0.116 C 
HETATM   17  C1  UNL     1       4.123  -0.399  -1.472  1.00  0.00     0.054 C 
HETATM   18  C3  UNL     1       5.846  -0.900   0.184  1.00  0.00     0.054 C 
HETATM   19  C13 UNL     1       5.434   1.407  -0.475  1.00  0.00     0.119 C 
HETATM   20  N7  UNL     1       4.602   2.493  -0.840  1.00  0.00    -0.267 N 
HETATM   21  N8  UNL     1       6.736   1.566  -0.405  1.00  0.00    -0.386 N 
HETATM   22  S1  UNL     1       2.967   2.349  -0.319  1.00  0.00     0.284 S 
ATOM     23  H7  UNL     1       4.943   3.296  -1.369  1.00  0.00     0.180 HD
HETATM   24  O7  UNL     1       2.567   3.670   0.324  1.00  0.00    -0.200 OA
HETATM   25  O8  UNL     1       2.031   2.084  -1.456  1.00  0.00    -0.200 OA
ATOM     26  H82 UNL     1       7.335   0.784  -0.142  1.00  0.00     0.157 HD
ATOM     27  H81 UNL     1       7.198   2.453  -0.604  1.00  0.00     0.157 HD
ENDBRANCH  13  14
ENDBRANCH  11  13
ENDBRANCH  10  11
ENDBRANCH   9  10
BRANCH   9  28
HETATM   28  O4  UNL     1      -0.100  -0.647  -0.091  1.00  0.00    -0.285 OA
ATOM     29  H4  UNL     1      -0.355  -1.097  -0.888  1.00  0.00     0.245 HD
ENDBRANCH   9  28
ENDBRANCH   1   9
BRANCH   8  30
HETATM   30  C12 UNL     1      -3.247   0.872  -0.301  1.00  0.00     0.417 C 
BRANCH  30  31
HETATM   31  N5  UNL     1      -2.046   1.267  -1.003  1.00  0.00    -0.046 N 
ATOM     32  H53 UNL     1      -1.224   1.037  -0.444  1.00  0.00     0.277 HD
ATOM     33  H52 UNL     1      -1.896   0.657  -1.807  1.00  0.00     0.277 HD
ATOM     34  H51 UNL     1      -2.006   2.244  -1.295  1.00  0.00     0.277 HD
ENDBRANCH  30  31
BRANCH  30  35
HETATM   35  N6  UNL     1      -3.603   1.815   0.707  1.00  0.00    -0.046 N 
ATOM     36  H63 UNL     1      -4.525   1.597   1.084  1.00  0.00     0.277 HD
ATOM     37  H62 UNL     1      -3.032   1.673   1.540  1.00  0.00     0.277 HD
ATOM     38  H61 UNL     1      -3.563   2.792   0.415  1.00  0.00     0.277 HD
ENDBRANCH  30  35
ENDBRANCH   8  30
BRANCH   4  39
HETATM   39  N3  UNL     1      -3.659  -4.378   1.221  1.00  0.00    -0.234 N 
ATOM     40  H32 UNL     1      -2.848  -4.852   1.619  1.00  0.00     0.174 HD
ATOM     41  H31 UNL     1      -4.539  -4.881   1.110  1.00  0.00     0.174 HD
ENDBRANCH   4  39
BRANCH   7  42
HETATM   42  C10 UNL     1      -5.741  -0.584  -0.556  1.00  0.00     0.306 C 
BRANCH  42  43
HETATM   43  O5  UNL     1      -6.815  -1.040   0.269  1.00  0.00    -0.366 OA
ATOM     44  H5  UNL     1      -7.601  -0.625  -0.068  1.00  0.00     0.213 HD
ENDBRANCH  42  43
BRANCH  42  45
HETATM   45  O6  UNL     1      -5.976  -0.921  -1.862  1.00  0.00    -0.366 OA
ATOM     46  H6  UNL     1      -6.762  -0.506  -2.199  1.00  0.00     0.213 HD
ENDBRANCH  42  45
ENDBRANCH   7  42
TORSDOF 13
