REMARK  6 active torsions:
REMARK  status: ('A' for Active; 'I' for Inactive)
REMARK    1  A    between atoms: O1_1  and  C1_3 
REMARK    2  A    between atoms: C1_3  and  C2_4 
REMARK    3  A    between atoms: C6_9  and  O3_10 
REMARK    4  A    between atoms: C7_12  and  O4_13 
REMARK    5  A    between atoms: C8_15  and  O5_16 
REMARK    6  A    between atoms: C9_19  and  O7_20 
ROOT
HETATM    1  C2  UNL     1       2.026  -0.051  -0.557  1.00  0.00     0.204 C 
HETATM    2  O2  UNL     1       0.718   0.348  -0.633  1.00  0.00    -0.337 OA
HETATM    3  C3  UNL     1      -0.069  -0.597   0.006  1.00  0.00     0.215 C 
HETATM    4  C4  UNL     1      -0.567  -0.017   1.283  1.00  0.00     0.042 C 
HETATM    5  C5  UNL     1      -1.836   0.321   1.487  1.00  0.00     0.008 C 
HETATM    6  C6  UNL     1      -2.895   0.147   0.439  1.00  0.00     0.172 C 
HETATM    7  C7  UNL     1      -2.164   0.250  -0.896  1.00  0.00     0.185 C 
HETATM    8  C8  UNL     1      -1.206  -0.941  -0.933  1.00  0.00     0.216 C 
HETATM    9  O6  UNL     1       0.733  -1.684   0.300  1.00  0.00    -0.316 OA
HETATM   10  C9  UNL     1       2.042  -1.219   0.374  1.00  0.00     0.292 C 
ENDROOT
BRANCH   8  11
HETATM   11  O5  UNL     1      -0.712  -1.031  -2.224  1.00  0.00    -0.387 OA
ATOM     12  H5  UNL     1      -1.425  -1.247  -2.813  1.00  0.00     0.210 HD
ENDBRANCH   8  11
BRANCH   1  13
HETATM   13  C1  UNL     1       2.893   1.095  -0.093  1.00  0.00     0.201 C 
BRANCH  13  14
HETATM   14  O1  UNL     1       4.225   0.765   0.008  1.00  0.00    -0.398 OA
ATOM     15  H1  UNL     1       4.770   1.486   0.300  1.00  0.00     0.209 HD
ENDBRANCH  13  14
ENDBRANCH   1  13
BRANCH   7  16
HETATM   16  O4  UNL     1      -3.004   0.294  -1.970  1.00  0.00    -0.390 OA
ATOM     17  H4  UNL     1      -2.549   0.358  -2.801  1.00  0.00     0.210 HD
ENDBRANCH   7  16
BRANCH  10  18
HETATM   18  O7  UNL     1       2.393  -0.788   1.635  1.00  0.00    -0.368 OA
ATOM     19  H7  UNL     1       2.403  -1.531   2.227  1.00  0.00     0.212 HD
ENDBRANCH  10  18
BRANCH   6  20
HETATM   20  O3  UNL     1      -3.862   1.119   0.548  1.00  0.00    -0.389 OA
ATOM     21  H3  UNL     1      -4.533   1.009  -0.116  1.00  0.00     0.210 HD
ENDBRANCH   6  20
TORSDOF 6
