REMARK  7 active torsions:
REMARK  status: ('A' for Active; 'I' for Inactive)
REMARK    1  A    between atoms: C2_2  and  O1_3 
REMARK    2  A    between atoms: O1_3  and  C3_4 
REMARK    3  A    between atoms: C4_5  and  O2_6 
REMARK    4  A    between atoms: C5_8  and  O3_9 
REMARK    5  A    between atoms: C6_11  and  O4_12 
REMARK    6  A    between atoms: C7_14  and  O5_15 
REMARK    7  A    between atoms: C8_17  and  O6_18 
ROOT
HETATM    1  O6  UNL     1       0.217   2.247  -0.200  1.00  0.00    -0.273 OA
HETATM    2  C9  UNL     1       0.216   3.271  -1.102  1.00  0.00     0.229 C 
HETATM    3  N1  UNL     1       0.213   4.153  -1.873  1.00  0.00    -0.164 NA
ENDROOT
BRANCH   1   4
HETATM    4  C8  UNL     1      -0.556   1.092  -0.451  1.00  0.00     0.204 C 
HETATM    5  C3  UNL     1       0.367  -0.085  -0.536  1.00  0.00     0.185 C 
HETATM    6  C4  UNL     1      -0.315  -1.411  -0.420  1.00  0.00     0.181 C 
HETATM    7  C5  UNL     1      -1.337  -1.435   0.692  1.00  0.00     0.180 C 
HETATM    8  C6  UNL     1      -2.341  -0.336   0.374  1.00  0.00     0.180 C 
HETATM    9  C7  UNL     1      -1.573   0.966   0.650  1.00  0.00     0.182 C 
BRANCH   5  10
HETATM   10  O1  UNL     1       1.386   0.007   0.405  1.00  0.00    -0.381 OA
BRANCH  10  11
HETATM   11  C2  UNL     1       2.636   0.110  -0.228  1.00  0.00     0.164 C 
HETATM   12  C1  UNL     1       3.757   0.211   0.753  1.00  0.00     0.033 C 
ENDBRANCH  10  11
ENDBRANCH   5  10
BRANCH   6  13
HETATM   13  O2  UNL     1       0.676  -2.352  -0.058  1.00  0.00    -0.390 OA
ATOM     14  H2  UNL     1       0.243  -3.194   0.016  1.00  0.00     0.210 HD
ENDBRANCH   6  13
BRANCH   7  15
HETATM   15  O3  UNL     1      -1.901  -2.664   0.843  1.00  0.00    -0.390 OA
ATOM     16  H3  UNL     1      -2.544  -2.679   1.542  1.00  0.00     0.210 HD
ENDBRANCH   7  15
BRANCH   8  17
HETATM   17  O4  UNL     1      -2.612  -0.298  -1.006  1.00  0.00    -0.390 OA
ATOM     18  H4  UNL     1      -3.239   0.388  -1.204  1.00  0.00     0.210 HD
ENDBRANCH   8  17
BRANCH   9  19
HETATM   19  O5  UNL     1      -2.483   1.985   0.600  1.00  0.00    -0.390 OA
ATOM     20  H5  UNL     1      -2.008   2.790   0.771  1.00  0.00     0.210 HD
ENDBRANCH   9  19
ENDBRANCH   1   4
TORSDOF 7
