REMARK  2 active torsions:
REMARK  status: ('A' for Active; 'I' for Inactive)
REMARK    1  A    between atoms: C1_2  and  N2_4 
REMARK    2  A    between atoms: N2_4  and  C2_6 
ROOT
HETATM    1  C2  UNL     1       1.840   0.032   0.783  1.00  0.00     0.085 C 
HETATM    2  C3  UNL     1       1.025  -1.261   0.793  1.00  0.00     0.027 C 
HETATM    3  C4  UNL     1       0.410  -1.469  -0.544  1.00  0.00     0.030 C 
HETATM    4  C5  UNL     1      -0.985  -0.993  -0.689  1.00  0.00     0.237 C 
HETATM    5  N3  UNL     1      -1.383   0.129   0.059  1.00  0.00    -0.067 N 
HETATM    6  C6  UNL     1      -2.192   0.990  -0.823  1.00  0.00     0.237 C 
HETATM    7  C7  UNL     1      -3.470   0.183  -1.011  1.00  0.00     0.029 C 
HETATM    8  C8  UNL     1      -3.691  -0.348   0.384  1.00  0.00     0.029 C 
HETATM    9  C9  UNL     1      -2.385  -0.231   1.080  1.00  0.00     0.237 C 
HETATM   10  C10 UNL     1      -0.420   0.915   0.702  1.00  0.00     0.239 C 
HETATM   11  C11 UNL     1       0.922   1.039   0.086  1.00  0.00     0.053 C 
ENDROOT
BRANCH   1  12
HETATM   12  N2  UNL     1       3.101  -0.142   0.150  1.00  0.00    -0.365 N 
ATOM     13  H2  UNL     1       3.287  -1.039  -0.298  1.00  0.00     0.162 HD
BRANCH  12  14
HETATM   14  C1  UNL     1       4.107   0.833   0.099  1.00  0.00     0.181 C 
HETATM   15  N1  UNL     1       5.325   0.547  -0.569  1.00  0.00    -0.070 NA
HETATM   16  S1  UNL     1       3.931   2.286   0.796  1.00  0.00    -0.044 SA
ENDBRANCH  12  14
ENDBRANCH   1  12
TORSDOF 2
