REMARK  2 active torsions:
REMARK  status: ('A' for Active; 'I' for Inactive)
REMARK       I    between atoms: N3_4  and  C2_6 
REMARK    1  A    between atoms: C2_6  and  C3_8 
REMARK    2  A    between atoms: C3_8  and  C4_9 
ROOT
HETATM    1  C3  UNL     1      -0.165   0.501   0.368  1.00  0.00     0.045 C 
HETATM    2  C9  UNL     1      -0.646   1.484   1.414  1.00  0.00     0.020 C 
HETATM    3  C10 UNL     1      -0.307   2.815   0.769  1.00  0.00     0.001 C 
HETATM    4  C11 UNL     1      -0.888   2.611  -0.619  1.00  0.00     0.001 C 
HETATM    5  C12 UNL     1      -0.430   1.204  -0.939  1.00  0.00     0.020 C 
ENDROOT
BRANCH   1   6
HETATM    6  C2  UNL     1       1.266   0.226   0.582  1.00  0.00     0.232 C 
HETATM    7  N3  UNL     1       2.042  -0.608  -0.273  1.00  0.00    -0.303 N 
HETATM    8  C1  UNL     1       3.310  -0.482  -0.347  1.00  0.00     0.203 C 
ATOM      9  H3  UNL     1       1.576  -1.319  -0.837  1.00  0.00     0.171 HD
HETATM   10  N1  UNL     1       3.997   0.483   0.409  1.00  0.00    -0.066 NA
HETATM   11  N2  UNL     1       4.047  -1.325  -1.205  1.00  0.00    -0.066 NA
HETATM   12  O1  UNL     1       1.825   0.766   1.583  1.00  0.00    -0.272 OA
ENDBRANCH   1   6
BRANCH   1  13
HETATM   13  C4  UNL     1      -0.954  -0.754   0.538  1.00  0.00     0.003 C 
HETATM   14  C5  UNL     1      -0.644  -1.877  -0.371  1.00  0.00     0.006 C 
HETATM   15  C6  UNL     1      -1.852  -2.812  -0.188  1.00  0.00     0.000 C 
HETATM   16  C7  UNL     1      -2.979  -1.805  -0.209  1.00  0.00     0.000 C 
HETATM   17  C8  UNL     1      -2.439  -0.540   0.368  1.00  0.00     0.006 C 
ENDBRANCH   1  13
TORSDOF 2
