REMARK  5 active torsions:
REMARK  status: ('A' for Active; 'I' for Inactive)
REMARK    1  A    between atoms: N1_2  and  N2_3 
REMARK    2  A    between atoms: N2_3  and  C2_5 
REMARK    3  A    between atoms: C2_5  and  C3_9 
REMARK    4  A    between atoms: C3_9  and  C4_10 
REMARK    5  A    between atoms: C5_11  and  N4_12 
ROOT
HETATM    1  C3  UNL     1       0.891   0.573   0.565  1.00  0.00     0.084 C 
HETATM    2  C9  UNL     1       1.525   1.099  -0.697  1.00  0.00     0.031 C 
HETATM    3  C10 UNL     1       0.851   2.352  -1.173  1.00  0.00     0.002 C 
HETATM    4  C11 UNL     1       0.948   3.412  -0.092  1.00  0.00     0.000 C 
HETATM    5  C12 UNL     1       0.270   2.932   1.167  1.00  0.00     0.002 C 
HETATM    6  C13 UNL     1       0.791   1.621   1.644  1.00  0.00     0.031 C 
ENDROOT
BRANCH   1   7
HETATM    7  C2  UNL     1       1.697  -0.540   1.103  1.00  0.00     0.107 C 
HETATM    8  N3  UNL     1       2.172  -0.528   2.305  1.00  0.00    -0.387 N 
ATOM      9  H32 UNL     1       2.729  -1.297   2.677  1.00  0.00     0.157 HD
ATOM     10  H31 UNL     1       1.968   0.291   2.877  1.00  0.00     0.157 HD
BRANCH   7  11
HETATM   11  N2  UNL     1       1.979  -1.674   0.311  1.00  0.00    -0.292 N 
ATOM     12  H2  UNL     1       1.256  -2.365   0.112  1.00  0.00     0.183 HD
BRANCH  11  13
HETATM   13  N1  UNL     1       3.271  -1.827  -0.193  1.00  0.00    -0.145 NA
HETATM   14  C1  UNL     1       3.623  -3.215  -0.115  1.00  0.00     0.159 C 
ENDBRANCH  11  13
ENDBRANCH   7  11
ENDBRANCH   1   7
BRANCH   1  15
HETATM   15  C4  UNL     1      -0.459   0.105   0.171  1.00  0.00    -0.058 C 
HETATM   16  C5  UNL     1      -1.561  -0.282  -0.131  1.00  0.00     0.116 C 
BRANCH  16  17
HETATM   17  N4  UNL     1      -2.849  -0.732  -0.460  1.00  0.00    -0.014 N 
HETATM   18  C6  UNL     1      -3.394  -1.590   0.583  1.00  0.00     0.289 C 
HETATM   19  C7  UNL     1      -3.762   0.383  -0.640  1.00  0.00     0.289 C 
HETATM   20  C8  UNL     1      -2.745  -1.545  -1.657  1.00  0.00     0.289 C 
ENDBRANCH  16  17
ENDBRANCH   1  15
TORSDOF 5
