REMARK  12 active torsions:
REMARK  status: ('A' for Active; 'I' for Inactive)
REMARK       I    between atoms: N1_1  and  C1_4 
REMARK       I    between atoms: C1_4  and  N2_5 
REMARK       I    between atoms: C1_4  and  N6_12 
REMARK    1  A    between atoms: N2_5  and  N3_7 
REMARK    2  A    between atoms: N3_7  and  N4_8 
REMARK    3  A    between atoms: N4_8  and  N5_9 
REMARK    4  A    between atoms: N6_12  and  O1_14 
REMARK    5  A    between atoms: O1_14  and  N7_15 
REMARK    6  A    between atoms: N7_15  and  O2_16 
REMARK       I    between atoms: N7_15  and  C2_18 
REMARK       I    between atoms: C2_18  and  N8_20 
REMARK    7  A    between atoms: N8_20  and  C3_22 
REMARK    8  A    between atoms: C3_22  and  C4_23 
REMARK    9  A    between atoms: C5_25  and  N9_26 
REMARK   10  A    between atoms: C8_31  and  N11_32 
REMARK   11  A    between atoms: C11_41  and  O5_42 
REMARK   12  A    between atoms: C12_44  and  O6_45 
ROOT
HETATM    1  C4  UNL     1       1.271   0.502   0.704  1.00  0.00     0.173 C 
HETATM    2  O4  UNL     1       2.585   0.545   1.093  1.00  0.00    -0.354 OA
HETATM    3  C5  UNL     1       3.222  -0.588   0.627  1.00  0.00     0.262 C 
HETATM    4  C11 UNL     1       2.423  -1.127  -0.528  1.00  0.00     0.198 C 
HETATM    5  C12 UNL     1       1.318  -0.105  -0.658  1.00  0.00     0.181 C 
ENDROOT
BRANCH   1   6
HETATM    6  C3  UNL     1       0.419  -0.247   1.678  1.00  0.00     0.158 C 
BRANCH   6   7
HETATM    7  N8  UNL     1      -0.961  -0.304   1.288  1.00  0.00    -0.342 N 
HETATM    8  C2  UNL     1      -1.965  -0.960   2.051  1.00  0.00     0.347 C 
HETATM    9  N7  UNL     1      -3.310  -1.015   1.670  1.00  0.00     0.050 NA
HETATM   10  O3  UNL     1      -1.593  -1.511   3.120  1.00  0.00    -0.249 OA
ATOM     11  H8  UNL     1      -1.236   0.150   0.417  1.00  0.00     0.163 HD
BRANCH   9  12
HETATM   12  O1  UNL     1      -3.540  -1.683   0.529  1.00  0.00    -0.132 OA
BRANCH  12  13
HETATM   13  N6  UNL     1      -3.841  -0.917  -0.507  1.00  0.00    -0.074 N 
HETATM   14  C1  UNL     1      -5.185  -0.716  -0.913  1.00  0.00     0.710 C 
HETATM   15  N1  UNL     1      -5.451  -0.320  -2.127  1.00  0.00    -0.232 N 
HETATM   16  N2  UNL     1      -6.292  -0.924  -0.055  1.00  0.00    -0.117 N 
ATOM     17  H12 UNL     1      -6.418  -0.175  -2.419  1.00  0.00     0.174 HD
ATOM     18  H11 UNL     1      -4.654  -0.170  -2.745  1.00  0.00     0.174 HD
ATOM     19  H2  UNL     1      -6.403  -1.805   0.447  1.00  0.00     0.202 HD
ATOM     20  H6  UNL     1      -3.090  -0.461  -1.025  1.00  0.00     0.215 HD
BRANCH  16  21
HETATM   21  N3  UNL     1      -7.226   0.098   0.089  1.00  0.00     0.005 NA
BRANCH  21  22
HETATM   22  N4  UNL     1      -8.534  -0.388   0.208  1.00  0.00    -0.015 NA
BRANCH  22  23
HETATM   23  N5  UNL     1      -9.451   0.514  -0.339  1.00  0.00    -0.330 N 
ATOM     24  H52 UNL     1      -9.187   1.403  -0.764  1.00  0.00     0.173 HD
ATOM     25  H51 UNL     1     -10.404   0.160  -0.252  1.00  0.00     0.173 HD
ENDBRANCH  22  23
ENDBRANCH  21  22
ENDBRANCH  16  21
ENDBRANCH  12  13
ENDBRANCH   9  12
BRANCH   9  26
HETATM   26  O2  UNL     1      -3.838   0.242   1.515  1.00  0.00    -0.279 OA
ATOM     27  H2  UNL     1      -3.675   0.715   2.323  1.00  0.00     0.240 HD
ENDBRANCH   9  26
ENDBRANCH   6   7
ENDBRANCH   1   6
BRANCH   5  28
HETATM   28  O6  UNL     1       1.766   0.872  -1.550  1.00  0.00    -0.390 OA
ATOM     29  H6  UNL     1       1.796   0.485  -2.417  1.00  0.00     0.210 HD
ENDBRANCH   5  28
BRANCH   3  30
HETATM   30  N9  UNL     1       4.557  -0.284   0.116  1.00  0.00    -0.297 N 
HETATM   31  C6  UNL     1       5.322  -1.197  -0.476  1.00  0.00     0.188 A 
HETATM   32  N10 UNL     1       6.486  -0.627  -0.838  1.00  0.00    -0.346 N 
HETATM   33  C7  UNL     1       6.440   0.660  -0.463  1.00  0.00     0.122 A 
ATOM     34  H10 UNL     1       7.262  -1.090  -1.311  1.00  0.00     0.167 HD
HETATM   35  C8  UNL     1       7.342   1.678  -0.586  1.00  0.00     0.131 A 
HETATM   36  C10 UNL     1       5.221   0.861   0.135  1.00  0.00     0.142 A 
HETATM   37  N12 UNL     1       6.966   2.886  -0.086  1.00  0.00    -0.337 N 
HETATM   38  C9  UNL     1       5.769   3.073   0.499  1.00  0.00     0.183 A 
ATOM     39  H12 UNL     1       7.611   3.673  -0.157  1.00  0.00     0.168 HD
HETATM   40  N13 UNL     1       4.881   2.064   0.617  1.00  0.00    -0.336 N 
ATOM     41  H13 UNL     1       3.975   2.213   1.061  1.00  0.00     0.168 HD
BRANCH  35  42
HETATM   42  N11 UNL     1       8.486   1.504  -1.143  1.00  0.00    -0.383 N 
ATOM     43 2H11 UNL     1       8.768   0.598  -1.518  1.00  0.00     0.157 HD
ATOM     44 1H11 UNL     1       9.160   2.264  -1.235  1.00  0.00     0.157 HD
ENDBRANCH  35  42
ENDBRANCH   3  30
BRANCH   4  45
HETATM   45  O5  UNL     1       1.976  -2.384  -0.206  1.00  0.00    -0.388 OA
ATOM     46  H5  UNL     1       1.471  -2.724  -0.935  1.00  0.00     0.210 HD
ENDBRANCH   4  45
TORSDOF 12
