REMARK  3 active torsions:
REMARK  status: ('A' for Active; 'I' for Inactive)
REMARK    1  A    between atoms: C2_2  and  C5_5 
REMARK    2  A    between atoms: N1_8  and  C8_9 
REMARK    3  A    between atoms: C8_9  and  S2_11 
ROOT
HETATM    1  C5  UNL     1      -0.250  -0.535  -0.395  1.00  0.00     0.161 C 
HETATM    2  C6  UNL     1       0.318  -1.312   0.747  1.00  0.00     0.057 C 
HETATM    3  C7  UNL     1       1.661  -0.662   0.975  1.00  0.00     0.160 C 
HETATM    4  N1  UNL     1       1.869   0.061  -0.242  1.00  0.00    -0.239 N 
HETATM    5  O1  UNL     1       0.690   0.361  -0.837  1.00  0.00    -0.270 OA
ENDROOT
BRANCH   1   6
HETATM    6  C2  UNL     1      -1.513   0.193   0.081  1.00  0.00    -0.023 C 
HETATM    7  C1  UNL     1      -1.098   1.106   1.200  1.00  0.00     0.017 C 
HETATM    8  C3  UNL     1      -2.555  -0.808   0.500  1.00  0.00     0.017 C 
HETATM    9  C4  UNL     1      -2.055   1.015  -1.070  1.00  0.00     0.017 C 
ENDBRANCH   1   6
BRANCH   4  10
HETATM   10  C8  UNL     1       3.129   0.424  -0.773  1.00  0.00     0.175 C 
HETATM   11  S1  UNL     1       3.272   1.249  -2.170  1.00  0.00    -0.050 SA
BRANCH  10  12
HETATM   12  S2  UNL     1       4.585  -0.044   0.128  1.00  0.00     0.013 SA
HETATM   13 CL1  UNL     1       6.275   0.634  -0.911  1.00  0.00    -0.036 Cl
ENDBRANCH  10  12
ENDBRANCH   4  10
TORSDOF 3
