REMARK  6 active torsions:
REMARK  status: ('A' for Active; 'I' for Inactive)
REMARK    1  A    between atoms: O1_2  and  C2_3 
REMARK    2  A    between atoms: C2_3  and  C3_5 
REMARK    3  A    between atoms: C9_14  and  N2_15 
REMARK    4  A    between atoms: N2_15  and  C10_17 
REMARK    5  A    between atoms: C11_19  and  C12_20 
REMARK    6  A    between atoms: C14_23  and  C15_24 
ROOT
HETATM    1  C3  UNL     1       3.044  -0.301   0.309  1.00  0.00     0.089 A 
HETATM    2  C4  UNL     1       4.044  -1.237   0.510  1.00  0.00     0.027 A 
HETATM    3  C5  UNL     1       4.951  -1.156   1.669  1.00  0.00     0.069 C 
HETATM    4  N1  UNL     1       4.229  -2.263  -0.346  1.00  0.00    -0.326 N 
ATOM      5  H1  UNL     1       4.974  -2.939  -0.175  1.00  0.00     0.169 HD
HETATM    6  C6  UNL     1       3.442  -2.398  -1.416  1.00  0.00     0.253 A 
HETATM    7  O3  UNL     1       3.648  -3.372  -2.193  1.00  0.00    -0.268 OA
HETATM    8  C7  UNL     1       2.434  -1.518  -1.684  1.00  0.00     0.034 A 
HETATM    9  C8  UNL     1       1.542  -1.667  -2.888  1.00  0.00     0.056 C 
HETATM   10  C9  UNL     1       2.229  -0.443  -0.799  1.00  0.00     0.062 A 
ENDROOT
BRANCH  10  11
HETATM   11  N2  UNL     1       1.235   0.465  -1.072  1.00  0.00    -0.349 N 
ATOM     12  H2  UNL     1       1.569   1.242  -1.643  1.00  0.00     0.166 HD
BRANCH  11  13
HETATM   13  C10 UNL     1      -0.155   0.588  -0.751  1.00  0.00     0.082 A 
HETATM   14  S1  UNL     1      -1.083   1.934  -1.351  1.00  0.00    -0.068 SA
HETATM   15  C11 UNL     1      -2.586   1.578  -0.667  1.00  0.00     0.059 A 
HETATM   16  C14 UNL     1      -2.352   0.381   0.045  1.00  0.00    -0.025 A 
HETATM   17  C18 UNL     1      -1.077  -0.091  -0.033  1.00  0.00    -0.020 A 
HETATM   18  C19 UNL     1      -0.674  -1.414   0.617  1.00  0.00     0.052 C 
BRANCH  15  19
HETATM   19  C12 UNL     1      -3.792   2.359  -0.822  1.00  0.00     0.163 C 
HETATM   20  C13 UNL     1      -3.710   3.592  -1.653  1.00  0.00     0.097 C 
HETATM   21  O4  UNL     1      -4.873   2.091  -0.326  1.00  0.00    -0.292 OA
ENDBRANCH  15  19
BRANCH  16  22
HETATM   22  C15 UNL     1      -3.507  -0.223   0.762  1.00  0.00     0.012 C 
HETATM   23  C16 UNL     1      -3.300  -1.171   1.877  1.00  0.00     0.015 C 
HETATM   24  C17 UNL     1      -4.459  -0.905  -0.205  1.00  0.00     0.015 C 
ENDBRANCH  16  22
ENDBRANCH  11  13
ENDBRANCH  10  11
BRANCH   1  25
HETATM   25  C2  UNL     1       2.911   0.803   1.247  1.00  0.00     0.297 C 
HETATM   26  O2  UNL     1       3.598   0.984   2.255  1.00  0.00    -0.259 OA
BRANCH  25  27
HETATM   27  O1  UNL     1       1.920   1.778   1.025  1.00  0.00    -0.322 OA
HETATM   28  C1  UNL     1       1.716   2.871   1.864  1.00  0.00     0.213 C 
ENDBRANCH  25  27
ENDBRANCH   1  25
TORSDOF 6
