REMARK  7 active torsions:
REMARK  status: ('A' for Active; 'I' for Inactive)
REMARK    1  A    between atoms: O1_2  and  C2_3 
REMARK    2  A    between atoms: C3_4  and  C4_5 
REMARK    3  A    between atoms: C4_5  and  C5_6 
REMARK    4  A    between atoms: C9_10  and  O2_11 
REMARK    5  A    between atoms: C12_15  and  C13_16 
REMARK    6  A    between atoms: C14_18  and  C15_19 
REMARK    7  A    between atoms: C20_25  and  O5_26 
ROOT
HETATM    1  C2  UNL     1       0.619   0.804  -0.710  1.00  0.00     0.093 A 
HETATM    2  C3  UNL     1       1.813   1.034  -0.034  1.00  0.00     0.016 A 
HETATM    3  C9  UNL     1       1.762   1.082   1.364  1.00  0.00     0.111 A 
HETATM    4  C10 UNL     1       0.577   0.908   2.041  1.00  0.00     0.139 A 
HETATM    5  C11 UNL     1      -0.582   0.686   1.359  1.00  0.00     0.123 A 
HETATM    6  C12 UNL     1      -0.578   0.631  -0.069  1.00  0.00     0.071 A 
HETATM    7  O6  UNL     1      -1.651   0.538   2.231  1.00  0.00    -0.322 OA
HETATM    8  C21 UNL     1      -1.067   0.309   3.522  1.00  0.00     0.352 C 
HETATM    9  O7  UNL     1       0.233   0.903   3.389  1.00  0.00    -0.320 OA
ENDROOT
BRANCH   6  10
HETATM   10  C13 UNL     1      -1.874   0.533  -0.717  1.00  0.00     0.128 A 
HETATM   11  O3  UNL     1      -2.724  -0.302  -0.098  1.00  0.00    -0.311 OA
HETATM   12  C14 UNL     1      -3.936  -0.546  -0.487  1.00  0.00     0.061 A 
HETATM   13  C18 UNL     1      -4.372   0.104  -1.619  1.00  0.00     0.091 A 
HETATM   14  C19 UNL     1      -3.566   0.972  -2.305  1.00  0.00     0.210 A 
HETATM   15  O4  UNL     1      -3.947   1.581  -3.349  1.00  0.00    -0.285 OA
HETATM   16  C20 UNL     1      -2.260   1.197  -1.832  1.00  0.00     0.151 A 
BRANCH  12  17
HETATM   17  C15 UNL     1      -4.838  -1.497   0.258  1.00  0.00     0.035 C 
HETATM   18  C16 UNL     1      -4.217  -2.848   0.433  1.00  0.00     0.016 C 
HETATM   19  C17 UNL     1      -5.121  -0.863   1.625  1.00  0.00     0.016 C 
ENDBRANCH  12  17
BRANCH  16  20
HETATM   20  O5  UNL     1      -1.462   2.104  -2.549  1.00  0.00    -0.355 OA
ATOM     21  H5  UNL     1      -1.733   2.570  -3.331  1.00  0.00     0.218 HD
ENDBRANCH  16  20
ENDBRANCH   6  10
BRANCH   1  22
HETATM   22  O1  UNL     1       0.689   0.746  -2.089  1.00  0.00    -0.354 OA
HETATM   23  C1  UNL     1       0.853  -0.511  -2.716  1.00  0.00     0.210 C 
ENDBRANCH   1  22
BRANCH   2  24
HETATM   24  C4  UNL     1       3.081   1.192  -0.759  1.00  0.00     0.072 C 
BRANCH  24  25
HETATM   25  C5  UNL     1       3.853  -0.000  -1.057  1.00  0.00    -0.020 C 
HETATM   26  C6  UNL     1       5.146  -0.042  -0.675  1.00  0.00    -0.091 C 
HETATM   27  C7  UNL     1       5.831   1.057   0.030  1.00  0.00     0.042 C 
HETATM   28  C8  UNL     1       5.942  -1.270  -0.976  1.00  0.00     0.042 C 
ENDBRANCH  24  25
ENDBRANCH   2  24
BRANCH   3  29
HETATM   29  O2  UNL     1       2.890   1.306   2.111  1.00  0.00    -0.357 OA
ATOM     30  H2  UNL     1       2.855   1.339   3.060  1.00  0.00     0.217 HD
ENDBRANCH   3  29
TORSDOF 7
