REMARK  8 active torsions:
REMARK  status: ('A' for Active; 'I' for Inactive)
REMARK    1  A    between atoms: C8_9  and  O2_10 
REMARK    2  A    between atoms: C12_15  and  O3_16 
REMARK    3  A    between atoms: O3_16  and  C13_17 
REMARK    4  A    between atoms: C13_17  and  C14_19 
REMARK    5  A    between atoms: C14_19  and  C16_21 
REMARK    6  A    between atoms: C16_21  and  C17_22 
REMARK    7  A    between atoms: C20_25  and  O5_26 
REMARK    8  A    between atoms: O5_26  and  O6_27 
ROOT
HETATM    1  C1  UNL     1      -2.781   0.659  -3.296  1.00  0.00     0.043 C 
HETATM    2  C2  UNL     1      -2.891   1.100  -1.845  1.00  0.00    -0.085 C 
HETATM    3  C3  UNL     1      -3.821   0.473  -1.154  1.00  0.00    -0.020 C 
HETATM    4  C4  UNL     1      -4.177   0.667   0.266  1.00  0.00     0.057 C 
HETATM    5  C5  UNL     1      -4.542  -0.599   0.955  1.00  0.00     0.009 C 
HETATM    6  C6  UNL     1      -3.851  -1.146   1.970  1.00  0.00     0.042 C 
HETATM    7  C7  UNL     1      -4.470  -2.446   2.475  1.00  0.00     0.076 C 
HETATM    8  O1  UNL     1      -2.729  -0.651   2.526  1.00  0.00    -0.322 OA
HETATM    9  C8  UNL     1      -1.394  -0.582   2.134  1.00  0.00     0.287 C 
HETATM   10  C9  UNL     1      -1.070  -1.195   0.834  1.00  0.00     0.038 C 
HETATM   11  C10 UNL     1      -0.564  -0.706  -0.261  1.00  0.00    -0.051 C 
HETATM   12  C11 UNL     1      -0.391  -1.717  -1.401  1.00  0.00     0.046 C 
HETATM   13  C12 UNL     1      -0.111   0.636  -0.609  1.00  0.00     0.192 C 
HETATM   14  C20 UNL     1      -0.971   1.816  -0.352  1.00  0.00     0.197 C 
HETATM   15  C21 UNL     1      -1.989   2.150  -1.411  1.00  0.00     0.071 C 
ENDROOT
BRANCH  13  16
HETATM   16  O3  UNL     1       1.168   0.849   0.045  1.00  0.00    -0.308 OA
BRANCH  16  17
HETATM   17  C13 UNL     1       2.338   1.038  -0.658  1.00  0.00     0.263 C 
HETATM   18  O4  UNL     1       2.284   1.010  -1.903  1.00  0.00    -0.265 OA
BRANCH  17  19
HETATM   19  C14 UNL     1       3.599   1.269   0.052  1.00  0.00     0.082 C 
HETATM   20  C15 UNL     1       4.660   1.548  -0.998  1.00  0.00     0.020 C 
BRANCH  19  21
HETATM   21  C16 UNL     1       4.000   0.340   1.099  1.00  0.00     0.018 C 
BRANCH  21  22
HETATM   22  C17 UNL     1       4.236  -1.085   0.812  1.00  0.00    -0.022 C 
HETATM   23  C18 UNL     1       3.093  -1.869   0.266  1.00  0.00     0.009 C 
HETATM   24  C19 UNL     1       5.523  -1.335   0.028  1.00  0.00     0.009 C 
ENDBRANCH  21  22
ENDBRANCH  19  21
ENDBRANCH  17  19
ENDBRANCH  16  17
ENDBRANCH  13  16
BRANCH  14  25
HETATM   25  O5  UNL     1      -0.051   2.919  -0.479  1.00  0.00    -0.235 OA
BRANCH  25  26
HETATM   26  O6  UNL     1      -0.037   3.608   0.633  1.00  0.00    -0.250 OA
ATOM     27  H6  UNL     1       0.569   4.335   0.549  1.00  0.00     0.253 HD
ENDBRANCH  25  26
ENDBRANCH  14  25
BRANCH   9  28
HETATM   28  O2  UNL     1      -0.711  -1.357   3.140  1.00  0.00    -0.367 OA
ATOM     29  H2  UNL     1       0.199  -1.310   2.873  1.00  0.00     0.213 HD
ENDBRANCH   9  28
TORSDOF 8
