REMARK  2 active torsions:
REMARK  status: ('A' for Active; 'I' for Inactive)
REMARK    1  A    between atoms: N2_5  and  C4_6 
REMARK    2  A    between atoms: C6_12  and  N5_13 
ROOT
HETATM    1  C4  UNL     1       0.107  -0.331   0.068  1.00  0.00     0.151 A 
HETATM    2  N3  UNL     1      -0.433  -1.488   0.514  1.00  0.00    -0.323 N 
ATOM      3  H3  UNL     1       0.181  -2.263   0.763  1.00  0.00     0.169 HD
HETATM    4  C5  UNL     1      -1.765  -1.636   0.635  1.00  0.00     0.152 A 
HETATM    5  N4  UNL     1      -2.561  -2.643   1.039  1.00  0.00    -0.174 N 
ATOM      6  H4  UNL     1      -2.245  -3.560   1.355  1.00  0.00     0.186 HD
HETATM    7  C6  UNL     1      -3.836  -2.242   0.958  1.00  0.00     0.678 A 
HETATM    8  N6  UNL     1      -3.862  -0.976   0.501  1.00  0.00    -0.186 N 
ATOM      9  H6  UNL     1      -4.695  -0.411   0.338  1.00  0.00     0.184 HD
HETATM   10  C7  UNL     1      -2.590  -0.592   0.299  1.00  0.00     0.122 A 
HETATM   11  C8  UNL     1      -2.078   0.609  -0.162  1.00  0.00     0.096 A 
HETATM   12  N7  UNL     1      -2.844   1.650  -0.499  1.00  0.00    -0.335 N 
ATOM     13  H7  UNL     1      -3.856   1.560  -0.415  1.00  0.00     0.168 HD
HETATM   14  C9  UNL     1      -2.326   2.833  -0.953  1.00  0.00     0.158 A 
HETATM   15  N8  UNL     1      -3.043   3.903  -1.303  1.00  0.00    -0.295 N 
ATOM     16  H8  UNL     1      -4.057   4.013  -1.291  1.00  0.00     0.177 HD
HETATM   17  S1  UNL     1      -1.884   5.027  -1.768  1.00  0.00     0.070 SA
HETATM   18  N9  UNL     1      -0.509   4.097  -1.501  1.00  0.00    -0.295 N 
ATOM     19  H9  UNL     1       0.466   4.359  -1.645  1.00  0.00     0.177 HD
HETATM   20  C10 UNL     1      -0.995   2.934  -1.056  1.00  0.00     0.159 A 
HETATM   21  N10 UNL     1      -0.204   1.867  -0.711  1.00  0.00    -0.334 N 
ATOM     22  H10 UNL     1       0.809   1.956  -0.795  1.00  0.00     0.168 HD
HETATM   23  C11 UNL     1      -0.714   0.723  -0.271  1.00  0.00     0.109 A 
ENDROOT
BRANCH   1  24
HETATM   24  N2  UNL     1       1.515  -0.183  -0.057  1.00  0.00    -0.262 N 
HETATM   25  C3  UNL     1       2.170   0.100  -1.317  1.00  0.00     0.164 C 
HETATM   26  C2  UNL     1       3.603  -0.255  -0.976  1.00  0.00     0.132 C 
HETATM   27  N1  UNL     1       3.666   0.030   0.446  1.00  0.00    -0.216 NA
HETATM   28  C1  UNL     1       4.675  -0.745   1.119  1.00  0.00     0.134 C 
HETATM   29  N11 UNL     1       2.429  -0.286   0.971  1.00  0.00    -0.045 NA
ENDBRANCH   1  24
BRANCH   7  30
HETATM   30  N5  UNL     1      -4.873  -2.957   1.269  1.00  0.00    -0.234 N 
ATOM     31  H52 UNL     1      -4.853  -3.916   1.615  1.00  0.00     0.174 HD
ATOM     32  H51 UNL     1      -5.844  -2.652   1.207  1.00  0.00     0.174 HD
ENDBRANCH   7  30
TORSDOF 2
