REMARK  2 active torsions:
REMARK  status: ('A' for Active; 'I' for Inactive)
REMARK    1  A    between atoms: N3_11  and  C6_12 
REMARK    2  A    between atoms: C7_18  and  N6_19 
ROOT
HETATM    1  C1  UNL     1       5.295   0.806  -0.202  1.00  0.00     0.071 C 
HETATM    2  C2  UNL     1       3.819   0.685  -0.385  1.00  0.00     0.046 A 
HETATM    3  N1  UNL     1       3.196   1.225  -1.429  1.00  0.00    -0.193 N 
ATOM      4  H1  UNL     1       3.638   1.756  -2.179  1.00  0.00     0.184 HD
HETATM    5  C3  UNL     1       1.874   0.949  -1.325  1.00  0.00     0.691 A 
HETATM    6  N2  UNL     1       0.721   1.166  -1.980  1.00  0.00    -0.182 N 
ATOM      7  H2  UNL     1       0.587   1.679  -2.851  1.00  0.00     0.184 HD
HETATM    8  C4  UNL     1      -0.214   0.560  -1.237  1.00  0.00     0.164 A 
HETATM    9  C5  UNL     1      -1.582   0.430  -1.384  1.00  0.00     0.288 A 
HETATM   10  O1  UNL     1      -2.134   0.964  -2.399  1.00  0.00    -0.265 OA
HETATM   11  N3  UNL     1      -2.316  -0.241  -0.484  1.00  0.00    -0.207 N 
HETATM   12  C8  UNL     1      -1.684  -0.785   0.570  1.00  0.00     0.350 A 
HETATM   13  O3  UNL     1      -2.359  -1.413   1.416  1.00  0.00    -0.245 OA
HETATM   14  N7  UNL     1      -0.341  -0.692   0.770  1.00  0.00    -0.206 N 
HETATM   15  S1  UNL     1       0.268  -1.469   2.192  1.00  0.00     0.056 SA
HETATM   16  C9  UNL     1       0.387  -0.032  -0.114  1.00  0.00     0.179 A 
HETATM   17  N8  UNL     1       1.704   0.234  -0.204  1.00  0.00    -0.131 N 
HETATM   18  C10 UNL     1       2.883   0.039   0.423  1.00  0.00     0.055 A 
HETATM   19  C11 UNL     1       3.288  -0.640   1.641  1.00  0.00     0.071 C 
ENDROOT
BRANCH  11  20
HETATM   20  C6  UNL     1      -3.714  -0.369  -0.641  1.00  0.00     0.187 A 
HETATM   21  N4  UNL     1      -4.389  -0.951  -1.639  1.00  0.00    -0.221 N 
HETATM   22  O2  UNL     1      -5.658  -0.833  -1.366  1.00  0.00    -0.153 OA
ATOM     23  H4  UNL     1      -3.986  -1.403  -2.460  1.00  0.00     0.198 HD
HETATM   24  N5  UNL     1      -5.877  -0.220  -0.266  1.00  0.00    -0.222 N 
HETATM   25  C7  UNL     1      -4.659   0.102   0.245  1.00  0.00     0.168 A 
ATOM     26  H5  UNL     1      -6.786  -0.013   0.147  1.00  0.00     0.198 HD
BRANCH  25  27
HETATM   27  N6  UNL     1      -4.484   0.732   1.354  1.00  0.00    -0.381 N 
ATOM     28  H62 UNL     1      -3.570   0.974   1.737  1.00  0.00     0.157 HD
ATOM     29  H61 UNL     1      -5.183   1.081   2.010  1.00  0.00     0.157 HD
ENDBRANCH  25  27
ENDBRANCH  11  20
TORSDOF 2
