REMARK  11 active torsions:
REMARK  status: ('A' for Active; 'I' for Inactive)
REMARK    1  A    between atoms: O1_2  and  C2_3 
REMARK    2  A    between atoms: C3_8  and  C4_9 
REMARK    3  A    between atoms: N3_10  and  N4_12 
REMARK       I    between atoms: N4_12  and  C5_14 
REMARK    4  A    between atoms: C5_14  and  C6_16 
REMARK    5  A    between atoms: C8_20  and  N6_21 
REMARK    6  A    between atoms: C9_26  and  N8_27 
REMARK    7  A    between atoms: N8_27  and  C10_29 
REMARK    8  A    between atoms: C10_29  and  C11_30 
REMARK    9  A    between atoms: C11_30  and  O3_31 
REMARK   10  A    between atoms: O3_31  and  N9_32 
REMARK   11  A    between atoms: C13_36  and  O6_37 
ROOT
HETATM    1  C6  UNL     1       2.248   0.152  -1.070  1.00  0.00     0.093 A 
HETATM    2  C7  UNL     1       2.864  -0.443  -2.092  1.00  0.00     0.127 A 
HETATM    3  N5  UNL     1       4.117  -0.089  -2.462  1.00  0.00    -0.201 N 
ATOM      4  H5  UNL     1       4.581  -0.550  -3.245  1.00  0.00     0.183 HD
HETATM    5  C8  UNL     1       4.741   0.894  -1.766  1.00  0.00     0.677 A 
HETATM    6  N7  UNL     1       4.163   1.537  -0.715  1.00  0.00    -0.176 N 
ATOM      7  H7  UNL     1       4.664   2.272  -0.216  1.00  0.00     0.186 HD
HETATM    8  C9  UNL     1       2.911   1.182  -0.345  1.00  0.00     0.134 A 
ENDROOT
BRANCH   1   9
HETATM    9  C5  UNL     1       0.878  -0.211  -0.686  1.00  0.00     0.275 C 
HETATM   10  N4  UNL     1      -0.158   0.688  -0.924  1.00  0.00    -0.266 N 
ATOM     11  H4  UNL     1       0.008   1.591  -1.367  1.00  0.00     0.190 HD
HETATM   12  O2  UNL     1       0.720  -1.374  -0.137  1.00  0.00    -0.266 OA
BRANCH  10  13
HETATM   13  N3  UNL     1      -1.466   0.282  -0.516  1.00  0.00    -0.307 N 
HETATM   14  C4  UNL     1      -1.971  -0.662  -1.246  1.00  0.00     0.138 C 
ATOM     15  H3  UNL     1      -1.957   0.697   0.276  1.00  0.00     0.186 HD
BRANCH  14  16
HETATM   16  C3  UNL     1      -3.319  -1.150  -0.903  1.00  0.00     0.067 A 
HETATM   17  N2  UNL     1      -4.029  -0.617   0.085  1.00  0.00    -0.297 N 
HETATM   18  N1  UNL     1      -5.262  -1.055   0.399  1.00  0.00    -0.277 N 
ATOM     19  H2  UNL     1      -3.626   0.150   0.624  1.00  0.00     0.187 HD
HETATM   20  C2  UNL     1      -5.819  -2.066  -0.292  1.00  0.00     0.190 A 
ATOM     21  H1  UNL     1      -5.776  -0.619   1.164  1.00  0.00     0.189 HD
HETATM   22  C13 UNL     1      -5.149  -2.674  -1.331  1.00  0.00     0.120 A 
HETATM   23  C12 UNL     1      -3.886  -2.196  -1.625  1.00  0.00     0.073 A 
BRANCH  20  24
HETATM   24  O1  UNL     1      -7.108  -2.532   0.031  1.00  0.00    -0.338 OA
HETATM   25  C1  UNL     1      -7.861  -1.929   1.098  1.00  0.00     0.211 C 
ENDBRANCH  20  24
BRANCH  22  26
HETATM   26  O6  UNL     1      -5.797  -3.702  -1.982  1.00  0.00    -0.357 OA
ATOM     27  H6  UNL     1      -5.335  -4.121  -2.698  1.00  0.00     0.218 HD
ENDBRANCH  22  26
ENDBRANCH  14  16
ENDBRANCH  10  13
ENDBRANCH   1   9
BRANCH   8  28
HETATM   28  N8  UNL     1       2.330   1.668   0.608  1.00  0.00    -0.373 N 
ATOM     29  H8  UNL     1       1.452   1.148   0.609  1.00  0.00     0.161 HD
BRANCH  28  30
HETATM   30  C10 UNL     1       2.170   2.482   1.651  1.00  0.00     0.150 C 
BRANCH  30  31
HETATM   31  C11 UNL     1       3.520   2.765   2.345  1.00  0.00     0.227 C 
BRANCH  31  32
HETATM   32  O3  UNL     1       4.026   1.544   2.718  1.00  0.00    -0.220 OA
BRANCH  32  33
HETATM   33  N9  UNL     1       5.152   1.193   3.362  1.00  0.00     0.004 N 
HETATM   34  O4  UNL     1       5.371   1.599   4.537  1.00  0.00    -0.511 OA
HETATM   35  O5  UNL     1       6.119   0.362   2.772  1.00  0.00    -0.511 OA
ENDBRANCH  32  33
ENDBRANCH  31  32
ENDBRANCH  30  31
ENDBRANCH  28  30
ENDBRANCH   8  28
BRANCH   5  36
HETATM   36  N6  UNL     1       5.913   1.221  -2.125  1.00  0.00    -0.234 N 
ATOM     37  H62 UNL     1       6.346   0.739  -2.913  1.00  0.00     0.174 HD
ATOM     38  H61 UNL     1       6.382   1.960  -1.602  1.00  0.00     0.174 HD
ENDBRANCH   5  36
TORSDOF 11
