REMARK  8 active torsions:
REMARK  status: ('A' for Active; 'I' for Inactive)
REMARK    1  A    between atoms: O1_2  and  C2_3 
REMARK    2  A    between atoms: C2_3  and  C3_5 
REMARK    3  A    between atoms: C3_5  and  C4_6 
REMARK    4  A    between atoms: N5_16  and  O3_17 
REMARK    5  A    between atoms: O3_17  and  C10_18 
REMARK    6  A    between atoms: C10_18  and  C11_19 
REMARK    7  A    between atoms: C11_19  and  C12_20 
REMARK    8  A    between atoms: C12_20  and  N6_21 
ROOT
HETATM    1  N6  UNL     1       4.725  -1.212  -0.211  1.00  0.00    -0.279 N 
HETATM    2  N7  UNL     1       5.380  -2.290   0.191  1.00  0.00    -0.263 N 
ATOM      3  H7  UNL     1       5.155  -3.252  -0.062  1.00  0.00     0.190 HD
HETATM    4  C13 UNL     1       6.379  -1.909   0.978  1.00  0.00     0.262 A 
HETATM    5  O4  UNL     1       7.207  -2.673   1.545  1.00  0.00    -0.267 OA
HETATM    6  C14 UNL     1       6.353  -0.541   1.066  1.00  0.00     0.118 A 
HETATM    7  C15 UNL     1       5.296  -0.136   0.303  1.00  0.00     0.136 A 
HETATM    8  C16 UNL     1       4.922   1.247   0.083  1.00  0.00     0.119 C 
HETATM    9  N8  UNL     1       4.646   2.341  -0.134  1.00  0.00    -0.190 NA
ENDROOT
BRANCH   1  10
HETATM   10  C12 UNL     1       3.523  -1.263  -1.052  1.00  0.00     0.152 C 
BRANCH  10  11
HETATM   11  C11 UNL     1       2.281  -1.423  -0.201  1.00  0.00     0.051 C 
BRANCH  11  12
HETATM   12  C10 UNL     1       1.406  -0.240  -0.354  1.00  0.00     0.204 C 
BRANCH  12  13
HETATM   13  O3  UNL     1       0.198  -0.335   0.404  1.00  0.00    -0.262 OA
BRANCH  13  14
HETATM   14  N5  UNL     1      -0.446   0.784   0.195  1.00  0.00    -0.142 N 
HETATM   15  C3  UNL     1      -1.819   0.914   0.432  1.00  0.00     0.275 C 
HETATM   16  N1  UNL     1      -2.031   2.148   1.121  1.00  0.00    -0.077 NA
HETATM   17  N2  UNL     1      -1.571   3.234   0.345  1.00  0.00    -0.016 NA
HETATM   18  N3  UNL     1      -0.251   3.057   0.001  1.00  0.00     0.003 NA
HETATM   19  N4  UNL     1       0.314   1.921   0.514  1.00  0.00     0.015 NA
BRANCH  15  20
HETATM   20  C2  UNL     1      -2.450   1.101  -0.971  1.00  0.00     0.314 C 
HETATM   21  O2  UNL     1      -1.848   1.252  -1.970  1.00  0.00    -0.260 OA
BRANCH  20  22
HETATM   22  O1  UNL     1      -3.851   1.072  -0.899  1.00  0.00    -0.323 OA
HETATM   23  C1  UNL     1      -4.702   1.236  -2.006  1.00  0.00     0.213 C 
ENDBRANCH  20  22
ENDBRANCH  15  20
BRANCH  15  24
HETATM   24  C4  UNL     1      -2.612  -0.218   0.928  1.00  0.00     0.001 A 
HETATM   25  C5  UNL     1      -2.583  -1.440   0.281  1.00  0.00     0.012 A 
HETATM   26  C6  UNL     1      -3.529  -2.412   0.496  1.00  0.00     0.001 A 
HETATM   27  C7  UNL     1      -4.542  -2.151   1.408  1.00  0.00     0.000 A 
HETATM   28  C8  UNL     1      -4.589  -0.968   2.073  1.00  0.00     0.001 A 
HETATM   29  C9  UNL     1      -3.621  -0.003   1.827  1.00  0.00     0.012 A 
ENDBRANCH  15  24
ENDBRANCH  13  14
ENDBRANCH  12  13
ENDBRANCH  11  12
ENDBRANCH  10  11
ENDBRANCH   1  10
TORSDOF 8
