REMARK  8 active torsions:
REMARK  status: ('A' for Active; 'I' for Inactive)
REMARK    1  A    between atoms: O1_2  and  C2_3 
REMARK    2  A    between atoms: C4_5  and  C5_6 
REMARK    3  A    between atoms: N1_7  and  N2_9 
REMARK       I    between atoms: N2_9  and  C6_11 
REMARK    4  A    between atoms: C6_11  and  C7_13 
REMARK       I    between atoms: C7_13  and  N3_15 
REMARK    5  A    between atoms: N3_15  and  N4_17 
REMARK    6  A    between atoms: C8_19  and  C9_20 
REMARK    7  A    between atoms: C11_26  and  O6_27 
REMARK    8  A    between atoms: C13_30  and  C14_31 
ROOT
HETATM    1  N2  UNL     1       0.683  -0.869  -1.428  1.00  0.00    -0.262 N 
ATOM      2  H2  UNL     1       0.897  -1.097  -2.399  1.00  0.00     0.190 HD
HETATM    3  C6  UNL     1       1.651  -1.057  -0.422  1.00  0.00     0.329 C 
HETATM    4  O2  UNL     1       1.387  -0.778   0.762  1.00  0.00    -0.261 OA
ENDROOT
BRANCH   3   5
HETATM    5  C7  UNL     1       2.956  -1.576  -0.763  1.00  0.00     0.329 C 
HETATM    6  O3  UNL     1       3.260  -1.873  -1.964  1.00  0.00    -0.261 OA
HETATM    7  N3  UNL     1       3.997  -1.794   0.213  1.00  0.00    -0.262 N 
ATOM      8  H3  UNL     1       3.805  -1.571   1.190  1.00  0.00     0.190 HD
BRANCH   7   9
HETATM    9  N4  UNL     1       5.178  -2.266  -0.103  1.00  0.00    -0.306 N 
HETATM   10  C8  UNL     1       6.352  -1.977  -0.220  1.00  0.00     0.149 C 
ATOM     11  H4  UNL     1       5.070  -3.252  -0.342  1.00  0.00     0.186 HD
BRANCH  10  12
HETATM   12  C9  UNL     1       7.007  -0.695   0.010  1.00  0.00     0.148 A 
HETATM   13  O4  UNL     1       8.323  -0.494  -0.152  1.00  0.00    -0.255 OA
HETATM   14  C10 UNL     1       8.665   0.727   0.112  1.00  0.00     0.372 A 
HETATM   15  O5  UNL     1       9.847   1.221   0.049  1.00  0.00    -0.238 OA
HETATM   16  N5  UNL     1       7.550   1.374   0.465  1.00  0.00    -0.280 N 
HETATM   17  C11 UNL     1       6.507   0.496   0.405  1.00  0.00     0.180 A 
ATOM     18  H5  UNL     1       7.489   2.356   0.733  1.00  0.00     0.173 HD
BRANCH  17  19
HETATM   19  O6  UNL     1       5.191   0.827   0.707  1.00  0.00    -0.344 OA
ATOM     20  H6  UNL     1       4.839   1.665   0.985  1.00  0.00     0.219 HD
ENDBRANCH  17  19
ENDBRANCH  10  12
ENDBRANCH   7   9
ENDBRANCH   3   5
BRANCH   1  21
HETATM   21  N1  UNL     1      -0.577  -0.365  -1.081  1.00  0.00    -0.308 N 
HETATM   22  C5  UNL     1      -1.507  -1.115  -0.632  1.00  0.00     0.118 C 
ATOM     23  H1  UNL     1      -0.757   0.633  -1.191  1.00  0.00     0.186 HD
BRANCH  22  24
HETATM   24  C4  UNL     1      -2.789  -0.545  -0.288  1.00  0.00    -0.013 A 
HETATM   25  C3  UNL     1      -3.824  -1.347   0.206  1.00  0.00     0.069 A 
HETATM   26  C2  UNL     1      -5.034  -0.765   0.522  1.00  0.00     0.143 A 
HETATM   27  N6  UNL     1      -5.263   0.549   0.376  1.00  0.00    -0.334 N 
HETATM   28  C13 UNL     1      -4.289   1.366  -0.099  1.00  0.00     0.080 A 
ATOM     29  H6  UNL     1      -6.174   0.936   0.623  1.00  0.00     0.168 HD
HETATM   30  C12 UNL     1      -3.079   0.795  -0.418  1.00  0.00     0.046 A 
BRANCH  26  31
HETATM   31  O1  UNL     1      -6.034  -1.622   1.014  1.00  0.00    -0.341 OA
HETATM   32  C1  UNL     1      -7.293  -1.100   1.358  1.00  0.00     0.211 C 
ENDBRANCH  26  31
BRANCH  28  33
HETATM   33  C14 UNL     1      -4.547   2.791  -0.254  1.00  0.00     0.172 C 
HETATM   34  C15 UNL     1      -5.854   3.375   0.096  1.00  0.00     0.098 C 
HETATM   35  O7  UNL     1      -3.645   3.536  -0.693  1.00  0.00    -0.291 OA
ENDBRANCH  28  33
ENDBRANCH  22  24
ENDBRANCH   1  21
TORSDOF 8
