REMARK  11 active torsions:
REMARK  status: ('A' for Active; 'I' for Inactive)
REMARK    1  A    between atoms: C2_2  and  O1_3 
REMARK    2  A    between atoms: O1_3  and  N1_4 
REMARK    3  A    between atoms: C4_8  and  C5_9 
REMARK    4  A    between atoms: C4_8  and  C6_12 
REMARK    5  A    between atoms: C5_9  and  O3_10 
REMARK    6  A    between atoms: C6_12  and  O4_13 
REMARK    7  A    between atoms: N2_15  and  O5_16 
REMARK    8  A    between atoms: C8_18  and  C9_19 
REMARK    9  A    between atoms: C9_19  and  C10_20 
REMARK   10  A    between atoms: C11_21  and  N3_22 
REMARK   11  A    between atoms: C12_27  and  N5_28 
ROOT
HETATM    1  N1  UNL     1      -2.450   1.441   0.431  1.00  0.00    -0.243 N 
ATOM      2  H1  UNL     1      -3.468   1.389   0.390  1.00  0.00     0.196 HD
HETATM    3  C3  UNL     1      -1.890   0.372   0.143  1.00  0.00     0.194 C 
HETATM    4  O2  UNL     1      -2.554  -0.780  -0.239  1.00  0.00    -0.294 OA
HETATM    5  C4  UNL     1      -1.728  -1.885  -0.042  1.00  0.00     0.210 C 
HETATM    6  N2  UNL     1      -0.433  -1.343  -0.348  1.00  0.00    -0.214 N 
HETATM    7  C8  UNL     1      -0.442   0.011   0.114  1.00  0.00     0.114 C 
ENDROOT
BRANCH   7   8
HETATM    8  C9  UNL     1       0.546   0.775   0.520  1.00  0.00     0.057 C 
BRANCH   8   9
HETATM    9  C10 UNL     1       1.920   0.418   0.504  1.00  0.00     0.086 A 
HETATM   10  C11 UNL     1       2.838   1.135  -0.230  1.00  0.00     0.204 A 
HETATM   11  N4  UNL     1       4.144   0.804  -0.215  1.00  0.00    -0.170 N 
HETATM   12  C12 UNL     1       4.580  -0.223   0.510  1.00  0.00     0.680 A 
ATOM     13  H4  UNL     1       4.807   1.348  -0.767  1.00  0.00     0.186 HD
HETATM   14  N6  UNL     1       3.727  -0.957   1.247  1.00  0.00    -0.155 N 
HETATM   15  C13 UNL     1       2.441  -0.653   1.252  1.00  0.00     0.273 A 
ATOM     16  H6  UNL     1       4.071  -1.743   1.798  1.00  0.00     0.187 HD
HETATM   17  O8  UNL     1       1.642  -1.318   1.947  1.00  0.00    -0.267 OA
BRANCH  10  18
HETATM   18  N3  UNL     1       2.411   2.180  -1.064  1.00  0.00    -0.096 N 
HETATM   19  O6  UNL     1       3.232   2.851  -1.713  1.00  0.00    -0.530 OA
HETATM   20  O7  UNL     1       1.060   2.510  -1.181  1.00  0.00    -0.530 OA
ENDBRANCH  10  18
BRANCH  12  21
HETATM   21  N5  UNL     1       5.845  -0.526   0.497  1.00  0.00    -0.234 N 
ATOM     22  H52 UNL     1       6.492   0.031  -0.062  1.00  0.00     0.174 HD
ATOM     23  H51 UNL     1       6.179  -1.313   1.053  1.00  0.00     0.174 HD
ENDBRANCH  12  21
ENDBRANCH   8   9
ENDBRANCH   7   8
BRANCH   6  24
HETATM   24  O5  UNL     1       0.628  -1.891  -1.023  1.00  0.00    -0.280 OA
HETATM   25  C7  UNL     1       0.646  -1.318  -2.311  1.00  0.00     0.238 C 
ENDBRANCH   6  24
BRANCH   1  26
HETATM   26  O1  UNL     1      -2.001   2.626   0.778  1.00  0.00    -0.279 OA
BRANCH  26  27
HETATM   27  C2  UNL     1      -3.028   3.627   1.105  1.00  0.00     0.197 C 
HETATM   28  C1  UNL     1      -2.784   4.694   0.032  1.00  0.00     0.036 C 
ENDBRANCH  26  27
ENDBRANCH   1  26
BRANCH   5  29
HETATM   29  C5  UNL     1      -1.871  -2.365   1.382  1.00  0.00     0.230 C 
BRANCH  29  30
HETATM   30  O3  UNL     1      -0.949  -3.402   1.655  1.00  0.00    -0.396 OA
ATOM     31  H3  UNL     1      -1.039  -3.704   2.551  1.00  0.00     0.209 HD
ENDBRANCH  29  30
ENDBRANCH   5  29
BRANCH   5  32
HETATM   32  C6  UNL     1      -2.121  -2.990  -1.026  1.00  0.00     0.230 C 
BRANCH  32  33
HETATM   33  O4  UNL     1      -3.361  -3.505  -0.741  1.00  0.00    -0.396 OA
ATOM     34  H4  UNL     1      -3.605  -4.191  -1.352  1.00  0.00     0.209 HD
ENDBRANCH  32  33
ENDBRANCH   5  32
TORSDOF 11
