REMARK  8 active torsions:
REMARK  status: ('A' for Active; 'I' for Inactive)
REMARK    1  A    between atoms: C2_2  and  C3_4 
REMARK    2  A    between atoms: C4_5  and  N1_6 
REMARK    3  A    between atoms: N1_6  and  C5_7 
REMARK    4  A    between atoms: N1_6  and  C8_10 
REMARK    5  A    between atoms: C8_10  and  C10_12 
REMARK    6  A    between atoms: C14_17  and  C15_18 
REMARK    7  A    between atoms: C15_18  and  C16_20 
REMARK    8  A    between atoms: C22_26  and  O3_27 
ROOT
HETATM    1  C3  UNL     1      -0.532  -0.595  -1.890  1.00  0.00     0.069 A 
HETATM    2  C4  UNL     1      -0.443   0.359  -0.955  1.00  0.00     0.093 A 
HETATM    3  S1  UNL     1       0.853  -0.241   0.051  1.00  0.00    -0.065 SA
HETATM    4  C14 UNL     1       1.221  -1.671  -0.757  1.00  0.00     0.083 A 
HETATM    5  C23 UNL     1       0.331  -1.658  -1.795  1.00  0.00     0.084 A 
HETATM    6  N2  UNL     1       0.352  -2.778  -2.738  1.00  0.00    -0.100 NA
ENDROOT
BRANCH   4   7
HETATM    7  C15 UNL     1       2.210  -2.700  -0.468  1.00  0.00     0.203 C 
HETATM    8  O2  UNL     1       2.220  -3.695  -1.271  1.00  0.00    -0.286 OA
BRANCH   7   9
HETATM    9  C16 UNL     1       3.132  -2.673   0.611  1.00  0.00     0.049 A 
HETATM   10  C17 UNL     1       3.275  -1.626   1.495  1.00  0.00     0.025 A 
HETATM   11  C18 UNL     1       4.249  -1.761   2.498  1.00  0.00    -0.061 A 
HETATM   12  C19 UNL     1       4.413  -0.631   3.460  1.00  0.00     0.048 C 
HETATM   13  C20 UNL     1       5.037  -2.865   2.623  1.00  0.00     0.009 A 
HETATM   14  C21 UNL     1       4.866  -3.887   1.724  1.00  0.00     0.038 A 
HETATM   15  C22 UNL     1       3.941  -3.813   0.734  1.00  0.00     0.080 A 
BRANCH  15  16
HETATM   16  O3  UNL     1       3.821  -4.891  -0.145  1.00  0.00    -0.360 OA
ATOM     17  H3  UNL     1       4.369  -5.663  -0.062  1.00  0.00     0.217 HD
ENDBRANCH  15  16
ENDBRANCH   7   9
ENDBRANCH   4   7
BRANCH   2  18
HETATM   18  N1  UNL     1      -1.091   1.630  -0.648  1.00  0.00    -0.343 N 
BRANCH  18  19
HETATM   19  C5  UNL     1      -0.316   2.756  -1.168  1.00  0.00     0.082 C 
HETATM   20  C6  UNL     1      -1.053   3.892  -1.766  1.00  0.00     0.032 C 
HETATM   21  C7  UNL     1       0.607   3.281  -0.043  1.00  0.00     0.032 C 
ENDBRANCH  18  19
BRANCH  18  22
HETATM   22  C8  UNL     1      -2.217   1.816   0.175  1.00  0.00    -0.006 C 
HETATM   23  C9  UNL     1      -3.477   2.397  -0.345  1.00  0.00     0.064 C 
BRANCH  22  24
HETATM   24  C10 UNL     1      -2.555   0.732   1.172  1.00  0.00    -0.013 C 
HETATM   25  C11 UNL     1      -3.826   1.244   1.886  1.00  0.00     0.021 C 
HETATM   26  C12 UNL     1      -2.930  -0.582   0.589  1.00  0.00     0.021 C 
HETATM   27  C13 UNL     1      -1.532   0.621   2.296  1.00  0.00     0.021 C 
ENDBRANCH  22  24
ENDBRANCH  18  22
ENDBRANCH   2  18
BRANCH   1  28
HETATM   28  C2  UNL     1      -1.494  -0.599  -3.037  1.00  0.00     0.160 C 
HETATM   29  C1  UNL     1      -2.448   0.447  -3.308  1.00  0.00     0.097 C 
HETATM   30  O1  UNL     1      -1.508  -1.573  -3.862  1.00  0.00    -0.293 OA
ENDBRANCH   1  28
TORSDOF 8
