REMARK  9 active torsions:
REMARK  status: ('A' for Active; 'I' for Inactive)
REMARK    1  A    between atoms: C2_2  and  C3_3 
REMARK    2  A    between atoms: C3_3  and  C4_4 
REMARK    3  A    between atoms: C4_4  and  C5_5 
REMARK    4  A    between atoms: C5_5  and  C6_6 
REMARK    5  A    between atoms: C6_6  and  C7_7 
REMARK    6  A    between atoms: C7_7  and  O2_9 
REMARK    7  A    between atoms: O2_9  and  N1_10 
REMARK    8  A    between atoms: C13_17  and  O3_18 
REMARK    9  A    between atoms: C14_21  and  O5_22 
ROOT
HETATM    1  N1  UNL     1       0.005   0.698   0.629  1.00  0.00    -0.265 N 
ATOM      2  H1  UNL     1       0.073   1.681   0.893  1.00  0.00     0.194 HD
HETATM    3  C8  UNL     1      -1.129   0.253   0.901  1.00  0.00     0.020 C 
HETATM    4  C9  UNL     1      -2.085   1.249   1.531  1.00  0.00     0.070 C 
HETATM    5  C10 UNL     1      -3.507   1.010   1.077  1.00  0.00     0.005 C 
HETATM    6  C11 UNL     1      -4.396   0.547   2.185  1.00  0.00     0.021 C 
HETATM    7  C12 UNL     1      -4.159   2.250   0.565  1.00  0.00     0.028 A 
HETATM    8  C13 UNL     1      -4.301   3.617   0.697  1.00  0.00     0.193 A 
HETATM    9  O4  UNL     1      -5.159   4.057  -0.182  1.00  0.00    -0.263 OA
HETATM   10  C14 UNL     1      -5.596   3.044  -0.897  1.00  0.00     0.200 A 
HETATM   11  C15 UNL     1      -4.990   1.867  -0.466  1.00  0.00     0.080 A 
HETATM   12  C16 UNL     1      -4.842   0.405  -0.644  1.00  0.00     0.171 C 
HETATM   13  O6  UNL     1      -5.712  -0.339  -1.079  1.00  0.00    -0.292 OA
HETATM   14  C17 UNL     1      -3.449   0.216  -0.164  1.00  0.00     0.083 C 
HETATM   15  C18 UNL     1      -2.856  -1.100  -0.216  1.00  0.00    -0.024 C 
HETATM   16  C19 UNL     1      -2.276  -1.278  -1.643  1.00  0.00     0.016 C 
HETATM   17  C20 UNL     1      -3.711  -2.301  -0.020  1.00  0.00     0.016 C 
HETATM   18  C21 UNL     1      -1.586  -1.128   0.669  1.00  0.00     0.001 C 
HETATM   19  C22 UNL     1      -0.527  -1.979   0.017  1.00  0.00     0.022 C 
HETATM   20  C23 UNL     1      -1.908  -1.826   1.998  1.00  0.00     0.022 C 
ENDROOT
BRANCH   1  21
HETATM   21  O2  UNL     1       1.131   0.288   0.109  1.00  0.00    -0.200 OA
BRANCH  21  22
HETATM   22  C7  UNL     1       2.357   0.116   0.728  1.00  0.00     0.281 C 
HETATM   23  O1  UNL     1       2.452   0.365   1.941  1.00  0.00    -0.263 OA
BRANCH  22  24
HETATM   24  C6  UNL     1       3.518  -0.354  -0.079  1.00  0.00     0.113 C 
BRANCH  24  25
HETATM   25  C5  UNL     1       4.661   0.641   0.140  1.00  0.00     0.010 C 
BRANCH  25  26
HETATM   26  C4  UNL     1       5.901   0.299  -0.616  1.00  0.00     0.000 C 
BRANCH  26  27
HETATM   27  C3  UNL     1       6.464  -1.047  -0.226  1.00  0.00    -0.000 C 
BRANCH  27  28
HETATM   28  C2  UNL     1       7.735  -1.345  -1.021  1.00  0.00    -0.005 C 
HETATM   29  C1  UNL     1       8.785  -0.292  -0.771  1.00  0.00     0.005 C 
ENDBRANCH  27  28
ENDBRANCH  26  27
ENDBRANCH  25  26
ENDBRANCH  24  25
ENDBRANCH  22  24
ENDBRANCH  21  22
ENDBRANCH   1  21
BRANCH   8  30
HETATM   30  O3  UNL     1      -3.630   4.378   1.624  1.00  0.00    -0.340 OA
ATOM     31  H3  UNL     1      -3.728   5.319   1.715  1.00  0.00     0.220 HD
ENDBRANCH   8  30
BRANCH  10  32
HETATM   32  O5  UNL     1      -6.530   3.063  -1.951  1.00  0.00    -0.340 OA
ATOM     33  H5  UNL     1      -6.846   2.331  -2.468  1.00  0.00     0.220 HD
ENDBRANCH  10  32
TORSDOF 9
