REMARK  7 active torsions:
REMARK  status: ('A' for Active; 'I' for Inactive)
REMARK    1  A    between atoms: C3_4  and  C4_5 
REMARK    2  A    between atoms: C4_5  and  C5_7 
REMARK    3  A    between atoms: C10_16  and  S2_17 
REMARK    4  A    between atoms: S2_17  and  C11_18 
REMARK    5  A    between atoms: C11_18  and  C12_19 
REMARK    6  A    between atoms: C12_19  and  C13_20 
REMARK    7  A    between atoms: C19_28  and  N4_29 
ROOT
HETATM    1  N1  UNL     1       4.775  -0.825  -2.702  1.00  0.00    -0.191 NA
HETATM    2  C1  UNL     1       4.331  -0.907  -1.605  1.00  0.00     0.102 C 
HETATM    3  C2  UNL     1       3.812  -1.030  -0.224  1.00  0.00     0.082 A 
HETATM    4  C3  UNL     1       4.739  -0.977   0.791  1.00  0.00     0.079 A 
HETATM    5  S1  UNL     1       3.793  -1.200   2.189  1.00  0.00    -0.066 SA
HETATM    6  C9  UNL     1       2.259  -1.353   1.462  1.00  0.00     0.092 A 
HETATM    7  N2  UNL     1       1.001  -1.560   1.971  1.00  0.00    -0.330 N 
ATOM      8  H2  UNL     1       0.872  -1.647   2.979  1.00  0.00     0.168 HD
HETATM    9  C10 UNL     1      -0.059  -1.649   1.155  1.00  0.00     0.146 A 
HETATM   10  N3  UNL     1       0.166  -1.530  -0.144  1.00  0.00    -0.323 N 
ATOM     11  H3  UNL     1      -0.640  -1.599  -0.766  1.00  0.00     0.169 HD
HETATM   12  C19 UNL     1       1.389  -1.322  -0.723  1.00  0.00     0.115 A 
HETATM   13  C20 UNL     1       2.513  -1.226   0.126  1.00  0.00     0.064 A 
ENDROOT
BRANCH   4  14
HETATM   14  C4  UNL     1       6.204  -0.752   0.717  1.00  0.00     0.202 C 
HETATM   15  O1  UNL     1       6.975  -1.572   1.277  1.00  0.00    -0.286 OA
BRANCH  14  16
HETATM   16  C5  UNL     1       6.752   0.385   0.022  1.00  0.00     0.040 A 
HETATM   17  C6  UNL     1       6.167   1.608  -0.277  1.00  0.00     0.042 A 
HETATM   18  C7  UNL     1       7.089   2.375  -0.962  1.00  0.00     0.142 A 
HETATM   19  O2  UNL     1       8.180   1.669  -1.080  1.00  0.00    -0.334 OA
HETATM   20  C8  UNL     1       8.039   0.496  -0.522  1.00  0.00     0.156 A 
ENDBRANCH  14  16
ENDBRANCH   4  14
BRANCH  12  21
HETATM   21  N4  UNL     1       1.361  -1.235  -1.968  1.00  0.00    -0.385 N 
ATOM     22  H42 UNL     1       0.549  -1.304  -2.581  1.00  0.00     0.157 HD
ATOM     23  H41 UNL     1       2.272  -1.080  -2.399  1.00  0.00     0.157 HD
ENDBRANCH  12  21
BRANCH   9  24
HETATM   24  S2  UNL     1      -1.710  -1.941   1.767  1.00  0.00    -0.094 SA
BRANCH  24  25
HETATM   25  C11 UNL     1      -2.527  -0.374   2.038  1.00  0.00     0.082 C 
BRANCH  25  26
HETATM   26  C12 UNL     1      -2.789   0.381   0.751  1.00  0.00     0.015 C 
BRANCH  26  27
HETATM   27  C13 UNL     1      -3.668  -0.418  -0.187  1.00  0.00    -0.014 C 
HETATM   28  C14 UNL     1      -5.010  -0.733   0.430  1.00  0.00     0.005 C 
HETATM   29  C15 UNL     1      -5.750   0.507   0.841  1.00  0.00     0.000 C 
HETATM   30  C16 UNL     1      -5.715   1.629  -0.103  1.00  0.00     0.000 C 
HETATM   31  C17 UNL     1      -4.790   1.576  -1.239  1.00  0.00     0.000 C 
HETATM   32  C18 UNL     1      -3.989   0.347  -1.447  1.00  0.00     0.005 C 
ENDBRANCH  26  27
ENDBRANCH  25  26
ENDBRANCH  24  25
ENDBRANCH   9  24
TORSDOF 7
