REMARK  8 active torsions:
REMARK  status: ('A' for Active; 'I' for Inactive)
REMARK    1  A    between atoms: C3_3  and  C4_4 
REMARK    2  A    between atoms: C8_10  and  C9_11 
REMARK    3  A    between atoms: C9_11  and  S1_12 
REMARK    4  A    between atoms: C9_11  and  C12_21 
REMARK    5  A    between atoms: S1_12  and  C10_13 
REMARK    6  A    between atoms: C12_21  and  C14_24 
REMARK    7  A    between atoms: C14_24  and  O2_26 
REMARK    8  A    between atoms: O2_26  and  C15_27 
ROOT
HETATM    1  C12 UNL     1      -1.238   0.175  -1.716  1.00  0.00     0.212 C 
HETATM    2  C13 UNL     1      -1.763   1.480  -2.413  1.00  0.00     0.075 C 
HETATM    3  N4  UNL     1      -2.139   2.426  -2.958  1.00  0.00    -0.196 NA
ENDROOT
BRANCH   1   4
HETATM    4  C9  UNL     1       0.059   0.629  -1.126  1.00  0.00     0.132 C 
BRANCH   4   5
HETATM    5  C8  UNL     1       0.901  -0.411  -0.477  1.00  0.00     0.032 A 
HETATM    6  C2  UNL     1       2.238  -0.341  -0.242  1.00  0.00    -0.026 A 
HETATM    7  C1  UNL     1       3.163   0.787  -0.556  1.00  0.00     0.051 C 
HETATM    8  C3  UNL     1       2.631  -1.514   0.408  1.00  0.00    -0.011 A 
HETATM    9  C7  UNL     1       1.456  -2.253   0.534  1.00  0.00     0.100 A 
HETATM   10  N1  UNL     1       0.446  -1.599   0.011  1.00  0.00    -0.367 N 
ATOM     11  H1  UNL     1      -0.520  -1.926  -0.024  1.00  0.00     0.165 HD
BRANCH   8  12
HETATM   12  C4  UNL     1       3.989  -2.023   0.725  1.00  0.00    -0.075 C 
HETATM   13  C5  UNL     1       4.354  -2.056   2.161  1.00  0.00     0.044 C 
HETATM   14  C6  UNL     1       5.029  -1.811  -0.305  1.00  0.00     0.044 C 
ENDBRANCH   8  12
ENDBRANCH   4   5
BRANCH   4  15
HETATM   15  S1  UNL     1      -0.391   1.885   0.124  1.00  0.00    -0.090 SA
BRANCH  15  16
HETATM   16  C10 UNL     1       0.478   3.419  -0.033  1.00  0.00     0.130 A 
HETATM   17  N2  UNL     1       1.624   3.915   0.370  1.00  0.00    -0.287 N 
HETATM   18  N3  UNL     1       1.930   5.136   0.159  1.00  0.00    -0.283 N 
ATOM     19  H2  UNL     1       2.284   3.312   0.862  1.00  0.00     0.188 HD
HETATM   20  C11 UNL     1       1.072   5.921  -0.477  1.00  0.00     0.159 A 
ATOM     21  H3  UNL     1       2.827   5.504   0.477  1.00  0.00     0.188 HD
HETATM   22  S2  UNL     1       1.226   7.527  -0.853  1.00  0.00    -0.051 SA
HETATM   23  S3  UNL     1      -0.207   4.862  -0.781  1.00  0.00    -0.033 SA
ENDBRANCH  15  16
ENDBRANCH   4  15
ENDBRANCH   1   4
BRANCH   1  24
HETATM   24  C14 UNL     1      -2.382  -0.026  -0.790  1.00  0.00     0.279 C 
HETATM   25  O1  UNL     1      -2.656   0.919   0.039  1.00  0.00    -0.264 OA
BRANCH  24  26
HETATM   26  O2  UNL     1      -3.220  -1.102  -0.702  1.00  0.00    -0.310 OA
BRANCH  26  27
HETATM   27  C15 UNL     1      -4.322  -1.129   0.205  1.00  0.00     0.060 C 
HETATM   28  C16 UNL     1      -4.976  -2.488   0.056  1.00  0.00     0.045 C 
HETATM   29  C17 UNL     1      -3.972  -0.952   1.641  1.00  0.00     0.045 C 
HETATM   30  C18 UNL     1      -5.371  -0.120  -0.184  1.00  0.00     0.045 C 
ENDBRANCH  26  27
ENDBRANCH  24  26
ENDBRANCH   1  24
TORSDOF 8
