REMARK  8 active torsions:
REMARK  status: ('A' for Active; 'I' for Inactive)
REMARK    1  A    between atoms: C3_4  and  N2_5 
REMARK    2  A    between atoms: N2_5  and  O1_7 
REMARK    3  A    between atoms: C5_10  and  C6_11 
REMARK    4  A    between atoms: C6_11  and  C7_12 
REMARK    5  A    between atoms: C9_18  and  O3_19 
REMARK    6  A    between atoms: C11_22  and  C12_23 
REMARK    7  A    between atoms: C12_23  and  C13_24 
REMARK    8  A    between atoms: C13_24  and  C14_25 
ROOT
HETATM    1  N1  UNL     1      -2.885   5.795  -1.509  1.00  0.00    -0.191 NA
HETATM    2  C1  UNL     1      -2.629   4.708  -1.186  1.00  0.00     0.103 C 
HETATM    3  C2  UNL     1      -2.341   3.363  -0.797  1.00  0.00     0.091 A 
HETATM    4  C3  UNL     1      -3.238   2.651  -0.053  1.00  0.00     0.076 A 
HETATM    5  C4  UNL     1      -2.876   1.369   0.265  1.00  0.00     0.041 A 
HETATM    6  C5  UNL     1      -1.689   0.760  -0.109  1.00  0.00    -0.039 A 
HETATM    7  C10 UNL     1      -0.750   1.494  -0.880  1.00  0.00    -0.004 A 
HETATM    8  C11 UNL     1       0.470   1.091  -1.357  1.00  0.00    -0.039 A 
HETATM    9  C19 UNL     1       1.159   2.047  -2.101  1.00  0.00     0.058 A 
HETATM   10  S2  UNL     1       0.140   3.409  -2.110  1.00  0.00    -0.099 SA
HETATM   11  C20 UNL     1      -1.135   2.772  -1.186  1.00  0.00     0.039 A 
ENDROOT
BRANCH   4  12
HETATM   12  N2  UNL     1      -4.483   3.158   0.387  1.00  0.00    -0.268 N 
ATOM     13  H2  UNL     1      -4.979   2.639   1.112  1.00  0.00     0.194 HD
BRANCH  12  14
HETATM   14  O1  UNL     1      -5.015   4.196  -0.051  1.00  0.00    -0.289 OA
ATOM     15  H1  UNL     1      -5.851   4.537   0.245  1.00  0.00     0.244 HD
ENDBRANCH  12  14
ENDBRANCH   4  12
BRANCH   6  16
HETATM   16  C6  UNL     1      -1.501  -0.631   0.291  1.00  0.00     0.090 C 
BRANCH  16  17
HETATM   17  C7  UNL     1      -2.803  -1.171   0.884  1.00  0.00     0.043 A 
HETATM   18  S1  UNL     1      -3.288  -1.323   2.513  1.00  0.00    -0.029 SA
HETATM   19  C8  UNL     1      -4.850  -1.961   2.249  1.00  0.00     0.290 A 
HETATM   20  O2  UNL     1      -5.756  -2.302   3.098  1.00  0.00    -0.260 OA
HETATM   21  N3  UNL     1      -4.928  -2.029   0.920  1.00  0.00    -0.297 N 
HETATM   22  C9  UNL     1      -3.902  -1.634   0.214  1.00  0.00     0.157 A 
ATOM     23  H3  UNL     1      -5.770  -2.381   0.464  1.00  0.00     0.171 HD
BRANCH  22  24
HETATM   24  O3  UNL     1      -3.900  -1.674  -1.209  1.00  0.00    -0.345 OA
ATOM     25  H3  UNL     1      -4.663  -1.996  -1.674  1.00  0.00     0.219 HD
ENDBRANCH  22  24
ENDBRANCH  16  17
ENDBRANCH   6  16
BRANCH   8  26
HETATM   26  C12 UNL     1       1.218  -0.188  -1.132  1.00  0.00     0.040 C 
BRANCH  26  27
HETATM   27  C13 UNL     1       2.032  -0.057   0.125  1.00  0.00     0.009 C 
BRANCH  27  28
HETATM   28  C14 UNL     1       2.853  -1.314   0.377  1.00  0.00    -0.014 C 
HETATM   29  C15 UNL     1       3.641  -1.113   1.643  1.00  0.00     0.004 C 
HETATM   30  C16 UNL     1       5.057  -0.802   1.192  1.00  0.00     0.000 C 
HETATM   31  C17 UNL     1       5.168  -1.707  -0.014  1.00  0.00     0.000 C 
HETATM   32  C18 UNL     1       3.862  -1.523  -0.722  1.00  0.00     0.004 C 
ENDBRANCH  27  28
ENDBRANCH  26  27
ENDBRANCH   8  26
TORSDOF 8
