REMARK  8 active torsions:
REMARK  status: ('A' for Active; 'I' for Inactive)
REMARK    1  A    between atoms: N1_1  and  C1_5 
REMARK    2  A    between atoms: C1_5  and  C2_6 
REMARK    3  A    between atoms: C2_6  and  C3_7 
REMARK    4  A    between atoms: C3_7  and  C4_8 
REMARK    5  A    between atoms: C4_8  and  N2_9 
REMARK    6  A    between atoms: N2_9  and  C5_12 
REMARK    7  A    between atoms: C7_17  and  C8_18 
REMARK    8  A    between atoms: N4_21  and  C11_22 
ROOT
HETATM    1  C5  UNL     1       0.122  -0.184  -0.280  1.00  0.00     0.213 C 
HETATM    2  C6  UNL     1      -0.490   1.176  -0.466  1.00  0.00     0.265 C 
HETATM    3  N3  UNL     1      -1.894   0.892  -0.581  1.00  0.00    -0.067 N 
ATOM      4  H31 UNL     1      -2.200   0.670  -1.528  1.00  0.00     0.277 HD
ATOM      5  H32 UNL     1      -2.497   1.705  -0.457  1.00  0.00     0.277 HD
HETATM    6  C7  UNL     1      -2.118  -0.156   0.369  1.00  0.00     0.210 C 
HETATM    7  C12 UNL     1      -0.928  -1.028   0.398  1.00  0.00     0.069 C 
ENDROOT
BRANCH   1   8
HETATM    8  N2  UNL     1       1.336  -0.031   0.508  1.00  0.00    -0.069 N 
ATOM      9  H22 UNL     1       1.725  -0.921   0.818  1.00  0.00     0.277 HD
ATOM     10  H21 UNL     1       1.165   0.367   1.431  1.00  0.00     0.277 HD
BRANCH   8  11
HETATM   11  C4  UNL     1       2.264   0.748  -0.281  1.00  0.00     0.233 C 
BRANCH  11  12
HETATM   12  C3  UNL     1       3.508   1.151   0.435  1.00  0.00     0.029 C 
BRANCH  12  13
HETATM   13  C2  UNL     1       4.320   0.003   0.962  1.00  0.00     0.029 C 
BRANCH  13  14
HETATM   14  C1  UNL     1       4.754  -0.907  -0.142  1.00  0.00     0.229 C 
BRANCH  14  15
HETATM   15  N1  UNL     1       5.569  -2.009   0.396  1.00  0.00    -0.079 N 
ATOM     16  H13 UNL     1       6.361  -1.666   0.940  1.00  0.00     0.274 HD
ATOM     17  H12 UNL     1       5.084  -2.514   1.137  1.00  0.00     0.274 HD
ATOM     18  H11 UNL     1       5.865  -2.630  -0.357  1.00  0.00     0.274 HD
ENDBRANCH  14  15
ENDBRANCH  13  14
ENDBRANCH  12  13
ENDBRANCH  11  12
ENDBRANCH   8  11
ENDBRANCH   1   8
BRANCH   6  19
HETATM   19  C8  UNL     1      -3.430  -0.837   0.244  1.00  0.00     0.118 A 
HETATM   20  C9  UNL     1      -3.792  -1.452  -1.065  1.00  0.00     0.047 A 
HETATM   21  C10 UNL     1      -4.874  -0.421  -1.217  1.00  0.00     0.127 A 
HETATM   22  N4  UNL     1      -4.531   0.061   0.117  1.00  0.00    -0.352 N 
BRANCH  22  23
HETATM   23  C11 UNL     1      -5.162   1.058   0.908  1.00  0.00     0.351 C 
HETATM   24  O1  UNL     1      -4.663   1.259   2.069  1.00  0.00    -0.284 OA
ENDBRANCH  22  23
ENDBRANCH   6  19
TORSDOF 8
