REMARK  9 active torsions:
REMARK  status: ('A' for Active; 'I' for Inactive)
REMARK    1  A    between atoms: N1_1  and  C1_5 
REMARK    2  A    between atoms: C1_5  and  C2_6 
REMARK    3  A    between atoms: C2_6  and  C3_7 
REMARK    4  A    between atoms: C3_7  and  C4_8 
REMARK    5  A    between atoms: C4_8  and  N2_9 
REMARK    6  A    between atoms: C7_12  and  N3_13 
REMARK    7  A    between atoms: C9_18  and  N4_19 
REMARK    8  A    between atoms: N4_19  and  C10_22 
REMARK    9  A    between atoms: C10_22  and  C11_23 
ROOT
HETATM    1  N2  UNL     1       0.266  -0.532   0.035  1.00  0.00     0.097 N 
HETATM    2  C5  UNL     1      -0.129   0.369  -1.008  1.00  0.00     0.281 C 
HETATM    3  C6  UNL     1      -1.634   0.250  -0.917  1.00  0.00     0.079 C 
HETATM    4  C7  UNL     1      -1.780  -1.252  -0.727  1.00  0.00     0.226 C 
HETATM    5  C8  UNL     1      -1.000  -0.944   0.559  1.00  0.00     0.284 C 
HETATM    6  C9  UNL     1      -1.798   0.343   0.584  1.00  0.00     0.229 C 
ENDROOT
BRANCH   1   7
HETATM    7  C4  UNL     1       1.105  -0.043   1.041  1.00  0.00     0.273 C 
BRANCH   7   8
HETATM    8  C3  UNL     1       2.505   0.310   0.664  1.00  0.00     0.032 C 
BRANCH   8   9
HETATM    9  C2  UNL     1       3.290  -0.847   0.117  1.00  0.00     0.029 C 
BRANCH   9  10
HETATM   10  C1  UNL     1       4.704  -0.452  -0.253  1.00  0.00     0.229 C 
BRANCH  10  11
HETATM   11  N1  UNL     1       4.760   0.576  -1.255  1.00  0.00    -0.079 N 
ATOM     12  H13 UNL     1       4.230   0.305  -2.083  1.00  0.00     0.274 HD
ATOM     13  H12 UNL     1       4.218   1.392  -0.969  1.00  0.00     0.274 HD
ATOM     14  H11 UNL     1       5.713   0.842  -1.504  1.00  0.00     0.274 HD
ENDBRANCH  10  11
ENDBRANCH   9  10
ENDBRANCH   8   9
ENDBRANCH   7   8
ENDBRANCH   1   7
BRANCH   4  15
HETATM   15  N3  UNL     1      -1.017  -1.932  -1.735  1.00  0.00    -0.072 N 
ATOM     16  H33 UNL     1      -1.269  -1.635  -2.678  1.00  0.00     0.274 HD
ATOM     17  H32 UNL     1      -0.041  -1.636  -1.747  1.00  0.00     0.274 HD
ATOM     18  H31 UNL     1      -1.115  -2.939  -1.608  1.00  0.00     0.274 HD
ENDBRANCH   4  15
BRANCH   6  19
HETATM   19  N4  UNL     1      -3.123   0.309   1.085  1.00  0.00    -0.062 N 
ATOM     20  H42 UNL     1      -3.602  -0.563   0.862  1.00  0.00     0.278 HD
ATOM     21  H41 UNL     1      -3.154   0.231   2.102  1.00  0.00     0.278 HD
BRANCH  19  22
HETATM   22  C10 UNL     1      -3.834   1.472   0.597  1.00  0.00     0.301 C 
BRANCH  22  23
HETATM   23  C11 UNL     1      -5.224   1.535   1.082  1.00  0.00     0.258 C 
HETATM   24  O1  UNL     1      -5.652   0.665   1.803  1.00  0.00    -0.305 OA
ENDBRANCH  22  23
ENDBRANCH  19  22
ENDBRANCH   6  19
TORSDOF 9
