REMARK  9 active torsions:
REMARK  status: ('A' for Active; 'I' for Inactive)
REMARK    1  A    between atoms: C1_4  and  C2_5 
REMARK    2  A    between atoms: N3_8  and  C4_9 
REMARK    3  A    between atoms: C4_9  and  C5_10 
REMARK    4  A    between atoms: C5_10  and  C6_12 
REMARK    5  A    between atoms: N6_17  and  C7_18 
REMARK    6  A    between atoms: C9_22  and  N8_23 
REMARK    7  A    between atoms: C14_33  and  N11_34 
REMARK    8  A    between atoms: N11_34  and  N12_36 
REMARK    9  A    between atoms: C15_43  and  N15_44 
ROOT
HETATM    1  C6  UNL     1       2.004   1.174  -1.503  1.00  0.00     0.186 A 
HETATM    2  N4  UNL     1       1.469   2.386  -1.857  1.00  0.00    -0.265 N 
ATOM      3  H4  UNL     1       1.959   3.163  -2.300  1.00  0.00     0.190 HD
HETATM    4  N5  UNL     1       0.197   2.350  -1.512  1.00  0.00    -0.218 N 
ATOM      5  H5  UNL     1      -0.455   3.121  -1.656  1.00  0.00     0.210 HD
HETATM    6  N6  UNL     1      -0.135   1.193  -0.956  1.00  0.00    -0.160 N 
HETATM    7  N13 UNL     1       0.980   0.495  -0.962  1.00  0.00    -0.257 N 
ATOM      8  H13 UNL     1       1.058  -0.454  -0.597  1.00  0.00     0.191 HD
ENDROOT
BRANCH   6   9
HETATM    9  C7  UNL     1      -1.407   0.786  -0.471  1.00  0.00     0.192 A 
HETATM   10  N7  UNL     1      -2.074   1.625   0.381  1.00  0.00    -0.343 N 
HETATM   11  C8  UNL     1      -3.292   1.294   0.857  1.00  0.00     0.138 A 
ATOM     12  H7  UNL     1      -1.646   2.508   0.658  1.00  0.00     0.167 HD
HETATM   13  C9  UNL     1      -3.913   0.113   0.513  1.00  0.00     0.120 A 
HETATM   14  N10 UNL     1      -3.242  -0.688  -0.318  1.00  0.00    -0.323 N 
HETATM   15  C14 UNL     1      -2.015  -0.397  -0.822  1.00  0.00     0.169 A 
ATOM     16  H10 UNL     1      -3.676  -1.570  -0.590  1.00  0.00     0.169 HD
BRANCH  13  17
HETATM   17  N8  UNL     1      -5.196  -0.251   1.000  1.00  0.00    -0.363 N 
HETATM   18  C10 UNL     1      -5.970  -1.316   0.342  1.00  0.00     0.152 C 
HETATM   19  C11 UNL     1      -7.135  -0.664  -0.341  1.00  0.00     0.252 C 
HETATM   20  N9  UNL     1      -7.425   0.590   0.294  1.00  0.00    -0.072 N 
HETATM   21  C12 UNL     1      -7.291   0.584   1.729  1.00  0.00     0.252 C 
ATOM     22  H92 UNL     1      -6.855   1.332  -0.112  1.00  0.00     0.277 HD
ATOM     23  H91 UNL     1      -8.354   0.915   0.027  1.00  0.00     0.277 HD
HETATM   24  C13 UNL     1      -5.840   0.350   2.143  1.00  0.00     0.152 C 
ENDBRANCH  13  17
BRANCH  15  25
HETATM   25  N11 UNL     1      -1.319  -1.262  -1.710  1.00  0.00    -0.289 N 
ATOM     26  H11 UNL     1      -0.610  -1.909  -1.366  1.00  0.00     0.188 HD
BRANCH  25  27
HETATM   27  N12 UNL     1      -1.637  -1.197  -3.066  1.00  0.00    -0.344 N 
ATOM     28 2H12 UNL     1      -2.349  -0.544  -3.394  1.00  0.00     0.176 HD
ATOM     29 1H12 UNL     1      -1.138  -1.818  -3.703  1.00  0.00     0.176 HD
ENDBRANCH  25  27
ENDBRANCH  15  25
ENDBRANCH   6   9
BRANCH   1  30
HETATM   30  C5  UNL     1       3.398   0.769  -1.716  1.00  0.00     0.215 C 
HETATM   31  O1  UNL     1       4.189   1.561  -2.260  1.00  0.00    -0.287 OA
BRANCH  30  32
HETATM   32  C4  UNL     1       3.840  -0.561  -1.287  1.00  0.00     0.237 C 
BRANCH  32  33
HETATM   33  N3  UNL     1       4.837  -0.405  -0.222  1.00  0.00    -0.269 N 
HETATM   34  C3  UNL     1       6.179  -0.289  -0.458  1.00  0.00     0.148 A 
HETATM   35  C2  UNL     1       6.841  -0.165   0.738  1.00  0.00     0.066 A 
HETATM   36  N2  UNL     1       6.793  -0.291  -1.742  1.00  0.00    -0.080 NA
HETATM   37  C15 UNL     1       5.851  -0.209   1.718  1.00  0.00     0.129 A 
HETATM   38  N14 UNL     1       4.684  -0.353   1.082  1.00  0.00    -0.281 N 
ATOM     39  H14 UNL     1       3.782  -0.415   1.553  1.00  0.00     0.189 HD
BRANCH  35  40
HETATM   40  C1  UNL     1       8.280  -0.014   0.974  1.00  0.00     0.099 C 
HETATM   41  N1  UNL     1       9.069   0.015  -0.034  1.00  0.00    -0.407 N 
ATOM     42  H12 UNL     1       8.688  -0.067  -0.976  1.00  0.00     0.155 HD
ATOM     43  H11 UNL     1      10.070   0.120   0.130  1.00  0.00     0.155 HD
ENDBRANCH  35  40
BRANCH  37  44
HETATM   44  N15 UNL     1       6.046  -0.121   2.981  1.00  0.00    -0.384 N 
ATOM     45 2H15 UNL     1       6.936  -0.011   3.466  1.00  0.00     0.157 HD
ATOM     46 1H15 UNL     1       5.321  -0.153   3.698  1.00  0.00     0.157 HD
ENDBRANCH  37  44
ENDBRANCH  32  33
ENDBRANCH  30  32
ENDBRANCH   1  30
TORSDOF 9
