REMARK  12 active torsions:
REMARK  status: ('A' for Active; 'I' for Inactive)
REMARK    1  A    between atoms: C2_7  and  C3_8 
REMARK    2  A    between atoms: C4_11  and  C5_12 
REMARK       I    between atoms: C5_12  and  N5_14 
REMARK    3  A    between atoms: N5_14  and  C6_16 
REMARK    4  A    between atoms: C6_16  and  N6_17 
REMARK    5  A    between atoms: C6_16  and  C7_21 
REMARK       I    between atoms: C7_21  and  N7_23 
REMARK    6  A    between atoms: N7_23  and  N8_25 
REMARK    7  A    between atoms: N8_25  and  C8_26 
REMARK    8  A    between atoms: C8_26  and  N9_27 
REMARK    9  A    between atoms: C8_26  and  C9_31 
REMARK   10  A    between atoms: C10_33  and  O4_34 
REMARK   11  A    between atoms: C11_36  and  O5_37 
REMARK   12  A    between atoms: C12_39  and  O6_40 
ROOT
HETATM    1  C6  UNL     1      -0.311  -0.638   0.559  1.00  0.00     0.378 C 
ENDROOT
BRANCH   1   2
HETATM    2  N5  UNL     1       0.962  -0.878  -0.076  1.00  0.00    -0.319 N 
HETATM    3  C5  UNL     1       2.169  -0.593   0.565  1.00  0.00     0.289 C 
HETATM    4  O1  UNL     1       2.135  -0.111   1.740  1.00  0.00    -0.264 OA
ATOM      5  H5  UNL     1       0.981  -1.266  -1.019  1.00  0.00     0.165 HD
BRANCH   3   6
HETATM    6  C4  UNL     1       3.470  -0.834  -0.087  1.00  0.00     0.197 A 
HETATM    7  N4  UNL     1       4.690  -0.542   0.415  1.00  0.00    -0.312 N 
HETATM    8  C3  UNL     1       5.645  -0.911  -0.484  1.00  0.00     0.219 A 
ATOM      9  H4  UNL     1       4.868  -0.113   1.323  1.00  0.00     0.170 HD
HETATM   10  O7  UNL     1       4.970  -1.419  -1.505  1.00  0.00    -0.214 OA
HETATM   11  N10 UNL     1       3.701  -1.379  -1.284  1.00  0.00    -0.238 N 
ATOM     12  H10 UNL     1       2.982  -1.713  -1.926  1.00  0.00     0.197 HD
BRANCH   8  13
HETATM   13  C2  UNL     1       7.089  -0.777  -0.355  1.00  0.00     0.191 A 
HETATM   14  N3  UNL     1       8.000  -1.157  -1.264  1.00  0.00    -0.265 N 
HETATM   15  N2  UNL     1       9.208  -0.853  -0.772  1.00  0.00    -0.225 N 
ATOM     16  H3  UNL     1       7.808  -1.597  -2.164  1.00  0.00     0.190 HD
HETATM   17  N1  UNL     1       9.079  -0.299   0.408  1.00  0.00    -0.223 N 
ATOM     18  H2  UNL     1      10.095  -1.027  -1.245  1.00  0.00     0.210 HD
HETATM   19  C1  UNL     1      10.090   0.198   1.324  1.00  0.00     0.202 C 
HETATM   20  N11 UNL     1       7.782  -0.252   0.665  1.00  0.00    -0.263 N 
ATOM     21  H11 UNL     1       7.369   0.129   1.516  1.00  0.00     0.190 HD
ENDBRANCH   8  13
ENDBRANCH   3   6
ENDBRANCH   1   2
BRANCH   1  22
HETATM   22  N6  UNL     1      -1.088  -1.850   0.485  1.00  0.00    -0.049 N 
ATOM     23  H63 UNL     1      -1.184  -2.198  -0.469  1.00  0.00     0.277 HD
ATOM     24  H62 UNL     1      -0.599  -2.655   0.877  1.00  0.00     0.277 HD
ATOM     25  H61 UNL     1      -1.988  -1.680   0.934  1.00  0.00     0.277 HD
ENDBRANCH   1  22
BRANCH   1  26
HETATM   26  C7  UNL     1      -1.033   0.501  -0.094  1.00  0.00     0.283 C 
HETATM   27  O2  UNL     1      -0.517   1.117  -1.058  1.00  0.00    -0.268 OA
HETATM   28  N7  UNL     1      -2.305   0.871   0.396  1.00  0.00    -0.268 N 
ATOM     29  H7  UNL     1      -2.696   0.343   1.176  1.00  0.00     0.185 HD
BRANCH  28  30
HETATM   30  N8  UNL     1      -3.049   1.917  -0.132  1.00  0.00    -0.098 NA
BRANCH  30  31
HETATM   31  C8  UNL     1      -4.431   1.922   0.398  1.00  0.00     0.355 C 
BRANCH  31  32
HETATM   32  N9  UNL     1      -5.058   3.155  -0.034  1.00  0.00    -0.053 N 
ATOM     33  H93 UNL     1      -4.527   3.985   0.230  1.00  0.00     0.276 HD
ATOM     34  H92 UNL     1      -5.019   3.288  -1.044  1.00  0.00     0.276 HD
ATOM     35  H91 UNL     1      -6.010   3.158   0.331  1.00  0.00     0.276 HD
ENDBRANCH  31  32
BRANCH  31  36
HETATM   36  C9  UNL     1      -5.155   0.720  -0.056  1.00  0.00     0.139 A 
HETATM   37  O3  UNL     1      -4.610  -0.507  -0.077  1.00  0.00    -0.284 OA
HETATM   38  C10 UNL     1      -5.465  -1.374  -0.523  1.00  0.00     0.220 A 
HETATM   39  C11 UNL     1      -6.642  -0.736  -0.822  1.00  0.00     0.160 A 
HETATM   40  C12 UNL     1      -6.431   0.619  -0.516  1.00  0.00     0.137 A 
BRANCH  38  41
HETATM   41  O4  UNL     1      -5.209  -2.746  -0.670  1.00  0.00    -0.339 OA
ATOM     42  H4  UNL     1      -5.835  -3.381  -0.997  1.00  0.00     0.220 HD
ENDBRANCH  38  41
BRANCH  39  43
HETATM   43  O5  UNL     1      -7.802  -1.289  -1.322  1.00  0.00    -0.354 OA
ATOM     44  H5  UNL     1      -8.617  -0.847  -1.529  1.00  0.00     0.218 HD
ENDBRANCH  39  43
BRANCH  40  45
HETATM   45  O6  UNL     1      -7.414   1.548  -0.696  1.00  0.00    -0.356 OA
ATOM     46  H6  UNL     1      -8.305   1.477  -1.017  1.00  0.00     0.218 HD
ENDBRANCH  40  45
ENDBRANCH  31  36
ENDBRANCH  30  31
ENDBRANCH  28  30
ENDBRANCH   1  26
TORSDOF 12
