REMARK  10 active torsions:
REMARK  status: ('A' for Active; 'I' for Inactive)
REMARK    1  A    between atoms: N1_4  and  N2_6 
REMARK    2  A    between atoms: N2_6  and  C4_8 
REMARK    3  A    between atoms: C5_11  and  N4_12 
REMARK    4  A    between atoms: C6_18  and  C8_20 
REMARK    5  A    between atoms: N6_23  and  N7_24 
REMARK    6  A    between atoms: N7_24  and  C9_26 
REMARK    7  A    between atoms: C10_29  and  C11_30 
REMARK    8  A    between atoms: C11_30  and  O3_31 
REMARK    9  A    between atoms: C11_30  and  N9_33 
REMARK   10  A    between atoms: C13_42  and  N14_43 
ROOT
HETATM    1  N7  UNL     1      -0.268  -1.488  -0.037  1.00  0.00    -0.112 N 
ATOM      2  H7  UNL     1      -0.505  -2.450  -0.278  1.00  0.00     0.206 HD
ENDROOT
BRANCH   1   3
HETATM    3  N6  UNL     1      -1.289  -0.900   0.665  1.00  0.00    -0.068 N 
HETATM    4  C4  UNL     1      -2.225  -0.062  -0.041  1.00  0.00     0.715 C 
HETATM    5  N3  UNL     1      -3.475  -0.106   0.320  1.00  0.00    -0.177 N 
HETATM    6  C5  UNL     1      -3.853  -0.978   1.405  1.00  0.00     0.399 C 
ATOM      7  H3  UNL     1      -4.174   0.465  -0.155  1.00  0.00     0.181 HD
HETATM    8  N5  UNL     1      -2.922  -1.020   2.438  1.00  0.00    -0.343 N 
HETATM    9  C6  UNL     1      -1.539  -1.187   2.025  1.00  0.00     0.228 C 
ATOM     10  H5  UNL     1      -3.192  -0.939   3.418  1.00  0.00     0.160 HD
HETATM   11  C7  UNL     1      -1.444  -2.798   2.111  1.00  0.00     0.078 C 
BRANCH   4  12
HETATM   12  N2  UNL     1      -1.844   0.782  -1.105  1.00  0.00    -0.131 N 
ATOM     13  H2  UNL     1      -1.181   0.458  -1.809  1.00  0.00     0.205 HD
BRANCH  12  14
HETATM   14  N1  UNL     1      -2.374   2.041  -1.181  1.00  0.00    -0.295 N 
HETATM   15  C2  UNL     1      -3.365   2.334  -1.974  1.00  0.00    -0.004 C 
HETATM   16  C1  UNL     1      -3.812   3.746  -1.918  1.00  0.00     0.064 C 
HETATM   17  C3  UNL     1      -4.021   1.378  -2.884  1.00  0.00     0.064 C 
ATOM     18  H1  UNL     1      -1.979   2.777  -0.596  1.00  0.00     0.186 HD
ENDBRANCH  12  14
ENDBRANCH   4  12
BRANCH   6  19
HETATM   19  N4  UNL     1      -5.164  -0.579   1.912  1.00  0.00    -0.040 N 
ATOM     20  H43 UNL     1      -5.192   0.405   2.179  1.00  0.00     0.279 HD
ATOM     21  H42 UNL     1      -5.870  -0.549   1.176  1.00  0.00     0.279 HD
ATOM     22  H41 UNL     1      -5.431  -1.196   2.679  1.00  0.00     0.279 HD
ENDBRANCH   6  19
BRANCH   9  23
HETATM   23  C8  UNL     1      -0.701  -0.700   3.085  1.00  0.00     0.226 C 
HETATM   24  O1  UNL     1       0.150  -1.462   3.645  1.00  0.00    -0.645 OA
HETATM   25  O2  UNL     1      -0.745   0.623   3.611  1.00  0.00    -0.645 OA
ENDBRANCH   9  23
ENDBRANCH   1   3
BRANCH   1  26
HETATM   26  C9  UNL     1       0.982  -1.164  -0.513  1.00  0.00     0.713 A 
HETATM   27  N8  UNL     1       1.839  -0.212  -0.119  1.00  0.00    -0.173 N 
HETATM   28  C10 UNL     1       3.048  -0.004  -0.667  1.00  0.00     0.165 A 
ATOM     29  H8  UNL     1       1.554   0.396   0.649  1.00  0.00     0.185 HD
HETATM   30  N13 UNL     1       3.413  -0.811  -1.666  1.00  0.00    -0.175 N 
HETATM   31  C13 UNL     1       2.638  -1.773  -2.127  1.00  0.00     0.692 A 
ATOM     32  H13 UNL     1       4.331  -0.678  -2.091  1.00  0.00     0.185 HD
HETATM   33  N15 UNL     1       1.446  -1.933  -1.555  1.00  0.00    -0.021 N 
ATOM     34  H15 UNL     1       0.840  -2.672  -1.912  1.00  0.00     0.203 HD
BRANCH  28  35
HETATM   35  C11 UNL     1       4.029   1.022  -0.257  1.00  0.00     0.332 C 
BRANCH  35  36
HETATM   36  O3  UNL     1       3.966   1.346   1.102  1.00  0.00    -0.367 OA
ATOM     37  H3  UNL     1       4.597   2.006   1.366  1.00  0.00     0.212 HD
ENDBRANCH  35  36
BRANCH  35  38
HETATM   38  N9  UNL     1       5.385   0.512  -0.523  1.00  0.00    -0.163 N 
HETATM   39  N10 UNL     1       5.831  -0.491  -1.232  1.00  0.00    -0.206 N 
HETATM   40  N11 UNL     1       7.057  -0.183  -0.894  1.00  0.00    -0.209 N 
ATOM     41  H10 UNL     1       5.402  -1.214  -1.809  1.00  0.00     0.212 HD
HETATM   42  N12 UNL     1       6.602   0.831  -0.182  1.00  0.00    -0.202 N 
ATOM     43  H11 UNL     1       7.980  -0.567  -1.096  1.00  0.00     0.211 HD
HETATM   44  C12 UNL     1       7.254   1.847   0.632  1.00  0.00     0.203 C 
ENDBRANCH  35  38
ENDBRANCH  28  35
BRANCH  31  45
HETATM   45  N14 UNL     1       3.082  -2.515  -3.110  1.00  0.00    -0.234 N 
ATOM     46 2H14 UNL     1       3.995  -2.392  -3.548  1.00  0.00     0.174 HD
ATOM     47 1H14 UNL     1       2.482  -3.259  -3.467  1.00  0.00     0.174 HD
ENDBRANCH  31  45
ENDBRANCH   1  26
TORSDOF 10
