REMARK  14 active torsions:
REMARK  status: ('A' for Active; 'I' for Inactive)
REMARK    1  A    between atoms: N1_1  and  C1_4 
REMARK    2  A    between atoms: C2_9  and  S1_10 
REMARK    3  A    between atoms: S1_10  and  C3_11 
REMARK    4  A    between atoms: C3_11  and  C4_12 
REMARK    5  A    between atoms: C4_12  and  C5_14 
REMARK    6  A    between atoms: C5_14  and  N6_20 
REMARK    7  A    between atoms: N4_15  and  N5_17 
REMARK    8  A    between atoms: N6_20  and  C6_22 
REMARK    9  A    between atoms: C8_24  and  O2_25 
REMARK   10  A    between atoms: C12_31  and  N7_32 
REMARK   11  A    between atoms: C13_36  and  O3_37 
REMARK   12  A    between atoms: C13_36  and  C14_39 
REMARK   13  A    between atoms: C14_39  and  O4_40 
REMARK   14  A    between atoms: N8_42  and  N9_43 
ROOT
HETATM    1  C5  UNL     1       0.305   1.016   0.518  1.00  0.00     0.163 C 
HETATM    2  N4  UNL     1       0.124   2.119   1.127  1.00  0.00    -0.289 N 
ATOM      3  H4  UNL     1      -0.728   2.236   1.675  1.00  0.00     0.188 HD
ENDROOT
BRANCH   1   4
HETATM    4  C4  UNL     1       1.490   0.810  -0.263  1.00  0.00     0.203 C 
HETATM    5  O1  UNL     1       2.384   1.696  -0.377  1.00  0.00    -0.288 OA
BRANCH   4   6
HETATM    6  C3  UNL     1       1.695  -0.477  -0.969  1.00  0.00     0.169 C 
BRANCH   6   7
HETATM    7  S1  UNL     1       3.268  -0.479  -1.869  1.00  0.00    -0.082 SA
BRANCH   7   8
HETATM    8  C2  UNL     1       4.644  -0.420  -0.708  1.00  0.00     0.198 A 
HETATM    9  N3  UNL     1       4.602  -0.378   0.624  1.00  0.00    -0.263 N 
HETATM   10  N2  UNL     1       5.844  -0.343   1.079  1.00  0.00    -0.129 N 
ATOM     11  H3  UNL     1       3.757  -0.374   1.195  1.00  0.00     0.189 HD
HETATM   12  C1  UNL     1       6.702  -0.362   0.043  1.00  0.00     0.713 A 
ATOM     13  H2  UNL     1       6.110  -0.307   2.063  1.00  0.00     0.205 HD
HETATM   14  N8  UNL     1       5.930  -0.409  -1.060  1.00  0.00    -0.068 N 
BRANCH  12  15
HETATM   15  N1  UNL     1       8.006  -0.339   0.068  1.00  0.00    -0.231 N 
ATOM     16  H12 UNL     1       8.591  -0.303   0.903  1.00  0.00     0.174 HD
ATOM     17  H11 UNL     1       8.657  -0.353  -0.717  1.00  0.00     0.174 HD
ENDBRANCH  12  15
BRANCH  14  18
HETATM   18  N9  UNL     1       6.438  -0.443  -2.378  1.00  0.00    -0.322 N 
ATOM     19  H92 UNL     1       7.422  -0.435  -2.647  1.00  0.00     0.178 HD
ATOM     20  H91 UNL     1       5.853  -0.479  -3.213  1.00  0.00     0.178 HD
ENDBRANCH  14  18
ENDBRANCH   7   8
ENDBRANCH   6   7
ENDBRANCH   4   6
ENDBRANCH   1   4
BRANCH   1  21
HETATM   21  N6  UNL     1      -0.662  -0.004   0.615  1.00  0.00    -0.360 N 
ATOM     22  H6  UNL     1      -0.318  -0.961   0.690  1.00  0.00     0.162 HD
BRANCH  21  23
HETATM   23  C6  UNL     1      -2.070   0.174   0.618  1.00  0.00     0.159 C 
HETATM   24  C7  UNL     1      -2.704  -1.164   0.920  1.00  0.00     0.014 A 
HETATM   25  C8  UNL     1      -3.128  -1.637   2.120  1.00  0.00     0.081 A 
HETATM   26  C10 UNL     1      -2.860  -1.976  -0.160  1.00  0.00    -0.004 A 
HETATM   27  C9  UNL     1      -3.674  -2.891   2.125  1.00  0.00     0.087 A 
HETATM   28  S2  UNL     1      -3.584  -3.369   0.494  1.00  0.00    -0.103 SA
HETATM   29  C11 UNL     1      -2.411  -1.518  -1.532  1.00  0.00     0.083 C 
HETATM   30  C12 UNL     1      -2.989  -0.153  -1.713  1.00  0.00     0.227 C 
HETATM   31  C13 UNL     1      -2.669   0.795  -0.601  1.00  0.00     0.132 C 
BRANCH  25  32
HETATM   32  O2  UNL     1      -3.038  -0.915   3.349  1.00  0.00    -0.360 OA
ATOM     33  H2  UNL     1      -3.335  -1.246   4.189  1.00  0.00     0.217 HD
ENDBRANCH  25  32
BRANCH  30  34
HETATM   34  N7  UNL     1      -4.441  -0.324  -1.886  1.00  0.00    -0.072 N 
ATOM     35  H73 UNL     1      -4.683  -0.966  -2.641  1.00  0.00     0.274 HD
ATOM     36  H72 UNL     1      -4.877  -0.847  -1.127  1.00  0.00     0.274 HD
ATOM     37  H71 UNL     1      -4.836   0.608  -2.010  1.00  0.00     0.274 HD
ENDBRANCH  30  34
BRANCH  31  38
HETATM   38  O3  UNL     1      -1.873   1.794  -1.105  1.00  0.00    -0.383 OA
ATOM     39  H3  UNL     1      -2.254   2.189  -1.880  1.00  0.00     0.210 HD
ENDBRANCH  31  38
BRANCH  31  40
HETATM   40  C14 UNL     1      -3.986   1.448  -0.178  1.00  0.00     0.206 C 
BRANCH  40  41
HETATM   41  O4  UNL     1      -3.754   2.430   0.804  1.00  0.00    -0.398 OA
ATOM     42  H4  UNL     1      -4.572   2.836   1.067  1.00  0.00     0.209 HD
ENDBRANCH  40  41
ENDBRANCH  31  40
ENDBRANCH  21  23
ENDBRANCH   1  21
BRANCH   2  43
HETATM   43  N5  UNL     1       1.031   3.174   1.083  1.00  0.00    -0.344 N 
ATOM     44  H52 UNL     1       1.878   3.040   0.531  1.00  0.00     0.176 HD
ATOM     45  H51 UNL     1       0.886   4.058   1.571  1.00  0.00     0.176 HD
ENDBRANCH   2  43
TORSDOF 14
