REMARK  5 active torsions:
REMARK  status: ('A' for Active; 'I' for Inactive)
REMARK    1  A    between atoms: C9_10  and  N1_11 
REMARK    2  A    between atoms: N1_11  and  O1_13 
REMARK    3  A    between atoms: O1_13  and  C10_14 
REMARK    4  A    between atoms: C10_14  and  C11_15 
REMARK    5  A    between atoms: C11_15  and  N2_16 
ROOT
HETATM    1  N1  UNL     1      -1.089   2.544   0.654  1.00  0.00    -0.270 N 
ATOM      2  H1  UNL     1      -1.019   3.560   0.602  1.00  0.00     0.194 HD
ENDROOT
BRANCH   1   3
HETATM    3  C9  UNL     1      -2.201   1.997   0.373  1.00  0.00     0.046 C 
HETATM    4  C8  UNL     1      -2.478   0.610   0.392  1.00  0.00     0.002 C 
HETATM    5  C7  UNL     1      -1.811  -0.592   0.745  1.00  0.00     0.029 C 
HETATM    6  C6  UNL     1      -2.830  -1.731   0.881  1.00  0.00     0.004 C 
HETATM    7  C5  UNL     1      -4.230  -1.327   0.752  1.00  0.00     0.000 C 
HETATM    8  C4  UNL     1      -5.325  -2.167   0.247  1.00  0.00     0.000 C 
HETATM    9  C3  UNL     1      -6.273  -1.355  -0.665  1.00  0.00     0.003 C 
HETATM   10  C2  UNL     1      -6.849  -0.136  -0.170  1.00  0.00     0.042 C 
HETATM   11  C1  UNL     1      -6.238   1.140   0.103  1.00  0.00     0.208 C 
HETATM   12  F1  UNL     1      -7.337   1.915   0.599  1.00  0.00    -0.244 F 
HETATM   13  C22 UNL     1      -5.615   2.020  -0.899  1.00  0.00     0.092 C 
HETATM   14  N3  UNL     1      -4.229   2.164  -0.997  1.00  0.00    -0.394 N 
HETATM   15  C21 UNL     1      -3.428   2.835  -0.041  1.00  0.00     0.177 C 
ATOM     16  H3  UNL     1      -3.764   1.760  -1.810  1.00  0.00     0.159 HD
ENDBRANCH   1   3
BRANCH   1  17
HETATM   17  O1  UNL     1       0.007   1.838   1.019  1.00  0.00    -0.279 OA
BRANCH  17  18
HETATM   18  C10 UNL     1       1.047   1.470   0.134  1.00  0.00     0.231 C 
BRANCH  18  19
HETATM   19  C11 UNL     1       2.124   0.694   0.836  1.00  0.00     0.301 C 
BRANCH  19  20
HETATM   20  N2  UNL     1       3.183   0.312  -0.048  1.00  0.00     0.090 N 
HETATM   21  C12 UNL     1       3.982   1.381  -0.552  1.00  0.00     0.272 C 
HETATM   22  C13 UNL     1       5.401   1.395  -0.029  1.00  0.00     0.030 C 
HETATM   23  C14 UNL     1       6.320   0.560  -0.876  1.00  0.00     0.002 C 
HETATM   24  C15 UNL     1       7.246  -0.310  -0.067  1.00  0.00     0.000 C 
HETATM   25  C16 UNL     1       6.524  -1.282   0.822  1.00  0.00     0.000 C 
HETATM   26  C17 UNL     1       5.699  -2.278   0.067  1.00  0.00     0.000 C 
HETATM   27  C18 UNL     1       4.217  -2.128   0.339  1.00  0.00     0.002 C 
HETATM   28  C19 UNL     1       3.437  -1.960  -0.941  1.00  0.00     0.030 C 
HETATM   29  C20 UNL     1       2.709  -0.629  -1.008  1.00  0.00     0.272 C 
ENDBRANCH  19  20
ENDBRANCH  18  19
ENDBRANCH  17  18
ENDBRANCH   1  17
TORSDOF 5
