REMARK  2 active torsions:
REMARK  status: ('A' for Active; 'I' for Inactive)
REMARK       I    between atoms: C1_2  and  N1_3 
REMARK       I    between atoms: C1_2  and  N2_11 
REMARK    1  A    between atoms: N1_3  and  C2_5 
REMARK       I    between atoms: N3_18  and  C14_19 
REMARK       I    between atoms: C14_19  and  N4_21 
REMARK    2  A    between atoms: N4_21  and  C15_23 
ROOT
HETATM    1  O1  UNL     1      -2.384  -1.745   0.669  1.00  0.00    -0.247 OA
HETATM    2  C1  UNL     1      -2.213  -0.573   0.280  1.00  0.00     0.318 C 
HETATM    3  N1  UNL     1      -3.320   0.194  -0.125  1.00  0.00    -0.338 N 
ATOM      4  H1  UNL     1      -3.181   1.153  -0.444  1.00  0.00     0.164 HD
HETATM    5  N2  UNL     1      -0.915  -0.021   0.246  1.00  0.00    -0.334 N 
HETATM    6  C8  UNL     1       0.186  -0.851   0.662  1.00  0.00     0.128 C 
HETATM    7  C9  UNL     1       1.321  -0.030   1.181  1.00  0.00     0.033 C 
HETATM    8  C10 UNL     1       1.681   0.946   0.081  1.00  0.00    -0.005 C 
HETATM    9  C11 UNL     1       0.586   1.948   0.008  1.00  0.00     0.033 C 
HETATM   10  C12 UNL     1      -0.744   1.332  -0.197  1.00  0.00     0.128 C 
HETATM   11  C13 UNL     1       2.135   0.344  -1.213  1.00  0.00     0.139 C 
HETATM   12  N3  UNL     1       3.507   0.384  -0.689  1.00  0.00    -0.333 N 
HETATM   13  C14 UNL     1       4.671  -0.371  -0.953  1.00  0.00     0.318 C 
HETATM   14  O2  UNL     1       4.673  -1.296  -1.783  1.00  0.00    -0.247 OA
HETATM   15  N4  UNL     1       5.871  -0.068  -0.255  1.00  0.00    -0.334 N 
ATOM     16  H4  UNL     1       5.874   0.691   0.426  1.00  0.00     0.164 HD
HETATM   17  C18 UNL     1       3.080   1.487   0.149  1.00  0.00     0.139 C 
ENDROOT
BRANCH  15  18
HETATM   18  C15 UNL     1       7.081  -0.809  -0.489  1.00  0.00     0.133 C 
HETATM   19  C16 UNL     1       7.827  -1.121   0.776  1.00  0.00     0.195 C 
HETATM   20  O3  UNL     1       8.363   0.175   0.724  1.00  0.00    -0.387 OA
HETATM   21  C17 UNL     1       8.304   0.091  -0.658  1.00  0.00     0.195 C 
ENDBRANCH  15  18
BRANCH   3  22
HETATM   22  C2  UNL     1      -4.637  -0.358  -0.093  1.00  0.00     0.086 C 
HETATM   23  C3  UNL     1      -5.531   0.425   0.875  1.00  0.00     0.025 C 
HETATM   24  C4  UNL     1      -6.729  -0.470   1.155  1.00  0.00     0.002 C 
HETATM   25  C5  UNL     1      -7.188  -1.203  -0.081  1.00  0.00     0.000 C 
HETATM   26  C6  UNL     1      -6.763  -0.519  -1.352  1.00  0.00     0.002 C 
HETATM   27  C7  UNL     1      -5.298  -0.281  -1.450  1.00  0.00     0.025 C 
ENDBRANCH   3  22
TORSDOF 2
