REMARK  7 active torsions:
REMARK  status: ('A' for Active; 'I' for Inactive)
REMARK    1  A    between atoms: C2_2  and  O1_3 
REMARK    2  A    between atoms: O1_3  and  C3_4 
REMARK       I    between atoms: C3_4  and  N1_6 
REMARK    3  A    between atoms: N1_6  and  C4_8 
REMARK    4  A    between atoms: C7_11  and  C8_12 
REMARK    5  A    between atoms: C9_13  and  C10_14 
REMARK    6  A    between atoms: C14_18  and  C15_19 
REMARK       I    between atoms: C15_19  and  N2_21 
REMARK    7  A    between atoms: C20_29  and  C21_30 
ROOT
HETATM    1  C10 UNL     1      -0.861  -0.731  -0.452  1.00  0.00     0.019 A 
HETATM    2  C11 UNL     1      -1.146  -2.016  -0.034  1.00  0.00     0.020 A 
HETATM    3  C12 UNL     1      -2.447  -2.437   0.226  1.00  0.00     0.002 A 
HETATM    4  C13 UNL     1      -3.440  -1.505   0.047  1.00  0.00     0.017 A 
HETATM    5  C14 UNL     1      -3.156  -0.201  -0.376  1.00  0.00     0.033 A 
HETATM    6  C22 UNL     1      -1.868   0.172  -0.621  1.00  0.00     0.037 A 
ENDROOT
BRANCH   1   7
HETATM    7  C9  UNL     1       0.503  -0.311  -0.718  1.00  0.00    -0.061 C 
HETATM    8  C8  UNL     1       1.632   0.042  -0.956  1.00  0.00    -0.060 C 
BRANCH   8   9
HETATM    9  C7  UNL     1       2.980   0.467  -1.267  1.00  0.00     0.033 A 
HETATM   10  C6  UNL     1       3.226   1.208  -2.404  1.00  0.00     0.026 A 
HETATM   11  C5  UNL     1       4.531   1.593  -2.662  1.00  0.00     0.050 A 
HETATM   12  C4  UNL     1       5.573   1.268  -1.838  1.00  0.00     0.109 A 
HETATM   13  N5  UNL     1       5.320   0.546  -0.733  1.00  0.00    -0.351 N 
HETATM   14  C23 UNL     1       4.058   0.165  -0.469  1.00  0.00     0.110 A 
ATOM     15  H5  UNL     1       6.078   0.290  -0.101  1.00  0.00     0.166 HD
BRANCH  12  16
HETATM   16  N1  UNL     1       6.774   1.625  -2.080  1.00  0.00    -0.288 N 
HETATM   17  C3  UNL     1       7.887   1.328  -1.282  1.00  0.00     0.366 C 
HETATM   18  O2  UNL     1       8.540   2.302  -0.774  1.00  0.00    -0.238 OA
ATOM     19  H1  UNL     1       6.938   2.172  -2.925  1.00  0.00     0.172 HD
BRANCH  17  20
HETATM   20  O1  UNL     1       8.348   0.059  -0.990  1.00  0.00    -0.304 OA
BRANCH  20  21
HETATM   21  C2  UNL     1       9.461  -0.214  -0.190  1.00  0.00     0.176 C 
HETATM   22  C1  UNL     1       9.299   0.328   1.208  1.00  0.00     0.034 C 
ENDBRANCH  20  21
ENDBRANCH  17  20
ENDBRANCH  12  16
ENDBRANCH   8   9
ENDBRANCH   1   7
BRANCH   5  23
HETATM   23  C15 UNL     1      -4.253   0.720  -0.542  1.00  0.00     0.256 C 
HETATM   24  O3  UNL     1      -4.014   1.892  -0.920  1.00  0.00    -0.267 OA
HETATM   25  N2  UNL     1      -5.610   0.323  -0.283  1.00  0.00    -0.322 N 
HETATM   26  C16 UNL     1      -6.147   0.463   0.876  1.00  0.00     0.053 A 
ATOM     27  H2  UNL     1      -6.162  -0.081  -1.040  1.00  0.00     0.169 HD
HETATM   28  C17 UNL     1      -5.449   1.008   1.954  1.00  0.00     0.047 A 
HETATM   29  C20 UNL     1      -7.451   0.063   1.056  1.00  0.00     0.071 A 
HETATM   30  C18 UNL     1      -6.050   1.147   3.185  1.00  0.00     0.090 A 
HETATM   31  N3  UNL     1      -7.310   0.755   3.343  1.00  0.00    -0.374 N 
HETATM   32  C19 UNL     1      -7.987   0.233   2.320  1.00  0.00     0.106 A 
ATOM     33  H3  UNL     1      -7.762   0.854   4.252  1.00  0.00     0.164 HD
BRANCH  29  34
HETATM   34  C21 UNL     1      -8.210  -0.504  -0.025  1.00  0.00     0.268 C 
HETATM   35  N4  UNL     1      -7.617  -0.659  -1.305  1.00  0.00    -0.057 NA
HETATM   36  O4  UNL     1      -9.393  -0.868   0.137  1.00  0.00    -0.271 OA
ENDBRANCH  29  34
ENDBRANCH   5  23
TORSDOF 7
