REMARK  3 active torsions:
REMARK  status: ('A' for Active; 'I' for Inactive)
REMARK    1  A    between atoms: C1_2  and  C2_4 
REMARK    2  A    between atoms: C11_13  and  N2_14 
REMARK       I    between atoms: N2_14  and  C12_16 
REMARK    3  A    between atoms: C12_16  and  C13_18 
REMARK       I    between atoms: N3_22  and  C17_23 
REMARK       I    between atoms: C17_23  and  N4_25 
ROOT
HETATM    1  N2  UNL     1      -0.165  -1.281   0.474  1.00  0.00    -0.354 N 
ATOM      2  H2  UNL     1      -0.469  -1.549  -0.462  1.00  0.00     0.162 HD
HETATM    3  C12 UNL     1       1.200  -1.392   0.843  1.00  0.00     0.241 C 
HETATM    4  O2  UNL     1       1.552  -1.060   1.997  1.00  0.00    -0.271 OA
ENDROOT
BRANCH   1   5
HETATM    5  C11 UNL     1      -1.104  -0.793   1.421  1.00  0.00     0.089 C 
HETATM    6  C10 UNL     1      -2.316  -1.683   1.695  1.00  0.00     0.030 C 
HETATM    7  C9  UNL     1      -3.073  -0.366   1.934  1.00  0.00    -0.006 C 
HETATM    8  C8  UNL     1      -4.478  -0.342   1.489  1.00  0.00     0.011 C 
HETATM    9  C23 UNL     1      -2.082   0.267   0.992  1.00  0.00     0.014 C 
HETATM   10  C7  UNL     1      -4.787   0.789   0.504  1.00  0.00     0.003 C 
HETATM   11  C2  UNL     1      -3.923   0.617  -0.707  1.00  0.00     0.042 C 
HETATM   12  C6  UNL     1      -4.808   2.125   1.131  1.00  0.00     0.006 C 
HETATM   13  C3  UNL     1      -4.125   1.825  -1.601  1.00  0.00     0.019 C 
HETATM   14  C24 UNL     1      -2.498   0.318  -0.420  1.00  0.00     0.026 C 
HETATM   15  C4  UNL     1      -3.842   3.127  -0.965  1.00  0.00     0.001 C 
HETATM   16  C5  UNL     1      -4.020   3.196   0.500  1.00  0.00     0.000 C 
BRANCH  11  17
HETATM   17  C1  UNL     1      -4.484  -0.527  -1.480  1.00  0.00     0.240 C 
HETATM   18  N1  UNL     1      -5.846  -0.588  -1.888  1.00  0.00    -0.061 NA
HETATM   19  O1  UNL     1      -3.755  -1.495  -1.804  1.00  0.00    -0.276 OA
ENDBRANCH  11  17
ENDBRANCH   1   5
BRANCH   3  20
HETATM   20  C13 UNL     1       2.251  -1.890  -0.080  1.00  0.00     0.181 C 
HETATM   21  C14 UNL     1       2.019  -3.363  -0.405  1.00  0.00     0.037 C 
HETATM   22  C15 UNL     1       3.116  -4.134   0.247  1.00  0.00     0.022 C 
HETATM   23  C16 UNL     1       3.592  -3.195   1.325  1.00  0.00     0.129 C 
HETATM   24  N3  UNL     1       3.543  -1.905   0.543  1.00  0.00    -0.321 N 
HETATM   25  C17 UNL     1       4.643  -1.049   0.567  1.00  0.00     0.321 C 
HETATM   26  O3  UNL     1       5.651  -1.453   1.278  1.00  0.00    -0.247 OA
HETATM   27  N4  UNL     1       4.819   0.176  -0.061  1.00  0.00    -0.334 N 
HETATM   28  C18 UNL     1       6.107   0.864   0.149  1.00  0.00     0.127 C 
HETATM   29  C22 UNL     1       3.816   0.789  -0.889  1.00  0.00     0.127 C 
HETATM   30  C19 UNL     1       6.675   1.384  -1.142  1.00  0.00     0.020 C 
HETATM   31  C20 UNL     1       5.617   1.960  -2.047  1.00  0.00     0.003 C 
HETATM   32  C21 UNL     1       4.357   2.184  -1.255  1.00  0.00     0.020 C 
ENDBRANCH   3  20
TORSDOF 3
