REMARK  8 active torsions:
REMARK  status: ('A' for Active; 'I' for Inactive)
REMARK    1  A    between atoms: O1_1  and  C1_3 
REMARK    2  A    between atoms: C1_3  and  C2_4 
REMARK    3  A    between atoms: C1_3  and  N1_12 
REMARK    4  A    between atoms: C3_5  and  C4_6 
REMARK    5  A    between atoms: N2_15  and  C12_16 
REMARK    6  A    between atoms: C12_16  and  N3_18 
REMARK    7  A    between atoms: N3_18  and  C13_19 
REMARK    8  A    between atoms: N5_25  and  C17_27 
ROOT
HETATM    1  C12 UNL     1      -0.218  -3.176  -0.157  1.00  0.00     0.230 C 
HETATM    2  S1  UNL     1      -0.026  -4.938  -0.280  1.00  0.00     0.003 SA
ENDROOT
BRANCH   1   3
HETATM    3  N2  UNL     1       0.540  -2.649   0.951  1.00  0.00    -0.332 N 
HETATM    4  C11 UNL     1       1.147  -3.488   1.919  1.00  0.00     0.147 C 
HETATM    5  C10 UNL     1       1.921  -2.597   2.816  1.00  0.00     0.146 C 
HETATM    6  N1  UNL     1       2.134  -1.405   1.973  1.00  0.00    -0.344 N 
HETATM    7  C23 UNL     1       0.886  -1.288   1.228  1.00  0.00     0.254 C 
BRANCH   6   8
HETATM    8  C1  UNL     1       3.345  -0.771   1.902  1.00  0.00     0.139 C 
BRANCH   8   9
HETATM    9  O1  UNL     1       4.322  -1.498   2.495  1.00  0.00    -0.346 OA
ATOM     10  H1  UNL     1       3.950  -2.303   2.835  1.00  0.00     0.219 HD
ENDBRANCH   8   9
BRANCH   8  11
HETATM   11  C2  UNL     1       3.907   0.445   1.389  1.00  0.00     0.056 C 
HETATM   12  C3  UNL     1       3.349   1.469   0.809  1.00  0.00     0.015 C 
BRANCH  12  13
HETATM   13  C4  UNL     1       4.243   2.624   0.366  1.00  0.00    -0.036 A 
HETATM   14  C5  UNL     1       5.540   2.362   0.131  1.00  0.00     0.011 A 
HETATM   15  C6  UNL     1       6.343   3.450  -0.149  1.00  0.00     0.001 A 
HETATM   16  C7  UNL     1       5.828   4.732  -0.183  1.00  0.00     0.000 A 
HETATM   17  C8  UNL     1       4.447   4.975   0.078  1.00  0.00     0.001 A 
HETATM   18  C9  UNL     1       3.662   3.900   0.351  1.00  0.00     0.011 A 
ENDBRANCH  12  13
ENDBRANCH   8  11
ENDBRANCH   6   8
ENDBRANCH   1   3
BRANCH   1  19
HETATM   19  N3  UNL     1      -0.890  -2.709  -1.041  1.00  0.00    -0.365 NA
BRANCH  19  20
HETATM   20  C13 UNL     1      -1.639  -2.182  -1.996  1.00  0.00     0.178 A 
HETATM   21  C14 UNL     1      -1.304  -2.786  -3.193  1.00  0.00     0.138 A 
HETATM   22  C15 UNL     1      -2.511  -2.146  -4.091  1.00  0.00     0.087 A 
HETATM   23  N4  UNL     1      -3.391  -1.363  -3.681  1.00  0.00    -0.205 N 
HETATM   24  C16 UNL     1      -3.496  -0.898  -2.374  1.00  0.00     0.684 A 
ATOM     25  H4  UNL     1      -4.086  -1.039  -4.354  1.00  0.00     0.183 HD
HETATM   26  N5  UNL     1      -4.385  -0.164  -1.977  1.00  0.00    -0.192 N 
HETATM   27  N6  UNL     1      -2.538  -1.386  -1.604  1.00  0.00    -0.167 N 
ATOM     28  H5  UNL     1      -4.999   0.063  -2.759  1.00  0.00     0.184 HD
ATOM     29  H6  UNL     1      -2.524  -1.100  -0.625  1.00  0.00     0.186 HD
BRANCH  26  30
HETATM   30  C17 UNL     1      -4.848   0.460  -0.857  1.00  0.00     0.049 A 
HETATM   31  C18 UNL     1      -6.169   1.024  -1.038  1.00  0.00     0.030 A 
HETATM   32  C19 UNL     1      -6.812   1.503   0.059  1.00  0.00     0.002 A 
HETATM   33  C20 UNL     1      -6.294   1.498   1.321  1.00  0.00     0.000 A 
HETATM   34  C21 UNL     1      -5.036   0.979   1.501  1.00  0.00     0.002 A 
HETATM   35  C22 UNL     1      -4.328   0.466   0.392  1.00  0.00     0.030 A 
ENDBRANCH  26  30
ENDBRANCH  19  20
ENDBRANCH   1  19
TORSDOF 8
