REMARK  3 active torsions:
REMARK  status: ('A' for Active; 'I' for Inactive)
REMARK       I    between atoms: C1_2  and  N4_28 
REMARK       I    between atoms: N2_3  and  C2_5 
REMARK    1  A    between atoms: C2_5  and  C3_7 
REMARK    2  A    between atoms: C8_12  and  N3_13 
REMARK       I    between atoms: N3_13  and  C9_15 
REMARK    3  A    between atoms: C9_15  and  C10_17 
ROOT
HETATM    1  C3  UNL     1       1.403   0.015   1.255  1.00  0.00     0.101 C 
HETATM    2  C4  UNL     1       2.170  -0.043   2.568  1.00  0.00     0.016 C 
HETATM    3  C5  UNL     1       2.756  -1.437   2.770  1.00  0.00     0.001 C 
HETATM    4  C6  UNL     1       1.663  -2.488   2.658  1.00  0.00     0.002 C 
HETATM    5  C7  UNL     1       0.288  -1.806   2.611  1.00  0.00     0.026 C 
HETATM    6  C8  UNL     1       0.307  -0.971   1.318  1.00  0.00     0.097 C 
ENDROOT
BRANCH   6   7
HETATM    7  N3  UNL     1      -1.031  -0.419   1.090  1.00  0.00    -0.355 N 
HETATM    8  C9  UNL     1      -1.986  -1.052   0.298  1.00  0.00     0.226 C 
HETATM    9  O2  UNL     1      -1.645  -2.169  -0.230  1.00  0.00    -0.273 OA
ATOM     10  H3  UNL     1      -1.274   0.468   1.531  1.00  0.00     0.162 HD
BRANCH   8  11
HETATM   11  C10 UNL     1      -3.354  -0.608  -0.023  1.00  0.00     0.042 C 
HETATM   12  C11 UNL     1      -4.193  -1.723  -0.604  1.00  0.00     0.024 C 
HETATM   13  C12 UNL     1      -5.633  -1.397  -0.677  1.00  0.00    -0.013 C 
HETATM   14  C13 UNL     1      -6.074  -0.825  -1.999  1.00  0.00     0.005 C 
HETATM   15  C18 UNL     1      -6.168  -0.548   0.439  1.00  0.00     0.009 C 
HETATM   16  C14 UNL     1      -5.270   0.287  -2.521  1.00  0.00     0.005 C 
HETATM   17  C15 UNL     1      -4.464   1.068  -1.549  1.00  0.00    -0.013 C 
HETATM   18  C16 UNL     1      -5.223   1.575  -0.363  1.00  0.00     0.009 C 
HETATM   19  C20 UNL     1      -3.181   0.381  -1.188  1.00  0.00     0.024 C 
HETATM   20  C17 UNL     1      -5.303   0.611   0.781  1.00  0.00    -0.013 C 
HETATM   21  C19 UNL     1      -3.944   0.069   1.163  1.00  0.00     0.024 C 
ENDBRANCH   8  11
ENDBRANCH   6   7
BRANCH   1  22
HETATM   22  C2  UNL     1       2.328  -0.316   0.143  1.00  0.00     0.230 C 
HETATM   23  N2  UNL     1       3.472   0.478  -0.041  1.00  0.00    -0.301 N 
HETATM   24  C1  UNL     1       4.334   0.247  -0.960  1.00  0.00     0.193 C 
ATOM     25  H2  UNL     1       3.623   1.271   0.583  1.00  0.00     0.171 HD
HETATM   26  N1  UNL     1       4.234  -0.809  -1.873  1.00  0.00    -0.063 NA
HETATM   27  N4  UNL     1       5.442   1.147  -1.012  1.00  0.00    -0.351 N 
HETATM   28  C21 UNL     1       6.409   0.978  -2.068  1.00  0.00     0.151 C 
HETATM   29  C24 UNL     1       5.636   2.216  -0.056  1.00  0.00     0.151 C 
HETATM   30  C22 UNL     1       7.791   0.983  -1.468  1.00  0.00     0.187 C 
HETATM   31  O3  UNL     1       7.917   1.745  -0.331  1.00  0.00    -0.388 OA
HETATM   32  C23 UNL     1       7.023   2.797  -0.262  1.00  0.00     0.187 C 
HETATM   33  O1  UNL     1       2.088  -1.280  -0.603  1.00  0.00    -0.273 OA
ENDBRANCH   1  22
TORSDOF 3
