REMARK  4 active torsions:
REMARK  status: ('A' for Active; 'I' for Inactive)
REMARK    1  A    between atoms: C2_2  and  C3_3 
REMARK    2  A    between atoms: C3_3  and  O1_4 
REMARK    3  A    between atoms: C8_10  and  N1_11 
REMARK    4  A    between atoms: N2_20  and  C17_21 
ROOT
HETATM    1  C3  UNL     1       0.604   3.245   0.140  1.00  0.00     0.079 C 
HETATM    2  C4  UNL     1       0.132   2.706  -1.150  1.00  0.00     0.067 C 
HETATM    3  C5  UNL     1      -0.430   1.295  -1.147  1.00  0.00     0.083 C 
HETATM    4  C6  UNL     1       0.403   0.332  -1.914  1.00  0.00     0.027 C 
HETATM    5  C7  UNL     1       1.789   0.117  -1.402  1.00  0.00     0.038 C 
HETATM    6  C8  UNL     1       1.889  -0.400  -0.023  1.00  0.00     0.225 C 
HETATM    7  C14 UNL     1       1.493   0.484   1.096  1.00  0.00     0.060 C 
HETATM    8  C15 UNL     1       0.125   1.004   1.177  1.00  0.00     0.085 C 
HETATM    9  C16 UNL     1       0.197   2.507   1.378  1.00  0.00     0.067 C 
HETATM   10  N2  UNL     1      -0.766   0.784   0.091  1.00  0.00    -0.399 N 
ENDROOT
BRANCH  10  11
HETATM   11  C17 UNL     1      -1.933   0.076   0.363  1.00  0.00     0.080 C 
HETATM   12  C18 UNL     1      -3.247   0.744   0.117  1.00  0.00     0.029 C 
HETATM   13  C19 UNL     1      -4.378  -0.248   0.323  1.00  0.00    -0.012 C 
HETATM   14  C20 UNL     1      -4.911  -0.848  -0.931  1.00  0.00     0.005 C 
HETATM   15  C24 UNL     1      -3.978  -1.349   1.281  1.00  0.00     0.009 C 
HETATM   16  C21 UNL     1      -4.861  -2.328  -1.053  1.00  0.00     0.001 C 
HETATM   17  C22 UNL     1      -3.678  -3.014  -0.467  1.00  0.00     0.005 C 
HETATM   18  C23 UNL     1      -2.952  -2.188   0.590  1.00  0.00    -0.012 C 
HETATM   19  C25 UNL     1      -1.980  -1.319  -0.196  1.00  0.00     0.029 C 
ENDBRANCH  10  11
BRANCH   1  20
HETATM   20  C2  UNL     1       0.157   4.660   0.353  1.00  0.00     0.000 C 
HETATM   21  C1  UNL     1      -1.160   4.850   0.446  1.00  0.00     0.010 C 
ENDBRANCH   1  20
BRANCH   1  22
HETATM   22  O1  UNL     1       2.019   3.376   0.061  1.00  0.00    -0.386 OA
ATOM     23  H1  UNL     1       2.302   2.479  -0.074  1.00  0.00     0.211 HD
ENDBRANCH   1  22
BRANCH   6  24
HETATM   24  N1  UNL     1       3.249  -0.852   0.285  1.00  0.00     0.093 N 
HETATM   25  C9  UNL     1       3.200  -2.249   0.718  1.00  0.00     0.273 C 
HETATM   26  C10 UNL     1       4.538  -2.759   1.127  1.00  0.00     0.030 C 
HETATM   27  C11 UNL     1       5.548  -1.625   1.002  1.00  0.00     0.003 C 
HETATM   28  C12 UNL     1       5.505  -1.179  -0.440  1.00  0.00     0.030 C 
HETATM   29  C13 UNL     1       4.113  -0.813  -0.882  1.00  0.00     0.273 C 
ENDBRANCH   6  24
TORSDOF 4
