REMARK  3 active torsions:
REMARK  status: ('A' for Active; 'I' for Inactive)
REMARK    1  A    between atoms: C1_2  and  C2_4 
REMARK    2  A    between atoms: N2_11  and  C9_12 
REMARK    3  A    between atoms: C12_15  and  C13_16 
ROOT
HETATM    1  C9  UNL     1       0.537  -0.235   0.089  1.00  0.00     0.253 C 
HETATM    2  C10 UNL     1      -0.221   0.613   1.131  1.00  0.00     0.042 C 
HETATM    3  C11 UNL     1      -1.239  -0.410   1.684  1.00  0.00     0.045 C 
HETATM    4  C12 UNL     1      -2.310  -0.472   0.637  1.00  0.00     0.088 C 
HETATM    5  C19 UNL     1      -3.081  -1.763   0.594  1.00  0.00     0.043 C 
HETATM    6  C20 UNL     1      -3.426  -2.082  -0.859  1.00  0.00     0.003 C 
HETATM    7  C21 UNL     1      -2.605  -3.190  -1.435  1.00  0.00     0.000 C 
HETATM    8  C22 UNL     1      -1.446  -2.565  -2.197  1.00  0.00     0.002 C 
HETATM    9  C23 UNL     1      -0.430  -2.109  -1.191  1.00  0.00     0.034 C 
HETATM   10  C24 UNL     1      -0.532  -0.625  -0.901  1.00  0.00     0.156 C 
HETATM   11  O2  UNL     1      -1.793  -0.189  -0.618  1.00  0.00    -0.368 OA
ENDROOT
BRANCH   1  12
HETATM   12  N2  UNL     1       1.681   0.381  -0.354  1.00  0.00     0.105 N 
HETATM   13  C5  UNL     1       2.179   0.471  -1.647  1.00  0.00     0.226 C 
HETATM   14  C4  UNL     1       3.553  -0.201  -1.748  1.00  0.00     0.037 C 
HETATM   15  C6  UNL     1       2.306   1.971  -1.492  1.00  0.00     0.071 C 
HETATM   16  C3  UNL     1       4.572   0.398  -0.837  1.00  0.00     0.016 C 
HETATM   17  C2  UNL     1       4.041   0.581   0.547  1.00  0.00     0.077 C 
HETATM   18  C8  UNL     1       3.232   1.831   0.737  1.00  0.00     0.049 C 
HETATM   19  C7  UNL     1       1.936   1.764  -0.039  1.00  0.00     0.227 C 
BRANCH  17  20
HETATM   20  C1  UNL     1       5.229   0.687   1.465  1.00  0.00     0.235 C 
HETATM   21  N1  UNL     1       6.141  -0.379   1.592  1.00  0.00    -0.062 NA
HETATM   22  O1  UNL     1       5.446   1.730   2.151  1.00  0.00    -0.277 OA
ENDBRANCH  17  20
ENDBRANCH   1  12
BRANCH   4  23
HETATM   23  C13 UNL     1      -3.294   0.616   0.938  1.00  0.00    -0.024 A 
HETATM   24  C14 UNL     1      -3.701   0.918   2.214  1.00  0.00     0.010 A 
HETATM   25  C15 UNL     1      -4.607   1.953   2.485  1.00  0.00     0.001 A 
HETATM   26  C16 UNL     1      -5.103   2.688   1.433  1.00  0.00     0.000 A 
HETATM   27  C17 UNL     1      -4.720   2.416   0.138  1.00  0.00     0.001 A 
HETATM   28  C18 UNL     1      -3.828   1.391  -0.089  1.00  0.00     0.010 A 
ENDBRANCH   4  23
TORSDOF 3
