REMARK  3 active torsions:
REMARK  status: ('A' for Active; 'I' for Inactive)
REMARK    1  A    between atoms: C5_6  and  C6_7 
REMARK    2  A    between atoms: C6_7  and  N2_8 
REMARK       I    between atoms: N2_8  and  C7_10 
REMARK    3  A    between atoms: C7_10  and  C8_12 
ROOT
HETATM    1  N1  UNL     1       8.424   1.829   0.030  1.00  0.00    -0.191 NA
HETATM    2  C1  UNL     1       7.432   1.259  -0.168  1.00  0.00     0.099 C 
HETATM    3  C2  UNL     1       6.206   0.554  -0.395  1.00  0.00     0.044 A 
HETATM    4  C3  UNL     1       6.074  -0.419  -1.390  1.00  0.00     0.023 A 
HETATM    5  C4  UNL     1       4.866  -1.061  -1.558  1.00  0.00     0.010 A 
HETATM    6  C5  UNL     1       3.775  -0.763  -0.761  1.00  0.00    -0.040 A 
HETATM    7  C23 UNL     1       3.943   0.200   0.207  1.00  0.00     0.010 A 
HETATM    8  C24 UNL     1       5.129   0.866   0.411  1.00  0.00     0.023 A 
ENDROOT
BRANCH   6   9
HETATM    9  C6  UNL     1       2.531  -1.496  -1.011  1.00  0.00     0.161 C 
BRANCH   9  10
HETATM   10  N2  UNL     1       1.451  -1.134  -0.140  1.00  0.00    -0.356 N 
HETATM   11  C7  UNL     1       0.724   0.070  -0.304  1.00  0.00     0.232 C 
HETATM   12  O1  UNL     1       1.041   0.840  -1.244  1.00  0.00    -0.272 OA
ATOM     13  H2  UNL     1       1.198  -1.764   0.622  1.00  0.00     0.162 HD
BRANCH  11  14
HETATM   14  C8  UNL     1      -0.377   0.441   0.584  1.00  0.00     0.153 C 
HETATM   15  S1  UNL     1      -1.099   2.055   0.122  1.00  0.00    -0.139 SA
HETATM   16  C9  UNL     1      -2.913   1.731   0.033  1.00  0.00     0.115 C 
HETATM   17  C10 UNL     1      -3.198   1.094   1.356  1.00  0.00    -0.033 A 
HETATM   18  C22 UNL     1      -2.999   0.618  -0.962  1.00  0.00    -0.033 A 
HETATM   19  C11 UNL     1      -4.096   1.593   2.263  1.00  0.00     0.009 A 
HETATM   20  C15 UNL     1      -2.480  -0.060   1.642  1.00  0.00    -0.040 A 
HETATM   21  C12 UNL     1      -4.281   0.941   3.461  1.00  0.00     0.001 A 
HETATM   22  C13 UNL     1      -3.588  -0.206   3.783  1.00  0.00     0.001 A 
HETATM   23  C14 UNL     1      -2.687  -0.689   2.849  1.00  0.00     0.008 A 
HETATM   24  C16 UNL     1      -1.502  -0.596   0.612  1.00  0.00     0.075 C 
HETATM   25  C17 UNL     1      -2.279  -0.518  -0.652  1.00  0.00    -0.040 A 
HETATM   26  C18 UNL     1      -2.279  -1.597  -1.501  1.00  0.00     0.008 A 
HETATM   27  C19 UNL     1      -3.013  -1.560  -2.698  1.00  0.00     0.001 A 
HETATM   28  C20 UNL     1      -3.732  -0.423  -3.002  1.00  0.00     0.001 A 
HETATM   29  C21 UNL     1      -3.713   0.658  -2.121  1.00  0.00     0.009 A 
ENDBRANCH  11  14
ENDBRANCH   9  10
ENDBRANCH   6   9
TORSDOF 3
