REMARK  2 active torsions:
REMARK  status: ('A' for Active; 'I' for Inactive)
REMARK    1  A    between atoms: C21_24  and  O2_25 
REMARK    2  A    between atoms: C21_24  and  C22_27 
ROOT
HETATM    1  C1  UNL     1       0.080   2.384  -2.358  1.00  0.00     0.018 C 
HETATM    2  C2  UNL     1      -0.333   2.356  -0.987  1.00  0.00    -0.014 C 
HETATM    3  C3  UNL     1       0.626   3.100  -0.045  1.00  0.00     0.012 C 
HETATM    4  C4  UNL     1      -0.035   2.991   1.124  1.00  0.00     0.008 C 
HETATM    5  C5  UNL     1      -1.258   2.214   0.701  1.00  0.00     0.019 C 
HETATM    6  C6  UNL     1      -1.573   3.076  -0.532  1.00  0.00     0.019 C 
HETATM    7  C7  UNL     1      -0.579   1.159  -0.157  1.00  0.00     0.083 C 
HETATM    8  N1  UNL     1       0.654   0.759   0.516  1.00  0.00    -0.356 N 
ATOM      9  H1  UNL     1       0.891   1.402   1.271  1.00  0.00     0.162 HD
HETATM   10  C8  UNL     1       1.506  -0.168   0.416  1.00  0.00     0.155 C 
HETATM   11  C9  UNL     1       2.663  -0.282   1.275  1.00  0.00     0.015 A 
HETATM   12  C10 UNL     1       3.581  -1.303   1.137  1.00  0.00     0.016 A 
HETATM   13  C11 UNL     1       4.686  -1.412   1.966  1.00  0.00     0.001 A 
HETATM   14  C12 UNL     1       4.886  -0.480   2.961  1.00  0.00     0.000 A 
HETATM   15  C13 UNL     1       3.991   0.539   3.117  1.00  0.00     0.001 A 
HETATM   16  C14 UNL     1       2.892   0.623   2.271  1.00  0.00     0.016 A 
HETATM   17  O1  UNL     1       1.440  -1.197  -0.530  1.00  0.00    -0.293 OA
HETATM   18  C15 UNL     1       0.528  -1.401  -1.540  1.00  0.00     0.087 A 
HETATM   19  C16 UNL     1       1.046  -2.221  -2.513  1.00  0.00     0.038 A 
HETATM   20  C17 UNL     1       0.290  -2.534  -3.594  1.00  0.00     0.003 A 
HETATM   21  C18 UNL     1      -0.985  -2.017  -3.685  1.00  0.00     0.001 A 
HETATM   22  C19 UNL     1      -1.492  -1.194  -2.698  1.00  0.00     0.013 A 
HETATM   23  C20 UNL     1      -0.744  -0.848  -1.569  1.00  0.00     0.017 A 
HETATM   24  C21 UNL     1      -1.437   0.039  -0.604  1.00  0.00     0.141 C 
ENDROOT
BRANCH  24  25
HETATM   25  O2  UNL     1      -2.501   0.586  -1.350  1.00  0.00    -0.377 OA
ATOM     26  H2  UNL     1      -3.052  -0.133  -1.637  1.00  0.00     0.211 HD
ENDBRANCH  24  25
BRANCH  24  27
HETATM   27  C22 UNL     1      -2.095  -0.732   0.471  1.00  0.00    -0.017 A 
HETATM   28  C23 UNL     1      -1.827  -0.675   1.807  1.00  0.00     0.011 A 
HETATM   29  C24 UNL     1      -2.491  -1.433   2.752  1.00  0.00     0.001 A 
HETATM   30  C25 UNL     1      -3.469  -2.291   2.350  1.00  0.00     0.000 A 
HETATM   31  C26 UNL     1      -3.788  -2.398   1.024  1.00  0.00     0.001 A 
HETATM   32  C27 UNL     1      -3.099  -1.621   0.114  1.00  0.00     0.011 A 
ENDBRANCH  24  27
TORSDOF 2
