REMARK  3 active torsions:
REMARK  status: ('A' for Active; 'I' for Inactive)
REMARK       I    between atoms: C1_2  and  N1_3 
REMARK       I    between atoms: C1_2  and  N3_15 
REMARK    1  A    between atoms: N1_3  and  C2_5 
REMARK    2  A    between atoms: C9_18  and  C10_19 
REMARK    3  A    between atoms: C17_26  and  C18_27 
ROOT
HETATM    1  O1  UNL     1       0.568  -0.312  -3.446  1.00  0.00    -0.245 OA
HETATM    2  C1  UNL     1       0.733  -0.677  -2.263  1.00  0.00     0.343 C 
HETATM    3  N1  UNL     1       1.932  -1.353  -1.927  1.00  0.00    -0.287 N 
ATOM      4  H1  UNL     1       2.059  -2.348  -2.114  1.00  0.00     0.172 HD
HETATM    5  N3  UNL     1      -0.291  -0.391  -1.326  1.00  0.00    -0.233 N 
HETATM    6  N4  UNL     1      -1.510   0.264  -1.477  1.00  0.00    -0.297 N 
ATOM      7  H4  UNL     1      -2.061   0.281  -2.335  1.00  0.00     0.187 HD
HETATM    8  C9  UNL     1      -1.846   0.852  -0.365  1.00  0.00     0.038 C 
HETATM    9  C16 UNL     1      -0.779   0.578   0.641  1.00  0.00     0.091 C 
HETATM   10  C17 UNL     1      -0.270  -0.749   0.103  1.00  0.00     0.151 C 
ENDROOT
BRANCH  10  11
HETATM   11  C18 UNL     1      -1.208  -1.845   0.311  1.00  0.00    -0.033 A 
HETATM   12  C19 UNL     1      -2.097  -1.917   1.373  1.00  0.00     0.009 A 
HETATM   13  C20 UNL     1      -2.985  -2.968   1.550  1.00  0.00     0.001 A 
HETATM   14  C21 UNL     1      -2.985  -3.993   0.627  1.00  0.00     0.000 A 
HETATM   15  C22 UNL     1      -2.127  -3.963  -0.435  1.00  0.00     0.001 A 
HETATM   16  C23 UNL     1      -1.242  -2.888  -0.586  1.00  0.00     0.009 A 
ENDBRANCH  10  11
BRANCH   3  17
HETATM   17  C2  UNL     1       2.875  -0.626  -1.359  1.00  0.00     0.153 A 
HETATM   18  N2  UNL     1       4.077  -1.038  -0.958  1.00  0.00    -0.335 N 
HETATM   19  C3  UNL     1       4.887  -0.155  -0.407  1.00  0.00     0.051 A 
ATOM     20  H2  UNL     1       4.363  -2.010  -1.074  1.00  0.00     0.168 HD
HETATM   21  C4  UNL     1       6.187  -0.404   0.075  1.00  0.00     0.031 A 
HETATM   22  C8  UNL     1       4.440   1.126  -0.283  1.00  0.00     0.035 A 
HETATM   23  C5  UNL     1       6.938   0.576   0.624  1.00  0.00     0.002 A 
HETATM   24  C6  UNL     1       6.511   1.875   0.760  1.00  0.00     0.002 A 
HETATM   25  C7  UNL     1       5.232   2.139   0.291  1.00  0.00     0.021 A 
HETATM   26  S1  UNL     1       2.875   1.031  -0.958  1.00  0.00    -0.052 SA
ENDBRANCH   3  17
BRANCH   8  27
HETATM   27  C10 UNL     1      -3.031   1.644  -0.075  1.00  0.00    -0.012 A 
HETATM   28  C11 UNL     1      -3.263   2.215   1.157  1.00  0.00     0.013 A 
HETATM   29  C12 UNL     1      -4.387   2.967   1.435  1.00  0.00     0.001 A 
HETATM   30  C13 UNL     1      -5.334   3.177   0.471  1.00  0.00     0.000 A 
HETATM   31  C14 UNL     1      -5.132   2.619  -0.773  1.00  0.00     0.001 A 
HETATM   32  C15 UNL     1      -4.009   1.871  -1.042  1.00  0.00     0.013 A 
ENDBRANCH   8  27
TORSDOF 3
