REMARK  5 active torsions:
REMARK  status: ('A' for Active; 'I' for Inactive)
REMARK    1  A    between atoms: C3_3  and  O1_4 
REMARK    2  A    between atoms: C8_10  and  C9_11 
REMARK    3  A    between atoms: C15_18  and  C16_19 
REMARK    4  A    between atoms: C17_20  and  C18_21 
REMARK    5  A    between atoms: C21_24  and  O2_25 
ROOT
HETATM    1  C1  UNL     1      -6.842   0.381   0.623  1.00  0.00     0.015 C 
HETATM    2  C2  UNL     1      -5.907   0.375  -0.136  1.00  0.00    -0.079 C 
HETATM    3  C3  UNL     1      -4.814   0.371  -1.064  1.00  0.00     0.124 C 
HETATM    4  C4  UNL     1      -4.183   1.725  -1.303  1.00  0.00     0.052 C 
HETATM    5  C5  UNL     1      -2.752   1.422  -1.761  1.00  0.00     0.009 C 
HETATM    6  C6  UNL     1      -2.649  -0.072  -1.773  1.00  0.00    -0.001 C 
HETATM    7  C7  UNL     1      -3.642  -0.448  -0.651  1.00  0.00     0.045 C 
HETATM    8  C8  UNL     1      -2.883   0.066   0.544  1.00  0.00     0.025 C 
HETATM    9  C12 UNL     1      -1.486  -0.465   0.244  1.00  0.00    -0.031 A 
HETATM   10  C13 UNL     1      -1.378  -1.829   0.915  1.00  0.00     0.016 C 
HETATM   11  C14 UNL     1      -0.414   0.464   0.709  1.00  0.00     0.027 A 
HETATM   12  C15 UNL     1       0.409   0.849  -0.490  1.00  0.00     0.066 A 
HETATM   13  C25 UNL     1      -0.157   0.156  -1.681  1.00  0.00     0.023 A 
HETATM   14  C26 UNL     1      -1.372  -0.615  -1.235  1.00  0.00     0.000 A 
ENDROOT
BRANCH   3  15
HETATM   15  O1  UNL     1      -5.208  -0.105  -2.331  1.00  0.00    -0.377 OA
ATOM     16  H1  UNL     1      -4.484  -0.108  -2.946  1.00  0.00     0.211 HD
ENDBRANCH   3  15
BRANCH   8  17
HETATM   17  C9  UNL     1      -3.380  -0.536   1.814  1.00  0.00    -0.010 C 
HETATM   18  C10 UNL     1      -3.681   0.250   2.835  1.00  0.00     0.090 C 
HETATM   19  C11 UNL     1      -4.161  -0.311   4.065  1.00  0.00     0.087 C 
HETATM   20  N1  UNL     1      -4.538  -0.764   5.062  1.00  0.00    -0.192 NA
ENDBRANCH   8  17
BRANCH  12  21
HETATM   21  C16 UNL     1       1.810   0.487  -0.235  1.00  0.00    -0.096 C 
HETATM   22  C17 UNL     1       2.973   0.204  -0.037  1.00  0.00    -0.067 C 
BRANCH  22  23
HETATM   23  C18 UNL     1       4.354  -0.114   0.204  1.00  0.00     0.018 A 
HETATM   24  C19 UNL     1       5.361   0.824   0.111  1.00  0.00     0.023 A 
HETATM   25  C20 UNL     1       6.681   0.532   0.339  1.00  0.00     0.038 A 
HETATM   26  C21 UNL     1       7.039  -0.756   0.678  1.00  0.00     0.068 A 
HETATM   27  C23 UNL     1       6.038  -1.694   0.772  1.00  0.00     0.038 A 
HETATM   28  C24 UNL     1       4.710  -1.400   0.543  1.00  0.00     0.023 A 
BRANCH  26  29
HETATM   29  O2  UNL     1       8.374  -1.060   0.910  1.00  0.00    -0.356 OA
HETATM   30  C22 UNL     1       9.397  -0.088   0.811  1.00  0.00     0.210 C 
ENDBRANCH  26  29
ENDBRANCH  22  23
ENDBRANCH  12  21
TORSDOF 5
