REMARK  3 active torsions:
REMARK  status: ('A' for Active; 'I' for Inactive)
REMARK    1  A    between atoms: C7_10  and  O3_11 
REMARK    2  A    between atoms: C7_10  and  C8_13 
REMARK    3  A    between atoms: C17_22  and  C18_23 
ROOT
HETATM    1  O1  UNL     1       0.969  -3.610  -0.564  1.00  0.00    -0.217 OA
HETATM    2  S1  UNL     1       0.091  -2.792   0.312  1.00  0.00     0.208 S 
HETATM    3  O2  UNL     1       0.084  -3.259   1.726  1.00  0.00    -0.217 OA
HETATM    4  C1  UNL     1      -1.540  -2.645  -0.328  1.00  0.00     0.074 A 
HETATM    5  C2  UNL     1      -2.098  -3.716  -1.041  1.00  0.00     0.024 A 
HETATM    6  C3  UNL     1      -3.381  -3.593  -1.529  1.00  0.00     0.002 A 
HETATM    7  C4  UNL     1      -4.062  -2.414  -1.292  1.00  0.00     0.001 A 
HETATM    8  C5  UNL     1      -3.530  -1.363  -0.599  1.00  0.00     0.012 A 
HETATM    9  C6  UNL     1      -2.215  -1.474  -0.093  1.00  0.00     0.007 A 
HETATM   10  C7  UNL     1      -1.662  -0.344   0.650  1.00  0.00     0.143 C 
HETATM   11  C14 UNL     1      -0.231  -0.098   0.495  1.00  0.00     0.007 A 
HETATM   12  C15 UNL     1       0.270   1.204   0.515  1.00  0.00     0.013 A 
HETATM   13  C16 UNL     1       1.622   1.431   0.374  1.00  0.00     0.013 A 
HETATM   14  C17 UNL     1       2.537   0.418   0.211  1.00  0.00    -0.025 A 
HETATM   15  C24 UNL     1       2.021  -0.857   0.195  1.00  0.00     0.036 A 
HETATM   16  C25 UNL     1       0.675  -1.111   0.333  1.00  0.00     0.075 A 
ENDROOT
BRANCH  10  17
HETATM   17  O3  UNL     1      -1.854  -0.660   2.020  1.00  0.00    -0.375 OA
ATOM     18  H3  UNL     1      -1.494   0.075   2.503  1.00  0.00     0.211 HD
ENDBRANCH  10  17
BRANCH  10  19
HETATM   19  C8  UNL     1      -2.471   0.870   0.353  1.00  0.00    -0.015 A 
HETATM   20  C9  UNL     1      -3.283   1.371   1.342  1.00  0.00     0.011 A 
HETATM   21  C10 UNL     1      -4.062   2.490   1.155  1.00  0.00     0.001 A 
HETATM   22  C11 UNL     1      -4.016   3.120  -0.074  1.00  0.00     0.000 A 
HETATM   23  C12 UNL     1      -3.215   2.653  -1.096  1.00  0.00     0.001 A 
HETATM   24  C13 UNL     1      -2.452   1.529  -0.862  1.00  0.00     0.011 A 
ENDBRANCH  10  19
BRANCH  14  25
HETATM   25  C18 UNL     1       3.965   0.655   0.063  1.00  0.00    -0.026 A 
HETATM   26  C19 UNL     1       4.422   1.799  -0.554  1.00  0.00     0.012 A 
HETATM   27  C20 UNL     1       5.793   1.990  -0.677  1.00  0.00     0.001 A 
HETATM   28  C21 UNL     1       6.700   1.051  -0.190  1.00  0.00     0.000 A 
HETATM   29  C22 UNL     1       6.241  -0.095   0.428  1.00  0.00     0.001 A 
HETATM   30  C23 UNL     1       4.876  -0.271   0.543  1.00  0.00     0.012 A 
ENDBRANCH  14  25
TORSDOF 3
