REMARK  3 active torsions:
REMARK  status: ('A' for Active; 'I' for Inactive)
REMARK    1  A    between atoms: C2_2  and  C3_3 
REMARK    2  A    between atoms: C2_2  and  C12_15 
REMARK    3  A    between atoms: C12_15  and  O3_16 
ROOT
HETATM    1  C12 UNL     1      -1.372   0.526   0.468  1.00  0.00     0.118 C 
HETATM    2  C13 UNL     1      -2.280   1.480  -0.200  1.00  0.00    -0.008 A 
HETATM    3  C14 UNL     1      -2.085   2.766  -0.737  1.00  0.00     0.011 A 
HETATM    4  C15 UNL     1      -3.134   3.379  -1.384  1.00  0.00     0.001 A 
HETATM    5  C16 UNL     1      -4.365   2.774  -1.520  1.00  0.00     0.001 A 
HETATM    6  C17 UNL     1      -4.533   1.515  -0.983  1.00  0.00     0.013 A 
HETATM    7  C18 UNL     1      -3.488   0.858  -0.314  1.00  0.00    -0.016 A 
HETATM    8  C19 UNL     1      -3.470  -0.395   0.434  1.00  0.00    -0.016 A 
HETATM    9  C20 UNL     1      -4.504  -1.307   0.691  1.00  0.00     0.013 A 
HETATM   10  C21 UNL     1      -4.316  -2.374   1.537  1.00  0.00     0.001 A 
HETATM   11  C22 UNL     1      -3.089  -2.514   2.118  1.00  0.00     0.001 A 
HETATM   12  C23 UNL     1      -2.094  -1.618   1.853  1.00  0.00     0.011 A 
HETATM   13  C24 UNL     1      -2.231  -0.517   0.998  1.00  0.00    -0.008 A 
ENDROOT
BRANCH   1  14
HETATM   14  C2  UNL     1      -0.319   0.071  -0.474  1.00  0.00     0.048 C 
HETATM   15  C1  UNL     1       0.450   1.218  -1.040  1.00  0.00     0.015 C 
BRANCH  14  16
HETATM   16  C3  UNL     1       0.700  -0.908   0.072  1.00  0.00     0.138 C 
HETATM   17  C4  UNL     1       1.532  -1.350  -1.028  1.00  0.00    -0.006 C 
HETATM   18  C5  UNL     1       2.790  -1.361  -1.376  1.00  0.00     0.011 C 
HETATM   19  C6  UNL     1       3.904  -0.848  -0.638  1.00  0.00    -0.002 A 
HETATM   20  C7  UNL     1       5.096  -1.262  -1.243  1.00  0.00     0.014 A 
HETATM   21  C11 UNL     1       4.056  -0.059   0.483  1.00  0.00     0.097 A 
HETATM   22  C8  UNL     1       6.324  -0.909  -0.756  1.00  0.00     0.001 A 
HETATM   23  C9  UNL     1       6.449  -0.130   0.352  1.00  0.00     0.003 A 
HETATM   24  C10 UNL     1       5.300   0.298   0.976  1.00  0.00     0.039 A 
HETATM   25  O1  UNL     1       2.989   0.444   1.215  1.00  0.00    -0.252 OA
HETATM   26  S1  UNL     1       1.522  -0.345   1.499  1.00  0.00     0.166 S 
HETATM   27  O2  UNL     1       1.656  -1.474   2.712  1.00  0.00    -0.227 OA
ENDBRANCH  14  16
ENDBRANCH   1  14
BRANCH   1  28
HETATM   28  O3  UNL     1      -0.831   1.233   1.560  1.00  0.00    -0.380 OA
ATOM     29  H3  UNL     1      -1.505   1.524   2.163  1.00  0.00     0.211 HD
ENDBRANCH   1  28
TORSDOF 3
