REMARK  4 active torsions:
REMARK  status: ('A' for Active; 'I' for Inactive)
REMARK    1  A    between atoms: C2_2  and  O2_4 
REMARK    2  A    between atoms: O2_4  and  C3_5 
REMARK    3  A    between atoms: C5_8  and  O4_9 
REMARK    4  A    between atoms: C8_13  and  O5_14 
ROOT
HETATM    1  C3  UNL     1       2.682  -0.543  -0.126  1.00  0.00     0.310 C 
HETATM    2  O3  UNL     1       1.444  -0.661  -0.775  1.00  0.00    -0.311 OA
HETATM    3  C4  UNL     1       0.258  -0.586  -0.055  1.00  0.00     0.142 A 
HETATM    4  C5  UNL     1      -0.906  -0.928  -0.700  1.00  0.00     0.110 A 
HETATM    5  C6  UNL     1      -2.085  -0.851   0.022  1.00  0.00     0.000 A 
HETATM    6  C7  UNL     1      -2.151  -0.456   1.331  1.00  0.00     0.056 A 
HETATM    7  C8  UNL     1      -0.943  -0.117   1.950  1.00  0.00     0.116 A 
HETATM    8  C9  UNL     1       0.236  -0.180   1.274  1.00  0.00     0.140 A 
HETATM    9  O6  UNL     1       1.468   0.147   1.844  1.00  0.00    -0.330 OA
HETATM   10  C10 UNL     1       2.500   0.524   0.961  1.00  0.00     0.111 C 
HETATM   11  C11 UNL     1       3.823   0.688   1.635  1.00  0.00     0.051 C 
HETATM   12  C12 UNL     1       2.153   1.808   0.264  1.00  0.00     0.051 C 
HETATM   13  C13 UNL     1      -3.535  -0.485   1.790  1.00  0.00     0.168 A 
HETATM   14  O7  UNL     1      -3.917  -0.208   2.934  1.00  0.00    -0.292 OA
HETATM   15  C14 UNL     1      -4.391  -0.901   0.656  1.00  0.00     0.078 A 
HETATM   16  C15 UNL     1      -3.452  -1.160  -0.437  1.00  0.00     0.043 A 
HETATM   17  C16 UNL     1      -4.386  -0.005  -0.524  1.00  0.00    -0.028 A 
HETATM   18  C17 UNL     1      -5.470  -0.154  -1.582  1.00  0.00     0.016 C 
HETATM   19  C18 UNL     1      -3.920   1.398  -0.301  1.00  0.00     0.016 C 
ENDROOT
BRANCH   1  20
HETATM   20  O2  UNL     1       3.710  -0.082  -0.984  1.00  0.00    -0.286 OA
BRANCH  20  21
HETATM   21  C2  UNL     1       4.869  -0.795  -1.231  1.00  0.00     0.257 C 
HETATM   22  C1  UNL     1       5.948  -0.304  -2.136  1.00  0.00     0.126 C 
HETATM   23  O1  UNL     1       4.987  -1.919  -0.640  1.00  0.00    -0.266 OA
ENDBRANCH  20  21
ENDBRANCH   1  20
BRANCH   4  24
HETATM   24  O4  UNL     1      -0.872  -1.330  -2.022  1.00  0.00    -0.357 OA
ATOM     25  H4  UNL     1      -1.677  -1.566  -2.468  1.00  0.00     0.217 HD
ENDBRANCH   4  24
BRANCH   7  26
HETATM   26  O5  UNL     1      -0.971   0.283   3.262  1.00  0.00    -0.357 OA
ATOM     27  H5  UNL     1      -0.151   0.513   3.682  1.00  0.00     0.217 HD
ENDBRANCH   7  26
TORSDOF 4
