REMARK  4 active torsions:
REMARK  status: ('A' for Active; 'I' for Inactive)
REMARK    1  A    between atoms: C2_2  and  N1_5 
REMARK    2  A    between atoms: C7_13  and  N4_14 
REMARK    3  A    between atoms: N4_14  and  N5_16 
REMARK    4  A    between atoms: N5_16  and  C8_18 
ROOT
HETATM    1  N1  UNL     1       4.652  -0.585   0.662  1.00  0.00    -0.361 N 
ATOM      2  H1  UNL     1       4.835  -1.004   1.574  1.00  0.00     0.162 HD
HETATM    3  C5  UNL     1       3.456  -0.731   0.220  1.00  0.00     0.162 A 
HETATM    4  N2  UNL     1       3.023  -0.254  -0.956  1.00  0.00    -0.280 N 
ATOM      5  H2  UNL     1       3.703   0.255  -1.520  1.00  0.00     0.189 HD
HETATM    6  N3  UNL     1       1.824  -0.372  -1.454  1.00  0.00    -0.307 N 
ATOM      7  H3  UNL     1       1.683   0.061  -2.367  1.00  0.00     0.186 HD
HETATM    8  C6  UNL     1       0.768  -0.973  -0.942  1.00  0.00     0.145 A 
HETATM    9  C7  UNL     1       0.746  -1.616   0.277  1.00  0.00     0.109 A 
HETATM   10  S2  UNL     1       2.231  -1.578   1.101  1.00  0.00    -0.032 SA
ENDROOT
BRANCH   9  11
HETATM   11  N4  UNL     1      -0.321  -2.189   0.728  1.00  0.00    -0.291 N 
ATOM     12  H4  UNL     1      -0.315  -2.661   1.632  1.00  0.00     0.187 HD
BRANCH  11  13
HETATM   13  N5  UNL     1      -1.464  -2.151  -0.034  1.00  0.00    -0.279 N 
ATOM     14  H5  UNL     1      -1.528  -2.772  -0.840  1.00  0.00     0.189 HD
BRANCH  13  15
HETATM   15  C8  UNL     1      -2.574  -1.281   0.246  1.00  0.00     0.156 C 
HETATM   16  N6  UNL     1      -2.761  -0.093  -0.149  1.00  0.00    -0.360 N 
HETATM   17  C9  UNL     1      -3.899   0.621   0.215  1.00  0.00     0.041 C 
ATOM     18  H6  UNL     1      -2.063   0.350  -0.746  1.00  0.00     0.162 HD
HETATM   19  C10 UNL     1      -3.673   1.601   1.367  1.00  0.00     0.039 C 
HETATM   20  C11 UNL     1      -4.288   1.506  -0.970  1.00  0.00     0.039 C 
HETATM   21  C12 UNL     1      -5.041  -0.301   0.588  1.00  0.00     0.033 C 
HETATM   22  C13 UNL     1      -5.860   0.223   1.722  1.00  0.00     0.030 C 
HETATM   23  C14 UNL     1      -5.856  -0.741  -0.578  1.00  0.00     0.030 C 
HETATM   24  S1  UNL     1      -4.011  -1.684   1.244  1.00  0.00    -0.081 SA
ENDBRANCH  13  15
ENDBRANCH  11  13
ENDBRANCH   9  11
BRANCH   1  25
HETATM   25  C2  UNL     1       5.754   0.074   0.066  1.00  0.00     0.021 C 
HETATM   26  C1  UNL     1       5.501   1.574  -0.121  1.00  0.00     0.037 C 
HETATM   27  C3  UNL     1       6.942  -0.027   1.048  1.00  0.00     0.037 C 
HETATM   28  C4  UNL     1       6.211  -0.506  -1.230  1.00  0.00     0.037 C 
ENDBRANCH   1  25
TORSDOF 4
