REMARK  5 active torsions:
REMARK  status: ('A' for Active; 'I' for Inactive)
REMARK    1  A    between atoms: C1_2  and  C2_4 
REMARK    2  A    between atoms: N2_9  and  C5_10 
REMARK    3  A    between atoms: C11_18  and  O3_19 
REMARK    4  A    between atoms: C13_23  and  C14_24 
REMARK    5  A    between atoms: C14_24  and  N4_25 
ROOT
HETATM    1  C2  UNL     1      -2.013   0.198  -0.700  1.00  0.00     0.144 A 
HETATM    2  C3  UNL     1      -0.711   0.548  -0.470  1.00  0.00     0.079 A 
HETATM    3  C4  UNL     1      -0.312  -0.183   0.645  1.00  0.00     0.134 A 
HETATM    4  N1  UNL     1      -1.344  -0.911   1.020  1.00  0.00    -0.282 N 
ATOM      5  H1  UNL     1      -1.331  -1.547   1.817  1.00  0.00     0.189 HD
HETATM    6  N2  UNL     1      -2.388  -0.725   0.254  1.00  0.00    -0.279 N 
HETATM    7  N3  UNL     1       1.002  -0.039   1.141  1.00  0.00    -0.342 N 
ATOM      8  H3  UNL     1       1.218  -0.268   2.111  1.00  0.00     0.164 HD
HETATM    9  C8  UNL     1       2.027   0.434   0.260  1.00  0.00     0.144 C 
HETATM   10  C9  UNL     1       2.574  -0.694  -0.590  1.00  0.00     0.064 C 
HETATM   11  C10 UNL     1       3.293  -1.526   0.479  1.00  0.00     0.036 C 
HETATM   12  C11 UNL     1       3.902  -0.501   1.379  1.00  0.00     0.122 C 
HETATM   13  C12 UNL     1       3.244   0.820   1.074  1.00  0.00     0.093 C 
HETATM   14  O4  UNL     1       1.567   1.514  -0.529  1.00  0.00    -0.317 OA
HETATM   15  C13 UNL     1       0.263   1.419  -1.074  1.00  0.00     0.110 C 
ENDROOT
BRANCH  12  16
HETATM   16  O3  UNL     1       5.274  -0.454   1.144  1.00  0.00    -0.395 OA
ATOM     17  H3  UNL     1       5.661   0.198   1.716  1.00  0.00     0.210 HD
ENDBRANCH  12  16
BRANCH  15  18
HETATM   18  C14 UNL     1      -0.012   2.134  -2.127  1.00  0.00     0.205 C 
BRANCH  18  19
HETATM   19  N4  UNL     1       1.035   2.983  -2.658  1.00  0.00    -0.124 N 
HETATM   20  O5  UNL     1       1.648   2.570  -3.654  1.00  0.00    -0.532 OA
HETATM   21  O6  UNL     1       1.349   4.177  -2.107  1.00  0.00    -0.532 OA
ENDBRANCH  18  19
ENDBRANCH  15  18
BRANCH   1  22
HETATM   22  C1  UNL     1      -2.949   0.668  -1.645  1.00  0.00     0.229 C 
HETATM   23  O1  UNL     1      -2.907   1.559  -2.477  1.00  0.00    -0.643 OA
HETATM   24  O2  UNL     1      -4.240   0.024  -1.717  1.00  0.00    -0.643 OA
ENDBRANCH   1  22
BRANCH   6  25
HETATM   25  C5  UNL     1      -3.627  -1.388   0.440  1.00  0.00     0.109 A 
HETATM   26  C6  UNL     1      -3.894  -1.860   1.885  1.00  0.00     0.029 A 
HETATM   27  C7  UNL     1      -4.759  -0.860   1.198  1.00  0.00     0.029 A 
ENDBRANCH   6  25
TORSDOF 5
