REMARK  5 active torsions:
REMARK  status: ('A' for Active; 'I' for Inactive)
REMARK    1  A    between atoms: C4_5  and  C5_6 
REMARK    2  A    between atoms: C5_6  and  C6_7 
REMARK    3  A    between atoms: C9_10  and  O1_11 
REMARK    4  A    between atoms: O1_11  and  C10_12 
REMARK    5  A    between atoms: C13_15  and  N2_16 
ROOT
HETATM    1  C6  UNL     1      -3.612  -0.843  -0.398  1.00  0.00     0.024 A 
HETATM    2  C7  UNL     1      -2.869  -1.838   0.171  1.00  0.00     0.029 A 
HETATM    3  C8  UNL     1      -1.455  -1.824   0.110  1.00  0.00     0.040 A 
HETATM    4  C9  UNL     1      -0.848  -0.787  -0.536  1.00  0.00     0.084 A 
HETATM    5  C20 UNL     1      -1.659   0.197  -1.101  1.00  0.00     0.124 A 
HETATM    6  N4  UNL     1      -2.990   0.178  -1.040  1.00  0.00    -0.365 N 
ATOM      7  H4  UNL     1      -3.536   0.924  -1.472  1.00  0.00     0.165 HD
ENDROOT
BRANCH   4   8
HETATM    8  O1  UNL     1       0.525  -0.725  -0.613  1.00  0.00    -0.344 OA
BRANCH   8   9
HETATM    9  C10 UNL     1       1.412  -1.635  -0.046  1.00  0.00     0.130 C 
HETATM   10  C11 UNL     1       1.769  -1.048   1.370  1.00  0.00     0.034 C 
HETATM   11  C12 UNL     1       2.611   0.154   0.865  1.00  0.00     0.023 C 
HETATM   12  C13 UNL     1       3.582  -0.605   0.043  1.00  0.00     0.073 C 
HETATM   13  C19 UNL     1       2.740  -1.587  -0.754  1.00  0.00     0.053 C 
BRANCH  12  14
HETATM   14  N2  UNL     1       4.499   0.084  -0.757  1.00  0.00    -0.245 NA
HETATM   15  C14 UNL     1       5.766  -0.402  -0.652  1.00  0.00    -0.095 C 
HETATM   16  C15 UNL     1       7.091  -0.817  -0.552  1.00  0.00     0.118 C 
HETATM   17  C16 UNL     1       7.921   0.501  -0.282  1.00  0.00     0.131 C 
HETATM   18  N3  UNL     1       7.110   1.650  -0.709  1.00  0.00    -0.400 N 
HETATM   19  C17 UNL     1       5.951   2.019  -0.073  1.00  0.00     0.071 C 
ATOM     20  H3  UNL     1       7.422   2.196  -1.512  1.00  0.00     0.158 HD
HETATM   21  C18 UNL     1       4.573   1.552  -0.517  1.00  0.00     0.148 C 
ENDBRANCH  12  14
ENDBRANCH   8   9
ENDBRANCH   4   8
BRANCH   1  22
HETATM   22  C5  UNL     1      -5.114  -0.765  -0.275  1.00  0.00     0.046 C 
HETATM   23  C21 UNL     1      -5.746  -1.765   0.659  1.00  0.00     0.022 C 
HETATM   24  C22 UNL     1      -6.373  -2.499  -0.519  1.00  0.00     0.003 C 
HETATM   25  C23 UNL     1      -5.898  -1.347  -1.387  1.00  0.00     0.022 C 
BRANCH  22  26
HETATM   26  C4  UNL     1      -5.477   0.621   0.156  1.00  0.00     0.042 A 
HETATM   27  C3  UNL     1      -4.812   1.251   1.190  1.00  0.00     0.046 A 
HETATM   28  C2  UNL     1      -5.412   2.470   1.326  1.00  0.00     0.111 A 
HETATM   29  N1  UNL     1      -6.398   2.549   0.400  1.00  0.00    -0.308 N 
HETATM   30  C1  UNL     1      -7.286   3.658   0.202  1.00  0.00     0.177 C 
HETATM   31  N5  UNL     1      -6.426   1.416  -0.308  1.00  0.00    -0.302 N 
ATOM     32  H5  UNL     1      -7.067   1.202  -1.072  1.00  0.00     0.186 HD
ENDBRANCH  22  26
ENDBRANCH   1  22
TORSDOF 5
