REMARK  6 active torsions:
REMARK  status: ('A' for Active; 'I' for Inactive)
REMARK    1  A    between atoms: C4_9  and  N4_10 
REMARK    2  A    between atoms: C9_17  and  N6_18 
REMARK    3  A    between atoms: N6_18  and  C10_20 
REMARK    4  A    between atoms: C13_23  and  C14_24 
REMARK    5  A    between atoms: C14_24  and  C15_25 
REMARK    6  A    between atoms: C15_25  and  N7_26 
ROOT
HETATM    1  C1  UNL     1      -1.891  -4.418  -2.947  1.00  0.00     0.157 C 
HETATM    2  N1  UNL     1      -3.124  -3.801  -2.537  1.00  0.00    -0.341 N 
HETATM    3  C2  UNL     1      -4.388  -4.195  -2.770  1.00  0.00     0.184 A 
HETATM    4  N2  UNL     1      -5.256  -3.337  -2.213  1.00  0.00    -0.336 N 
ATOM      5  H2  UNL     1      -6.273  -3.413  -2.247  1.00  0.00     0.168 HD
HETATM    6  C3  UNL     1      -4.552  -2.346  -1.594  1.00  0.00     0.152 A 
HETATM    7  N3  UNL     1      -4.933  -1.258  -0.899  1.00  0.00    -0.174 N 
ATOM      8  H3  UNL     1      -5.925  -1.062  -0.762  1.00  0.00     0.186 HD
HETATM    9  C4  UNL     1      -4.010  -0.431  -0.386  1.00  0.00     0.683 A 
HETATM   10  N5  UNL     1      -2.713  -0.724  -0.589  1.00  0.00    -0.174 N 
ATOM     11  H5  UNL     1      -2.012  -0.095  -0.198  1.00  0.00     0.186 HD
HETATM   12  C9  UNL     1      -2.287  -1.795  -1.275  1.00  0.00     0.152 A 
HETATM   13  C22 UNL     1      -3.231  -2.672  -1.819  1.00  0.00     0.125 A 
ENDROOT
BRANCH  12  14
HETATM   14  N6  UNL     1      -1.061  -2.083  -1.464  1.00  0.00    -0.340 N 
ATOM     15  H6  UNL     1      -0.820  -2.917  -2.000  1.00  0.00     0.167 HD
BRANCH  14  16
HETATM   16  C10 UNL     1      -0.023  -1.267  -0.944  1.00  0.00     0.033 A 
HETATM   17  C11 UNL     1       0.441  -1.462   0.364  1.00  0.00     0.030 A 
HETATM   18  C12 UNL     1       1.448  -0.681   0.869  1.00  0.00     0.010 A 
HETATM   19  C13 UNL     1       2.014   0.295   0.116  1.00  0.00    -0.053 A 
HETATM   20  C20 UNL     1       1.584   0.509  -1.157  1.00  0.00     0.010 A 
HETATM   21  C21 UNL     1       0.565  -0.269  -1.694  1.00  0.00     0.030 A 
BRANCH  19  22
HETATM   22  C14 UNL     1       3.142   1.156   0.624  1.00  0.00     0.082 C 
BRANCH  22  23
HETATM   23  C15 UNL     1       4.402   0.423   0.222  1.00  0.00     0.062 C 
BRANCH  23  24
HETATM   24  N7  UNL     1       5.620   0.971   0.562  1.00  0.00    -0.393 N 
HETATM   25  C16 UNL     1       6.082   2.173  -0.026  1.00  0.00     0.122 C 
HETATM   26  C17 UNL     1       7.320   2.579   0.701  1.00  0.00     0.021 C 
HETATM   27  C18 UNL     1       7.515   1.545   1.771  1.00  0.00     0.021 C 
HETATM   28  C19 UNL     1       6.130   0.892   1.880  1.00  0.00     0.122 C 
ENDBRANCH  23  24
ENDBRANCH  22  23
ENDBRANCH  19  22
ENDBRANCH  14  16
ENDBRANCH  12  14
BRANCH   9  29
HETATM   29  N4  UNL     1      -4.403   0.737   0.363  1.00  0.00    -0.217 N 
HETATM   30  C5  UNL     1      -4.757   2.019  -0.256  1.00  0.00     0.141 C 
HETATM   31  C6  UNL     1      -5.679   2.698   0.737  1.00  0.00     0.022 C 
HETATM   32  C7  UNL     1      -5.836   1.726   1.871  1.00  0.00     0.022 C 
HETATM   33  C8  UNL     1      -4.535   0.914   1.774  1.00  0.00     0.141 C 
ENDBRANCH   9  29
TORSDOF 6
