REMARK  12 active torsions:
REMARK  status: ('A' for Active; 'I' for Inactive)
REMARK    1  A    between atoms: C2_2  and  C3_3 
REMARK    2  A    between atoms: C3_3  and  N1_4 
REMARK    3  A    between atoms: C3_3  and  C5_7 
REMARK    4  A    between atoms: C5_7  and  O1_8 
REMARK    5  A    between atoms: N2_10  and  C6_12 
REMARK    6  A    between atoms: C7_15  and  C8_16 
REMARK       I    between atoms: N4_19  and  C11_20 
REMARK    7  A    between atoms: C11_20  and  O3_22 
REMARK    8  A    between atoms: O3_22  and  C12_23 
REMARK    9  A    between atoms: C12_23  and  C13_24 
REMARK   10  A    between atoms: C18_30  and  C19_31 
REMARK   11  A    between atoms: C19_31  and  C20_33 
REMARK   12  A    between atoms: C20_33  and  C21_34 
ROOT
HETATM    1  C6  UNL     1       2.754  -1.088  -0.582  1.00  0.00     0.151 A 
HETATM    2  N3  UNL     1       1.428  -1.057  -0.267  1.00  0.00    -0.338 N 
ATOM      3  H3  UNL     1       0.923  -1.925  -0.087  1.00  0.00     0.168 HD
HETATM    4  C7  UNL     1       0.813   0.082  -0.198  1.00  0.00     0.036 A 
HETATM    5  C18 UNL     1       1.560   1.210  -0.446  1.00  0.00     0.077 A 
HETATM    6  S1  UNL     1       3.116   0.566  -0.771  1.00  0.00    -0.048 SA
ENDROOT
BRANCH   4   7
HETATM    7  C8  UNL     1      -0.691   0.247  -0.047  1.00  0.00     0.047 C 
HETATM    8  C9  UNL     1      -1.110   0.578   1.355  1.00  0.00     0.032 C 
HETATM    9  C10 UNL     1      -2.467   1.309   1.181  1.00  0.00     0.138 C 
HETATM   10  N4  UNL     1      -3.332   0.286   0.578  1.00  0.00    -0.264 N 
HETATM   11  C11 UNL     1      -4.684   0.626   0.317  1.00  0.00     0.369 C 
HETATM   12  C16 UNL     1      -2.822  -0.956   0.186  1.00  0.00     0.228 C 
HETATM   13  O2  UNL     1      -5.126   1.816   0.383  1.00  0.00    -0.238 OA
HETATM   14  O4  UNL     1      -3.542  -2.009   0.184  1.00  0.00    -0.273 OA
HETATM   15  C17 UNL     1      -1.406  -1.122  -0.251  1.00  0.00     0.114 C 
BRANCH  11  16
HETATM   16  O3  UNL     1      -5.593  -0.373  -0.019  1.00  0.00    -0.303 OA
BRANCH  16  17
HETATM   17  C12 UNL     1      -6.932  -0.150  -0.357  1.00  0.00     0.184 C 
BRANCH  17  18
HETATM   18  C13 UNL     1      -7.818  -1.221   0.169  1.00  0.00     0.002 C 
HETATM   19  C14 UNL     1      -7.481  -2.599  -0.260  1.00  0.00     0.011 C 
HETATM   20  C15 UNL     1      -9.262  -0.923  -0.244  1.00  0.00     0.011 C 
ENDBRANCH  17  18
ENDBRANCH  16  17
ENDBRANCH  11  16
ENDBRANCH   4   7
BRANCH   5  21
HETATM   21  C19 UNL     1       1.213   2.646  -0.556  1.00  0.00     0.168 C 
HETATM   22  O5  UNL     1       0.029   2.936  -0.670  1.00  0.00    -0.292 OA
BRANCH  21  23
HETATM   23  C20 UNL     1       2.337   3.599  -0.509  1.00  0.00     0.088 C 
BRANCH  23  24
HETATM   24  C21 UNL     1       1.920   5.003  -0.707  1.00  0.00    -0.015 C 
HETATM   25  C22 UNL     1       3.142   5.938  -0.648  1.00  0.00     0.010 C 
HETATM   26  C23 UNL     1       0.941   5.465   0.335  1.00  0.00     0.010 C 
ENDBRANCH  23  24
ENDBRANCH  21  23
ENDBRANCH   5  21
BRANCH   1  27
HETATM   27  N2  UNL     1       3.462  -2.115  -0.750  1.00  0.00    -0.319 N 
HETATM   28  C5  UNL     1       4.624  -2.658  -1.036  1.00  0.00     0.140 C 
ATOM     29  H2  UNL     1       2.834  -2.902  -0.586  1.00  0.00     0.169 HD
BRANCH  28  30
HETATM   30  C3  UNL     1       5.611  -3.232  -0.083  1.00  0.00     0.151 C 
BRANCH  30  31
HETATM   31  C2  UNL     1       6.304  -2.269   0.755  1.00  0.00     0.028 C 
HETATM   32  C1  UNL     1       7.001  -1.166  -0.100  1.00  0.00     0.007 C 
ENDBRANCH  30  31
BRANCH  30  33
HETATM   33  N1  UNL     1       4.978  -4.373   0.479  1.00  0.00    -0.414 N 
HETATM   34  C4  UNL     1       5.752  -5.343   1.113  1.00  0.00     0.140 C 
ATOM     35  H1  UNL     1       3.966  -4.481   0.419  1.00  0.00     0.153 HD
ENDBRANCH  30  33
ENDBRANCH  28  30
BRANCH  28  36
HETATM   36  O1  UNL     1       5.003  -2.744  -2.314  1.00  0.00    -0.348 OA
ATOM     37  H1  UNL     1       4.373  -2.377  -2.923  1.00  0.00     0.219 HD
ENDBRANCH  28  36
ENDBRANCH   1  27
TORSDOF 12
