REMARK  11 active torsions:
REMARK  status: ('A' for Active; 'I' for Inactive)
REMARK    1  A    between atoms: C2_2  and  O1_3 
REMARK    2  A    between atoms: O1_3  and  C3_4 
REMARK       I    between atoms: C3_4  and  N1_6 
REMARK    3  A    between atoms: N1_6  and  N2_7 
REMARK    4  A    between atoms: N1_6  and  C4_10 
REMARK    5  A    between atoms: C4_10  and  C5_11 
REMARK    6  A    between atoms: C5_11  and  C6_12 
REMARK    7  A    between atoms: C6_12  and  C7_13 
REMARK    8  A    between atoms: C7_13  and  C8_14 
REMARK    9  A    between atoms: C8_14  and  C9_15 
REMARK       I    between atoms: C9_15  and  N3_17 
REMARK   10  A    between atoms: N3_17  and  C10_19 
REMARK   11  A    between atoms: C13_24  and  N5_25 
ROOT
HETATM    1  C10 UNL     1      -1.858   1.206   1.486  1.00  0.00     0.153 A 
HETATM    2  N4  UNL     1      -1.983   0.035   0.861  1.00  0.00    -0.338 N 
ATOM      3  H4  UNL     1      -1.158  -0.487   0.566  1.00  0.00     0.168 HD
HETATM    4  C11 UNL     1      -3.179  -0.431   0.634  1.00  0.00     0.042 A 
HETATM    5  C12 UNL     1      -3.408  -1.760  -0.073  1.00  0.00     0.071 C 
HETATM    6  C13 UNL     1      -4.246   0.320   1.056  1.00  0.00     0.116 A 
HETATM    7  S2  UNL     1      -3.472   1.670   1.765  1.00  0.00    -0.033 SA
ENDROOT
BRANCH   1   8
HETATM    8  N3  UNL     1      -0.756   1.845   1.806  1.00  0.00    -0.307 N 
HETATM    9  C9  UNL     1       0.500   1.277   1.477  1.00  0.00     0.223 C 
HETATM   10  O3  UNL     1       0.803   0.184   2.005  1.00  0.00    -0.273 OA
ATOM     11  H3  UNL     1      -0.804   2.743   2.287  1.00  0.00     0.171 HD
BRANCH   9  12
HETATM   12  C8  UNL     1       1.368   1.997   0.542  1.00  0.00     0.103 C 
BRANCH  12  13
HETATM   13  C7  UNL     1       2.723   1.420   0.322  1.00  0.00     0.009 C 
BRANCH  13  14
HETATM   14  C6  UNL     1       3.569   1.354   1.543  1.00  0.00     0.002 C 
BRANCH  14  15
HETATM   15  C5  UNL     1       4.923   0.751   1.275  1.00  0.00     0.022 C 
BRANCH  15  16
HETATM   16  C4  UNL     1       5.682   1.567   0.260  1.00  0.00     0.154 C 
BRANCH  16  17
HETATM   17  N1  UNL     1       6.962   0.918   0.083  1.00  0.00    -0.243 N 
HETATM   18  C3  UNL     1       7.095  -0.076  -0.911  1.00  0.00     0.381 C 
HETATM   19  O2  UNL     1       6.136  -0.411  -1.650  1.00  0.00    -0.236 OA
BRANCH  18  20
HETATM   20  O1  UNL     1       8.332  -0.706  -1.077  1.00  0.00    -0.303 OA
BRANCH  20  21
HETATM   21  C2  UNL     1       8.432  -1.712  -2.097  1.00  0.00     0.176 C 
HETATM   22  C1  UNL     1       9.830  -2.275  -2.125  1.00  0.00     0.034 C 
ENDBRANCH  20  21
ENDBRANCH  18  20
BRANCH  17  23
HETATM   23  N2  UNL     1       8.029   1.286   0.894  1.00  0.00    -0.339 N 
ATOM     24  H22 UNL     1       8.932   0.828   0.769  1.00  0.00     0.177 HD
ATOM     25  H21 UNL     1       7.933   2.004   1.612  1.00  0.00     0.177 HD
ENDBRANCH  17  23
ENDBRANCH  16  17
ENDBRANCH  15  16
ENDBRANCH  14  15
ENDBRANCH  13  14
ENDBRANCH  12  13
ENDBRANCH   9  12
ENDBRANCH   1   8
BRANCH   6  26
HETATM   26  N5  UNL     1      -5.652   0.025   0.926  1.00  0.00    -0.238 N 
HETATM   27  S1  UNL     1      -6.726  -0.193   2.186  1.00  0.00    -0.003 SA
HETATM   28  C14 UNL     1      -8.157  -0.494   1.286  1.00  0.00     0.038 A 
HETATM   29  C15 UNL     1      -9.494  -0.770   1.623  1.00  0.00     0.021 A 
HETATM   30  C20 UNL     1      -7.708  -0.405  -0.003  1.00  0.00     0.057 A 
HETATM   31  C16 UNL     1     -10.436  -0.970   0.619  1.00  0.00     0.002 A 
HETATM   32  C17 UNL     1      -9.970  -0.878  -0.657  1.00  0.00     0.008 A 
HETATM   33  C18 UNL     1      -8.670  -0.609  -1.014  1.00  0.00    -0.045 A 
HETATM   34  C19 UNL     1      -8.323  -0.544  -2.460  1.00  0.00     0.049 C 
HETATM   35  C21 UNL     1      -6.388  -0.131  -0.167  1.00  0.00     0.271 A 
HETATM   36  O4  UNL     1      -5.805  -0.014  -1.319  1.00  0.00    -0.266 OA
ENDBRANCH   6  26
TORSDOF 11
