REMARK  5 active torsions:
REMARK  status: ('A' for Active; 'I' for Inactive)
REMARK    1  A    between atoms: C2_2  and  O2_4 
REMARK    2  A    between atoms: O2_4  and  C3_5 
REMARK    3  A    between atoms: C13_17  and  C14_18 
REMARK    4  A    between atoms: C14_18  and  C16_20 
REMARK    5  A    between atoms: C16_20  and  O5_21 
ROOT
HETATM    1  C3  UNL     1       1.753   0.368   0.172  1.00  0.00     0.173 C 
HETATM    2  C4  UNL     1       2.707  -0.672  -0.273  1.00  0.00     0.019 C 
HETATM    3  C5  UNL     1       3.995   0.053  -0.698  1.00  0.00     0.013 C 
HETATM    4  C6  UNL     1       2.315  -1.576  -1.354  1.00  0.00    -0.002 A 
HETATM    5  C7  UNL     1       1.339  -1.219  -2.427  1.00  0.00     0.012 A 
HETATM    6  C8  UNL     1       1.053  -2.252  -1.410  1.00  0.00     0.015 A 
HETATM    7  C9  UNL     1       0.040  -2.117  -0.326  1.00  0.00     0.099 C 
HETATM    8  C10 UNL     1      -1.012  -3.139  -0.564  1.00  0.00     0.002 C 
HETATM    9  C11 UNL     1      -2.287  -3.364  -0.648  1.00  0.00     0.079 C 
HETATM   10  C12 UNL     1      -3.421  -2.459  -0.499  1.00  0.00     0.284 C 
HETATM   11  O3  UNL     1      -4.519  -3.094  -0.616  1.00  0.00    -0.260 OA
HETATM   12  O4  UNL     1      -3.572  -1.094  -0.263  1.00  0.00    -0.286 OA
HETATM   13  C13 UNL     1      -2.555  -0.071  -0.298  1.00  0.00     0.276 C 
HETATM   14  O6  UNL     1      -1.581  -0.550   0.611  1.00  0.00    -0.350 OA
HETATM   15  C17 UNL     1      -0.382  -0.765   0.016  1.00  0.00     0.184 C 
HETATM   16  C18 UNL     1       0.694  -0.310   1.009  1.00  0.00     0.121 C 
HETATM   17  C19 UNL     1       0.188   0.480   2.148  1.00  0.00     0.052 C 
HETATM   18  O7  UNL     1       1.244  -1.509   1.552  1.00  0.00    -0.304 OA
HETATM   19  C20 UNL     1       0.723  -2.603   0.932  1.00  0.00     0.275 C 
HETATM   20  O8  UNL     1       0.822  -3.776   1.369  1.00  0.00    -0.264 OA
ENDROOT
BRANCH  13  21
HETATM   21  C14 UNL     1      -3.233   1.180   0.136  1.00  0.00     0.061 C 
HETATM   22  C15 UNL     1      -3.817   1.112   1.527  1.00  0.00     0.017 C 
BRANCH  21  23
HETATM   23  C16 UNL     1      -2.444   2.446  -0.101  1.00  0.00     0.173 C 
BRANCH  23  24
HETATM   24  O5  UNL     1      -2.216   2.524  -1.479  1.00  0.00    -0.400 OA
ATOM     25  H5  UNL     1      -1.720   3.320  -1.628  1.00  0.00     0.209 HD
ENDBRANCH  23  24
ENDBRANCH  21  23
ENDBRANCH  13  21
BRANCH   1  26
HETATM   26  O2  UNL     1       2.355   1.448   0.831  1.00  0.00    -0.313 OA
BRANCH  26  27
HETATM   27  C2  UNL     1       2.334   2.754   0.397  1.00  0.00     0.255 C 
HETATM   28  C1  UNL     1       3.038   3.763   1.246  1.00  0.00     0.126 C 
HETATM   29  O1  UNL     1       1.745   3.029  -0.656  1.00  0.00    -0.266 OA
ENDBRANCH  26  27
ENDBRANCH   1  26
TORSDOF 5
