REMARK  6 active torsions:
REMARK  status: ('A' for Active; 'I' for Inactive)
REMARK    1  A    between atoms: C3_3  and  C4_4 
REMARK    2  A    between atoms: N1_5  and  N2_7 
REMARK       I    between atoms: N2_7  and  C5_9 
REMARK    3  A    between atoms: C5_9  and  C6_11 
REMARK    4  A    between atoms: C6_11  and  S1_12 
REMARK    5  A    between atoms: C8_17  and  C9_18 
REMARK    6  A    between atoms: C9_18  and  C10_20 
ROOT
HETATM    1  C1  UNL     1       0.997   2.735   0.541  1.00  0.00     0.054 C 
HETATM    2  C2  UNL     1       0.005   1.649   0.653  1.00  0.00     0.002 C 
HETATM    3  C3  UNL     1       0.415   0.384   0.579  1.00  0.00     0.027 C 
HETATM    4  S2  UNL     1      -0.883  -0.832   0.756  1.00  0.00    -0.115 SA
HETATM    5  C8  UNL     1      -2.347  -0.237  -0.136  1.00  0.00     0.134 C 
HETATM    6  C14 UNL     1      -2.511   1.209   0.125  1.00  0.00     0.077 C 
HETATM    7  C15 UNL     1      -2.687   2.007  -1.186  1.00  0.00     0.020 C 
HETATM    8  C16 UNL     1      -1.419   1.891   0.832  1.00  0.00     0.162 C 
HETATM    9  O5  UNL     1      -1.736   2.777   1.678  1.00  0.00    -0.292 OA
ENDROOT
BRANCH   3  10
HETATM   10  C4  UNL     1       1.764  -0.018   0.392  1.00  0.00     0.126 C 
HETATM   11  N1  UNL     1       2.793   0.716   0.265  1.00  0.00    -0.308 N 
ATOM     12  H1  UNL     1       2.652   1.726   0.298  1.00  0.00     0.186 HD
BRANCH  11  13
HETATM   13  N2  UNL     1       4.098   0.262   0.084  1.00  0.00    -0.270 N 
HETATM   14  C5  UNL     1       4.782  -0.461   1.075  1.00  0.00     0.249 C 
HETATM   15  O1  UNL     1       4.148  -0.684   2.157  1.00  0.00    -0.271 OA
ATOM     16  H2  UNL     1       4.572   0.461  -0.797  1.00  0.00     0.190 HD
BRANCH  14  17
HETATM   17  C6  UNL     1       6.150  -0.949   0.912  1.00  0.00     0.244 C 
BRANCH  17  18
HETATM   18  S1  UNL     1       6.822  -0.521  -0.650  1.00  0.00     0.149 S 
HETATM   19  C7  UNL     1       8.494  -1.157  -0.764  1.00  0.00     0.161 C 
HETATM   20  O2  UNL     1       6.906   0.939  -0.902  1.00  0.00    -0.228 OA
HETATM   21  O3  UNL     1       6.028  -1.174  -1.757  1.00  0.00    -0.228 OA
ENDBRANCH  17  18
ENDBRANCH  14  17
ENDBRANCH  11  13
ENDBRANCH   3  10
BRANCH   5  22
HETATM   22  C9  UNL     1      -3.486  -1.114   0.202  1.00  0.00     0.149 C 
HETATM   23  O4  UNL     1      -3.256  -1.980   1.071  1.00  0.00    -0.296 OA
BRANCH  22  24
HETATM   24  C10 UNL     1      -4.838  -1.095  -0.350  1.00  0.00     0.011 C 
HETATM   25  C11 UNL     1      -5.589  -2.314   0.232  1.00  0.00     0.022 C 
HETATM   26  C12 UNL     1      -5.676   0.084   0.168  1.00  0.00     0.022 C 
HETATM   27  C13 UNL     1      -4.914  -1.231  -1.834  1.00  0.00     0.022 C 
ENDBRANCH  22  24
ENDBRANCH   5  22
TORSDOF 6
