REMARK  6 active torsions:
REMARK  status: ('A' for Active; 'I' for Inactive)
REMARK    1  A    between atoms: S1_2  and  N1_5 
REMARK    2  A    between atoms: N1_5  and  C2_7 
REMARK    3  A    between atoms: C4_9  and  C5_10 
REMARK    4  A    between atoms: C6_13  and  C7_14 
REMARK    5  A    between atoms: C7_14  and  C8_15 
REMARK    6  A    between atoms: C7_14  and  N4_20 
ROOT
HETATM    1  C8  UNL     1      -3.091   0.875  -0.818  1.00  0.00     0.158 C 
HETATM    2  C9  UNL     1      -2.585   1.798  -1.772  1.00  0.00     0.113 C 
HETATM    3  N2  UNL     1      -2.194   2.544  -2.559  1.00  0.00    -0.191 NA
HETATM    4  C10 UNL     1      -4.253   1.230  -0.037  1.00  0.00     0.113 C 
HETATM    5  N3  UNL     1      -5.167   1.534   0.586  1.00  0.00    -0.191 NA
ENDROOT
BRANCH   1   6
HETATM    6  C7  UNL     1      -2.251  -0.142  -0.201  1.00  0.00     0.146 C 
BRANCH   6   7
HETATM    7  C6  UNL     1      -1.048  -0.313   0.299  1.00  0.00     0.028 A 
HETATM    8  C4  UNL     1      -0.046   0.717   0.453  1.00  0.00     0.056 A 
HETATM    9  C3  UNL     1       1.290   0.555   0.443  1.00  0.00     0.051 A 
HETATM   10  C2  UNL     1       1.807  -0.782   0.264  1.00  0.00     0.061 A 
HETATM   11  C14 UNL     1       0.853  -1.877   0.114  1.00  0.00     0.043 A 
HETATM   12  C11 UNL     1      -0.504  -1.768   0.118  1.00  0.00    -0.002 A 
HETATM   13  S2  UNL     1       1.154  -3.556  -0.126  1.00  0.00    -0.099 SA
HETATM   14  C12 UNL     1      -1.174  -2.916  -0.057  1.00  0.00     0.021 A 
HETATM   15  C13 UNL     1      -0.427  -4.093  -0.220  1.00  0.00     0.051 A 
BRANCH   8  16
HETATM   16  C5  UNL     1      -0.380   2.127   0.680  1.00  0.00     0.210 C 
HETATM   17  O3  UNL     1      -1.459   2.649   0.889  1.00  0.00    -0.644 OA
HETATM   18  O4  UNL     1       0.674   3.076   0.659  1.00  0.00    -0.644 OA
ENDBRANCH   8  16
BRANCH  10  19
HETATM   19  N1  UNL     1       3.069  -1.049   0.232  1.00  0.00    -0.283 N 
ATOM     20  H1  UNL     1       3.371  -2.015   0.103  1.00  0.00     0.178 HD
BRANCH  19  21
HETATM   21  S1  UNL     1       4.250   0.181   0.401  1.00  0.00     0.227 S 
HETATM   22  C1  UNL     1       4.148   1.313  -0.953  1.00  0.00     0.186 C 
HETATM   23  O1  UNL     1       4.081   0.944   1.704  1.00  0.00    -0.206 OA
HETATM   24  O2  UNL     1       5.619  -0.494   0.433  1.00  0.00    -0.206 OA
ENDBRANCH  19  21
ENDBRANCH  10  19
ENDBRANCH   6   7
BRANCH   6  25
HETATM   25  N4  UNL     1      -3.270  -1.154   0.340  1.00  0.00    -0.112 N 
HETATM   26  O5  UNL     1      -3.201  -1.369   1.522  1.00  0.00    -0.532 OA
HETATM   27  O6  UNL     1      -4.157  -1.598  -0.536  1.00  0.00    -0.532 OA
ENDBRANCH   6  25
ENDBRANCH   1   6
TORSDOF 6
