REMARK  5 active torsions:
REMARK  status: ('A' for Active; 'I' for Inactive)
REMARK    1  A    between atoms: C1_2  and  C2_3 
REMARK       I    between atoms: C1_2  and  N3_17 
REMARK    2  A    between atoms: C2_3  and  N1_4 
REMARK    3  A    between atoms: N2_8  and  C4_9 
REMARK    4  A    between atoms: N3_17  and  C11_19 
REMARK    5  A    between atoms: N5_22  and  C12_23 
ROOT
HETATM    1  O1  UNL     1      -2.963   0.025   0.626  1.00  0.00    -0.271 OA
HETATM    2  C1  UNL     1      -1.733  -0.215   0.629  1.00  0.00     0.244 C 
HETATM    3  N3  UNL     1      -0.829   0.677   0.072  1.00  0.00    -0.304 N 
ATOM      4  H3  UNL     1       0.050   0.765   0.581  1.00  0.00     0.171 HD
ENDROOT
BRANCH   2   5
HETATM    5  C2  UNL     1      -1.271  -1.500   1.259  1.00  0.00     0.265 C 
BRANCH   5   6
HETATM    6  N1  UNL     1       0.184  -1.529   1.161  1.00  0.00    -0.188 N 
HETATM    7  O2  UNL     1       0.879  -2.027   0.219  1.00  0.00    -0.173 OA
HETATM    8  C3  UNL     1       2.163  -1.894   0.419  1.00  0.00     0.398 A 
HETATM    9  O3  UNL     1       3.087  -2.275  -0.315  1.00  0.00    -0.235 OA
HETATM   10  N2  UNL     1       2.331  -1.250   1.600  1.00  0.00    -0.206 N 
HETATM   11  C10 UNL     1       1.068  -1.033   2.045  1.00  0.00     0.358 A 
HETATM   12  O4  UNL     1       0.837  -0.445   3.138  1.00  0.00    -0.244 OA
BRANCH  10  13
HETATM   13  C4  UNL     1       3.561  -0.872   2.231  1.00  0.00     0.049 A 
HETATM   14  C5  UNL     1       4.336   0.119   1.677  1.00  0.00     0.030 A 
HETATM   15  C6  UNL     1       5.520   0.489   2.282  1.00  0.00     0.002 A 
HETATM   16  C7  UNL     1       5.895  -0.155   3.441  1.00  0.00     0.000 A 
HETATM   17  C8  UNL     1       5.116  -1.155   4.002  1.00  0.00     0.002 A 
HETATM   18  C9  UNL     1       3.955  -1.498   3.383  1.00  0.00     0.030 A 
ENDBRANCH  10  13
ENDBRANCH   5   6
ENDBRANCH   2   5
BRANCH   3  19
HETATM   19  C11 UNL     1      -0.914   1.397  -0.960  1.00  0.00     0.185 A 
HETATM   20  S1  UNL     1       0.303   2.467  -1.533  1.00  0.00     0.039 SA
HETATM   21  N4  UNL     1      -0.958   2.624  -2.586  1.00  0.00    -0.049 NA
HETATM   22  N5  UNL     1      -1.746   1.745  -1.973  1.00  0.00    -0.226 N 
BRANCH  22  23
HETATM   23  C12 UNL     1      -3.058   1.327  -2.328  1.00  0.00     0.056 A 
HETATM   24  C13 UNL     1      -4.194   2.082  -2.089  1.00  0.00     0.031 A 
HETATM   25  C14 UNL     1      -5.444   1.650  -2.458  1.00  0.00     0.002 A 
HETATM   26  C15 UNL     1      -5.635   0.441  -3.087  1.00  0.00     0.000 A 
HETATM   27  C16 UNL     1      -4.525  -0.338  -3.341  1.00  0.00     0.002 A 
HETATM   28  C17 UNL     1      -3.275   0.104  -2.967  1.00  0.00     0.031 A 
ENDBRANCH  22  23
ENDBRANCH   3  19
TORSDOF 5
