REMARK  6 active torsions:
REMARK  status: ('A' for Active; 'I' for Inactive)
REMARK    1  A    between atoms: N1_2  and  C2_4 
REMARK    2  A    between atoms: C4_11  and  C5_12 
REMARK    3  A    between atoms: C5_12  and  N5_13 
REMARK    4  A    between atoms: N5_13  and  C6_16 
REMARK    5  A    between atoms: C6_16  and  C7_17 
REMARK    6  A    between atoms: C7_17  and  O1_18 
ROOT
HETATM    1  C2  UNL     1      -2.705  -0.173  -0.270  1.00  0.00     0.126 A 
HETATM    2  N2  UNL     1      -3.422   0.523   0.622  1.00  0.00    -0.284 N 
ATOM      3  H2  UNL     1      -4.435   0.463   0.726  1.00  0.00     0.188 HD
HETATM    4  N3  UNL     1      -2.638   1.295   1.346  1.00  0.00    -0.286 N 
ATOM      5  H3  UNL     1      -2.943   1.920   2.092  1.00  0.00     0.188 HD
HETATM    6  C3  UNL     1      -1.352   1.120   0.933  1.00  0.00     0.142 A 
HETATM    7  N4  UNL     1      -0.196   1.771   1.446  1.00  0.00    -0.081 NA
HETATM    8  C4  UNL     1      -1.363   0.198  -0.085  1.00  0.00     0.055 A 
ENDROOT
BRANCH   8   9
HETATM    9  C5  UNL     1      -0.262  -0.361  -0.909  1.00  0.00     0.278 C 
BRANCH   9  10
HETATM   10  N5  UNL     1       0.983   0.178  -0.458  1.00  0.00    -0.069 N 
ATOM     11  H52 UNL     1       0.964   1.198  -0.441  1.00  0.00     0.277 HD
ATOM     12  H51 UNL     1       1.126   0.006   0.537  1.00  0.00     0.277 HD
BRANCH  10  13
HETATM   13  C6  UNL     1       2.106  -0.324  -1.256  1.00  0.00     0.258 C 
BRANCH  13  14
HETATM   14  C7  UNL     1       3.362   0.250  -0.599  1.00  0.00     0.194 C 
BRANCH  14  15
HETATM   15  O1  UNL     1       3.379  -0.230   0.708  1.00  0.00    -0.394 OA
HETATM   16  C8  UNL     1       4.475   0.208   1.419  1.00  0.00     0.201 C 
ENDBRANCH  14  15
ENDBRANCH  13  14
ENDBRANCH  10  13
ENDBRANCH   9  10
ENDBRANCH   8   9
BRANCH   1  17
HETATM   17  N1  UNL     1      -3.111  -1.030  -1.141  1.00  0.00    -0.379 N 
HETATM   18  C1  UNL     1      -4.487  -1.407  -1.308  1.00  0.00     0.147 C 
ATOM     19  H1  UNL     1      -2.416  -1.466  -1.747  1.00  0.00     0.160 HD
ENDBRANCH   1  17
TORSDOF 6
