REMARK  7 active torsions:
REMARK  status: ('A' for Active; 'I' for Inactive)
REMARK    1  A    between atoms: C4_4  and  C5_5 
REMARK    2  A    between atoms: C5_5  and  C6_6 
REMARK    3  A    between atoms: C6_6  and  N1_7 
REMARK    4  A    between atoms: N1_7  and  C7_9 
REMARK    5  A    between atoms: C7_9  and  N2_10 
REMARK    6  A    between atoms: C7_9  and  C8_14 
REMARK    7  A    between atoms: C8_14  and  N3_15 
ROOT
HETATM    1  N1  UNL     1      -1.788  -0.702  -0.308  1.00  0.00    -0.394 N 
ATOM      2  H1  UNL     1      -2.089  -1.638  -0.036  1.00  0.00     0.155 HD
ENDROOT
BRANCH   1   3
HETATM    3  C6  UNL     1      -0.451  -0.262  -0.119  1.00  0.00     0.122 C 
BRANCH   3   4
HETATM    4  C5  UNL     1       0.474  -1.353   0.390  1.00  0.00     0.078 C 
BRANCH   4   5
HETATM    5  C4  UNL     1       1.809  -0.735   0.541  1.00  0.00     0.029 A 
HETATM    6  C3  UNL     1       2.763  -0.634  -0.435  1.00  0.00     0.052 A 
HETATM    7  C2  UNL     1       3.843   0.010   0.140  1.00  0.00     0.024 A 
HETATM    8  C1  UNL     1       5.110   0.348  -0.523  1.00  0.00     0.070 C 
HETATM    9  N5  UNL     1       3.499   0.261   1.407  1.00  0.00    -0.305 N 
HETATM   10  N4  UNL     1       2.281  -0.183   1.658  1.00  0.00    -0.305 N 
ATOM     11  H5  UNL     1       4.096   0.731   2.087  1.00  0.00     0.186 HD
ATOM     12  H4  UNL     1       1.789  -0.115   2.549  1.00  0.00     0.186 HD
ENDBRANCH   4   5
ENDBRANCH   3   4
ENDBRANCH   1   3
BRANCH   1  13
HETATM   13  C7  UNL     1      -2.688   0.235  -0.899  1.00  0.00     0.303 C 
BRANCH  13  14
HETATM   14  N2  UNL     1      -3.965  -0.377  -1.244  1.00  0.00    -0.057 N 
ATOM     15  H23 UNL     1      -3.835  -1.193  -1.842  1.00  0.00     0.276 HD
ATOM     16  H22 UNL     1      -4.386  -0.835  -0.436  1.00  0.00     0.276 HD
ATOM     17  H21 UNL     1      -4.608   0.293  -1.666  1.00  0.00     0.276 HD
ENDBRANCH  13  14
BRANCH  13  18
HETATM   18  C8  UNL     1      -2.857   1.445  -0.050  1.00  0.00     0.283 C 
BRANCH  18  19
HETATM   19  N3  UNL     1      -3.362   1.214   1.264  1.00  0.00    -0.076 N 
ATOM     20  H33 UNL     1      -4.241   0.699   1.213  1.00  0.00     0.274 HD
ATOM     21  H32 UNL     1      -2.778   0.530   1.746  1.00  0.00     0.274 HD
ATOM     22  H31 UNL     1      -3.478   2.044   1.846  1.00  0.00     0.274 HD
ENDBRANCH  18  19
ENDBRANCH  13  18
ENDBRANCH   1  13
TORSDOF 7
