REMARK  6 active torsions:
REMARK  status: ('A' for Active; 'I' for Inactive)
REMARK    1  A    between atoms: C2_4  and  N2_5 
REMARK    2  A    between atoms: N2_5  and  C3_7 
REMARK    3  A    between atoms: C3_7  and  C4_8 
REMARK    4  A    between atoms: C4_8  and  N3_9 
REMARK    5  A    between atoms: N3_9  and  C5_12 
REMARK    6  A    between atoms: C5_12  and  C6_13 
ROOT
HETATM    1  C3  UNL     1       1.425  -1.054  -0.975  1.00  0.00     0.165 C 
ENDROOT
BRANCH   1   2
HETATM    2  N2  UNL     1       2.702  -1.531  -0.522  1.00  0.00    -0.223 N 
ATOM      3  H2  UNL     1       2.861  -2.535  -0.435  1.00  0.00     0.177 HD
BRANCH   2   4
HETATM    4  C2  UNL     1       3.654  -0.707  -0.223  1.00  0.00     0.693 A 
HETATM    5  N1  UNL     1       4.888  -0.986   0.209  1.00  0.00    -0.185 N 
HETATM    6  C1  UNL     1       5.562   0.174   0.401  1.00  0.00     0.215 A 
ATOM      7  H1  UNL     1       5.262  -1.921   0.368  1.00  0.00     0.185 HD
HETATM    8  N6  UNL     1       4.719   1.165   0.080  1.00  0.00    -0.281 N 
HETATM    9  N5  UNL     1       3.571   0.626  -0.295  1.00  0.00    -0.131 N 
ATOM     10  H6  UNL     1       4.927   2.163   0.118  1.00  0.00     0.188 HD
ATOM     11  H5  UNL     1       2.747   1.148  -0.594  1.00  0.00     0.205 HD
ENDBRANCH   2   4
ENDBRANCH   1   2
BRANCH   1  12
HETATM   12  C4  UNL     1       0.536  -0.670   0.165  1.00  0.00     0.252 C 
BRANCH  12  13
HETATM   13  N3  UNL     1      -0.719  -0.204  -0.363  1.00  0.00    -0.073 N 
ATOM     14  H32 UNL     1      -0.587   0.551  -1.036  1.00  0.00     0.277 HD
ATOM     15  H31 UNL     1      -1.144  -0.892  -0.984  1.00  0.00     0.277 HD
BRANCH  13  16
HETATM   16  C5  UNL     1      -1.618   0.181   0.700  1.00  0.00     0.240 C 
BRANCH  16  17
HETATM   17  C6  UNL     1      -2.910   0.659   0.124  1.00  0.00     0.062 C 
HETATM   18  C7  UNL     1      -3.674  -0.320  -0.712  1.00  0.00     0.240 C 
HETATM   19  N4  UNL     1      -4.883   0.089   0.016  1.00  0.00    -0.074 N 
HETATM   20  C8  UNL     1      -4.037   0.476   1.132  1.00  0.00     0.240 C 
ATOM     21  H42 UNL     1      -5.537   0.755  -0.396  1.00  0.00     0.277 HD
ATOM     22  H41 UNL     1      -5.654  -0.565   0.151  1.00  0.00     0.277 HD
ENDBRANCH  16  17
ENDBRANCH  13  16
ENDBRANCH  12  13
ENDBRANCH   1  12
TORSDOF 6
