REMARK  12 active torsions:
REMARK  status: ('A' for Active; 'I' for Inactive)
REMARK    1  A    between atoms: C6_6  and  C7_7 
REMARK    2  A    between atoms: C7_7  and  C8_8 
REMARK    3  A    between atoms: C8_8  and  C9_9 
REMARK       I    between atoms: C9_9  and  N1_11 
REMARK    4  A    between atoms: N1_11  and  C10_13 
REMARK    5  A    between atoms: C10_13  and  C11_14 
REMARK    6  A    between atoms: C11_14  and  C12_15 
REMARK    7  A    between atoms: C12_15  and  C13_16 
REMARK    8  A    between atoms: C13_16  and  C14_17 
REMARK    9  A    between atoms: C17_22  and  C18_23 
REMARK   10  A    between atoms: C23_33  and  N5_34 
REMARK   11  A    between atoms: N5_34  and  C26_37 
REMARK   12  A    between atoms: C26_37  and  C27_38 
ROOT
HETATM    1  C14 UNL     1      -1.893  -0.235   0.008  1.00  0.00     0.045 A 
HETATM    2  N2  UNL     1      -1.711   0.971  -0.555  1.00  0.00    -0.366 N 
ATOM      3  H2  UNL     1      -0.859   1.256  -1.037  1.00  0.00     0.165 HD
HETATM    4  C15 UNL     1      -2.777   1.745  -0.406  1.00  0.00     0.102 A 
HETATM    5  C16 UNL     1      -3.734   1.005   0.301  1.00  0.00     0.018 A 
HETATM    6  C17 UNL     1      -5.003   1.540   0.741  1.00  0.00     0.050 C 
HETATM    7  C23 UNL     1      -3.195  -0.218   0.552  1.00  0.00     0.170 A 
ENDROOT
BRANCH   1   8
HETATM    8  C13 UNL     1      -0.863  -1.270   0.094  1.00  0.00     0.059 C 
BRANCH   8   9
HETATM    9  C12 UNL     1       0.271  -1.151  -0.904  1.00  0.00     0.008 C 
BRANCH   9  10
HETATM   10  C11 UNL     1       1.267  -2.294  -0.611  1.00  0.00     0.020 C 
BRANCH  10  11
HETATM   11  C10 UNL     1       1.858  -2.104   0.778  1.00  0.00     0.123 C 
BRANCH  11  12
HETATM   12  N1  UNL     1       2.607  -0.888   0.868  1.00  0.00    -0.358 N 
HETATM   13  C9  UNL     1       3.870  -0.687   0.154  1.00  0.00     0.241 C 
HETATM   14  O1  UNL     1       4.281  -1.687  -0.495  1.00  0.00    -0.269 OA
ATOM     15  H1  UNL     1       2.248  -0.133   1.452  1.00  0.00     0.162 HD
BRANCH  13  16
HETATM   16  C8  UNL     1       4.545   0.565   0.218  1.00  0.00     0.076 C 
BRANCH  16  17
HETATM   17  C7  UNL     1       5.984   0.706   0.492  1.00  0.00     0.036 C 
BRANCH  17  18
HETATM   18  C6  UNL     1       6.968   0.179   0.010  1.00  0.00     0.040 A 
HETATM   19  C4  UNL     1       8.049  -0.397  -0.516  1.00  0.00    -0.034 A 
HETATM   20  C3  UNL     1       9.297  -0.253  -0.885  1.00  0.00     0.021 A 
HETATM   21  C5  UNL     1       7.589  -1.929  -0.731  1.00  0.00     0.050 C 
HETATM   22  C2  UNL     1       9.857   1.006  -0.701  1.00  0.00    -0.029 A 
HETATM   23  C1  UNL     1      11.073   1.273  -1.015  1.00  0.00     0.025 C 
HETATM   24  C29 UNL     1       8.947   1.865  -0.151  1.00  0.00     0.101 A 
HETATM   25  N7  UNL     1       7.768   1.631   0.167  1.00  0.00    -0.360 N 
HETATM   26  C28 UNL     1       6.888   2.665   0.609  1.00  0.00     0.155 C 
ENDBRANCH  17  18
ENDBRANCH  16  17
ENDBRANCH  13  16
ENDBRANCH  11  12
ENDBRANCH  10  11
ENDBRANCH   9  10
ENDBRANCH   8   9
ENDBRANCH   1   8
BRANCH   7  27
HETATM   27  N5  UNL     1      -3.732  -1.356   1.178  1.00  0.00    -0.034 N 
HETATM   28  C24 UNL     1      -2.890  -1.832   2.263  1.00  0.00     0.279 C 
HETATM   29  C25 UNL     1      -3.835  -2.419   0.152  1.00  0.00     0.279 C 
BRANCH  27  30
HETATM   30  C26 UNL     1      -5.067  -1.223   1.695  1.00  0.00     0.342 C 
BRANCH  30  31
HETATM   31  C27 UNL     1      -5.606  -2.536   2.195  1.00  0.00     0.257 C 
HETATM   32  N6  UNL     1      -6.893  -2.688   2.735  1.00  0.00    -0.061 NA
HETATM   33  O3  UNL     1      -4.919  -3.615   2.157  1.00  0.00    -0.275 OA
ENDBRANCH  30  31
ENDBRANCH  27  30
ENDBRANCH   7  27
BRANCH   6  34
HETATM   34  C18 UNL     1      -6.026   1.930   0.055  1.00  0.00     0.103 A 
HETATM   35  N3  UNL     1      -6.215   1.954  -1.273  1.00  0.00    -0.338 N 
HETATM   36  C19 UNL     1      -7.446   2.451  -1.543  1.00  0.00     0.104 A 
ATOM     37  H3  UNL     1      -5.538   1.646  -1.971  1.00  0.00     0.167 HD
HETATM   38  C20 UNL     1      -8.013   2.635  -2.715  1.00  0.00     0.018 C 
HETATM   39  N4  UNL     1      -8.060   2.755  -0.355  1.00  0.00    -0.308 N 
HETATM   40  C21 UNL     1      -7.338   2.301  -3.968  1.00  0.00     0.040 C 
HETATM   41  C22 UNL     1      -7.203   2.440   0.594  1.00  0.00     0.273 A 
ATOM     42  H4  UNL     1      -8.994   3.147  -0.231  1.00  0.00     0.170 HD
HETATM   43  O2  UNL     1      -7.461   2.598   1.824  1.00  0.00    -0.266 OA
ENDBRANCH   6  34
TORSDOF 12
