REMARK  14 active torsions:
REMARK  status: ('A' for Active; 'I' for Inactive)
REMARK    1  A    between atoms: C2_2  and  C3_3 
REMARK    2  A    between atoms: C3_3  and  C4_4 
REMARK    3  A    between atoms: C4_4  and  C5_5 
REMARK    4  A    between atoms: C5_5  and  C6_6 
REMARK    5  A    between atoms: C8_10  and  C9_11 
REMARK    6  A    between atoms: C9_11  and  C10_12 
REMARK    7  A    between atoms: C17_21  and  C18_22 
REMARK    8  A    between atoms: C18_22  and  C19_23 
REMARK    9  A    between atoms: N3_24  and  N4_26 
REMARK   10  A    between atoms: C20_31  and  O1_32 
REMARK   11  A    between atoms: C20_31  and  N6_34 
REMARK   12  A    between atoms: N6_34  and  C21_36 
REMARK   13  A    between atoms: C21_36  and  C23_38 
REMARK       I    between atoms: C23_38  and  N7_40 
REMARK   14  A    between atoms: C27_44  and  C28_45 
ROOT
HETATM    1  C6  UNL     1      -2.299  -2.538   0.544  1.00  0.00    -0.030 A 
HETATM    2  C7  UNL     1      -2.895  -3.201  -0.504  1.00  0.00     0.096 A 
HETATM    3  N1  UNL     1      -4.104  -2.613  -0.754  1.00  0.00    -0.365 N 
ATOM      4  H1  UNL     1      -4.759  -2.903  -1.480  1.00  0.00     0.165 HD
HETATM    5  C8  UNL     1      -4.298  -1.596   0.102  1.00  0.00     0.041 A 
HETATM    6  C17 UNL     1      -3.153  -1.556   0.918  1.00  0.00    -0.019 A 
ENDROOT
BRANCH   1   7
HETATM    7  C5  UNL     1      -0.960  -2.863   1.122  1.00  0.00     0.068 C 
BRANCH   7   8
HETATM    8  C4  UNL     1       0.079  -1.986   0.683  1.00  0.00    -0.006 C 
BRANCH   8   9
HETATM    9  C3  UNL     1       1.146  -2.317  -0.053  1.00  0.00     0.010 C 
HETATM   10  C20 UNL     1       2.033  -1.217  -0.343  1.00  0.00     0.146 C 
BRANCH   9  11
HETATM   11  C2  UNL     1       1.335  -3.662  -0.485  1.00  0.00     0.005 C 
HETATM   12  C1  UNL     1       2.228  -4.274  -1.173  1.00  0.00     0.012 C 
ENDBRANCH   9  11
BRANCH  10  13
HETATM   13  O1  UNL     1       1.653  -0.051   0.165  1.00  0.00    -0.346 OA
ATOM     14  H1  UNL     1       2.237   0.673  -0.026  1.00  0.00     0.219 HD
ENDBRANCH  10  13
BRANCH  10  15
HETATM   15  N6  UNL     1       3.217  -1.141  -1.058  1.00  0.00    -0.357 N 
ATOM     16  H6  UNL     1       3.604  -1.978  -1.495  1.00  0.00     0.162 HD
BRANCH  15  17
HETATM   17  C21 UNL     1       3.925   0.165  -1.189  1.00  0.00     0.172 C 
HETATM   18  C22 UNL     1       4.042   0.440  -2.654  1.00  0.00     0.042 C 
BRANCH  17  19
HETATM   19  C23 UNL     1       5.271   0.023  -0.600  1.00  0.00     0.243 C 
HETATM   20  O2  UNL     1       5.613  -1.117  -0.131  1.00  0.00    -0.271 OA
HETATM   21  N7  UNL     1       6.178   1.107  -0.543  1.00  0.00    -0.337 N 
HETATM   22  C24 UNL     1       5.931   2.434  -1.024  1.00  0.00     0.127 C 
HETATM   23  C27 UNL     1       7.505   1.044   0.016  1.00  0.00     0.176 C 
HETATM   24  C25 UNL     1       7.184   3.237  -0.734  1.00  0.00     0.022 C 
HETATM   25  C26 UNL     1       8.253   2.154  -0.684  1.00  0.00     0.036 C 
BRANCH  23  26
HETATM   26  C28 UNL     1       7.494   1.203   1.492  1.00  0.00     0.254 C 
HETATM   27  N8  UNL     1       6.287   1.381   2.178  1.00  0.00    -0.060 NA
HETATM   28  O3  UNL     1       8.585   1.174   2.109  1.00  0.00    -0.275 OA
ENDBRANCH  23  26
ENDBRANCH  17  19
ENDBRANCH  15  17
ENDBRANCH  10  15
ENDBRANCH   8   9
ENDBRANCH   7   8
ENDBRANCH   1   7
BRANCH   6  29
HETATM   29  C18 UNL     1      -3.009  -0.556   2.003  1.00  0.00     0.087 C 
BRANCH  29  30
HETATM   30  C19 UNL     1      -3.257  -1.176   3.353  1.00  0.00     0.086 C 
HETATM   31  N3  UNL     1      -4.068  -2.161   3.495  1.00  0.00    -0.302 N 
ATOM     32  H3  UNL     1      -4.557  -2.535   2.682  1.00  0.00     0.187 HD
BRANCH  31  33
HETATM   33  N4  UNL     1      -4.284  -2.721   4.748  1.00  0.00    -0.250 N 
HETATM   34  N5  UNL     1      -5.015  -2.125   5.618  1.00  0.00    -0.331 N 
ATOM     35  H52 UNL     1      -5.436  -1.229   5.371  1.00  0.00     0.178 HD
ATOM     36  H51 UNL     1      -5.174  -2.536   6.538  1.00  0.00     0.178 HD
ATOM     37  H4  UNL     1      -3.856  -3.617   4.979  1.00  0.00     0.207 HD
ENDBRANCH  31  33
ENDBRANCH  29  30
ENDBRANCH   6  29
BRANCH   5  38
HETATM   38  C9  UNL     1      -5.473  -0.741   0.134  1.00  0.00     0.060 C 
BRANCH  38  39
HETATM   39  C10 UNL     1      -5.510   0.458  -0.407  1.00  0.00     0.041 A 
HETATM   40  N2  UNL     1      -4.508   1.075  -1.057  1.00  0.00    -0.356 N 
HETATM   41  C11 UNL     1      -4.924   2.306  -1.472  1.00  0.00     0.029 A 
ATOM     42  H2  UNL     1      -3.580   0.683  -1.215  1.00  0.00     0.166 HD
HETATM   43  C12 UNL     1      -4.186   3.165  -2.137  1.00  0.00     0.043 C 
HETATM   44  C13 UNL     1      -6.237   2.481  -1.074  1.00  0.00    -0.028 A 
HETATM   45  C14 UNL     1      -7.104   3.684  -1.312  1.00  0.00     0.051 C 
HETATM   46  C15 UNL     1      -6.585   1.316  -0.411  1.00  0.00    -0.027 A 
HETATM   47  C16 UNL     1      -7.904   1.020   0.208  1.00  0.00     0.051 C 
ENDBRANCH  38  39
ENDBRANCH   5  38
TORSDOF 14
