REMARK  10 active torsions:
REMARK  status: ('A' for Active; 'I' for Inactive)
REMARK    1  A    between atoms: C6_12  and  C7_13 
REMARK    2  A    between atoms: C7_13  and  C8_14 
REMARK    3  A    between atoms: C8_14  and  C9_15 
REMARK    4  A    between atoms: C8_14  and  N8_39 
REMARK    5  A    between atoms: C9_15  and  C10_16 
REMARK    6  A    between atoms: C19_29  and  N5_30 
REMARK    7  A    between atoms: N8_39  and  C24_42 
REMARK    8  A    between atoms: C24_42  and  C25_43 
REMARK    9  A    between atoms: C25_43  and  C26_44 
REMARK   10  A    between atoms: C26_44  and  N9_45 
ROOT
HETATM    1  C8  UNL     1      -1.773   0.786  -0.284  1.00  0.00     0.195 C 
ENDROOT
BRANCH   1   2
HETATM    2  C7  UNL     1      -1.676   2.099  -1.045  1.00  0.00     0.062 C 
BRANCH   2   3
HETATM    3  C6  UNL     1      -1.452   3.272  -0.227  1.00  0.00     0.007 C 
HETATM    4  C5  UNL     1      -2.102   4.302   0.186  1.00  0.00     0.057 A 
HETATM    5  C2  UNL     1      -3.410   4.633  -0.071  1.00  0.00     0.052 A 
HETATM    6  N2  UNL     1      -1.426   5.238   0.922  1.00  0.00    -0.317 N 
HETATM    7  C1  UNL     1      -4.257   3.886  -0.733  1.00  0.00     0.045 C 
HETATM    8  N1  UNL     1      -3.953   5.814   0.387  1.00  0.00    -0.318 N 
HETATM    9  C3  UNL     1      -3.224   6.676   1.099  1.00  0.00     0.314 A 
ATOM     10  H1  UNL     1      -4.927   6.033   0.179  1.00  0.00     0.169 HD
HETATM   11  O1  UNL     1      -3.701   7.753   1.525  1.00  0.00    -0.262 OA
HETATM   12  C4  UNL     1      -1.930   6.379   1.373  1.00  0.00     0.314 A 
HETATM   13  O2  UNL     1      -1.193   7.171   2.050  1.00  0.00    -0.262 OA
ATOM     14  H2  UNL     1      -0.450   5.041   1.143  1.00  0.00     0.169 HD
ENDBRANCH   2   3
ENDBRANCH   1   2
BRANCH   1  15
HETATM   15  C9  UNL     1      -0.566   0.422   0.483  1.00  0.00     0.090 C 
BRANCH  15  16
HETATM   16  C10 UNL     1       0.644   0.178  -0.335  1.00  0.00     0.012 A 
HETATM   17  C11 UNL     1       1.902   0.039   0.315  1.00  0.00     0.041 A 
HETATM   18  C12 UNL     1       2.809  -0.220  -0.660  1.00  0.00     0.020 A 
HETATM   19  C13 UNL     1       2.135  -0.244  -1.890  1.00  0.00     0.045 A 
HETATM   20  C23 UNL     1       4.185  -0.467  -0.624  1.00  0.00     0.057 A 
HETATM   21  C14 UNL     1       2.813  -0.508  -3.053  1.00  0.00     0.031 A 
HETATM   22  N7  UNL     1       0.835   0.002  -1.634  1.00  0.00    -0.359 N 
HETATM   23  C15 UNL     1       4.153  -0.752  -3.026  1.00  0.00     0.016 A 
HETATM   24  C16 UNL     1       4.840  -0.735  -1.829  1.00  0.00    -0.006 A 
HETATM   25  C17 UNL     1       6.182  -1.007  -1.816  1.00  0.00     0.047 A 
HETATM   26  C18 UNL     1       6.866  -1.016  -0.634  1.00  0.00     0.079 A 
HETATM   27  N3  UNL     1       8.154  -1.265  -0.321  1.00  0.00    -0.297 N 
HETATM   28  C21 UNL     1       6.210  -0.750   0.530  1.00  0.00     0.108 A 
HETATM   29  N4  UNL     1       8.324  -1.170   0.965  1.00  0.00    -0.283 N 
ATOM     30  H3  UNL     1       8.886  -1.494  -0.993  1.00  0.00     0.187 HD
HETATM   31  C19 UNL     1       7.122  -0.846   1.548  1.00  0.00     0.145 A 
ATOM     32  H4  UNL     1       9.205  -1.313   1.460  1.00  0.00     0.188 HD
HETATM   33  N6  UNL     1       4.861  -0.468   0.551  1.00  0.00    -0.345 N 
HETATM   34  C22 UNL     1       4.259  -0.108   1.788  1.00  0.00     0.156 C 
ATOM     35  H7  UNL     1       0.101   0.046  -2.341  1.00  0.00     0.166 HD
BRANCH  31  36
HETATM   36  N5  UNL     1       6.973  -0.708   2.819  1.00  0.00    -0.378 N 
HETATM   37  C20 UNL     1       8.067  -0.886   3.713  1.00  0.00     0.148 C 
ATOM     38  H5  UNL     1       6.055  -0.467   3.192  1.00  0.00     0.160 HD
ENDBRANCH  31  36
ENDBRANCH  15  16
ENDBRANCH   1  15
BRANCH   1  39
HETATM   39  N8  UNL     1      -2.919   0.697   0.540  1.00  0.00    -0.070 N 
ATOM     40  H82 UNL     1      -2.806   1.264   1.381  1.00  0.00     0.277 HD
ATOM     41  H81 UNL     1      -3.710   1.182   0.115  1.00  0.00     0.277 HD
BRANCH  39  42
HETATM   42  C24 UNL     1      -3.267  -0.641   0.875  1.00  0.00     0.234 C 
BRANCH  42  43
HETATM   43  C25 UNL     1      -3.778  -1.466  -0.314  1.00  0.00     0.055 C 
BRANCH  43  44
HETATM   44  C26 UNL     1      -4.089  -2.836   0.275  1.00  0.00     0.237 C 
BRANCH  44  45
HETATM   45  N9  UNL     1      -4.597  -3.766  -0.697  1.00  0.00    -0.079 N 
HETATM   46  C27 UNL     1      -3.654  -4.150  -1.703  1.00  0.00     0.271 C 
HETATM   47  C28 UNL     1      -5.785  -3.187  -1.326  1.00  0.00     0.271 C 
HETATM   48  C29 UNL     1      -5.038  -4.948   0.030  1.00  0.00     0.271 C 
ENDBRANCH  44  45
ENDBRANCH  43  44
ENDBRANCH  42  43
ENDBRANCH  39  42
ENDBRANCH   1  39
TORSDOF 10
