REMARK  15 active torsions:
REMARK  status: ('A' for Active; 'I' for Inactive)
REMARK    1  A    between atoms: C2_2  and  C3_3 
REMARK    2  A    between atoms: C2_2  and  C5_5 
REMARK    3  A    between atoms: C5_5  and  C6_6 
REMARK    4  A    between atoms: C5_5  and  C8_8 
REMARK    5  A    between atoms: C8_8  and  C9_9 
REMARK    6  A    between atoms: C10_10  and  C11_11 
REMARK    7  A    between atoms: C11_11  and  C12_12 
REMARK    8  A    between atoms: C13_13  and  C14_14 
REMARK    9  A    between atoms: C14_14  and  C16_16 
REMARK   10  A    between atoms: C14_14  and  N1_23 
REMARK   11  A    between atoms: C16_16  and  C17_17 
REMARK       I    between atoms: N1_23  and  C23_25 
REMARK   12  A    between atoms: C23_25  and  C24_27 
REMARK   13  A    between atoms: C24_27  and  C25_28 
REMARK   14  A    between atoms: C25_28  and  N2_29 
REMARK   15  A    between atoms: N5_33  and  N6_34 
ROOT
HETATM    1  C14 UNL     1      -0.316   2.372  -2.060  1.00  0.00     0.097 C 
HETATM    2  C15 UNL     1       0.105   2.120  -3.566  1.00  0.00     0.053 C 
ENDROOT
BRANCH   1   3
HETATM    3  C13 UNL     1       0.317   1.246  -1.332  1.00  0.00    -0.074 C 
HETATM    4  C12 UNL     1       0.845   0.346  -0.731  1.00  0.00    -0.092 C 
BRANCH   4   5
HETATM    5  C11 UNL     1       1.466  -0.762  -0.007  1.00  0.00     0.187 C 
BRANCH   5   6
HETATM    6  C10 UNL     1       2.926  -0.676   0.005  1.00  0.00    -0.095 C 
HETATM    7  C9  UNL     1       4.128  -0.614   0.035  1.00  0.00    -0.105 C 
BRANCH   7   8
HETATM    8  C8  UNL     1       5.602  -0.545   0.094  1.00  0.00     0.103 C 
BRANCH   8   9
HETATM    9  C5  UNL     1       6.105  -1.945   0.368  1.00  0.00     0.024 C 
BRANCH   9  10
HETATM   10  C2  UNL     1       7.590  -1.973   0.446  1.00  0.00    -0.085 C 
HETATM   11  C1  UNL     1       8.288  -0.859   0.282  1.00  0.00     0.014 C 
BRANCH  10  12
HETATM   12  C3  UNL     1       8.322  -3.235   0.706  1.00  0.00     0.029 C 
HETATM   13  C4  UNL     1       9.814  -2.991   0.736  1.00  0.00     0.010 C 
ENDBRANCH  10  12
ENDBRANCH   9  10
BRANCH   9  14
HETATM   14  C6  UNL     1       5.706  -2.885  -0.759  1.00  0.00     0.005 C 
HETATM   15  C7  UNL     1       6.299  -2.443  -2.076  1.00  0.00     0.006 C 
ENDBRANCH   9  14
ENDBRANCH   8   9
ENDBRANCH   7   8
ENDBRANCH   5   6
ENDBRANCH   4   5
ENDBRANCH   1   3
BRANCH   1  16
HETATM   16  C16 UNL     1       0.256   3.699  -1.765  1.00  0.00     0.082 C 
BRANCH  16  17
HETATM   17  C17 UNL     1       0.216   4.216  -0.411  1.00  0.00    -0.055 A 
HETATM   18  C18 UNL     1       1.162   3.852   0.522  1.00  0.00     0.007 A 
HETATM   19  C19 UNL     1       1.101   4.421   1.791  1.00  0.00     0.001 A 
HETATM   20  C20 UNL     1       0.133   5.333   2.155  1.00  0.00     0.000 A 
HETATM   21  C21 UNL     1      -0.807   5.687   1.213  1.00  0.00     0.001 A 
HETATM   22  C22 UNL     1      -0.748   5.128  -0.038  1.00  0.00     0.007 A 
ENDBRANCH  16  17
ENDBRANCH   1  16
BRANCH   1  23
HETATM   23  N1  UNL     1      -1.721   2.215  -2.057  1.00  0.00    -0.341 N 
HETATM   24  C23 UNL     1      -2.476   1.969  -0.856  1.00  0.00     0.220 C 
HETATM   25  O1  UNL     1      -1.930   1.863   0.262  1.00  0.00    -0.274 OA
ATOM     26  H1  UNL     1      -2.221   2.279  -2.944  1.00  0.00     0.164 HD
BRANCH  24  27
HETATM   27  C24 UNL     1      -3.947   1.837  -0.943  1.00  0.00     0.134 C 
BRANCH  27  28
HETATM   28  C25 UNL     1      -4.635   1.454   0.299  1.00  0.00     0.297 C 
BRANCH  28  29
HETATM   29  N2  UNL     1      -4.342   0.194   0.884  1.00  0.00     0.127 N 
HETATM   30  C26 UNL     1      -3.694  -0.812   0.118  1.00  0.00     0.327 C 
HETATM   31  N3  UNL     1      -3.664   0.362   2.126  1.00  0.00     0.105 NA
HETATM   32  N4  UNL     1      -4.524  -0.685   2.596  1.00  0.00     0.025 NA
HETATM   33  N5  UNL     1      -5.432  -0.224   1.665  1.00  0.00     0.105 NA
BRANCH  33  34
HETATM   34  N6  UNL     1      -6.268  -1.186   1.170  1.00  0.00    -0.142 N 
HETATM   35  N7  UNL     1      -6.823  -1.166  -0.114  1.00  0.00    -0.314 N 
HETATM   36  C27 UNL     1      -6.878  -2.403  -0.801  1.00  0.00     0.141 C 
ATOM     37  H7  UNL     1      -7.170  -0.304  -0.534  1.00  0.00     0.182 HD
HETATM   38  C28 UNL     1      -6.825  -3.638   0.036  1.00  0.00     0.031 C 
HETATM   39  C29 UNL     1      -7.520  -3.317   1.342  1.00  0.00     0.108 C 
HETATM   40  C30 UNL     1      -6.635  -2.283   1.998  1.00  0.00     0.256 C 
HETATM   41  O2  UNL     1      -6.276  -2.427   3.197  1.00  0.00    -0.270 OA
ENDBRANCH  33  34
ENDBRANCH  28  29
ENDBRANCH  27  28
ENDBRANCH  24  27
ENDBRANCH   1  23
TORSDOF 15
