REMARK  5 active torsions:
REMARK  status: ('A' for Active; 'I' for Inactive)
REMARK    1  A    between atoms: O1_2  and  C2_3 
REMARK    2  A    between atoms: C2_3  and  C3_5 
REMARK    3  A    between atoms: N2_14  and  C10_16 
REMARK    4  A    between atoms: C10_16  and  C11_18 
REMARK    5  A    between atoms: C11_18  and  C12_20 
ROOT
HETATM    1  C3  UNL     1      -2.676  -0.412   0.356  1.00  0.00     0.155 C 
HETATM    2  C4  UNL     1      -3.448  -1.045  -0.772  1.00  0.00    -0.003 C 
HETATM    3  C5  UNL     1      -3.007  -2.149  -1.337  1.00  0.00     0.049 C 
HETATM    4  C6  UNL     1      -1.800  -2.827  -0.948  1.00  0.00     0.172 C 
HETATM    5  O3  UNL     1      -1.534  -3.942  -1.465  1.00  0.00    -0.291 OA
HETATM    6  C7  UNL     1      -0.886  -2.200   0.056  1.00  0.00     0.212 C 
HETATM    7  C8  UNL     1      -1.179  -2.869   1.336  1.00  0.00     0.078 C 
HETATM    8  N1  UNL     1      -1.411  -3.376   2.348  1.00  0.00    -0.196 NA
HETATM    9  C9  UNL     1      -1.258  -0.773   0.146  1.00  0.00     0.026 C 
HETATM   10  N2  UNL     1      -0.372   0.129   0.043  1.00  0.00    -0.375 N 
ATOM     11  H2  UNL     1      -0.681   1.099   0.111  1.00  0.00     0.160 HD
ENDROOT
BRANCH   1  12
HETATM   12  C2  UNL     1      -2.883   1.064   0.347  1.00  0.00     0.271 C 
HETATM   13  O2  UNL     1      -3.393   1.624   1.349  1.00  0.00    -0.264 OA
BRANCH  12  14
HETATM   14  O1  UNL     1      -2.533   1.837  -0.727  1.00  0.00    -0.326 OA
HETATM   15  C1  UNL     1      -2.713   3.246  -0.777  1.00  0.00     0.213 C 
ENDBRANCH  12  14
ENDBRANCH   1  12
BRANCH  10  16
HETATM   16  C10 UNL     1       1.010  -0.101  -0.158  1.00  0.00     0.202 C 
HETATM   17 CL1  UNL     1       1.356  -0.598  -1.850  1.00  0.00    -0.101 Cl
BRANCH  16  18
HETATM   18  C11 UNL     1       1.759   1.211   0.048  1.00  0.00     0.159 C 
HETATM   19 CL2  UNL     1       1.453   1.759   1.707  1.00  0.00    -0.116 Cl
BRANCH  18  20
HETATM   20  C12 UNL     1       3.220   0.980  -0.141  1.00  0.00     0.005 A 
HETATM   21  C13 UNL     1       4.033   0.099   0.521  1.00  0.00     0.018 A 
HETATM   22  C14 UNL     1       5.323   0.069   0.177  1.00  0.00     0.028 A 
HETATM   23  C15 UNL     1       5.736   0.922  -0.812  1.00  0.00     0.051 A 
HETATM   24 BR1  UNL     1       7.510   1.129  -1.537  1.00  0.00    -0.043 Br
HETATM   25  S1  UNL     1       4.292   1.741  -1.227  1.00  0.00    -0.086 SA
ENDBRANCH  18  20
ENDBRANCH  16  18
ENDBRANCH  10  16
TORSDOF 5
