REMARK  4 active torsions:
REMARK  status: ('A' for Active; 'I' for Inactive)
REMARK    1  A    between atoms: O1_2  and  C2_3 
REMARK    2  A    between atoms: C4_5  and  C5_6 
REMARK    3  A    between atoms: C12_17  and  C13_18 
REMARK    4  A    between atoms: C13_18  and  N1_20 
ROOT
HETATM    1  C2  UNL     1      -4.150   0.953   0.076  1.00  0.00     0.089 A 
HETATM    2  C3  UNL     1      -3.966  -0.321   0.517  1.00  0.00     0.051 A 
HETATM    3  C4  UNL     1      -2.774  -1.064   0.315  1.00  0.00     0.025 A 
HETATM    4  C6  UNL     1      -1.787  -0.429  -0.363  1.00  0.00     0.063 A 
HETATM    5  C7  UNL     1      -1.947   0.901  -0.834  1.00  0.00     0.104 A 
HETATM    6  C8  UNL     1      -3.130   1.566  -0.604  1.00  0.00     0.078 A 
HETATM    7 BR1  UNL     1      -3.366   3.349  -1.226  1.00  0.00    -0.045 Br
HETATM    8  O2  UNL     1      -1.011   1.627  -1.520  1.00  0.00    -0.344 OA
HETATM    9  C9  UNL     1       0.229   1.385  -2.089  1.00  0.00     0.217 C 
HETATM   10  C10 UNL     1       1.088   0.393  -1.386  1.00  0.00     0.007 A 
HETATM   11  C11 UNL     1       2.475   0.475  -1.293  1.00  0.00     0.052 A 
HETATM   12  C12 UNL     1       2.871  -0.633  -0.580  1.00  0.00     0.114 A 
HETATM   13  O3  UNL     1       1.834  -1.362  -0.244  1.00  0.00    -0.303 OA
HETATM   14  C16 UNL     1       0.760  -0.767  -0.716  1.00  0.00     0.135 A 
HETATM   15  C17 UNL     1      -0.616  -1.266  -0.555  1.00  0.00     0.220 C 
HETATM   16  O4  UNL     1      -0.799  -2.482  -0.585  1.00  0.00    -0.284 OA
ENDROOT
BRANCH  12  17
HETATM   17  C13 UNL     1       4.274  -0.963  -0.236  1.00  0.00     0.132 C 
HETATM   18  S1  UNL     1       4.972  -2.323  -0.800  1.00  0.00    -0.058 SA
BRANCH  17  19
HETATM   19  N1  UNL     1       5.021  -0.099   0.589  1.00  0.00    -0.378 N 
HETATM   20  C14 UNL     1       6.378  -0.413   0.926  1.00  0.00     0.150 C 
HETATM   21  C15 UNL     1       4.434   1.114   1.107  1.00  0.00     0.150 C 
ENDBRANCH  17  19
ENDBRANCH  12  17
BRANCH   3  22
HETATM   22  C5  UNL     1      -2.661  -2.387   0.864  1.00  0.00     0.388 C 
HETATM   23  F1  UNL     1      -3.515  -2.567   1.991  1.00  0.00    -0.209 F 
HETATM   24  F2  UNL     1      -3.507  -3.109  -0.041  1.00  0.00    -0.209 F 
ENDBRANCH   3  22
BRANCH   1  25
HETATM   25  O1  UNL     1      -5.364   1.636   0.312  1.00  0.00    -0.354 OA
HETATM   26  C1  UNL     1      -6.388   0.955   1.020  1.00  0.00     0.210 C 
ENDBRANCH   1  25
TORSDOF 4
