REMARK  6 active torsions:
REMARK  status: ('A' for Active; 'I' for Inactive)
REMARK    1  A    between atoms: O1_2  and  C2_3 
REMARK    2  A    between atoms: C6_8  and  S1_9 
REMARK    3  A    between atoms: S1_9  and  C7_10 
REMARK    4  A    between atoms: N1_20  and  C12_21 
REMARK    5  A    between atoms: C12_21  and  O4_22 
REMARK    6  A    between atoms: C12_21  and  N2_24 
ROOT
HETATM    1  C7  UNL     1      -0.606   0.458  -0.027  1.00  0.00     0.105 C 
HETATM    2  C8  UNL     1      -0.818   1.922  -0.386  1.00  0.00     0.053 C 
HETATM    3  C9  UNL     1       0.056   0.299   1.306  1.00  0.00     0.099 C 
HETATM    4  C10 UNL     1      -0.935   0.652   2.332  1.00  0.00     0.094 C 
HETATM    5  C11 UNL     1      -0.786   1.237   3.461  1.00  0.00     0.122 C 
HETATM    6 CL1  UNL     1      -2.110   1.584   4.585  1.00  0.00    -0.070 Cl
HETATM    7 CL2  UNL     1       0.823   1.743   3.963  1.00  0.00    -0.070 Cl
HETATM    8  S2  UNL     1      -2.461   0.057   1.624  1.00  0.00     0.268 S 
HETATM    9  O2  UNL     1      -2.835  -1.200   2.315  1.00  0.00    -0.200 OA
HETATM   10  O3  UNL     1      -3.496   1.144   1.711  1.00  0.00    -0.200 OA
HETATM   11  N1  UNL     1      -1.908  -0.210   0.026  1.00  0.00    -0.216 N 
ENDROOT
BRANCH   1  12
HETATM   12  S1  UNL     1       0.483  -0.251  -1.266  1.00  0.00    -0.094 SA
BRANCH  12  13
HETATM   13  C6  UNL     1       2.120   0.455  -1.195  1.00  0.00     0.044 A 
HETATM   14  C5  UNL     1       2.477   1.582  -1.929  1.00  0.00     0.133 A 
HETATM   15  C4  UNL     1       3.768   2.069  -1.821  1.00  0.00     0.046 A 
HETATM   16  F1  UNL     1       1.555   2.177  -2.732  1.00  0.00    -0.205 F 
HETATM   17  C3  UNL     1       4.727   1.488  -1.014  1.00  0.00     0.040 A 
HETATM   18  C2  UNL     1       4.365   0.370  -0.289  1.00  0.00     0.069 A 
HETATM   19  C15 UNL     1       3.077  -0.127  -0.389  1.00  0.00     0.058 A 
BRANCH  18  20
HETATM   20  O1  UNL     1       5.335  -0.209   0.519  1.00  0.00    -0.356 OA
HETATM   21  C1  UNL     1       5.049  -1.367   1.303  1.00  0.00     0.210 C 
ENDBRANCH  18  20
ENDBRANCH  12  13
ENDBRANCH   1  12
BRANCH  11  22
HETATM   22  C12 UNL     1      -2.501  -0.881  -1.029  1.00  0.00     0.232 C 
BRANCH  22  23
HETATM   23  O4  UNL     1      -1.785  -0.875  -2.130  1.00  0.00    -0.332 OA
ATOM     24  H4  UNL     1      -2.192  -1.336  -2.854  1.00  0.00     0.221 HD
ENDBRANCH  22  23
BRANCH  22  25
HETATM   25  N2  UNL     1      -3.723  -1.559  -1.123  1.00  0.00    -0.355 N 
HETATM   26  C13 UNL     1      -4.735  -1.746  -0.127  1.00  0.00     0.152 C 
HETATM   27  C14 UNL     1      -4.024  -2.179  -2.431  1.00  0.00     0.152 C 
ENDBRANCH  22  25
ENDBRANCH  11  22
TORSDOF 6
