REMARK  13 active torsions:
REMARK  status: ('A' for Active; 'I' for Inactive)
REMARK    1  A    between atoms: C2_2  and  C3_3 
REMARK    2  A    between atoms: C3_3  and  C4_4 
REMARK    3  A    between atoms: C4_4  and  C5_5 
REMARK    4  A    between atoms: C5_5  and  C6_6 
REMARK    5  A    between atoms: C5_5  and  C12_13 
REMARK    6  A    between atoms: C6_6  and  N1_7 
REMARK       I    between atoms: C12_13  and  N2_15 
REMARK    7  A    between atoms: N2_15  and  C13_17 
REMARK    8  A    between atoms: C13_17  and  C14_18 
REMARK    9  A    between atoms: C15_19  and  C16_20 
REMARK   10  A    between atoms: C18_24  and  N4_25 
REMARK   11  A    between atoms: N5_28  and  C19_29 
REMARK   12  A    between atoms: C19_29  and  C20_30 
REMARK   13  A    between atoms: C21_31  and  C22_32 
ROOT
HETATM    1  C16 UNL     1       2.682  -2.500  -0.170  1.00  0.00     0.056 A 
HETATM    2  C17 UNL     1       3.005  -3.121  -1.355  1.00  0.00     0.128 A 
HETATM    3  N3  UNL     1       4.310  -3.273  -1.652  1.00  0.00    -0.201 N 
ATOM      4  H3  UNL     1       4.569  -3.731  -2.526  1.00  0.00     0.183 HD
HETATM    5  C18 UNL     1       5.277  -2.840  -0.833  1.00  0.00     0.679 A 
HETATM    6  N5  UNL     1       5.007  -2.222   0.347  1.00  0.00    -0.175 N 
HETATM    7  C26 UNL     1       3.714  -2.061   0.662  1.00  0.00     0.046 A 
HETATM    8  C27 UNL     1       3.314  -1.396   1.928  1.00  0.00     0.070 C 
ENDROOT
BRANCH   1   9
HETATM    9  C15 UNL     1       1.302  -2.297   0.231  1.00  0.00    -0.062 C 
HETATM   10  C14 UNL     1       0.161  -2.131   0.584  1.00  0.00    -0.081 C 
BRANCH  10  11
HETATM   11  C13 UNL     1      -1.222  -1.944   1.021  1.00  0.00     0.217 C 
BRANCH  11  12
HETATM   12  N2  UNL     1      -1.988  -1.534  -0.130  1.00  0.00    -0.346 N 
HETATM   13  C12 UNL     1      -3.382  -1.289   0.061  1.00  0.00     0.253 C 
HETATM   14  O1  UNL     1      -3.813  -1.451   1.210  1.00  0.00    -0.268 OA
ATOM     15  H2  UNL     1      -1.551  -1.423  -1.045  1.00  0.00     0.163 HD
BRANCH  13  16
HETATM   16  C5  UNL     1      -4.201  -0.861  -1.128  1.00  0.00     0.044 C 
BRANCH  16  17
HETATM   17  C4  UNL     1      -3.775   0.421  -1.688  1.00  0.00    -0.008 C 
BRANCH  17  18
HETATM   18  C3  UNL     1      -4.245   1.719  -1.213  1.00  0.00     0.028 C 
BRANCH  18  19
HETATM   19  C2  UNL     1      -3.994   2.045   0.247  1.00  0.00    -0.001 C 
HETATM   20  C1  UNL     1      -2.557   2.109   0.625  1.00  0.00     0.005 C 
ENDBRANCH  18  19
ENDBRANCH  17  18
ENDBRANCH  16  17
BRANCH  16  21
HETATM   21  C6  UNL     1      -5.600  -1.312  -1.138  1.00  0.00     0.112 C 
BRANCH  21  22
HETATM   22  N1  UNL     1      -6.655  -0.619  -0.524  1.00  0.00    -0.342 N 
HETATM   23  C7  UNL     1      -7.353   0.287  -1.226  1.00  0.00     0.096 A 
HETATM   24  C8  UNL     1      -8.395   0.972  -0.692  1.00  0.00     0.018 A 
HETATM   25  C9  UNL     1      -8.770   0.750   0.605  1.00  0.00     0.003 A 
HETATM   26  C10 UNL     1      -8.079  -0.169   1.351  1.00  0.00     0.018 A 
HETATM   27  C11 UNL     1      -7.020  -0.836   0.741  1.00  0.00     0.096 A 
ENDBRANCH  21  22
ENDBRANCH  16  21
ENDBRANCH  13  16
ENDBRANCH  11  12
ENDBRANCH  10  11
ENDBRANCH   1   9
BRANCH   6  28
HETATM   28  C19 UNL     1       6.054  -1.770   1.205  1.00  0.00     0.241 C 
BRANCH  28  29
HETATM   29  C20 UNL     1       6.399  -0.386   0.848  1.00  0.00    -0.080 C 
HETATM   30  C21 UNL     1       6.694   0.747   0.558  1.00  0.00    -0.058 C 
BRANCH  30  31
HETATM   31  C22 UNL     1       7.055   2.086   0.195  1.00  0.00     0.101 A 
HETATM   32  C23 UNL     1       8.255   2.685   0.563  1.00  0.00     0.119 A 
HETATM   33  N6  UNL     1       8.553   3.942   0.202  1.00  0.00    -0.317 N 
HETATM   34  C24 UNL     1       7.708   4.680  -0.530  1.00  0.00     0.327 A 
ATOM     35  H6  UNL     1       9.444   4.345   0.492  1.00  0.00     0.170 HD
HETATM   36  O2  UNL     1       7.995   5.879  -0.873  1.00  0.00    -0.247 OA
HETATM   37  N7  UNL     1       6.539   4.123  -0.899  1.00  0.00    -0.274 N 
HETATM   38  C25 UNL     1       6.206   2.868  -0.556  1.00  0.00     0.269 A 
ATOM     39  H7  UNL     1       5.885   4.672  -1.457  1.00  0.00     0.173 HD
HETATM   40  O3  UNL     1       5.108   2.345  -0.903  1.00  0.00    -0.266 OA
ENDBRANCH  30  31
ENDBRANCH  28  29
ENDBRANCH   6  28
BRANCH   5  41
HETATM   41  N4  UNL     1       6.512  -2.985  -1.120  1.00  0.00    -0.234 N 
ATOM     42  H42 UNL     1       6.715  -3.449  -2.006  1.00  0.00     0.174 HD
ATOM     43  H41 UNL     1       7.249  -2.655  -0.496  1.00  0.00     0.174 HD
ENDBRANCH   5  41
TORSDOF 13
