REMARK  12 active torsions:
REMARK  status: ('A' for Active; 'I' for Inactive)
REMARK    1  A    between atoms: C2_2  and  C3_3 
REMARK    2  A    between atoms: C3_3  and  N1_4 
REMARK    3  A    between atoms: C4_8  and  N3_9 
REMARK    4  A    between atoms: N3_9  and  C5_11 
REMARK    5  A    between atoms: C6_14  and  N5_15 
REMARK    6  A    between atoms: C7_20  and  N7_21 
REMARK    7  A    between atoms: C8_24  and  N8_25 
REMARK    8  A    between atoms: C11_31  and  O3_32 
REMARK    9  A    between atoms: C11_31  and  C12_34 
REMARK   10  A    between atoms: C12_34  and  N10_35 
REMARK   11  A    between atoms: C13_39  and  C14_40 
REMARK   12  A    between atoms: C14_40  and  N13_41 
ROOT
HETATM    1  C1  UNL     1      -0.077   0.139  -2.315  1.00  0.00     0.043 C 
HETATM    2  C2  UNL     1       0.496   0.826  -1.095  1.00  0.00     0.091 A 
HETATM    3  N2  UNL     1      -0.389   0.842   0.020  1.00  0.00    -0.208 NA
HETATM    4  C4  UNL     1      -1.505  -0.050  -0.033  1.00  0.00     0.189 A 
HETATM    5  C9  UNL     1      -0.851  -0.746   1.132  1.00  0.00     0.150 A 
HETATM    6  N9  UNL     1       0.194   0.226   1.098  1.00  0.00    -0.240 NA
HETATM    7  C10 UNL     1       1.512  -0.203   0.760  1.00  0.00     0.150 A 
HETATM    8  C11 UNL     1       1.750   0.092  -0.685  1.00  0.00     0.116 A 
ENDROOT
BRANCH   4   9
HETATM    9  N3  UNL     1      -2.758   0.608   0.241  1.00  0.00    -0.354 N 
ATOM     10  H3  UNL     1      -2.759   1.607   0.446  1.00  0.00     0.163 HD
BRANCH   9  11
HETATM   11  C5  UNL     1      -3.996  -0.098   0.234  1.00  0.00     0.155 A 
HETATM   12  N4  UNL     1      -3.979  -1.411  -0.036  1.00  0.00    -0.174 N 
HETATM   13  C6  UNL     1      -5.144  -2.093  -0.047  1.00  0.00     0.679 A 
ATOM     14  H4  UNL     1      -3.099  -1.888  -0.230  1.00  0.00     0.186 HD
HETATM   15  N6  UNL     1      -6.322  -1.476   0.210  1.00  0.00    -0.175 N 
HETATM   16  C7  UNL     1      -6.343  -0.173   0.480  1.00  0.00     0.151 A 
ATOM     17  H6  UNL     1      -7.192  -2.009   0.197  1.00  0.00     0.186 HD
HETATM   18  C8  UNL     1      -5.177   0.550   0.498  1.00  0.00     0.190 A 
BRANCH  13  19
HETATM   19  N5  UNL     1      -5.169  -3.364  -0.304  1.00  0.00    -0.234 N 
ATOM     20  H52 UNL     1      -4.282  -3.829  -0.498  1.00  0.00     0.174 HD
ATOM     21  H51 UNL     1      -6.049  -3.879  -0.312  1.00  0.00     0.174 HD
ENDBRANCH  13  19
BRANCH  16  22
HETATM   22  N7  UNL     1      -7.481   0.400   0.723  1.00  0.00    -0.383 N 
ATOM     23  H72 UNL     1      -8.348  -0.137   0.710  1.00  0.00     0.157 HD
ATOM     24  H71 UNL     1      -7.497   1.399   0.930  1.00  0.00     0.157 HD
ENDBRANCH  16  22
BRANCH  18  25
HETATM   25  N8  UNL     1      -5.146   1.937   0.778  1.00  0.00    -0.108 N 
HETATM   26  O1  UNL     1      -4.939   2.756  -0.142  1.00  0.00    -0.531 OA
HETATM   27  O2  UNL     1      -5.336   2.449   2.037  1.00  0.00    -0.531 OA
ENDBRANCH  18  25
ENDBRANCH   9  11
ENDBRANCH   4   9
BRANCH   2  28
HETATM   28  C3  UNL     1       0.783   2.236  -1.493  1.00  0.00     0.082 C 
BRANCH  28  29
HETATM   29  N1  UNL     1       0.452   3.260  -0.814  1.00  0.00    -0.409 N 
ATOM     30  H12 UNL     1      -0.043   3.088   0.061  1.00  0.00     0.155 HD
ATOM     31  H11 UNL     1       0.648   4.223  -1.086  1.00  0.00     0.155 HD
ENDBRANCH  28  29
ENDBRANCH   2  28
BRANCH   8  32
HETATM   32  O3  UNL     1       1.890  -1.088  -1.418  1.00  0.00    -0.384 OA
ATOM     33  H3  UNL     1       2.679  -1.550  -1.160  1.00  0.00     0.210 HD
ENDBRANCH   8  32
BRANCH   8  34
HETATM   34  C12 UNL     1       2.913   1.024  -0.923  1.00  0.00     0.208 C 
BRANCH  34  35
HETATM   35  N10 UNL     1       4.188   0.437  -0.567  1.00  0.00    -0.213 N 
HETATM   36  N11 UNL     1       4.978  -0.260  -1.365  1.00  0.00    -0.003 NA
HETATM   37  N12 UNL     1       6.076  -0.651  -0.709  1.00  0.00    -0.269 N 
HETATM   38  C13 UNL     1       5.950  -0.178   0.522  1.00  0.00     0.136 A 
ATOM     39  H12 UNL     1       6.851  -1.200  -1.080  1.00  0.00     0.185 HD
HETATM   40  N14 UNL     1       4.801   0.483   0.605  1.00  0.00    -0.271 N 
ATOM     41  H14 UNL     1       4.447   0.951   1.439  1.00  0.00     0.189 HD
BRANCH  38  42
HETATM   42  C14 UNL     1       6.887  -0.310   1.695  1.00  0.00     0.308 C 
BRANCH  42  43
HETATM   43  N13 UNL     1       8.068  -1.041   1.379  1.00  0.00    -0.073 N 
ATOM     44 3H13 UNL     1       7.838  -1.956   0.990  1.00  0.00     0.274 HD
ATOM     45 2H13 UNL     1       8.545  -0.634   0.574  1.00  0.00     0.274 HD
ATOM     46 1H13 UNL     1       8.702  -1.130   2.173  1.00  0.00     0.274 HD
ENDBRANCH  42  43
ENDBRANCH  38  42
ENDBRANCH  34  35
ENDBRANCH   8  34
TORSDOF 12
