REMARK  10 active torsions:
REMARK  status: ('A' for Active; 'I' for Inactive)
REMARK    1  A    between atoms: C2_3  and  N2_4 
REMARK    2  A    between atoms: N3_6  and  O1_8 
REMARK    3  A    between atoms: C3_10  and  C4_11 
REMARK    4  A    between atoms: C5_16  and  C6_17 
REMARK       I    between atoms: C6_17  and  N6_19 
REMARK    5  A    between atoms: N6_19  and  C7_21 
REMARK    6  A    between atoms: C7_21  and  C8_22 
REMARK    7  A    between atoms: C8_22  and  O4_23 
REMARK    8  A    between atoms: C8_22  and  N7_25 
REMARK    9  A    between atoms: C12_32  and  N10_33 
REMARK   10  A    between atoms: N12_37  and  O5_38 
ROOT
HETATM    1  N7  UNL     1       4.074   0.468   0.389  1.00  0.00    -0.198 N 
HETATM    2  C9  UNL     1       4.924  -0.515   0.058  1.00  0.00     0.210 A 
HETATM    3  C10 UNL     1       5.415  -1.741  -0.380  1.00  0.00     0.177 A 
HETATM    4  C11 UNL     1       4.625  -2.841  -0.828  1.00  0.00     0.122 C 
HETATM    5  N8  UNL     1       3.986  -3.735  -1.202  1.00  0.00    -0.190 NA
HETATM    6  N9  UNL     1       6.754  -1.652  -0.287  1.00  0.00    -0.176 N 
ATOM      7  H9  UNL     1       7.416  -2.388  -0.534  1.00  0.00     0.185 HD
HETATM    8  C12 UNL     1       7.075  -0.442   0.182  1.00  0.00     0.703 A 
HETATM    9  N11 UNL     1       5.949   0.279   0.402  1.00  0.00    -0.023 N 
HETATM   10  N12 UNL     1       5.104   1.241   0.725  1.00  0.00    -0.065 N 
ENDROOT
BRANCH   1  11
HETATM   11  C8  UNL     1       2.620   0.711   0.415  1.00  0.00     0.264 C 
BRANCH  11  12
HETATM   12  C7  UNL     1       1.938  -0.547   0.051  1.00  0.00     0.178 C 
BRANCH  12  13
HETATM   13  N6  UNL     1       0.504  -0.588   0.123  1.00  0.00    -0.351 N 
HETATM   14  C6  UNL     1      -0.435   0.121  -0.607  1.00  0.00     0.274 C 
HETATM   15  O3  UNL     1       0.023   0.929  -1.493  1.00  0.00    -0.266 OA
ATOM     16  H6  UNL     1       0.121  -1.234   0.813  1.00  0.00     0.162 HD
BRANCH  14  17
HETATM   17  C5  UNL     1      -1.871   0.095  -0.527  1.00  0.00     0.170 A 
HETATM   18  N5  UNL     1      -2.624   0.877  -1.369  1.00  0.00    -0.340 N 
HETATM   19  C3  UNL     1      -3.957   0.911  -1.357  1.00  0.00     0.144 A 
ATOM     20  H5  UNL     1      -2.135   1.466  -2.043  1.00  0.00     0.166 HD
HETATM   21  C2  UNL     1      -4.610   0.111  -0.442  1.00  0.00     0.158 A 
HETATM   22  N1  UNL     1      -3.942  -0.680   0.413  1.00  0.00    -0.300 N 
HETATM   23  C1  UNL     1      -4.625  -1.526   1.380  1.00  0.00     0.161 C 
HETATM   24  C13 UNL     1      -2.569  -0.676   0.357  1.00  0.00     0.281 A 
HETATM   25  O6  UNL     1      -2.043  -1.445   1.194  1.00  0.00    -0.265 OA
BRANCH  19  26
HETATM   26  C4  UNL     1      -4.717   1.757  -2.270  1.00  0.00     0.285 C 
HETATM   27  N4  UNL     1      -6.124   1.743  -2.202  1.00  0.00    -0.056 NA
HETATM   28  O2  UNL     1      -4.161   2.497  -3.114  1.00  0.00    -0.269 OA
ENDBRANCH  19  26
BRANCH  21  29
HETATM   29  N2  UNL     1      -6.031   0.099  -0.376  1.00  0.00    -0.264 N 
HETATM   30  N3  UNL     1      -6.673   0.450   0.659  1.00  0.00    -0.208 N 
ATOM     31  H3  UNL     1      -6.170   0.758   1.491  1.00  0.00     0.215 HD
ATOM     32  H2  UNL     1      -6.555  -0.205  -1.196  1.00  0.00     0.190 HD
BRANCH  30  33
HETATM   33  O1  UNL     1      -8.028   0.417   0.661  1.00  0.00    -0.274 OA
ATOM     34  H1  UNL     1      -8.509   0.680   1.437  1.00  0.00     0.246 HD
ENDBRANCH  30  33
ENDBRANCH  21  29
ENDBRANCH  14  17
ENDBRANCH  12  13
ENDBRANCH  11  12
BRANCH  11  35
HETATM   35  O4  UNL     1       2.293   1.768  -0.370  1.00  0.00    -0.373 OA
ATOM     36  H4  UNL     1       2.732   2.577  -0.136  1.00  0.00     0.212 HD
ENDBRANCH  11  35
ENDBRANCH   1  11
BRANCH   8  37
HETATM   37  N10 UNL     1       8.247   0.028   0.411  1.00  0.00    -0.233 N 
ATOM     38 2H10 UNL     1       9.095  -0.515   0.245  1.00  0.00     0.174 HD
ATOM     39 1H10 UNL     1       8.492   0.951   0.769  1.00  0.00     0.174 HD
ENDBRANCH   8  37
BRANCH  10  40
HETATM   40  O5  UNL     1       5.293   2.528   1.216  1.00  0.00    -0.252 OA
ATOM     41  H5  UNL     1       6.028   3.080   1.456  1.00  0.00     0.248 HD
ENDBRANCH  10  40
TORSDOF 10
