REMARK  10 active torsions:
REMARK  status: ('A' for Active; 'I' for Inactive)
REMARK    1  A    between atoms: N1_1  and  C1_4 
REMARK    2  A    between atoms: C2_7  and  C3_8 
REMARK    3  A    between atoms: C4_9  and  N3_10 
REMARK    4  A    between atoms: N3_10  and  N4_12 
REMARK    5  A    between atoms: N5_15  and  C5_16 
REMARK    6  A    between atoms: C5_16  and  C6_17 
REMARK    7  A    between atoms: C6_17  and  N6_18 
REMARK    8  A    between atoms: C8_22  and  C9_23 
REMARK    9  A    between atoms: C12_33  and  O1_34 
REMARK   10  A    between atoms: N12_41  and  N13_42 
ROOT
HETATM    1  C3  UNL     1      -2.100   1.372  -0.070  1.00  0.00     0.090 A 
HETATM    2  C4  UNL     1      -1.007   0.609  -0.438  1.00  0.00     0.138 A 
HETATM    3  N5  UNL     1       0.203   1.161  -0.753  1.00  0.00    -0.337 N 
HETATM    4  C11 UNL     1       0.325   2.500  -0.703  1.00  0.00     0.133 A 
HETATM    5  C12 UNL     1      -0.724   3.308  -0.347  1.00  0.00     0.132 A 
HETATM    6  C13 UNL     1      -1.943   2.747  -0.027  1.00  0.00     0.222 A 
HETATM    7  O2  UNL     1      -2.912   3.477   0.306  1.00  0.00    -0.284 OA
ENDROOT
BRANCH   3   8
HETATM    8  C5  UNL     1       1.332   0.324  -1.099  1.00  0.00     0.150 C 
BRANCH   8   9
HETATM    9  C6  UNL     1       2.032   0.033   0.207  1.00  0.00     0.149 C 
BRANCH   9  10
HETATM   10  N6  UNL     1       3.214  -0.759   0.104  1.00  0.00    -0.349 N 
HETATM   11  C7  UNL     1       3.291  -2.091   0.140  1.00  0.00     0.183 A 
HETATM   12  N7  UNL     1       4.591  -2.448   0.039  1.00  0.00    -0.348 N 
HETATM   13  C8  UNL     1       5.367  -1.350  -0.064  1.00  0.00     0.095 A 
ATOM     14  H7  UNL     1       4.935  -3.408   0.040  1.00  0.00     0.167 HD
HETATM   15  C10 UNL     1       4.466  -0.308  -0.020  1.00  0.00     0.125 A 
BRANCH  13  16
HETATM   16  C9  UNL     1       6.816  -1.296  -0.184  1.00  0.00     0.162 A 
HETATM   17  N8  UNL     1       7.574  -0.193  -0.284  1.00  0.00    -0.270 N 
HETATM   18  N9  UNL     1       8.843  -0.538  -0.372  1.00  0.00    -0.225 N 
ATOM     19  H8  UNL     1       7.222   0.764  -0.291  1.00  0.00     0.190 HD
HETATM   20  N10 UNL     1       8.937  -1.856  -0.331  1.00  0.00    -0.005 NA
ATOM     21  H9  UNL     1       9.627   0.109  -0.458  1.00  0.00     0.205 HD
HETATM   22  N11 UNL     1       7.686  -2.314  -0.215  1.00  0.00    -0.265 N 
ATOM     23  H11 UNL     1       7.430  -3.300  -0.158  1.00  0.00     0.186 HD
ENDBRANCH  13  16
ENDBRANCH   9  10
ENDBRANCH   8   9
ENDBRANCH   3   8
BRANCH   2  24
HETATM   24  N3  UNL     1      -1.019  -0.814  -0.594  1.00  0.00    -0.291 N 
ATOM     25  H3  UNL     1      -0.652  -1.446   0.118  1.00  0.00     0.188 HD
BRANCH  24  26
HETATM   26  N4  UNL     1      -1.579  -1.283  -1.814  1.00  0.00    -0.344 N 
ATOM     27  H42 UNL     1      -1.942  -0.639  -2.517  1.00  0.00     0.176 HD
ATOM     28  H41 UNL     1      -1.588  -2.297  -1.925  1.00  0.00     0.176 HD
ENDBRANCH  24  26
ENDBRANCH   2  24
BRANCH   1  29
HETATM   29  C2  UNL     1      -3.363   0.748   0.364  1.00  0.00     0.072 A 
HETATM   30  N2  UNL     1      -3.397  -0.471   0.955  1.00  0.00    -0.189 N 
HETATM   31  C1  UNL     1      -4.561  -1.089   1.293  1.00  0.00     0.700 A 
ATOM     32  H2  UNL     1      -2.515  -0.944   1.154  1.00  0.00     0.184 HD
HETATM   33  N12 UNL     1      -5.709  -0.464   1.030  1.00  0.00    -0.055 N 
HETATM   34  C15 UNL     1      -5.740   0.750   0.443  1.00  0.00     0.284 A 
HETATM   35  C14 UNL     1      -4.563   1.365   0.104  1.00  0.00     0.108 A 
HETATM   36  O3  UNL     1      -6.826   1.327   0.202  1.00  0.00    -0.266 OA
BRANCH  31  37
HETATM   37  N1  UNL     1      -4.537  -2.246   1.842  1.00  0.00    -0.233 N 
ATOM     38  H12 UNL     1      -3.659  -2.724   2.043  1.00  0.00     0.174 HD
ATOM     39  H11 UNL     1      -5.410  -2.709   2.095  1.00  0.00     0.174 HD
ENDBRANCH  31  37
BRANCH  33  40
HETATM   40  N13 UNL     1      -6.918  -1.065   1.369  1.00  0.00    -0.321 N 
ATOM     41 2H13 UNL     1      -6.895  -1.983   1.813  1.00  0.00     0.178 HD
ATOM     42 1H13 UNL     1      -7.796  -0.587   1.168  1.00  0.00     0.178 HD
ENDBRANCH  33  40
ENDBRANCH   1  29
BRANCH   5  43
HETATM   43  O1  UNL     1      -0.589   4.678  -0.300  1.00  0.00    -0.356 OA
ATOM     44  H1  UNL     1      -1.316   5.238  -0.053  1.00  0.00     0.218 HD
ENDBRANCH   5  43
TORSDOF 10
