REMARK  10 active torsions:
REMARK  status: ('A' for Active; 'I' for Inactive)
REMARK    1  A    between atoms: C5_8  and  O1_9 
REMARK    2  A    between atoms: C6_11  and  C7_12 
REMARK    3  A    between atoms: C7_12  and  C8_13 
REMARK    4  A    between atoms: C7_12  and  O2_18 
REMARK    5  A    between atoms: C8_13  and  N4_14 
REMARK    6  A    between atoms: O2_18  and  C9_19 
REMARK    7  A    between atoms: C9_19  and  C10_20 
REMARK    8  A    between atoms: C10_20  and  N5_21 
REMARK    9  A    between atoms: C16_37  and  N11_38 
REMARK   10  A    between atoms: N11_38  and  O4_40 
ROOT
HETATM    1  N1  UNL     1      -6.036   0.703  -3.284  1.00  0.00    -0.191 NA
HETATM    2  C1  UNL     1      -5.437   0.623  -2.264  1.00  0.00     0.104 C 
HETATM    3  C2  UNL     1      -4.678   0.526  -1.038  1.00  0.00     0.100 A 
HETATM    4  C3  UNL     1      -4.960   1.402  -0.005  1.00  0.00     0.096 A 
HETATM    5  N2  UNL     1      -6.047   2.341  -0.079  1.00  0.00    -0.099 NA
HETATM    6  C4  UNL     1      -4.180   1.340   1.145  1.00  0.00     0.106 A 
HETATM    7  N3  UNL     1      -4.539   2.241   2.219  1.00  0.00    -0.097 NA
HETATM    8  C5  UNL     1      -3.151   0.443   1.270  1.00  0.00     0.106 A 
HETATM    9  C6  UNL     1      -2.852  -0.450   0.242  1.00  0.00     0.060 A 
HETATM   10  C16 UNL     1      -3.649  -0.371  -0.902  1.00  0.00     0.092 A 
ENDROOT
BRANCH  10  11
HETATM   11  N11 UNL     1      -3.312  -1.217  -1.980  1.00  0.00    -0.267 N 
ATOM     12  H11 UNL     1      -2.332  -1.392  -2.203  1.00  0.00     0.194 HD
BRANCH  11  13
HETATM   13  O4  UNL     1      -4.208  -1.749  -2.658  1.00  0.00    -0.289 OA
ATOM     14  H4  UNL     1      -3.981  -2.319  -3.384  1.00  0.00     0.244 HD
ENDBRANCH  11  13
ENDBRANCH  10  11
BRANCH   9  15
HETATM   15  C7  UNL     1      -1.670  -1.320   0.334  1.00  0.00     0.087 C 
BRANCH  15  16
HETATM   16  C8  UNL     1      -1.931  -2.801   0.253  1.00  0.00     0.294 C 
BRANCH  16  17
HETATM   17  N4  UNL     1      -0.887  -3.563  -0.357  1.00  0.00    -0.074 N 
ATOM     18  H43 UNL     1      -0.673  -3.191  -1.283  1.00  0.00     0.274 HD
ATOM     19  H42 UNL     1       0.000  -3.386   0.114  1.00  0.00     0.274 HD
ATOM     20  H41 UNL     1      -1.064  -4.566  -0.412  1.00  0.00     0.274 HD
ENDBRANCH  16  17
ENDBRANCH  15  16
BRANCH  15  21
HETATM   21  O2  UNL     1      -0.571  -0.868   1.014  1.00  0.00    -0.351 OA
BRANCH  21  22
HETATM   22  C9  UNL     1       0.504  -0.881   0.146  1.00  0.00     0.205 C 
BRANCH  22  23
HETATM   23  C10 UNL     1       1.721  -0.092   0.453  1.00  0.00     0.308 C 
BRANCH  23  24
HETATM   24  N5  UNL     1       2.720  -0.389  -0.565  1.00  0.00     0.180 N 
HETATM   25  C11 UNL     1       2.378   0.021  -1.901  1.00  0.00     0.512 C 
HETATM   26  N6  UNL     1       3.109   1.176  -2.286  1.00  0.00    -0.027 N 
HETATM   27  C12 UNL     1       4.498   0.870  -2.347  1.00  0.00     0.407 C 
ATOM     28  H62 UNL     1       2.765   1.574  -3.160  1.00  0.00     0.281 HD
ATOM     29  H61 UNL     1       2.918   1.971  -1.677  1.00  0.00     0.281 HD
HETATM   30  O3  UNL     1       4.876  -0.096  -1.401  1.00  0.00    -0.303 OA
HETATM   31  C13 UNL     1       4.040   0.085  -0.248  1.00  0.00     0.405 A 
HETATM   32  N7  UNL     1       4.104   1.440   0.163  1.00  0.00    -0.300 N 
HETATM   33  C15 UNL     1       4.640  -0.680   0.839  1.00  0.00     0.184 A 
HETATM   34  C14 UNL     1       4.662   1.512   1.306  1.00  0.00     0.193 A 
ATOM     35  H7  UNL     1       3.757   2.235  -0.374  1.00  0.00     0.167 HD
HETATM   36  N8  UNL     1       4.929   2.682   2.087  1.00  0.00    -0.063 NA
HETATM   37  N9  UNL     1       5.004   0.189   1.746  1.00  0.00    -0.317 N 
ATOM     38  H9  UNL     1       5.460  -0.038   2.629  1.00  0.00     0.169 HD
HETATM   39  N10 UNL     1       4.802  -2.078   0.900  1.00  0.00    -0.080 NA
ENDBRANCH  23  24
ENDBRANCH  22  23
ENDBRANCH  21  22
ENDBRANCH  15  21
ENDBRANCH   9  15
BRANCH   8  40
HETATM   40  O1  UNL     1      -2.391   0.419   2.431  1.00  0.00    -0.358 OA
ATOM     41  H1  UNL     1      -1.678  -0.203   2.518  1.00  0.00     0.217 HD
ENDBRANCH   8  40
TORSDOF 10
