REMARK  10 active torsions:
REMARK  status: ('A' for Active; 'I' for Inactive)
REMARK    1  A    between atoms: N3_9  and  C4_10 
REMARK    2  A    between atoms: C4_10  and  N4_11 
REMARK    3  A    between atoms: C4_10  and  C12_35 
REMARK    4  A    between atoms: N4_11  and  C5_13 
REMARK    5  A    between atoms: C8_19  and  C9_20 
REMARK    6  A    between atoms: C12_35  and  N12_36 
REMARK    7  A    between atoms: C12_35  and  C13_40 
REMARK    8  A    between atoms: C13_40  and  C14_41 
REMARK    9  A    between atoms: C14_41  and  O4_42 
REMARK   10  A    between atoms: C14_41  and  O5_44 
ROOT
HETATM    1  N4  UNL     1      -0.676  -0.245   0.746  1.00  0.00    -0.362 N 
ATOM      2  H4  UNL     1      -1.092  -0.956   1.347  1.00  0.00     0.162 HD
ENDROOT
BRANCH   1   3
HETATM    3  C4  UNL     1      -1.581   0.605   0.021  1.00  0.00     0.242 C 
BRANCH   3   4
HETATM    4  N3  UNL     1      -1.436   0.579  -1.402  1.00  0.00    -0.210 N 
HETATM    5  N1  UNL     1      -1.296  -0.450  -2.216  1.00  0.00    -0.239 N 
HETATM    6  C1  UNL     1      -1.245  -1.848  -1.952  1.00  0.00     0.183 C 
HETATM    7  C2  UNL     1      -1.200   0.030  -3.495  1.00  0.00     0.345 A 
HETATM    8  O1  UNL     1      -1.058  -0.634  -4.557  1.00  0.00    -0.245 OA
HETATM    9  N2  UNL     1      -1.281   1.351  -3.454  1.00  0.00    -0.258 N 
HETATM   10  C3  UNL     1      -1.425   1.686  -2.183  1.00  0.00     0.347 A 
ATOM     11  H2  UNL     1      -1.240   1.988  -4.250  1.00  0.00     0.175 HD
HETATM   12  O2  UNL     1      -1.535   2.872  -1.761  1.00  0.00    -0.245 OA
ENDBRANCH   3   4
BRANCH   3  13
HETATM   13  C12 UNL     1      -3.023   0.377   0.446  1.00  0.00     0.232 C 
BRANCH  13  14
HETATM   14  N12 UNL     1      -3.577  -0.863   0.052  1.00  0.00    -0.071 N 
ATOM     15 3H12 UNL     1      -3.485  -0.984  -0.957  1.00  0.00     0.274 HD
ATOM     16 2H12 UNL     1      -2.989  -1.630   0.379  1.00  0.00     0.274 HD
ATOM     17 1H12 UNL     1      -4.544  -1.016   0.337  1.00  0.00     0.274 HD
ENDBRANCH  13  14
BRANCH  13  18
HETATM   18  C13 UNL     1      -3.125   0.530   1.944  1.00  0.00     0.097 C 
BRANCH  18  19
HETATM   19  C14 UNL     1      -4.537   0.324   2.427  1.00  0.00     0.256 C 
BRANCH  19  20
HETATM   20  O4  UNL     1      -4.966  -0.952   2.098  1.00  0.00    -0.371 OA
ATOM     21  H4  UNL     1      -5.856  -1.082   2.403  1.00  0.00     0.212 HD
ENDBRANCH  19  20
BRANCH  19  22
HETATM   22  O5  UNL     1      -5.370   1.320   1.911  1.00  0.00    -0.371 OA
ATOM     23  H5  UNL     1      -6.260   1.190   2.216  1.00  0.00     0.212 HD
ENDBRANCH  19  22
ENDBRANCH  18  19
ENDBRANCH  13  18
ENDBRANCH   3  13
ENDBRANCH   1   3
BRANCH   1  24
HETATM   24  C5  UNL     1       0.735  -0.188   0.704  1.00  0.00     0.086 A 
HETATM   25  C6  UNL     1       1.547   0.847   0.605  1.00  0.00     0.104 A 
HETATM   26  N5  UNL     1       1.150   2.184   0.515  1.00  0.00    -0.097 NA
HETATM   27  C7  UNL     1       2.953   0.426   0.606  1.00  0.00     0.097 A 
HETATM   28  N6  UNL     1       4.243   0.820   0.545  1.00  0.00    -0.330 N 
HETATM   29  C10 UNL     1       3.004  -0.944   0.713  1.00  0.00     0.135 A 
HETATM   30  C8  UNL     1       4.998  -0.288   0.615  1.00  0.00     0.196 A 
ATOM     31  H6  UNL     1       4.580   1.779   0.461  1.00  0.00     0.168 HD
HETATM   32  O3  UNL     1       4.239  -1.351   0.717  1.00  0.00    -0.285 OA
HETATM   33  C11 UNL     1       1.597  -1.363   0.778  1.00  0.00     0.091 A 
HETATM   34  N11 UNL     1       1.270  -2.608   0.892  1.00  0.00    -0.395 N 
ATOM     35 2H11 UNL     1       0.293  -2.899   0.937  1.00  0.00     0.156 HD
ATOM     36 1H11 UNL     1       1.873  -3.429   0.944  1.00  0.00     0.156 HD
BRANCH  30  37
HETATM   37  C9  UNL     1       6.455  -0.337   0.586  1.00  0.00     0.189 A 
HETATM   38  N7  UNL     1       7.255  -1.415   0.653  1.00  0.00    -0.265 N 
HETATM   39  N8  UNL     1       8.525  -1.015   0.592  1.00  0.00    -0.226 N 
ATOM     40  H7  UNL     1       6.941  -2.382   0.737  1.00  0.00     0.190 HD
HETATM   41  N9  UNL     1       8.543   0.283   0.489  1.00  0.00    -0.226 N 
ATOM     42  H8  UNL     1       9.344  -1.623   0.621  1.00  0.00     0.210 HD
HETATM   43  N10 UNL     1       7.307   0.722   0.483  1.00  0.00    -0.265 N 
ATOM     44  H9  UNL     1       9.380   0.862   0.424  1.00  0.00     0.210 HD
ATOM     45  H10 UNL     1       7.028   1.700   0.412  1.00  0.00     0.190 HD
ENDBRANCH  30  37
ENDBRANCH   1  24
TORSDOF 10
