REMARK  4 active torsions:
REMARK  status: ('A' for Active; 'I' for Inactive)
REMARK    1  A    between atoms: N1_1  and  C1_5 
REMARK    2  A    between atoms: C1_5  and  C2_6 
REMARK    3  A    between atoms: C2_6  and  N2_7 
REMARK    4  A    between atoms: C3_9  and  C4_10 
ROOT
HETATM    1  N2  UNL     1      -0.819   0.668   0.017  1.00  0.00    -0.396 N 
ATOM      2  H2  UNL     1      -0.546   1.085   0.907  1.00  0.00     0.158 HD
HETATM    3  C3  UNL     1       0.028   0.007  -0.663  1.00  0.00     0.097 C 
ENDROOT
BRANCH   3   4
HETATM    4  C4  UNL     1       1.388  -0.282  -0.397  1.00  0.00     0.020 A 
HETATM    5  C5  UNL     1       2.136  -1.042  -1.308  1.00  0.00     0.017 A 
HETATM    6  C6  UNL     1       3.456  -1.349  -1.096  1.00  0.00     0.018 A 
HETATM    7  C7  UNL     1       4.073  -0.897   0.053  1.00  0.00     0.089 A 
HETATM    8  N3  UNL     1       3.370  -0.186   0.904  1.00  0.00    -0.354 N 
HETATM    9  C8  UNL     1       2.062   0.129   0.713  1.00  0.00     0.127 A 
ATOM     10  H3  UNL     1       3.829   0.147   1.752  1.00  0.00     0.166 HD
HETATM   11  N4  UNL     1       1.490   0.901   1.746  1.00  0.00    -0.082 NA
ENDBRANCH   3   4
BRANCH   1  12
HETATM   12  C2  UNL     1      -2.206   0.832  -0.486  1.00  0.00     0.146 C 
BRANCH  12  13
HETATM   13  C1  UNL     1      -3.049  -0.068   0.408  1.00  0.00     0.249 C 
BRANCH  13  14
HETATM   14  N1  UNL     1      -4.434   0.026  -0.011  1.00  0.00    -0.078 N 
ATOM     15  H13 UNL     1      -4.773   0.988  -0.027  1.00  0.00     0.274 HD
ATOM     16  H12 UNL     1      -4.557  -0.183  -1.002  1.00  0.00     0.274 HD
ATOM     17  H11 UNL     1      -4.999  -0.577   0.588  1.00  0.00     0.274 HD
ENDBRANCH  13  14
ENDBRANCH  12  13
ENDBRANCH   1  12
TORSDOF 4
