REMARK  4 active torsions:
REMARK  status: ('A' for Active; 'I' for Inactive)
REMARK    1  A    between atoms: C4_5  and  N2_6 
REMARK    2  A    between atoms: N2_6  and  C5_8 
REMARK    3  A    between atoms: C5_8  and  C6_9 
REMARK    4  A    between atoms: C6_9  and  N3_10 
ROOT
HETATM    1  C1  UNL     1      -4.052  -0.211   0.678  1.00  0.00     0.156 C 
HETATM    2  N1  UNL     1      -2.638   0.029   0.397  1.00  0.00    -0.357 N 
HETATM    3  C2  UNL     1      -2.170   1.261   0.202  1.00  0.00     0.095 A 
HETATM    4  C3  UNL     1      -0.831   1.474  -0.063  1.00  0.00     0.065 A 
HETATM    5  C4  UNL     1      -0.007   0.373  -0.116  1.00  0.00     0.103 A 
HETATM    6  N4  UNL     1      -0.513  -0.854   0.086  1.00  0.00    -0.339 N 
ATOM      7  H4  UNL     1       0.106  -1.664   0.045  1.00  0.00     0.168 HD
HETATM    8  C7  UNL     1      -1.842  -1.037   0.346  1.00  0.00     0.183 A 
ENDROOT
BRANCH   5   9
HETATM    9  N2  UNL     1       1.247   0.513  -0.358  1.00  0.00    -0.375 N 
ATOM     10  H2  UNL     1       1.632   1.445  -0.511  1.00  0.00     0.161 HD
BRANCH   9  11
HETATM   11  C5  UNL     1       2.115  -0.639  -0.415  1.00  0.00     0.148 C 
BRANCH  11  12
HETATM   12  C6  UNL     1       3.519  -0.279  -0.828  1.00  0.00     0.249 C 
BRANCH  12  13
HETATM   13  N3  UNL     1       4.156   0.642   0.055  1.00  0.00    -0.078 N 
ATOM     14  H33 UNL     1       3.588   1.481   0.171  1.00  0.00     0.274 HD
ATOM     15  H32 UNL     1       4.141   0.292   1.013  1.00  0.00     0.274 HD
ATOM     16  H31 UNL     1       5.106   0.886  -0.225  1.00  0.00     0.274 HD
ENDBRANCH  12  13
ENDBRANCH  11  12
ENDBRANCH   9  11
ENDBRANCH   5   9
TORSDOF 4
