REMARK  3 active torsions:
REMARK  status: ('A' for Active; 'I' for Inactive)
REMARK    1  A    between atoms: N3_4  and  C2_6 
REMARK    2  A    between atoms: C2_6  and  C3_7 
REMARK    3  A    between atoms: C3_7  and  N4_8 
ROOT
HETATM    1  N4  UNL     1       1.926  -0.386   0.132  1.00  0.00    -0.286 N 
HETATM    2  C4  UNL     1       2.823   0.297   0.871  1.00  0.00     0.130 A 
HETATM    3  C5  UNL     1       3.894   0.670   0.064  1.00  0.00     0.127 A 
HETATM    4  N5  UNL     1       3.582   0.182  -1.152  1.00  0.00    -0.296 N 
ATOM      5  H5  UNL     1       4.155   0.275  -1.991  1.00  0.00     0.187 HD
HETATM    6  N6  UNL     1       2.423  -0.433  -1.086  1.00  0.00    -0.241 N 
ATOM      7  H6  UNL     1       1.967  -0.888  -1.877  1.00  0.00     0.208 HD
ENDROOT
BRANCH   1   8
HETATM    8  C3  UNL     1       0.656  -0.961   0.580  1.00  0.00     0.169 C 
BRANCH   8   9
HETATM    9  C2  UNL     1      -0.390   0.102   0.390  1.00  0.00     0.143 C 
BRANCH   9  10
HETATM   10  N3  UNL     1      -1.703  -0.290   0.779  1.00  0.00    -0.365 N 
HETATM   11  C1  UNL     1      -2.731   0.029   0.073  1.00  0.00     0.197 C 
HETATM   12  N1  UNL     1      -2.537   0.786  -1.114  1.00  0.00    -0.067 NA
HETATM   13  N2  UNL     1      -4.065  -0.330   0.405  1.00  0.00    -0.067 NA
ATOM     14  H3  UNL     1      -1.831  -0.833   1.633  1.00  0.00     0.161 HD
ENDBRANCH   9  10
ENDBRANCH   8   9
ENDBRANCH   1   8
TORSDOF 3
