REMARK  5 active torsions:
REMARK  status: ('A' for Active; 'I' for Inactive)
REMARK    1  A    between atoms: C2_2  and  C4_4 
REMARK    2  A    between atoms: C4_4  and  N1_5 
REMARK    3  A    between atoms: C4_4  and  C20_29 
REMARK    4  A    between atoms: N3_18  and  S1_20 
REMARK    5  A    between atoms: S1_20  and  C14_23 
ROOT
HETATM    1  N1  UNL     1      -0.317   0.035   0.613  1.00  0.00    -0.365 N 
ATOM      2  H1  UNL     1       0.446   0.689   0.786  1.00  0.00     0.162 HD
HETATM    3  C5  UNL     1       0.045  -1.087   0.309  1.00  0.00     0.130 A 
HETATM    4  N2  UNL     1      -0.888  -2.110   0.028  1.00  0.00    -0.350 N 
ATOM      5  H2  UNL     1      -1.874  -1.849   0.047  1.00  0.00     0.166 HD
HETATM    6  C6  UNL     1      -0.625  -3.313  -0.244  1.00  0.00     0.102 A 
HETATM    7  C7  UNL     1       0.786  -3.752  -0.280  1.00  0.00    -0.008 A 
HETATM    8  C8  UNL     1       1.023  -5.094  -0.528  1.00  0.00     0.014 A 
HETATM    9  C9  UNL     1       2.307  -5.590  -0.518  1.00  0.00     0.001 A 
HETATM   10  C10 UNL     1       3.322  -4.664  -0.245  1.00  0.00     0.001 A 
HETATM   11  C11 UNL     1       3.088  -3.345  -0.008  1.00  0.00     0.015 A 
HETATM   12  C12 UNL     1       1.784  -2.865  -0.030  1.00  0.00     0.007 A 
HETATM   13  C13 UNL     1       1.506  -1.456   0.278  1.00  0.00     0.097 A 
HETATM   14  N3  UNL     1       2.298  -0.563   0.383  1.00  0.00    -0.276 N 
ATOM     15  H3  UNL     1       1.712   0.267   0.478  1.00  0.00     0.179 HD
ENDROOT
BRANCH   1  16
HETATM   16  C4  UNL     1      -1.669   0.619   0.776  1.00  0.00     0.120 C 
BRANCH  16  17
HETATM   17  C2  UNL     1      -1.322   2.099   0.889  1.00  0.00     0.005 C 
HETATM   18  C1  UNL     1      -0.613   2.822  -0.134  1.00  0.00     0.012 C 
HETATM   19  C3  UNL     1      -0.600   2.319   2.238  1.00  0.00     0.012 C 
ENDBRANCH  16  17
BRANCH  16  20
HETATM   20  C20 UNL     1      -2.479   0.327  -0.401  1.00  0.00    -0.021 A 
HETATM   21  C21 UNL     1      -2.030   0.367  -1.701  1.00  0.00     0.027 A 
HETATM   22  C22 UNL     1      -2.824  -0.034  -2.746  1.00  0.00     0.089 A 
HETATM   23  N4  UNL     1      -4.100  -0.497  -2.552  1.00  0.00    -0.365 N 
HETATM   24  C23 UNL     1      -4.579  -0.551  -1.300  1.00  0.00     0.042 A 
ATOM     25  H4  UNL     1      -4.672  -0.794  -3.342  1.00  0.00     0.165 HD
HETATM   26  C24 UNL     1      -5.892  -0.963  -1.115  1.00  0.00     0.030 A 
HETATM   27  C28 UNL     1      -3.790  -0.146  -0.218  1.00  0.00    -0.001 A 
HETATM   28  C25 UNL     1      -6.420  -0.970   0.178  1.00  0.00     0.002 A 
HETATM   29  C26 UNL     1      -5.696  -0.595   1.248  1.00  0.00     0.001 A 
HETATM   30  C27 UNL     1      -4.369  -0.184   1.009  1.00  0.00     0.014 A 
ENDBRANCH  16  20
ENDBRANCH   1  16
BRANCH  14  31
HETATM   31  S1  UNL     1       3.808   0.027   0.454  1.00  0.00     0.263 S 
HETATM   32  O1  UNL     1       4.553  -0.233   1.759  1.00  0.00    -0.200 OA
HETATM   33  O2  UNL     1       4.798  -0.454  -0.623  1.00  0.00    -0.200 OA
BRANCH  31  34
HETATM   34  C14 UNL     1       3.861   1.790   0.199  1.00  0.00     0.079 A 
HETATM   35  C15 UNL     1       3.323   2.297  -0.982  1.00  0.00     0.025 A 
HETATM   36  C16 UNL     1       3.417   3.633  -1.223  1.00  0.00     0.002 A 
HETATM   37  C17 UNL     1       4.035   4.523  -0.330  1.00  0.00     0.000 A 
HETATM   38  C18 UNL     1       4.556   3.982   0.825  1.00  0.00     0.002 A 
HETATM   39  C19 UNL     1       4.465   2.608   1.088  1.00  0.00     0.025 A 
ENDBRANCH  31  34
ENDBRANCH  14  31
TORSDOF 5
