REMARK  9 active torsions:
REMARK  status: ('A' for Active; 'I' for Inactive)
REMARK    1  A    between atoms: C2_2  and  C3_3 
REMARK    2  A    between atoms: C6_7  and  O1_8 
REMARK    3  A    between atoms: O1_8  and  C7_9 
REMARK    4  A    between atoms: C7_9  and  C8_10 
REMARK    5  A    between atoms: C8_10  and  C9_11 
REMARK    6  A    between atoms: C9_11  and  O2_12 
REMARK    7  A    between atoms: C9_11  and  C10_14 
REMARK    8  A    between atoms: C10_14  and  N1_15 
REMARK    9  A    between atoms: C19_24  and  O3_25 
ROOT
HETATM    1  N1  UNL     1      -0.080   0.730  -0.495  1.00  0.00     0.091 N 
HETATM    2  C11 UNL     1      -0.561  -0.167   0.494  1.00  0.00     0.273 C 
HETATM    3  C12 UNL     1      -1.998  -0.601   0.258  1.00  0.00     0.044 C 
HETATM    4  C13 UNL     1      -2.874   0.634   0.206  1.00  0.00    -0.009 C 
HETATM    5  C14 UNL     1      -3.010   1.212   1.615  1.00  0.00     0.015 C 
HETATM    6  C15 UNL     1      -3.476   0.181   2.586  1.00  0.00     0.006 C 
HETATM    7  C16 UNL     1      -4.650  -0.616   2.107  1.00  0.00     0.039 C 
HETATM    8  C17 UNL     1      -5.074  -0.287   0.721  1.00  0.00    -0.048 A 
HETATM    9  C18 UNL     1      -6.362  -0.599   0.355  1.00  0.00     0.044 A 
HETATM   10  C19 UNL     1      -6.897  -0.355  -0.890  1.00  0.00     0.068 A 
HETATM   11  C21 UNL     1      -6.075   0.240  -1.818  1.00  0.00     0.037 A 
HETATM   12  C22 UNL     1      -4.763   0.565  -1.466  1.00  0.00     0.011 A 
HETATM   13  C23 UNL     1      -4.257   0.309  -0.214  1.00  0.00    -0.043 A 
HETATM   14  C24 UNL     1      -2.293   1.678  -0.682  1.00  0.00     0.044 C 
HETATM   15  C25 UNL     1      -0.836   1.969  -0.354  1.00  0.00     0.273 C 
ENDROOT
BRANCH   1  16
HETATM   16  C10 UNL     1       0.010   0.285  -1.831  1.00  0.00     0.303 C 
BRANCH  16  17
HETATM   17  C9  UNL     1       1.070  -0.746  -2.077  1.00  0.00     0.148 C 
BRANCH  17  18
HETATM   18  C8  UNL     1       2.475  -0.172  -1.895  1.00  0.00     0.060 C 
BRANCH  18  19
HETATM   19  C7  UNL     1       3.484  -1.174  -2.326  1.00  0.00     0.178 C 
BRANCH  19  20
HETATM   20  O1  UNL     1       4.815  -0.817  -2.184  1.00  0.00    -0.348 OA
BRANCH  20  21
HETATM   21  C6  UNL     1       5.522  -0.508  -1.061  1.00  0.00     0.103 A 
HETATM   22  C5  UNL     1       5.738   0.736  -0.558  1.00  0.00     0.046 A 
HETATM   23  C4  UNL     1       6.475   0.978   0.610  1.00  0.00     0.029 A 
HETATM   24 BR1  UNL     1       5.049   2.257  -1.488  1.00  0.00    -0.048 Br
HETATM   25  C3  UNL     1       7.000  -0.098   1.268  1.00  0.00    -0.056 A 
HETATM   26  C27 UNL     1       6.810  -1.374   0.801  1.00  0.00     0.029 A 
HETATM   27  C26 UNL     1       6.084  -1.572  -0.343  1.00  0.00     0.046 A 
HETATM   28 BR2  UNL     1       5.837  -3.350  -0.969  1.00  0.00    -0.048 Br
BRANCH  25  29
HETATM   29  C2  UNL     1       7.804   0.091   2.524  1.00  0.00     0.034 C 
HETATM   30  C1  UNL     1       9.261   0.252   2.144  1.00  0.00     0.010 C 
ENDBRANCH  25  29
ENDBRANCH  20  21
ENDBRANCH  19  20
ENDBRANCH  18  19
ENDBRANCH  17  18
BRANCH  17  31
HETATM   31  O2  UNL     1       0.846  -1.886  -1.336  1.00  0.00    -0.394 OA
ATOM     32  H2  UNL     1      -0.027  -2.243  -1.449  1.00  0.00     0.210 HD
ENDBRANCH  17  31
ENDBRANCH  16  17
ENDBRANCH   1  16
BRANCH  10  33
HETATM   33  O3  UNL     1      -8.192  -0.667  -1.264  1.00  0.00    -0.356 OA
HETATM   34  C20 UNL     1      -9.047  -1.275  -0.330  1.00  0.00     0.210 C 
ENDBRANCH  10  33
TORSDOF 9
