REMARK  8 active torsions:
REMARK  status: ('A' for Active; 'I' for Inactive)
REMARK    1  A    between atoms: O1_2  and  C2_3 
REMARK    2  A    between atoms: C6_8  and  S1_9 
REMARK    3  A    between atoms: S1_9  and  C7_10 
REMARK    4  A    between atoms: C7_10  and  C8_11 
REMARK    5  A    between atoms: C8_11  and  C9_12 
REMARK    6  A    between atoms: C9_12  and  N1_13 
REMARK    7  A    between atoms: C12_16  and  C13_17 
REMARK    8  A    between atoms: C13_17  and  N2_18 
ROOT
HETATM    1  C7  UNL     1       2.376   0.315  -1.988  1.00  0.00     0.085 C 
ENDROOT
BRANCH   1   2
HETATM    2  S1  UNL     1       3.280   1.398  -0.871  1.00  0.00    -0.127 SA
BRANCH   2   3
HETATM    3  C6  UNL     1       4.194   0.446   0.329  1.00  0.00     0.028 A 
HETATM    4  C5  UNL     1       5.484   0.003   0.162  1.00  0.00     0.012 A 
HETATM    5  C4  UNL     1       6.393   0.133  -0.874  1.00  0.00     0.037 A 
HETATM    6  C22 UNL     1       5.890  -0.707   1.288  1.00  0.00     0.064 A 
HETATM    7  C3  UNL     1       7.645  -0.429  -0.764  1.00  0.00     0.046 A 
HETATM    8  C2  UNL     1       8.046  -1.128   0.344  1.00  0.00     0.105 A 
HETATM    9 BR1  UNL     1       8.863  -0.232  -2.197  1.00  0.00    -0.048 Br
HETATM   10  C23 UNL     1       7.156  -1.269   1.385  1.00  0.00     0.073 A 
HETATM   11 BR2  UNL     1       7.609  -2.220   2.974  1.00  0.00    -0.046 Br
HETATM   12  N3  UNL     1       4.825  -0.679   2.126  1.00  0.00    -0.363 N 
HETATM   13  C21 UNL     1       3.809   0.000   1.575  1.00  0.00     0.107 A 
ATOM     14  H3  UNL     1       4.800  -1.114   3.048  1.00  0.00     0.165 HD
BRANCH   8  15
HETATM   15  O1  UNL     1       9.311  -1.683   0.430  1.00  0.00    -0.353 OA
HETATM   16  C1  UNL     1      10.431  -0.993   0.963  1.00  0.00     0.210 C 
ENDBRANCH   8  15
ENDBRANCH   2   3
ENDBRANCH   1   2
BRANCH   1  17
HETATM   17  C8  UNL     1       1.276  -0.467  -1.299  1.00  0.00     0.055 C 
BRANCH  17  18
HETATM   18  C9  UNL     1       0.315   0.541  -0.713  1.00  0.00     0.059 C 
BRANCH  18  19
HETATM   19  N1  UNL     1      -0.776  -0.018  -0.032  1.00  0.00    -0.393 N 
HETATM   20  C10 UNL     1      -1.743  -0.723  -0.772  1.00  0.00     0.122 C 
HETATM   21  C11 UNL     1      -2.771   0.302  -1.300  1.00  0.00     0.029 C 
HETATM   22  C12 UNL     1      -3.123   1.253  -0.227  1.00  0.00     0.027 C 
HETATM   23  C19 UNL     1      -2.712   0.705   1.160  1.00  0.00     0.029 C 
HETATM   24  C20 UNL     1      -1.207   0.569   1.180  1.00  0.00     0.122 C 
BRANCH  22  25
HETATM   25  C13 UNL     1      -4.467   1.859  -0.176  1.00  0.00     0.062 C 
BRANCH  25  26
HETATM   26  N2  UNL     1      -5.617   1.114  -0.028  1.00  0.00    -0.393 N 
HETATM   27  C14 UNL     1      -6.194   0.274  -0.970  1.00  0.00     0.122 C 
HETATM   28  C15 UNL     1      -6.151  -1.163  -0.414  1.00  0.00     0.020 C 
HETATM   29  C16 UNL     1      -7.211  -1.230   0.654  1.00  0.00     0.003 C 
HETATM   30  C17 UNL     1      -7.335   0.069   1.375  1.00  0.00     0.020 C 
HETATM   31  C18 UNL     1      -6.086   0.919   1.330  1.00  0.00     0.122 C 
ENDBRANCH  25  26
ENDBRANCH  22  25
ENDBRANCH  18  19
ENDBRANCH  17  18
ENDBRANCH   1  17
TORSDOF 8
