REMARK  12 active torsions:
REMARK  status: ('A' for Active; 'I' for Inactive)
REMARK    1  A    between atoms: N1_1  and  C1_5 
REMARK    2  A    between atoms: C1_5  and  C2_6 
REMARK    3  A    between atoms: C2_6  and  C3_7 
REMARK    4  A    between atoms: C3_7  and  C4_8 
REMARK    5  A    between atoms: C4_8  and  C5_9 
REMARK    6  A    between atoms: C5_9  and  C6_10 
REMARK    7  A    between atoms: C10_15  and  C11_16 
REMARK    8  A    between atoms: C11_16  and  C12_17 
REMARK    9  A    between atoms: C14_22  and  C15_23 
REMARK   10  A    between atoms: C15_23  and  N3_24 
REMARK   11  A    between atoms: N3_24  and  S1_26 
REMARK   12  A    between atoms: S1_26  and  N4_27 
ROOT
HETATM    1  C12 UNL     1      -1.265  -1.026  -0.379  1.00  0.00     0.111 C 
HETATM    2  C13 UNL     1      -1.854  -0.001  -1.310  1.00  0.00     0.258 C 
HETATM    3  N2  UNL     1      -3.093  -0.429  -1.946  1.00  0.00    -0.062 N 
ATOM      4  H21 UNL     1      -2.940  -1.196  -2.601  1.00  0.00     0.278 HD
ATOM      5  H22 UNL     1      -3.442   0.266  -2.606  1.00  0.00     0.278 HD
HETATM    6  C14 UNL     1      -4.097  -0.770  -0.927  1.00  0.00     0.254 C 
HETATM    7  C16 UNL     1      -3.533  -1.969  -0.254  1.00  0.00     0.048 C 
HETATM    8  C17 UNL     1      -4.324  -2.776   0.409  1.00  0.00    -0.012 A 
HETATM    9  C18 UNL     1      -3.999  -3.996   1.138  1.00  0.00     0.013 A 
HETATM   10  C19 UNL     1      -5.105  -4.477   1.639  1.00  0.00     0.001 A 
HETATM   11  C20 UNL     1      -6.231  -3.623   1.283  1.00  0.00     0.001 A 
HETATM   12  C21 UNL     1      -5.757  -2.606   0.546  1.00  0.00     0.013 A 
HETATM   13  N5  UNL     1      -2.137  -2.172  -0.389  1.00  0.00    -0.384 N 
ATOM     14  H5  UNL     1      -1.757  -3.113  -0.491  1.00  0.00     0.160 HD
ENDROOT
BRANCH   1  15
HETATM   15  C11 UNL     1       0.091  -1.506  -0.817  1.00  0.00     0.065 C 
BRANCH  15  16
HETATM   16  C10 UNL     1       1.140  -0.474  -0.913  1.00  0.00    -0.054 A 
HETATM   17  C9  UNL     1       1.486   0.160  -2.080  1.00  0.00     0.026 A 
HETATM   18  C8  UNL     1       2.479   1.150  -2.125  1.00  0.00     0.012 A 
HETATM   19  C7  UNL     1       3.141   1.518  -0.988  1.00  0.00     0.026 A 
HETATM   20 BR1  UNL     1       2.864   1.957  -3.826  1.00  0.00    -0.051 Br
HETATM   21  C6  UNL     1       2.826   0.909   0.196  1.00  0.00    -0.056 A 
HETATM   22  C22 UNL     1       1.840  -0.071   0.232  1.00  0.00     0.014 A 
BRANCH  21  23
HETATM   23  C5  UNL     1       3.484   1.222   1.490  1.00  0.00     0.038 C 
BRANCH  23  24
HETATM   24  C4  UNL     1       4.658   0.386   1.817  1.00  0.00     0.005 C 
BRANCH  24  25
HETATM   25  C3  UNL     1       5.803   0.436   0.879  1.00  0.00     0.002 C 
BRANCH  25  26
HETATM   26  C2  UNL     1       6.440   1.761   0.699  1.00  0.00     0.027 C 
BRANCH  26  27
HETATM   27  C1  UNL     1       7.592   1.669  -0.283  1.00  0.00     0.229 C 
BRANCH  27  28
HETATM   28  N1  UNL     1       8.562   0.731   0.245  1.00  0.00    -0.079 N 
ATOM     29  H13 UNL     1       8.867   0.970   1.188  1.00  0.00     0.274 HD
ATOM     30  H12 UNL     1       8.154  -0.179   0.459  1.00  0.00     0.274 HD
ATOM     31  H11 UNL     1       9.337   0.669  -0.415  1.00  0.00     0.274 HD
ENDBRANCH  27  28
ENDBRANCH  26  27
ENDBRANCH  25  26
ENDBRANCH  24  25
ENDBRANCH  23  24
ENDBRANCH  21  23
ENDBRANCH  15  16
ENDBRANCH   1  15
BRANCH   6  32
HETATM   32  C15 UNL     1      -4.236   0.312   0.110  1.00  0.00     0.173 C 
BRANCH  32  33
HETATM   33  N3  UNL     1      -4.641   1.570  -0.487  1.00  0.00    -0.301 N 
ATOM     34  H3  UNL     1      -4.809   1.699  -1.485  1.00  0.00     0.173 HD
BRANCH  33  35
HETATM   35  S1  UNL     1      -4.804   2.810   0.676  1.00  0.00     0.312 S 
HETATM   36  O1  UNL     1      -4.432   4.116   0.030  1.00  0.00    -0.183 OA
HETATM   37  O2  UNL     1      -3.888   2.590   1.850  1.00  0.00    -0.183 OA
BRANCH  35  38
HETATM   38  N4  UNL     1      -6.419   2.865   1.314  1.00  0.00    -0.312 N 
ATOM     39  H42 UNL     1      -7.163   2.231   1.021  1.00  0.00     0.170 HD
ATOM     40  H41 UNL     1      -6.516   3.606   2.009  1.00  0.00     0.170 HD
ENDBRANCH  35  38
ENDBRANCH  33  35
ENDBRANCH  32  33
ENDBRANCH   6  32
TORSDOF 12
