REMARK  13 active torsions:
REMARK  status: ('A' for Active; 'I' for Inactive)
REMARK    1  A    between atoms: C2_2  and  C3_4 
REMARK    2  A    between atoms: C3_4  and  C4_5 
REMARK    3  A    between atoms: C4_5  and  C5_6 
REMARK    4  A    between atoms: N3_12  and  C8_13 
REMARK    5  A    between atoms: C8_13  and  C9_14 
REMARK    6  A    between atoms: C9_14  and  N4_15 
REMARK    7  A    between atoms: N4_15  and  C10_17 
REMARK    8  A    between atoms: C11_20  and  N6_21 
REMARK    9  A    between atoms: N6_21  and  C12_23 
REMARK   10  A    between atoms: C12_23  and  C13_24 
REMARK   11  A    between atoms: C19_32  and  N8_33 
REMARK   12  A    between atoms: N8_33  and  C20_35 
REMARK   13  A    between atoms: C20_35  and  C21_36 
ROOT
HETATM    1  C10 UNL     1       0.430  -0.656  -0.904  1.00  0.00     0.707 A 
HETATM    2  N5  UNL     1      -0.607  -1.492  -0.746  1.00  0.00    -0.022 N 
ATOM      3  H5  UNL     1      -0.457  -2.423  -0.358  1.00  0.00     0.203 HD
HETATM    4  C11 UNL     1      -1.862  -1.096  -1.104  1.00  0.00     0.707 A 
HETATM    5  N7  UNL     1      -2.044   0.133  -1.612  1.00  0.00    -0.022 N 
ATOM      6  H7  UNL     1      -2.979   0.439  -1.881  1.00  0.00     0.203 HD
HETATM    7  C19 UNL     1      -1.003   0.958  -1.766  1.00  0.00     0.707 A 
HETATM    8  N9  UNL     1       0.239   0.593  -1.422  1.00  0.00    -0.022 N 
ATOM      9  H9  UNL     1       1.024   1.233  -1.544  1.00  0.00     0.203 HD
ENDROOT
BRANCH   1  10
HETATM   10  N4  UNL     1       1.616  -1.022  -0.556  1.00  0.00    -0.224 N 
ATOM     11  H4  UNL     1       2.392  -0.372  -0.685  1.00  0.00     0.177 HD
BRANCH  10  12
HETATM   12  C9  UNL     1       1.880  -2.321   0.010  1.00  0.00     0.158 C 
BRANCH  12  13
HETATM   13  C8  UNL     1       3.318  -2.429   0.488  1.00  0.00     0.148 C 
BRANCH  13  14
HETATM   14  N3  UNL     1       3.551  -1.408   1.499  1.00  0.00    -0.326 N 
HETATM   15  C5  UNL     1       4.012  -0.066   1.251  1.00  0.00     0.107 C 
HETATM   16  C6  UNL     1       3.555   0.699   2.446  1.00  0.00     0.149 C 
HETATM   17  N2  UNL     1       3.537  -0.266   3.514  1.00  0.00    -0.341 N 
HETATM   18  C7  UNL     1       3.369  -1.536   2.902  1.00  0.00     0.318 C 
ATOM     19  H2  UNL     1       3.627  -0.075   4.512  1.00  0.00     0.164 HD
HETATM   20  O1  UNL     1       3.100  -2.623   3.473  1.00  0.00    -0.247 OA
BRANCH  15  21
HETATM   21  C4  UNL     1       5.518  -0.106   1.080  1.00  0.00     0.032 C 
BRANCH  21  22
HETATM   22  C3  UNL     1       6.092   1.257   0.924  1.00  0.00     0.055 C 
BRANCH  22  23
HETATM   23  C2  UNL     1       7.553   1.183   0.737  1.00  0.00     0.015 C 
HETATM   24  C1  UNL     1       8.154   0.027   0.723  1.00  0.00     0.035 C 
HETATM   25  N1  UNL     1       8.274   2.376   0.571  1.00  0.00    -0.108 NA
ENDBRANCH  22  23
ENDBRANCH  21  22
ENDBRANCH  15  21
ENDBRANCH  13  14
ENDBRANCH  12  13
ENDBRANCH  10  12
ENDBRANCH   1  10
BRANCH   4  26
HETATM   26  N6  UNL     1      -2.822  -1.945  -0.928  1.00  0.00    -0.221 N 
ATOM     27  H6  UNL     1      -2.634  -2.869  -0.538  1.00  0.00     0.178 HD
BRANCH  26  28
HETATM   28  C12 UNL     1      -4.149  -1.565  -1.289  1.00  0.00     0.176 C 
BRANCH  28  29
HETATM   29  C13 UNL     1      -5.166  -2.590  -0.931  1.00  0.00    -0.040 A 
HETATM   30  C14 UNL     1      -4.884  -3.849  -0.486  1.00  0.00     0.009 A 
HETATM   31  C15 UNL     1      -5.903  -4.742  -0.167  1.00  0.00     0.001 A 
HETATM   32  C16 UNL     1      -7.217  -4.355  -0.298  1.00  0.00     0.000 A 
HETATM   33  C17 UNL     1      -7.526  -3.075  -0.748  1.00  0.00     0.001 A 
HETATM   34  C18 UNL     1      -6.492  -2.227  -1.052  1.00  0.00     0.009 A 
ENDBRANCH  28  29
ENDBRANCH  26  28
ENDBRANCH   4  26
BRANCH   7  35
HETATM   35  N8  UNL     1      -1.194   2.122  -2.248  1.00  0.00    -0.221 N 
ATOM     36  H8  UNL     1      -0.353   2.693  -2.335  1.00  0.00     0.178 HD
BRANCH  35  37
HETATM   37  C20 UNL     1      -2.383   2.747  -2.681  1.00  0.00     0.179 C 
BRANCH  37  38
HETATM   38  C21 UNL     1      -3.102   3.379  -1.531  1.00  0.00    -0.001 A 
HETATM   39  C22 UNL     1      -2.639   3.322  -0.234  1.00  0.00     0.012 A 
HETATM   40  C23 UNL     1      -3.310   3.902   0.820  1.00  0.00     0.001 A 
HETATM   41  C24 UNL     1      -4.493   4.568   0.572  1.00  0.00     0.003 A 
HETATM   42  C25 UNL     1      -4.985   4.643  -0.726  1.00  0.00     0.043 A 
HETATM   43  C26 UNL     1      -4.298   4.059  -1.751  1.00  0.00     0.124 A 
HETATM   44  F1  UNL     1      -4.775   4.138  -3.010  1.00  0.00    -0.205 F 
ENDBRANCH  37  38
ENDBRANCH  35  37
ENDBRANCH   7  35
TORSDOF 13
