REMARK  12 active torsions:
REMARK  status: ('A' for Active; 'I' for Inactive)
REMARK    1  A    between atoms: C2_5  and  N2_6 
REMARK    2  A    between atoms: N2_6  and  C3_8 
REMARK    3  A    between atoms: C3_8  and  C4_9 
REMARK    4  A    between atoms: C4_9  and  N3_10 
REMARK    5  A    between atoms: C6_15  and  N5_16 
REMARK    6  A    between atoms: N5_16  and  C7_18 
REMARK    7  A    between atoms: C7_18  and  C8_19 
REMARK    8  A    between atoms: C8_19  and  C9_20 
REMARK    9  A    between atoms: C9_20  and  C10_21 
REMARK   10  A    between atoms: N7_30  and  C17_32 
REMARK   11  A    between atoms: C17_32  and  C18_33 
REMARK   12  A    between atoms: C18_33  and  C19_34 
ROOT
HETATM    1  N3  UNL     1      -2.151  -0.875  -0.697  1.00  0.00    -0.224 N 
ATOM      2  H3  UNL     1      -2.159  -1.830  -0.340  1.00  0.00     0.177 HD
HETATM    3  C5  UNL     1      -1.018  -0.243  -0.758  1.00  0.00     0.707 A 
HETATM    4  N4  UNL     1       0.093  -0.915  -0.333  1.00  0.00    -0.022 N 
ATOM      5  H4  UNL     1       0.000  -1.870   0.013  1.00  0.00     0.203 HD
HETATM    6  C6  UNL     1       1.300  -0.341  -0.363  1.00  0.00     0.707 A 
HETATM    7  N6  UNL     1       1.464   0.918  -0.812  1.00  0.00    -0.022 N 
ATOM      8  H6  UNL     1       2.387   1.353  -0.834  1.00  0.00     0.203 HD
HETATM    9  C16 UNL     1       0.376   1.583  -1.230  1.00  0.00     0.707 A 
HETATM   10  N7  UNL     1       0.398   2.784  -1.682  1.00  0.00    -0.225 N 
ATOM     11  H7  UNL     1      -0.497   3.181  -1.968  1.00  0.00     0.177 HD
HETATM   12  N8  UNL     1      -0.860   1.000  -1.201  1.00  0.00    -0.022 N 
ATOM     13  H8  UNL     1      -1.672   1.526  -1.524  1.00  0.00     0.203 HD
ENDROOT
BRANCH   1  14
HETATM   14  C4  UNL     1      -3.380  -0.292  -1.107  1.00  0.00     0.158 C 
BRANCH  14  15
HETATM   15  C3  UNL     1      -3.967   0.422   0.111  1.00  0.00     0.158 C 
BRANCH  15  16
HETATM   16  N2  UNL     1      -4.195  -0.505   1.191  1.00  0.00    -0.224 N 
ATOM     17  H2  UNL     1      -3.479  -0.572   1.914  1.00  0.00     0.177 HD
BRANCH  16  18
HETATM   18  C2  UNL     1      -5.236  -1.255   1.311  1.00  0.00     0.680 A 
HETATM   19  N1  UNL     1      -6.263  -1.291   0.457  1.00  0.00    -0.154 N 
HETATM   20  C1  UNL     1      -7.343  -2.091   0.608  1.00  0.00     0.299 A 
ATOM     21  H1  UNL     1      -6.231  -0.678  -0.358  1.00  0.00     0.187 HD
HETATM   22  O1  UNL     1      -8.271  -2.066  -0.243  1.00  0.00    -0.264 OA
HETATM   23  C26 UNL     1      -7.419  -2.932   1.696  1.00  0.00     0.200 A 
HETATM   24  C25 UNL     1      -6.364  -2.900   2.581  1.00  0.00     0.154 A 
HETATM   25  F1  UNL     1      -8.480  -3.760   1.901  1.00  0.00    -0.199 F 
HETATM   26  N9  UNL     1      -5.316  -2.091   2.391  1.00  0.00    -0.199 N 
ATOM     27  H9  UNL     1      -4.555  -2.098   3.070  1.00  0.00     0.183 HD
ENDBRANCH  16  18
ENDBRANCH  15  16
ENDBRANCH  14  15
ENDBRANCH   1  14
BRANCH   6  28
HETATM   28  N5  UNL     1       2.366  -0.986   0.047  1.00  0.00    -0.225 N 
ATOM     29  H5  UNL     1       3.269  -0.514   0.008  1.00  0.00     0.177 HD
BRANCH  28  30
HETATM   30  C7  UNL     1       2.312  -2.324   0.546  1.00  0.00     0.138 C 
BRANCH  30  31
HETATM   31  C8  UNL     1       2.371  -3.303  -0.569  1.00  0.00     0.025 C 
BRANCH  31  32
HETATM   32  C9  UNL     1       3.610  -3.232  -1.381  1.00  0.00     0.040 C 
BRANCH  32  33
HETATM   33  C10 UNL     1       4.802  -3.517  -0.550  1.00  0.00    -0.058 A 
HETATM   34  C11 UNL     1       5.155  -4.858  -0.403  1.00  0.00     0.007 A 
HETATM   35  C12 UNL     1       6.242  -5.279   0.329  1.00  0.00     0.001 A 
HETATM   36  C13 UNL     1       7.028  -4.326   0.953  1.00  0.00     0.000 A 
HETATM   37  C14 UNL     1       6.677  -3.004   0.807  1.00  0.00     0.001 A 
HETATM   38  C15 UNL     1       5.585  -2.592   0.070  1.00  0.00     0.007 A 
ENDBRANCH  32  33
ENDBRANCH  31  32
ENDBRANCH  30  31
ENDBRANCH  28  30
ENDBRANCH   6  28
BRANCH  10  39
HETATM   39  C17 UNL     1       1.546   3.624  -1.827  1.00  0.00     0.142 C 
BRANCH  39  40
HETATM   40  C18 UNL     1       1.785   4.366  -0.541  1.00  0.00     0.058 C 
BRANCH  40  41
HETATM   41  C19 UNL     1       0.649   5.225  -0.135  1.00  0.00    -0.057 A 
HETATM   42  C20 UNL     1      -0.321   4.687   0.678  1.00  0.00     0.007 A 
HETATM   43  C21 UNL     1      -1.393   5.469   1.070  1.00  0.00     0.001 A 
HETATM   44  C22 UNL     1      -1.503   6.787   0.655  1.00  0.00     0.000 A 
HETATM   45  C23 UNL     1      -0.527   7.325  -0.162  1.00  0.00     0.001 A 
HETATM   46  C24 UNL     1       0.535   6.550  -0.551  1.00  0.00     0.007 A 
ENDBRANCH  40  41
ENDBRANCH  39  40
ENDBRANCH  10  39
TORSDOF 12
