REMARK  12 active torsions:
REMARK  status: ('A' for Active; 'I' for Inactive)
REMARK    1  A    between atoms: C2_2  and  C3_3 
REMARK    2  A    between atoms: C3_3  and  C4_4 
REMARK    3  A    between atoms: C4_4  and  C5_5 
REMARK    4  A    between atoms: C5_5  and  C6_6 
REMARK    5  A    between atoms: C6_6  and  C7_7 
REMARK    6  A    between atoms: C7_7  and  C8_8 
REMARK    7  A    between atoms: C18_27  and  C19_28 
REMARK    8  A    between atoms: C19_28  and  C20_29 
REMARK    9  A    between atoms: C20_29  and  C21_30 
REMARK   10  A    between atoms: C21_30  and  N4_31 
REMARK   11  A    between atoms: C22_33  and  O4_35 
REMARK   12  A    between atoms: C23_39  and  O5_40 
ROOT
HETATM    1  C7  UNL     1      -1.825  -0.514  -0.458  1.00  0.00     0.037 C 
HETATM    2  C9  UNL     1      -2.764  -1.239   0.539  1.00  0.00     0.020 C 
HETATM    3  C10 UNL     1      -2.469  -2.693   0.647  1.00  0.00     0.021 C 
HETATM    4  C11 UNL     1      -1.241  -3.056   1.433  1.00  0.00     0.122 C 
HETATM    5  N1  UNL     1      -1.021  -4.484   1.331  1.00  0.00    -0.360 N 
ATOM      6  H1  UNL     1      -1.777  -5.080   1.667  1.00  0.00     0.162 HD
HETATM    7  C12 UNL     1       0.103  -5.142   0.827  1.00  0.00     0.235 C 
HETATM    8  O1  UNL     1       0.684  -5.976   1.616  1.00  0.00    -0.272 OA
HETATM    9  C13 UNL     1       0.723  -5.016  -0.494  1.00  0.00     0.225 C 
HETATM   10  N2  UNL     1       2.142  -4.803  -0.341  1.00  0.00    -0.351 N 
ATOM     11  H2  UNL     1       2.692  -5.579   0.027  1.00  0.00     0.163 HD
HETATM   12  C14 UNL     1       2.840  -3.606  -0.658  1.00  0.00     0.235 C 
HETATM   13  O2  UNL     1       3.866  -3.718  -1.366  1.00  0.00    -0.272 OA
HETATM   14  C15 UNL     1       2.422  -2.270  -0.203  1.00  0.00     0.228 C 
HETATM   15  N3  UNL     1       3.156  -1.158  -0.732  1.00  0.00    -0.346 N 
HETATM   16  C16 UNL     1       4.616  -1.341  -0.795  1.00  0.00     0.153 C 
HETATM   17  C17 UNL     1       2.650   0.063  -1.187  1.00  0.00     0.242 C 
HETATM   18  O3  UNL     1       3.272   0.580  -2.185  1.00  0.00    -0.271 OA
HETATM   19  C18 UNL     1       1.508   0.857  -0.703  1.00  0.00     0.175 C 
HETATM   20  N6  UNL     1       0.621   0.199   0.202  1.00  0.00    -0.360 N 
ATOM     21  H6  UNL     1       1.114  -0.304   0.939  1.00  0.00     0.162 HD
HETATM   22  C23 UNL     1      -0.748   0.088   0.308  1.00  0.00     0.122 C 
ENDROOT
BRANCH  19  23
HETATM   23  C19 UNL     1       2.093   2.104   0.028  1.00  0.00     0.036 C 
BRANCH  23  24
HETATM   24  C20 UNL     1       2.952   1.717   1.184  1.00  0.00     0.022 C 
BRANCH  24  25
HETATM   25  C21 UNL     1       3.444   3.035   1.797  1.00  0.00     0.123 C 
BRANCH  25  26
HETATM   26  N4  UNL     1       4.184   3.723   0.764  1.00  0.00    -0.359 N 
HETATM   27  C22 UNL     1       5.419   3.484   0.508  1.00  0.00     0.225 C 
HETATM   28  N5  UNL     1       6.130   4.168  -0.510  1.00  0.00    -0.057 NA
ATOM     29  H4  UNL     1       3.702   4.432   0.212  1.00  0.00     0.162 HD
BRANCH  27  30
HETATM   30  O4  UNL     1       6.074   2.519   1.259  1.00  0.00    -0.335 OA
ATOM     31  H4  UNL     1       6.988   2.342   1.070  1.00  0.00     0.220 HD
ENDBRANCH  27  30
ENDBRANCH  25  26
ENDBRANCH  24  25
ENDBRANCH  23  24
ENDBRANCH  19  23
BRANCH  22  32
HETATM   32  O5  UNL     1      -1.221   0.682   1.400  1.00  0.00    -0.349 OA
ATOM     33  H5  UNL     1      -0.516   1.076   1.901  1.00  0.00     0.219 HD
ENDBRANCH  22  32
BRANCH   1  34
HETATM   34  C6  UNL     1      -2.705   0.537  -1.076  1.00  0.00     0.019 C 
BRANCH  34  35
HETATM   35  C5  UNL     1      -3.184   1.622  -0.187  1.00  0.00     0.001 C 
BRANCH  35  36
HETATM   36  C4  UNL     1      -4.093   2.558  -1.002  1.00  0.00     0.000 C 
BRANCH  36  37
HETATM   37  C3  UNL     1      -4.619   3.690  -0.186  1.00  0.00    -0.000 C 
BRANCH  37  38
HETATM   38  C2  UNL     1      -5.439   3.210   0.984  1.00  0.00    -0.005 C 
HETATM   39  C1  UNL     1      -6.633   2.389   0.532  1.00  0.00     0.005 C 
ENDBRANCH  37  38
ENDBRANCH  36  37
ENDBRANCH  35  36
ENDBRANCH  34  35
ENDBRANCH   1  34
BRANCH   1  40
HETATM   40  C8  UNL     1      -1.489  -1.461  -1.563  1.00  0.00     0.132 C 
HETATM   41 CL1  UNL     1      -0.683  -0.774  -2.965  1.00  0.00    -0.129 Cl
ENDBRANCH   1  40
TORSDOF 12
