REMARK  13 active torsions:
REMARK  status: ('A' for Active; 'I' for Inactive)
REMARK    1  A    between atoms: C2_2  and  C4_4 
REMARK    2  A    between atoms: C4_4  and  C5_5 
REMARK    3  A    between atoms: C6_8  and  O1_9 
REMARK    4  A    between atoms: C7_11  and  C8_12 
REMARK    5  A    between atoms: C8_12  and  C9_13 
REMARK    6  A    between atoms: C9_13  and  C10_14 
REMARK    7  A    between atoms: C10_14  and  N2_15 
REMARK    8  A    between atoms: C12_22  and  O2_23 
REMARK    9  A    between atoms: C13_25  and  C14_26 
REMARK   10  A    between atoms: C13_25  and  C20_32 
REMARK   11  A    between atoms: C23_35  and  C24_36 
REMARK   12  A    between atoms: C24_36  and  C25_37 
REMARK   13  A    between atoms: C26_41  and  O3_42 
ROOT
HETATM    1  C5  UNL     1      -0.426   2.446  -1.437  1.00  0.00     0.062 C 
HETATM    2  N1  UNL     1       0.859   1.819  -1.449  1.00  0.00    -0.339 N 
ATOM      3  H1  UNL     1       1.578   2.446  -1.809  1.00  0.00     0.167 HD
HETATM    4  C6  UNL     1       1.386   0.587  -1.102  1.00  0.00     0.139 C 
HETATM    5  C7  UNL     1       1.601  -0.094   0.190  1.00  0.00     0.158 C 
HETATM    6  N5  UNL     1       0.486  -0.277   1.059  1.00  0.00    -0.361 N 
ATOM      7  H5  UNL     1       0.494   0.386   1.834  1.00  0.00     0.162 HD
HETATM    8  C12 UNL     1      -0.620  -1.138   1.118  1.00  0.00     0.131 C 
HETATM    9  C13 UNL     1      -1.753  -1.279   0.154  1.00  0.00     0.093 C 
HETATM   10  C23 UNL     1      -2.334   0.053   0.010  1.00  0.00     0.013 C 
HETATM   11  N6  UNL     1      -2.458   0.784  -1.207  1.00  0.00    -0.341 N 
ATOM     12  H6  UNL     1      -3.339   0.633  -1.699  1.00  0.00     0.167 HD
HETATM   13  C26 UNL     1      -1.581   1.677  -1.850  1.00  0.00     0.163 C 
ENDROOT
BRANCH   9  14
HETATM   14  C14 UNL     1      -1.110  -1.972  -0.974  1.00  0.00    -0.035 A 
HETATM   15  C15 UNL     1      -0.117  -2.927  -0.679  1.00  0.00     0.009 A 
HETATM   16  C16 UNL     1       0.510  -3.681  -1.642  1.00  0.00     0.001 A 
HETATM   17  C17 UNL     1       0.190  -3.533  -2.970  1.00  0.00     0.000 A 
HETATM   18  C18 UNL     1      -0.775  -2.606  -3.266  1.00  0.00     0.001 A 
HETATM   19  C19 UNL     1      -1.401  -1.854  -2.289  1.00  0.00     0.009 A 
ENDBRANCH   9  14
BRANCH   9  20
HETATM   20  C20 UNL     1      -2.782  -2.309   0.575  1.00  0.00     0.004 C 
HETATM   21  C21 UNL     1      -2.383  -3.717   0.770  1.00  0.00     0.011 C 
HETATM   22  C22 UNL     1      -3.954  -2.408  -0.378  1.00  0.00     0.011 C 
ENDBRANCH   9  20
BRANCH   8  23
HETATM   23  O2  UNL     1      -0.592  -1.888   2.190  1.00  0.00    -0.348 OA
ATOM     24  H2  UNL     1      -1.341  -2.471   2.230  1.00  0.00     0.219 HD
ENDBRANCH   8  23
BRANCH  10  25
HETATM   25  C24 UNL     1      -3.482   0.451   0.887  1.00  0.00     0.085 C 
BRANCH  25  26
HETATM   26  C25 UNL     1      -3.263   0.534   2.348  1.00  0.00     0.227 C 
HETATM   27  F1  UNL     1      -4.450   0.913   3.018  1.00  0.00    -0.255 F 
ENDBRANCH  25  26
ENDBRANCH  10  25
BRANCH   5  28
HETATM   28  C8  UNL     1       2.728   0.623   1.001  1.00  0.00     0.035 C 
BRANCH  28  29
HETATM   29  C9  UNL     1       4.036   0.663   0.347  1.00  0.00     0.022 C 
BRANCH  29  30
HETATM   30  C10 UNL     1       4.632  -0.700   0.060  1.00  0.00     0.122 C 
BRANCH  30  31
HETATM   31  N2  UNL     1       4.821  -1.478   1.251  1.00  0.00    -0.367 N 
HETATM   32  C11 UNL     1       5.973  -1.773   1.729  1.00  0.00     0.196 C 
HETATM   33  N3  UNL     1       6.049  -2.547   2.911  1.00  0.00    -0.067 NA
HETATM   34  N4  UNL     1       7.176  -1.350   1.114  1.00  0.00    -0.067 NA
ATOM     35  H2  UNL     1       3.994  -1.814   1.744  1.00  0.00     0.161 HD
ENDBRANCH  30  31
ENDBRANCH  29  30
ENDBRANCH  28  29
ENDBRANCH   5  28
BRANCH  13  36
HETATM   36  O3  UNL     1      -1.886   1.847  -3.123  1.00  0.00    -0.345 OA
ATOM     37  H3  UNL     1      -2.644   1.342  -3.394  1.00  0.00     0.219 HD
ENDBRANCH  13  36
BRANCH   4  38
HETATM   38  O1  UNL     1       1.780  -0.125  -2.137  1.00  0.00    -0.348 OA
ATOM     39  H1  UNL     1       2.142  -0.971  -1.899  1.00  0.00     0.219 HD
ENDBRANCH   4  38
BRANCH   1  40
HETATM   40  C4  UNL     1      -0.518   3.265  -0.178  1.00  0.00     0.065 C 
BRANCH  40  41
HETATM   41  C2  UNL     1      -1.778   4.037  -0.007  1.00  0.00    -0.017 C 
HETATM   42  C1  UNL     1      -1.971   5.040  -1.160  1.00  0.00     0.010 C 
HETATM   43  C3  UNL     1      -1.581   4.915   1.237  1.00  0.00     0.010 C 
ENDBRANCH  40  41
ENDBRANCH   1  40
TORSDOF 13
