REMARK  13 active torsions:
REMARK  status: ('A' for Active; 'I' for Inactive)
REMARK    1  A    between atoms: C2_2  and  C4_4 
REMARK    2  A    between atoms: C4_4  and  N1_5 
REMARK    3  A    between atoms: C4_4  and  C10_18 
REMARK       I    between atoms: N1_5  and  C5_7 
REMARK    4  A    between atoms: C5_7  and  C6_9 
REMARK    5  A    between atoms: C6_9  and  C9_13 
REMARK    6  A    between atoms: C7_10  and  C8_11 
REMARK       I    between atoms: C10_18  and  N4_20 
REMARK    7  A    between atoms: N4_20  and  C11_22 
REMARK    8  A    between atoms: C11_22  and  C12_23 
REMARK    9  A    between atoms: C11_22  and  C21_38 
REMARK       I    between atoms: C12_23  and  N5_25 
REMARK   10  A    between atoms: C15_28  and  C16_29 
REMARK   11  A    between atoms: C16_29  and  C17_30 
REMARK   12  A    between atoms: C17_30  and  C18_31 
REMARK   13  A    between atoms: C18_31  and  N6_32 
ROOT
HETATM    1  C10 UNL     1      -2.132  -0.245  -0.163  1.00  0.00     0.241 C 
HETATM    2  O2  UNL     1      -2.063   0.667  -1.016  1.00  0.00    -0.271 OA
HETATM    3  N4  UNL     1      -1.071  -1.118  -0.005  1.00  0.00    -0.346 N 
ATOM      4  H4  UNL     1      -1.185  -1.839   0.707  1.00  0.00     0.163 HD
ENDROOT
BRANCH   3   5
HETATM    5  C11 UNL     1       0.181  -1.131  -0.729  1.00  0.00     0.180 C 
BRANCH   5   6
HETATM    6  C12 UNL     1       1.197  -0.642   0.243  1.00  0.00     0.243 C 
HETATM    7  O3  UNL     1       0.864  -0.491   1.485  1.00  0.00    -0.271 OA
HETATM    8  N5  UNL     1       2.529  -0.306  -0.037  1.00  0.00    -0.350 N 
HETATM    9  C13 UNL     1       3.061  -0.385  -1.367  1.00  0.00     0.126 C 
HETATM   10  C20 UNL     1       3.412   0.139   1.009  1.00  0.00     0.126 C 
HETATM   11  C14 UNL     1       4.103   0.745  -1.490  1.00  0.00     0.024 C 
HETATM   12  C15 UNL     1       5.288   0.257  -0.685  1.00  0.00    -0.012 C 
HETATM   13  C19 UNL     1       4.864   0.036   0.719  1.00  0.00     0.024 C 
BRANCH  12  14
HETATM   14  C16 UNL     1       6.487   1.134  -0.842  1.00  0.00     0.006 C 
BRANCH  14  15
HETATM   15  C17 UNL     1       7.618   0.575  -0.011  1.00  0.00     0.027 C 
BRANCH  15  16
HETATM   16  C18 UNL     1       8.816   1.494  -0.202  1.00  0.00     0.229 C 
BRANCH  16  17
HETATM   17  N6  UNL     1       9.897   0.947   0.600  1.00  0.00    -0.079 N 
ATOM     18  H63 UNL     1       9.644   0.815   1.579  1.00  0.00     0.274 HD
ATOM     19  H62 UNL     1      10.101  -0.029   0.387  1.00  0.00     0.274 HD
ATOM     20  H61 UNL     1      10.700   1.563   0.472  1.00  0.00     0.274 HD
ENDBRANCH  16  17
ENDBRANCH  15  16
ENDBRANCH  14  15
ENDBRANCH  12  14
ENDBRANCH   5   6
BRANCH   5  21
HETATM   21  C21 UNL     1       0.589  -2.459  -1.229  1.00  0.00     0.009 C 
HETATM   22  C22 UNL     1       0.796  -3.496  -0.144  1.00  0.00     0.012 C 
HETATM   23  C23 UNL     1      -0.392  -3.099  -2.197  1.00  0.00     0.012 C 
ENDBRANCH   5  21
ENDBRANCH   3   5
BRANCH   1  24
HETATM   24  C4  UNL     1      -3.348  -0.367   0.656  1.00  0.00     0.180 C 
BRANCH  24  25
HETATM   25  C2  UNL     1      -3.081  -0.326   2.132  1.00  0.00     0.009 C 
HETATM   26  C1  UNL     1      -2.523   1.010   2.575  1.00  0.00     0.012 C 
HETATM   27  C3  UNL     1      -4.330  -0.590   2.944  1.00  0.00     0.012 C 
ENDBRANCH  24  25
BRANCH  24  28
HETATM   28  N1  UNL     1      -4.326   0.692   0.360  1.00  0.00    -0.343 N 
HETATM   29  C5  UNL     1      -5.587   0.368  -0.171  1.00  0.00     0.255 C 
HETATM   30  O1  UNL     1      -5.772  -0.894  -0.364  1.00  0.00    -0.268 OA
ATOM     31  H1  UNL     1      -4.088   1.667   0.541  1.00  0.00     0.163 HD
BRANCH  29  32
HETATM   32  C6  UNL     1      -6.641   1.280  -0.500  1.00  0.00     0.069 C 
HETATM   33  C7  UNL     1      -7.795   0.902  -1.003  1.00  0.00     0.004 C 
BRANCH  33  34
HETATM   34  C8  UNL     1      -8.296  -0.411  -1.340  1.00  0.00     0.113 C 
HETATM   35 BR1  UNL     1      -9.905  -0.822  -0.295  1.00  0.00    -0.092 Br
ENDBRANCH  33  34
BRANCH  32  36
HETATM   36  C9  UNL     1      -6.515   2.725  -0.280  1.00  0.00     0.125 C 
HETATM   37  N2  UNL     1      -5.493   3.274   0.178  1.00  0.00    -0.387 N 
ATOM     38  H22 UNL     1      -4.692   2.690   0.417  1.00  0.00     0.157 HD
ATOM     39  H21 UNL     1      -5.405   4.279   0.331  1.00  0.00     0.157 HD
HETATM   40  N3  UNL     1      -7.646   3.549  -0.618  1.00  0.00    -0.082 NA
ENDBRANCH  32  36
ENDBRANCH  29  32
ENDBRANCH  24  28
ENDBRANCH   1  24
TORSDOF 13
