REMARK  11 active torsions:
REMARK  status: ('A' for Active; 'I' for Inactive)
REMARK    1  A    between atoms: C2_2  and  C4_4 
REMARK    2  A    between atoms: C4_4  and  C5_5 
REMARK    3  A    between atoms: N2_10  and  C8_11 
REMARK    4  A    between atoms: C8_11  and  C9_12 
REMARK    5  A    between atoms: C9_12  and  C10_13 
REMARK    6  A    between atoms: C10_13  and  C11_14 
REMARK    7  A    between atoms: C11_14  and  N3_15 
REMARK    8  A    between atoms: N3_15  and  C12_17 
REMARK    9  A    between atoms: C12_17  and  C13_18 
REMARK   10  A    between atoms: C16_26  and  C18_28 
REMARK   11  A    between atoms: C18_28  and  C19_29 
ROOT
HETATM    1  C5  UNL     1      -1.418   1.861  -1.241  1.00  0.00     0.086 A 
HETATM    2  N1  UNL     1      -0.185   2.321  -1.474  1.00  0.00    -0.338 N 
ATOM      3  H1  UNL     1       0.038   3.303  -1.638  1.00  0.00     0.167 HD
HETATM    4  C6  UNL     1       0.736   1.319  -1.465  1.00  0.00     0.146 A 
HETATM    5  C7  UNL     1      -0.000   0.170  -1.209  1.00  0.00     0.139 A 
HETATM    6  N2  UNL     1      -1.289   0.512  -1.077  1.00  0.00    -0.321 N 
HETATM    7  N4  UNL     1       0.730  -1.055  -1.143  1.00  0.00    -0.351 N 
ATOM      8  H4  UNL     1       0.204  -1.929  -1.133  1.00  0.00     0.163 HD
HETATM    9  C14 UNL     1       2.149  -1.126  -1.091  1.00  0.00     0.206 C 
HETATM   10  C15 UNL     1       2.672  -1.327   0.346  1.00  0.00     0.161 C 
HETATM   11  N5  UNL     1       4.042  -1.724   0.186  1.00  0.00    -0.409 N 
ATOM     12  H5  UNL     1       4.297  -2.690  -0.021  1.00  0.00     0.154 HD
HETATM   13  C16 UNL     1       5.024  -0.714   0.329  1.00  0.00     0.031 C 
HETATM   14  C17 UNL     1       4.792   0.098   1.592  1.00  0.00     0.038 C 
HETATM   15  C20 UNL     1       5.170   0.255  -0.795  1.00  0.00     0.050 C 
HETATM   16  C21 UNL     1       4.240   0.085  -1.943  1.00  0.00     0.131 C 
HETATM   17  N7  UNL     1       2.851   0.044  -1.555  1.00  0.00    -0.324 N 
HETATM   18  C22 UNL     1       2.177   1.274  -1.644  1.00  0.00     0.276 C 
HETATM   19  O2  UNL     1       2.799   2.338  -1.874  1.00  0.00    -0.266 OA
ENDROOT
BRANCH   6  20
HETATM   20  C8  UNL     1      -2.372  -0.374  -0.807  1.00  0.00     0.132 C 
BRANCH  20  21
HETATM   21  C9  UNL     1      -2.671  -0.613   0.637  1.00  0.00     0.025 C 
BRANCH  21  22
HETATM   22  C10 UNL     1      -3.849  -1.583   0.695  1.00  0.00     0.046 C 
BRANCH  22  23
HETATM   23  C11 UNL     1      -4.245  -1.907   2.086  1.00  0.00     0.060 C 
BRANCH  23  24
HETATM   24  N3  UNL     1      -5.311  -2.802   2.202  1.00  0.00    -0.382 N 
ATOM     25  H3  UNL     1      -5.102  -3.742   2.537  1.00  0.00     0.164 HD
BRANCH  24  26
HETATM   26  C12 UNL     1      -6.627  -2.512   1.898  1.00  0.00     0.071 C 
BRANCH  26  27
HETATM   27  C13 UNL     1      -7.074  -2.281   0.504  1.00  0.00     0.129 C 
HETATM   28 BR1  UNL     1      -6.718  -3.764  -0.669  1.00  0.00    -0.091 Br
ENDBRANCH  26  27
ENDBRANCH  24  26
ENDBRANCH  23  24
ENDBRANCH  22  23
ENDBRANCH  21  22
ENDBRANCH  20  21
ENDBRANCH   6  20
BRANCH   1  29
HETATM   29  C4  UNL     1      -2.691   2.618  -1.152  1.00  0.00     0.080 C 
BRANCH  29  30
HETATM   30  C2  UNL     1      -2.511   4.088  -1.273  1.00  0.00    -0.016 C 
HETATM   31  C1  UNL     1      -1.625   4.576  -0.144  1.00  0.00     0.010 C 
HETATM   32  C3  UNL     1      -3.820   4.839  -1.310  1.00  0.00     0.010 C 
ENDBRANCH  29  30
ENDBRANCH   1  29
BRANCH  13  33
HETATM   33  C18 UNL     1       6.366  -1.451   0.512  1.00  0.00     0.129 C 
BRANCH  33  34
HETATM   34  C19 UNL     1       6.340  -2.319   1.702  1.00  0.00     0.233 C 
HETATM   35  N6  UNL     1       7.481  -3.063   2.046  1.00  0.00    -0.062 NA
HETATM   36  O1  UNL     1       5.315  -2.403   2.411  1.00  0.00    -0.277 OA
ENDBRANCH  33  34
ENDBRANCH  13  33
TORSDOF 11
