REMARK  14 active torsions:
REMARK  status: ('A' for Active; 'I' for Inactive)
REMARK    1  A    between atoms: C2_2  and  C4_4 
REMARK    2  A    between atoms: C5_7  and  O1_8 
REMARK    3  A    between atoms: C6_10  and  C7_11 
REMARK    4  A    between atoms: C7_11  and  C8_12 
REMARK    5  A    between atoms: C8_12  and  C9_13 
REMARK    6  A    between atoms: C9_13  and  C10_14 
REMARK    7  A    between atoms: C10_14  and  C11_15 
REMARK    8  A    between atoms: C11_15  and  C12_16 
REMARK    9  A    between atoms: C14_23  and  C15_24 
REMARK   10  A    between atoms: C15_24  and  C16_25 
REMARK   11  A    between atoms: C16_25  and  C17_26 
REMARK   12  A    between atoms: C18_30  and  C19_31 
REMARK   13  A    between atoms: C19_31  and  C20_32 
REMARK   14  A    between atoms: C26_40  and  O4_41 
ROOT
HETATM    1  C4  UNL     1       0.560   0.513   2.228  1.00  0.00     0.065 C 
HETATM    2  N1  UNL     1       1.342  -0.093   1.218  1.00  0.00    -0.338 N 
ATOM      3  H1  UNL     1       2.268  -0.337   1.569  1.00  0.00     0.167 HD
HETATM    4  C5  UNL     1       1.205  -0.448  -0.111  1.00  0.00     0.139 C 
HETATM    5  C6  UNL     1       0.982   0.300  -1.331  1.00  0.00     0.159 C 
HETATM    6  N3  UNL     1      -0.222   0.016  -2.069  1.00  0.00    -0.344 N 
ATOM      7  H3  UNL     1      -0.409   0.695  -2.807  1.00  0.00     0.163 HD
HETATM    8  C13 UNL     1      -1.171  -0.971  -1.993  1.00  0.00     0.268 C 
HETATM    9  O3  UNL     1      -1.356  -1.708  -3.038  1.00  0.00    -0.266 OA
HETATM   10  C14 UNL     1      -2.083  -1.375  -0.865  1.00  0.00     0.094 C 
HETATM   11  N4  UNL     1      -1.996  -0.581   0.284  1.00  0.00    -0.364 N 
ATOM     12  H4  UNL     1      -1.826  -0.968   1.212  1.00  0.00     0.162 HD
HETATM   13  C18 UNL     1      -2.167   0.834   0.045  1.00  0.00     0.187 C 
HETATM   14  N5  UNL     1      -1.290   1.693   0.786  1.00  0.00    -0.348 N 
ATOM     15  H5  UNL     1      -1.247   2.647   0.429  1.00  0.00     0.163 HD
HETATM   16  C26 UNL     1      -0.487   1.472   1.899  1.00  0.00     0.161 C 
ENDROOT
BRANCH   5  17
HETATM   17  C7  UNL     1       2.180   0.305  -2.273  1.00  0.00     0.033 C 
BRANCH  17  18
HETATM   18  C8  UNL     1       2.636  -1.011  -2.755  1.00  0.00     0.002 C 
BRANCH  18  19
HETATM   19  C9  UNL     1       3.832  -0.783  -3.694  1.00  0.00     0.001 C 
BRANCH  19  20
HETATM   20  C10 UNL     1       4.967  -0.098  -3.017  1.00  0.00     0.009 C 
BRANCH  20  21
HETATM   21  C11 UNL     1       5.497  -0.894  -1.827  1.00  0.00     0.099 C 
BRANCH  21  22
HETATM   22  C12 UNL     1       6.640  -0.149  -1.193  1.00  0.00     0.231 C 
HETATM   23  N2  UNL     1       7.294  -0.670  -0.065  1.00  0.00    -0.062 NA
HETATM   24  O2  UNL     1       7.031   0.954  -1.661  1.00  0.00    -0.277 OA
ENDBRANCH  21  22
ENDBRANCH  20  21
ENDBRANCH  19  20
ENDBRANCH  18  19
ENDBRANCH  17  18
ENDBRANCH   5  17
BRANCH   4  25
HETATM   25  O1  UNL     1       1.299  -1.737  -0.313  1.00  0.00    -0.348 OA
ATOM     26  H1  UNL     1       1.205  -1.981  -1.226  1.00  0.00     0.219 HD
ENDBRANCH   4  25
BRANCH   1  27
HETATM   27  C2  UNL     1       0.088  -0.523   3.267  1.00  0.00     0.032 C 
HETATM   28  C1  UNL     1       1.267  -1.192   3.931  1.00  0.00     0.016 C 
HETATM   29  C3  UNL     1      -0.731   0.121   4.360  1.00  0.00     0.016 C 
ENDBRANCH   1  27
BRANCH  10  30
HETATM   30  C15 UNL     1      -2.109  -2.828  -0.837  1.00  0.00     0.009 C 
BRANCH  30  31
HETATM   31  C16 UNL     1      -2.848  -3.644   0.119  1.00  0.00     0.040 C 
BRANCH  31  32
HETATM   32  C17 UNL     1      -2.464  -3.612   1.566  1.00  0.00     0.089 C 
HETATM   33 BR1  UNL     1      -3.656  -4.832   2.545  1.00  0.00    -0.096 Br
ENDBRANCH  31  32
ENDBRANCH  30  31
ENDBRANCH  10  30
BRANCH  16  34
HETATM   34  O4  UNL     1      -0.722   2.317   2.877  1.00  0.00    -0.345 OA
ATOM     35  H4  UNL     1      -1.404   2.942   2.663  1.00  0.00     0.219 HD
ENDBRANCH  16  34
BRANCH  13  36
HETATM   36  C19 UNL     1      -3.609   1.140   0.498  1.00  0.00     0.085 C 
BRANCH  36  37
HETATM   37  C20 UNL     1      -3.976   2.539   0.327  1.00  0.00    -0.055 A 
HETATM   38  C21 UNL     1      -3.817   3.467   1.324  1.00  0.00     0.007 A 
HETATM   39  C22 UNL     1      -4.154   4.789   1.162  1.00  0.00     0.001 A 
HETATM   40  C23 UNL     1      -4.675   5.237  -0.031  1.00  0.00     0.000 A 
HETATM   41  C24 UNL     1      -4.843   4.316  -1.044  1.00  0.00     0.001 A 
HETATM   42  C25 UNL     1      -4.496   2.976  -0.868  1.00  0.00     0.007 A 
ENDBRANCH  36  37
ENDBRANCH  13  36
TORSDOF 14
