REMARK  15 active torsions:
REMARK  status: ('A' for Active; 'I' for Inactive)
REMARK    1  A    between atoms: C2_2  and  N1_3 
REMARK    2  A    between atoms: C2_2  and  C26_43 
REMARK       I    between atoms: N1_3  and  C3_5 
REMARK    3  A    between atoms: C3_5  and  C4_7 
REMARK    4  A    between atoms: N2_14  and  C10_15 
REMARK    5  A    between atoms: C10_15  and  O2_16 
REMARK    6  A    between atoms: C10_15  and  C11_18 
REMARK    7  A    between atoms: C11_18  and  N3_19 
REMARK    8  A    between atoms: C11_18  and  C23_40 
REMARK       I    between atoms: N3_19  and  C12_21 
REMARK    9  A    between atoms: C12_21  and  C13_23 
REMARK   10  A    between atoms: C13_23  and  N4_24 
REMARK   11  A    between atoms: C13_23  and  C20_37 
REMARK       I    between atoms: N4_24  and  C14_26 
REMARK   12  A    between atoms: C14_26  and  C15_28 
REMARK   13  A    between atoms: C15_28  and  C16_29 
REMARK   14  A    between atoms: C16_29  and  C19_32 
REMARK   15  A    between atoms: C19_32  and  N5_33 
ROOT
HETATM    1  C11 UNL     1      -1.090  -0.609   0.421  1.00  0.00     0.163 C 
ENDROOT
BRANCH   1   2
HETATM    2  C10 UNL     1      -2.201  -1.467   0.095  1.00  0.00     0.142 C 
BRANCH   2   3
HETATM    3  N2  UNL     1      -3.559  -1.214  -0.156  1.00  0.00    -0.325 N 
HETATM    4  C4  UNL     1      -4.065   0.138  -0.246  1.00  0.00     0.201 C 
HETATM    5  C5  UNL     1      -5.108   0.115  -1.258  1.00  0.00     0.115 C 
HETATM    6 CL1  UNL     1      -6.259  -0.313   0.108  1.00  0.00    -0.122 Cl
HETATM    7  C6  UNL     1      -6.079  -0.289  -2.162  1.00  0.00     0.026 C 
HETATM    8  C7  UNL     1      -6.372  -1.800  -1.953  1.00  0.00     0.030 C 
HETATM    9  C8  UNL     1      -5.608  -2.565  -0.976  1.00  0.00    -0.009 C 
HETATM   10  C9  UNL     1      -4.343  -2.428  -0.362  1.00  0.00     0.090 C 
BRANCH   4  11
HETATM   11  C3  UNL     1      -4.421   0.856   0.984  1.00  0.00     0.243 C 
HETATM   12  N1  UNL     1      -4.595   0.371   2.296  1.00  0.00    -0.345 N 
ATOM     13  H1  UNL     1      -4.458  -0.621   2.492  1.00  0.00     0.163 HD
HETATM   14  O1  UNL     1      -4.633   2.137   0.940  1.00  0.00    -0.271 OA
BRANCH  12  15
HETATM   15  C2  UNL     1      -4.964   1.264   3.358  1.00  0.00     0.181 C 
HETATM   16  C1  UNL     1      -3.790   1.546   4.313  1.00  0.00     0.043 C 
BRANCH  15  17
HETATM   17  C26 UNL     1      -6.077   0.824   4.200  1.00  0.00     0.196 C 
HETATM   18  O5  UNL     1      -6.617  -0.289   4.021  1.00  0.00    -0.646 OA
HETATM   19  O6  UNL     1      -6.547   1.637   5.206  1.00  0.00    -0.646 OA
ENDBRANCH  15  17
ENDBRANCH  12  15
ENDBRANCH   4  11
ENDBRANCH   2   3
BRANCH   2  20
HETATM   20  O2  UNL     1      -1.884  -2.743   0.006  1.00  0.00    -0.348 OA
ATOM     21  H2  UNL     1      -0.965  -2.914   0.176  1.00  0.00     0.219 HD
ENDBRANCH   2  20
ENDBRANCH   1   2
BRANCH   1  22
HETATM   22  N3  UNL     1       0.032  -0.900  -0.519  1.00  0.00    -0.347 N 
HETATM   23  C12 UNL     1       1.073   0.048  -0.676  1.00  0.00     0.241 C 
HETATM   24  O3  UNL     1       1.004   1.112  -0.007  1.00  0.00    -0.271 OA
ATOM     25  H3  UNL     1       0.049  -1.774  -1.044  1.00  0.00     0.163 HD
BRANCH  23  26
HETATM   26  C13 UNL     1       2.245  -0.120  -1.569  1.00  0.00     0.180 C 
BRANCH  26  27
HETATM   27  N4  UNL     1       3.174   0.987  -1.421  1.00  0.00    -0.347 N 
HETATM   28  C14 UNL     1       4.537   0.789  -1.051  1.00  0.00     0.219 C 
HETATM   29  O4  UNL     1       4.909  -0.406  -0.862  1.00  0.00    -0.274 OA
ATOM     30  H4  UNL     1       2.841   1.937  -1.587  1.00  0.00     0.163 HD
BRANCH  28  31
HETATM   31  C15 UNL     1       5.500   1.872  -0.883  1.00  0.00     0.113 C 
BRANCH  31  32
HETATM   32  C16 UNL     1       6.909   1.458  -0.589  1.00  0.00    -0.016 C 
HETATM   33  C17 UNL     1       7.731   2.749  -0.422  1.00  0.00     0.017 C 
HETATM   34  C18 UNL     1       7.065   0.615   0.641  1.00  0.00     0.017 C 
BRANCH  32  35
HETATM   35  C19 UNL     1       7.562   0.745  -1.761  1.00  0.00     0.238 C 
BRANCH  35  36
HETATM   36  N5  UNL     1       8.923   0.360  -1.441  1.00  0.00    -0.079 N 
ATOM     37  H53 UNL     1       9.477   1.158  -1.130  1.00  0.00     0.274 HD
ATOM     38  H52 UNL     1       8.966  -0.199  -0.589  1.00  0.00     0.274 HD
ATOM     39  H51 UNL     1       9.361  -0.119  -2.228  1.00  0.00     0.274 HD
ENDBRANCH  35  36
ENDBRANCH  32  35
ENDBRANCH  31  32
ENDBRANCH  28  31
ENDBRANCH  26  27
BRANCH  26  40
HETATM   40  C20 UNL     1       1.764  -0.230  -3.005  1.00  0.00     0.009 C 
HETATM   41  C21 UNL     1       2.933  -0.414  -3.944  1.00  0.00     0.012 C 
HETATM   42  C22 UNL     1       1.053   1.044  -3.428  1.00  0.00     0.012 C 
ENDBRANCH  26  40
ENDBRANCH  23  26
ENDBRANCH   1  22
BRANCH   1  43
HETATM   43  C23 UNL     1      -0.396  -1.099   1.743  1.00  0.00     0.008 C 
HETATM   44  C24 UNL     1      -1.293  -1.105   2.913  1.00  0.00     0.012 C 
HETATM   45  C25 UNL     1       0.350  -2.377   1.538  1.00  0.00     0.012 C 
ENDBRANCH   1  43
TORSDOF 15
