REMARK  12 active torsions:
REMARK  status: ('A' for Active; 'I' for Inactive)
REMARK    1  A    between atoms: C2_2  and  C3_3 
REMARK    2  A    between atoms: C3_3  and  C4_4 
REMARK    3  A    between atoms: C4_4  and  C5_5 
REMARK    4  A    between atoms: C5_5  and  C6_6 
REMARK    5  A    between atoms: C6_6  and  C7_7 
REMARK    6  A    between atoms: C9_12  and  C10_13 
REMARK    7  A    between atoms: C19_27  and  C20_28 
REMARK    8  A    between atoms: C20_28  and  C21_29 
REMARK    9  A    between atoms: C21_29  and  C22_30 
REMARK   10  A    between atoms: C22_30  and  C23_31 
REMARK   11  A    between atoms: C23_31  and  N4_32 
REMARK   12  A    between atoms: C26_41  and  C27_42 
ROOT
HETATM    1  C7  UNL     1       2.825   0.492  -0.905  1.00  0.00     0.176 C 
HETATM    2  N1  UNL     1       2.187   1.336  -1.899  1.00  0.00    -0.346 N 
ATOM      3  H1  UNL     1       2.465   1.137  -2.860  1.00  0.00     0.163 HD
HETATM    4  C8  UNL     1       1.269   2.362  -1.773  1.00  0.00     0.245 C 
HETATM    5  O1  UNL     1       1.676   3.524  -2.186  1.00  0.00    -0.271 OA
HETATM    6  C9  UNL     1      -0.113   2.343  -1.237  1.00  0.00     0.212 C 
HETATM    7  N3  UNL     1      -0.951   1.383  -1.945  1.00  0.00    -0.343 N 
ATOM      8  H3  UNL     1      -0.713   1.181  -2.916  1.00  0.00     0.163 HD
HETATM    9  C18 UNL     1      -2.067   0.709  -1.396  1.00  0.00     0.224 C 
HETATM   10  O2  UNL     1      -3.187   0.700  -2.020  1.00  0.00    -0.273 OA
HETATM   11  C19 UNL     1      -2.062  -0.023  -0.105  1.00  0.00     0.095 C 
HETATM   12  C24 UNL     1      -1.554  -1.441  -0.280  1.00  0.00     0.136 C 
HETATM   13  N5  UNL     1      -1.073  -1.677  -1.620  1.00  0.00    -0.358 N 
ATOM     14  H5  UNL     1      -1.764  -1.656  -2.370  1.00  0.00     0.162 HD
HETATM   15  C25 UNL     1       0.259  -1.933  -1.987  1.00  0.00     0.240 C 
HETATM   16  O3  UNL     1       0.640  -1.567  -3.128  1.00  0.00    -0.271 OA
HETATM   17  C26 UNL     1       1.236  -2.606  -1.119  1.00  0.00     0.180 C 
HETATM   18  N6  UNL     1       2.588  -2.092  -1.207  1.00  0.00    -0.346 N 
ATOM     19  H6  UNL     1       3.314  -2.777  -0.996  1.00  0.00     0.163 HD
HETATM   20  C30 UNL     1       3.062  -0.838  -1.526  1.00  0.00     0.241 C 
HETATM   21  O4  UNL     1       3.861  -0.755  -2.539  1.00  0.00    -0.271 OA
ENDROOT
BRANCH   6  22
HETATM   22  C10 UNL     1      -0.766   3.673  -1.566  1.00  0.00     0.002 A 
HETATM   23  C11 UNL     1      -0.717   4.271  -2.805  1.00  0.00     0.099 A 
HETATM   24  N2  UNL     1      -1.413   5.442  -2.745  1.00  0.00    -0.365 N 
HETATM   25  C12 UNL     1      -1.884   5.564  -1.491  1.00  0.00     0.043 A 
ATOM     26  H2  UNL     1      -1.551   6.103  -3.509  1.00  0.00     0.165 HD
HETATM   27  C13 UNL     1      -2.637   6.523  -0.866  1.00  0.00     0.030 A 
HETATM   28  C17 UNL     1      -1.495   4.473  -0.732  1.00  0.00     0.001 A 
HETATM   29  C14 UNL     1      -3.008   6.435   0.457  1.00  0.00     0.002 A 
HETATM   30  C15 UNL     1      -2.610   5.339   1.197  1.00  0.00     0.001 A 
HETATM   31  C16 UNL     1      -1.843   4.348   0.588  1.00  0.00     0.014 A 
ENDBRANCH   6  22
BRANCH   1  32
HETATM   32  C6  UNL     1       2.119   0.482   0.383  1.00  0.00     0.035 C 
BRANCH  32  33
HETATM   33  C5  UNL     1       2.782  -0.354   1.458  1.00  0.00     0.002 C 
BRANCH  33  34
HETATM   34  C4  UNL     1       4.159   0.204   1.713  1.00  0.00     0.000 C 
BRANCH  34  35
HETATM   35  C3  UNL     1       4.901  -0.540   2.808  1.00  0.00    -0.000 C 
BRANCH  35  36
HETATM   36  C2  UNL     1       5.094  -1.994   2.457  1.00  0.00    -0.005 C 
HETATM   37  C1  UNL     1       5.890  -2.163   1.183  1.00  0.00     0.005 C 
ENDBRANCH  35  36
ENDBRANCH  34  35
ENDBRANCH  33  34
ENDBRANCH  32  33
ENDBRANCH   1  32
BRANCH  11  38
HETATM   38  C20 UNL     1      -3.434  -0.051   0.456  1.00  0.00     0.015 C 
BRANCH  38  39
HETATM   39  C21 UNL     1      -3.524  -0.782   1.778  1.00  0.00     0.002 C 
BRANCH  39  40
HETATM   40  C22 UNL     1      -4.968  -0.731   2.229  1.00  0.00     0.027 C 
BRANCH  40  41
HETATM   41  C23 UNL     1      -5.121  -1.451   3.554  1.00  0.00     0.229 C 
BRANCH  41  42
HETATM   42  N4  UNL     1      -6.495  -1.407   3.990  1.00  0.00    -0.079 N 
ATOM     43  H43 UNL     1      -6.851  -0.452   4.032  1.00  0.00     0.274 HD
ATOM     44  H42 UNL     1      -7.131  -1.773   3.282  1.00  0.00     0.274 HD
ATOM     45  H41 UNL     1      -6.598  -1.892   4.882  1.00  0.00     0.274 HD
ENDBRANCH  41  42
ENDBRANCH  40  41
ENDBRANCH  39  40
ENDBRANCH  38  39
ENDBRANCH  11  38
BRANCH  17  46
HETATM   46  C27 UNL     1       1.224  -4.082  -1.489  1.00  0.00     0.009 C 
HETATM   47  C28 UNL     1      -0.150  -4.644  -1.269  1.00  0.00     0.012 C 
HETATM   48  C29 UNL     1       1.698  -4.365  -2.868  1.00  0.00     0.012 C 
ENDBRANCH  17  46
TORSDOF 12
