REMARK  4 active torsions:
REMARK  status: ('A' for Active; 'I' for Inactive)
REMARK    1  A    between atoms: N1_1  and  C1_4 
REMARK    2  A    between atoms: C2_7  and  C3_8 
REMARK    3  A    between atoms: C3_8  and  C4_9 
REMARK    4  A    between atoms: N6_20  and  N7_21 
ROOT
HETATM    1  C1  UNL     1       1.541   1.448   0.418  1.00  0.00     0.692 A 
HETATM    2  N2  UNL     1       0.355   0.796   0.264  1.00  0.00    -0.189 N 
ATOM      3  H2  UNL     1      -0.524   1.300   0.383  1.00  0.00     0.184 HD
HETATM    4  C2  UNL     1       0.343  -0.510  -0.045  1.00  0.00     0.103 A 
HETATM    5  C6  UNL     1       1.563  -1.129  -0.192  1.00  0.00     0.305 A 
HETATM    6  O2  UNL     1       1.625  -2.354  -0.482  1.00  0.00    -0.263 OA
HETATM    7  N6  UNL     1       2.732  -0.445  -0.031  1.00  0.00    -0.148 N 
HETATM    8  N8  UNL     1       2.726   0.837   0.272  1.00  0.00    -0.108 N 
ATOM      9  H8  UNL     1       3.599   1.351   0.392  1.00  0.00     0.208 HD
ENDROOT
BRANCH   4  10
HETATM   10  C3  UNL     1      -0.886  -1.313  -0.233  1.00  0.00     0.128 C 
BRANCH  10  11
HETATM   11  C4  UNL     1      -2.117  -0.535  -0.060  1.00  0.00     0.102 A 
HETATM   12  N3  UNL     1      -2.901  -0.592   1.031  1.00  0.00    -0.285 N 
HETATM   13  N4  UNL     1      -3.921   0.226   0.867  1.00  0.00    -0.240 N 
ATOM     14  H3  UNL     1      -2.733  -1.174   1.852  1.00  0.00     0.188 HD
HETATM   15  N5  UNL     1      -3.805   0.808  -0.310  1.00  0.00    -0.250 N 
ATOM     16  H4  UNL     1      -4.673   0.382   1.538  1.00  0.00     0.208 HD
HETATM   17  C5  UNL     1      -2.700   0.368  -0.925  1.00  0.00     0.285 A 
ATOM     18  H5  UNL     1      -4.458   1.491  -0.694  1.00  0.00     0.192 HD
HETATM   19  O1  UNL     1      -2.316   0.733  -2.056  1.00  0.00    -0.265 OA
ENDBRANCH  10  11
ENDBRANCH   4  10
BRANCH   1  20
HETATM   20  N1  UNL     1       1.559   2.713   0.717  1.00  0.00    -0.233 N 
ATOM     21  H12 UNL     1       0.658   3.178   0.828  1.00  0.00     0.174 HD
ATOM     22  H11 UNL     1       2.447   3.201   0.832  1.00  0.00     0.174 HD
ENDBRANCH   1  20
BRANCH   7  23
HETATM   23  N7  UNL     1       3.982  -1.062  -0.180  1.00  0.00    -0.320 N 
ATOM     24  H72 UNL     1       3.987  -2.055  -0.415  1.00  0.00     0.179 HD
ATOM     25  H71 UNL     1       4.856  -0.550  -0.060  1.00  0.00     0.179 HD
ENDBRANCH   7  23
TORSDOF 4
