REMARK  3 active torsions:
REMARK  status: ('A' for Active; 'I' for Inactive)
REMARK    1  A    between atoms: C2_3  and  N2_4 
REMARK    2  A    between atoms: N2_4  and  S1_6 
REMARK    3  A    between atoms: S1_6  and  N3_7 
ROOT
HETATM    1  N1  UNL     1      -1.049   0.649   1.973  1.00  0.00    -0.092 NA
HETATM    2  C1  UNL     1      -1.244   0.313   0.615  1.00  0.00     0.159 A 
HETATM    3  C2  UNL     1      -0.148   0.376  -0.242  1.00  0.00     0.150 A 
HETATM    4  N4  UNL     1      -0.383   0.050  -1.510  1.00  0.00    -0.292 N 
ATOM      5  H4  UNL     1       0.394   0.082  -2.170  1.00  0.00     0.172 HD
HETATM    6  C3  UNL     1      -1.593  -0.319  -1.966  1.00  0.00     0.328 A 
HETATM    7  O3  UNL     1      -1.765  -0.620  -3.184  1.00  0.00    -0.247 OA
HETATM    8  N5  UNL     1      -2.649  -0.377  -1.130  1.00  0.00    -0.274 N 
ATOM      9  H5  UNL     1      -3.563  -0.659  -1.485  1.00  0.00     0.173 HD
HETATM   10  C4  UNL     1      -2.503  -0.065   0.170  1.00  0.00     0.277 A 
HETATM   11  O4  UNL     1      -3.494  -0.121   0.941  1.00  0.00    -0.266 OA
ENDROOT
BRANCH   3  12
HETATM   12  N2  UNL     1       1.115   0.769   0.270  1.00  0.00    -0.251 N 
ATOM     13  H2  UNL     1       1.347   1.762   0.258  1.00  0.00     0.182 HD
BRANCH  12  14
HETATM   14  S1  UNL     1       2.274  -0.317   0.907  1.00  0.00     0.318 S 
HETATM   15  O1  UNL     1       1.606  -1.516   1.531  1.00  0.00    -0.183 OA
HETATM   16  O2  UNL     1       3.016   0.384   2.001  1.00  0.00    -0.183 OA
BRANCH  14  17
HETATM   17  N3  UNL     1       3.312  -0.828  -0.375  1.00  0.00    -0.311 N 
ATOM     18  H32 UNL     1       3.234  -0.524  -1.346  1.00  0.00     0.170 HD
ATOM     19  H31 UNL     1       4.003  -1.475   0.005  1.00  0.00     0.170 HD
ENDBRANCH  14  17
ENDBRANCH  12  14
ENDBRANCH   3  12
TORSDOF 3
