REMARK  5 active torsions:
REMARK  status: ('A' for Active; 'I' for Inactive)
REMARK    1  A    between atoms: N1_2  and  C2_4 
REMARK    2  A    between atoms: C3_7  and  N3_8 
REMARK    3  A    between atoms: C4_13  and  N5_14 
REMARK    4  A    between atoms: N5_14  and  C5_16 
REMARK    5  A    between atoms: C5_16  and  C6_17 
ROOT
HETATM    1  C2  UNL     1      -2.756  -0.835  -0.172  1.00  0.00     0.706 A 
HETATM    2  N2  UNL     1      -3.156   0.448  -0.136  1.00  0.00    -0.022 N 
ATOM      3  H2  UNL     1      -4.155   0.654  -0.141  1.00  0.00     0.203 HD
HETATM    4  C3  UNL     1      -2.282   1.469  -0.094  1.00  0.00     0.705 A 
HETATM    5  N4  UNL     1      -0.950   1.212  -0.089  1.00  0.00    -0.022 N 
ATOM      6  H4  UNL     1      -0.277   1.978  -0.058  1.00  0.00     0.203 HD
HETATM    7  C4  UNL     1      -0.527  -0.060  -0.125  1.00  0.00     0.707 A 
HETATM    8  N9  UNL     1      -1.416  -1.068  -0.166  1.00  0.00    -0.022 N 
ATOM      9  H9  UNL     1      -1.078  -2.030  -0.193  1.00  0.00     0.203 HD
ENDROOT
BRANCH   7  10
HETATM   10  N5  UNL     1       0.730  -0.311  -0.120  1.00  0.00    -0.218 N 
ATOM     11  H5  UNL     1       1.058  -1.277  -0.147  1.00  0.00     0.178 HD
BRANCH  10  12
HETATM   12  C5  UNL     1       1.678   0.770  -0.076  1.00  0.00     0.215 C 
BRANCH  12  13
HETATM   13  C6  UNL     1       3.055   0.239   0.129  1.00  0.00     0.108 C 
HETATM   14  N6  UNL     1       3.319  -1.011   0.251  1.00  0.00    -0.362 N 
HETATM   15  C7  UNL     1       4.755  -1.177   0.436  1.00  0.00     0.257 C 
ATOM     16  H6  UNL     1       2.634  -1.766   0.223  1.00  0.00     0.162 HD
HETATM   17  N7  UNL     1       5.298   0.077  -0.121  1.00  0.00    -0.120 NA
HETATM   18  N8  UNL     1       4.270   0.952   0.231  1.00  0.00    -0.290 N 
ATOM     19  H8  UNL     1       4.376   1.927   0.511  1.00  0.00     0.183 HD
ENDBRANCH  12  13
ENDBRANCH  10  12
ENDBRANCH   7  10
BRANCH   4  20
HETATM   20  N3  UNL     1      -2.666   2.699  -0.059  1.00  0.00    -0.234 N 
ATOM     21  H32 UNL     1      -3.668   2.892  -0.063  1.00  0.00     0.174 HD
ATOM     22  H31 UNL     1      -2.003   3.473  -0.027  1.00  0.00     0.174 HD
ENDBRANCH   4  20
BRANCH   1  23
HETATM   23  N1  UNL     1      -3.545  -1.844  -0.212  1.00  0.00    -0.229 N 
HETATM   24  C1  UNL     1      -4.971  -1.748  -0.224  1.00  0.00     0.165 C 
ATOM     25  H1  UNL     1      -3.129  -2.775  -0.237  1.00  0.00     0.177 HD
ENDBRANCH   1  23
TORSDOF 5
