REMARK  3 active torsions:
REMARK  status: ('A' for Active; 'I' for Inactive)
REMARK    1  A    between atoms: N3_10  and  C4_12 
REMARK    2  A    between atoms: C8_21  and  C9_22 
REMARK    3  A    between atoms: C9_22  and  N6_23 
ROOT
HETATM    1  N1  UNL     1      -3.372  -1.739  -0.748  1.00  0.00    -0.385 N 
ATOM      2  H11 UNL     1      -4.281  -1.365  -0.474  1.00  0.00     0.157 HD
ATOM      3  H12 UNL     1      -3.268  -2.616  -1.258  1.00  0.00     0.157 HD
HETATM    4  C1  UNL     1      -2.278  -1.106  -0.458  1.00  0.00     0.109 A 
HETATM    5  N2  UNL     1      -1.014  -1.626  -0.839  1.00  0.00    -0.308 N 
ATOM      6  H2  UNL     1      -0.953  -2.508  -1.348  1.00  0.00     0.170 HD
HETATM    7  C2  UNL     1       0.172  -0.906  -0.504  1.00  0.00     0.273 A 
HETATM    8  O1  UNL     1       1.299  -1.383  -0.852  1.00  0.00    -0.266 OA
HETATM    9  C3  UNL     1       0.030   0.345   0.222  1.00  0.00     0.103 A 
HETATM   10  N3  UNL     1       1.049   1.035   0.551  1.00  0.00    -0.340 N 
ATOM     11  H3  UNL     1       0.859   1.898   1.060  1.00  0.00     0.167 HD
HETATM   12  C7  UNL     1      -1.331   0.811   0.579  1.00  0.00     0.048 A 
HETATM   13  C8  UNL     1      -2.426   0.146   0.270  1.00  0.00     0.013 A 
ENDROOT
BRANCH  10  14
HETATM   14  C4  UNL     1       2.396   0.755   0.301  1.00  0.00     0.105 C 
HETATM   15  N4  UNL     1       3.012   1.064  -0.791  1.00  0.00    -0.355 N 
HETATM   16  C5  UNL     1       4.409   0.636  -0.741  1.00  0.00     0.356 C 
ATOM     17  H4  UNL     1       2.582   1.543  -1.582  1.00  0.00     0.162 HD
HETATM   18  N5  UNL     1       4.656   0.637   0.703  1.00  0.00    -0.053 N 
HETATM   19  C6  UNL     1       3.401   0.081   1.166  1.00  0.00     0.309 C 
ATOM     20  H52 UNL     1       5.499   0.154   1.012  1.00  0.00     0.279 HD
ATOM     21  H51 UNL     1       4.924   1.533   1.110  1.00  0.00     0.279 HD
ENDBRANCH  10  14
BRANCH  13  22
HETATM   22  C9  UNL     1      -3.785   0.660   0.654  1.00  0.00     0.271 C 
BRANCH  22  23
HETATM   23  N6  UNL     1      -4.614   0.882  -0.510  1.00  0.00    -0.075 N 
ATOM     24  H63 UNL     1      -4.157   1.499  -1.182  1.00  0.00     0.274 HD
ATOM     25  H62 UNL     1      -4.681   0.043  -1.087  1.00  0.00     0.274 HD
ATOM     26  H61 UNL     1      -5.536   1.231  -0.249  1.00  0.00     0.274 HD
ENDBRANCH  22  23
ENDBRANCH  13  22
TORSDOF 3
