REMARK  4 active torsions:
REMARK  status: ('A' for Active; 'I' for Inactive)
REMARK    1  A    between atoms: C2_2  and  C3_3 
REMARK    2  A    between atoms: C3_3  and  O1_4 
REMARK    3  A    between atoms: O1_4  and  N1_5 
REMARK    4  A    between atoms: C4_7  and  C5_8 
ROOT
HETATM    1  N1  UNL     1       0.269  -1.250   0.233  1.00  0.00    -0.280 N 
ATOM      2  H1  UNL     1       0.768  -2.140   0.208  1.00  0.00     0.193 HD
HETATM    3  C4  UNL     1      -0.901  -1.346   0.586  1.00  0.00     0.119 C 
ENDROOT
BRANCH   3   4
HETATM    4  C5  UNL     1      -1.765  -0.153   0.702  1.00  0.00     0.227 C 
HETATM    5  C6  UNL     1      -3.149  -0.424   0.012  1.00  0.00     0.066 C 
HETATM    6  C7  UNL     1      -3.040   1.009  -0.530  1.00  0.00     0.235 C 
HETATM    7  N2  UNL     1      -1.676   0.929  -0.215  1.00  0.00    -0.066 N 
ATOM      8  H22 UNL     1      -1.228   1.782   0.119  1.00  0.00     0.278 HD
ATOM      9  H21 UNL     1      -1.027   0.821  -0.995  1.00  0.00     0.278 HD
ENDBRANCH   3   4
BRANCH   1  10
HETATM   10  O1  UNL     1       1.025  -0.187  -0.130  1.00  0.00    -0.277 OA
BRANCH  10  11
HETATM   11  C3  UNL     1       2.354  -0.199   0.546  1.00  0.00     0.228 C 
BRANCH  11  12
HETATM   12  C2  UNL     1       3.343  -0.270  -0.521  1.00  0.00    -0.009 C 
HETATM   13  C1  UNL     1       4.310   0.538  -0.774  1.00  0.00     0.009 C 
ENDBRANCH  11  12
ENDBRANCH  10  11
ENDBRANCH   1  10
TORSDOF 4
