REMARK  4 active torsions:
REMARK  status: ('A' for Active; 'I' for Inactive)
REMARK    1  A    between atoms: N1_3  and  C3_5 
REMARK    2  A    between atoms: N2_6  and  O1_8 
REMARK    3  A    between atoms: O1_8  and  C4_9 
REMARK    4  A    between atoms: C4_9  and  C5_10 
ROOT
HETATM    1  C1  UNL     1       4.749  -0.783   0.690  1.00  0.00     0.037 C 
HETATM    2  C2  UNL     1       3.985   0.149   0.750  1.00  0.00    -0.000 C 
HETATM    3  N1  UNL     1       3.105   1.258   0.832  1.00  0.00    -0.311 N 
ATOM      4  H1  UNL     1       3.381   2.091   1.352  1.00  0.00     0.177 HD
ENDROOT
BRANCH   3   5
HETATM    5  C3  UNL     1       1.852   1.210   0.196  1.00  0.00     0.212 C 
HETATM    6  N2  UNL     1       0.830   0.851   0.867  1.00  0.00    -0.262 N 
ATOM      7  H2  UNL     1       0.957   0.609   1.850  1.00  0.00     0.195 HD
BRANCH   6   8
HETATM    8  O1  UNL     1      -0.440   0.773   0.331  1.00  0.00    -0.277 OA
BRANCH   8   9
HETATM    9  C4  UNL     1      -0.977  -0.471  -0.081  1.00  0.00     0.235 C 
BRANCH   9  10
HETATM   10  C5  UNL     1      -2.367  -0.194  -0.612  1.00  0.00     0.237 A 
HETATM   11  C6  UNL     1      -3.499  -0.968  -0.177  1.00  0.00     0.268 A 
HETATM   12  N3  UNL     1      -3.273   0.403   0.373  1.00  0.00    -0.065 N 
ATOM     13  H32 UNL     1      -3.180   0.816   1.301  1.00  0.00     0.277 HD
ATOM     14  H31 UNL     1      -3.815   1.264   0.446  1.00  0.00     0.277 HD
ENDBRANCH   9  10
ENDBRANCH   8   9
ENDBRANCH   6   8
ENDBRANCH   3   5
TORSDOF 4
