REMARK  4 active torsions:
REMARK  status: ('A' for Active; 'I' for Inactive)
REMARK    1  A    between atoms: N1_2  and  C2_5 
REMARK    2  A    between atoms: C2_5  and  C3_6 
REMARK    3  A    between atoms: C3_6  and  C4_7 
REMARK    4  A    between atoms: C4_7  and  C5_8 
ROOT
HETATM    1  C5  UNL     1       2.043   0.046   0.573  1.00  0.00     0.096 A 
HETATM    2  N2  UNL     1       2.878   0.960   1.117  1.00  0.00    -0.288 N 
ATOM      3  H2  UNL     1       2.595   1.737   1.714  1.00  0.00     0.188 HD
HETATM    4  N3  UNL     1       4.118   0.687   0.753  1.00  0.00    -0.295 N 
ATOM      5  H3  UNL     1       4.944   1.221   1.025  1.00  0.00     0.187 HD
HETATM    6  C6  UNL     1       4.122  -0.404  -0.032  1.00  0.00     0.198 A 
HETATM    7  N4  UNL     1       2.836  -0.785  -0.132  1.00  0.00    -0.340 N 
ATOM      8  H4  UNL     1       2.507  -1.589  -0.666  1.00  0.00     0.168 HD
ENDROOT
BRANCH   1   9
HETATM    9  C4  UNL     1       0.563  -0.041   0.710  1.00  0.00     0.079 C 
BRANCH   9  10
HETATM   10  C3  UNL     1      -0.102   0.768  -0.411  1.00  0.00     0.035 C 
BRANCH  10  11
HETATM   11  C2  UNL     1      -1.593   0.708  -0.311  1.00  0.00     0.232 C 
BRANCH  11  12
HETATM   12  N1  UNL     1      -2.146  -0.609  -0.401  1.00  0.00    -0.079 N 
HETATM   13  C1  UNL     1      -3.602  -0.465  -0.285  1.00  0.00     0.266 C 
ATOM     14  H12 UNL     1      -1.751  -1.259   0.279  1.00  0.00     0.276 HD
ATOM     15  H11 UNL     1      -1.857  -1.110  -1.241  1.00  0.00     0.276 HD
ENDBRANCH  11  12
ENDBRANCH  10  11
ENDBRANCH   9  10
ENDBRANCH   1   9
TORSDOF 4
