REMARK  5 active torsions:
REMARK  status: ('A' for Active; 'I' for Inactive)
REMARK    1  A    between atoms: N1_1  and  C1_5 
REMARK    2  A    between atoms: C1_5  and  C2_6 
REMARK    3  A    between atoms: C2_6  and  N2_7 
REMARK    4  A    between atoms: N2_7  and  C3_10 
REMARK    5  A    between atoms: C3_10  and  C4_11 
ROOT
HETATM    1  N2  UNL     1       0.814  -0.029   0.239  1.00  0.00    -0.073 N 
ATOM      2  H21 UNL     1       0.593   0.794  -0.322  1.00  0.00     0.277 HD
ATOM      3  H22 UNL     1       0.793   0.435   1.147  1.00  0.00     0.277 HD
ENDROOT
BRANCH   1   4
HETATM    4  C2  UNL     1       2.116  -0.635  -0.086  1.00  0.00     0.259 C 
BRANCH   4   5
HETATM    5  C1  UNL     1       3.292   0.189   0.335  1.00  0.00     0.257 C 
BRANCH   5   6
HETATM    6  N1  UNL     1       3.290   1.493  -0.246  1.00  0.00    -0.078 N 
ATOM      7  H13 UNL     1       3.226   1.440  -1.263  1.00  0.00     0.274 HD
ATOM      8  H12 UNL     1       2.415   1.979  -0.050  1.00  0.00     0.274 HD
ATOM      9  H11 UNL     1       4.092   2.055   0.041  1.00  0.00     0.274 HD
ENDBRANCH   5   6
ENDBRANCH   4   5
ENDBRANCH   1   4
BRANCH   1  10
HETATM   10  C3  UNL     1      -0.129  -1.070   0.113  1.00  0.00     0.239 C 
BRANCH  10  11
HETATM   11  C4  UNL     1      -1.562  -0.747   0.220  1.00  0.00     0.037 C 
HETATM   12  C5  UNL     1      -2.116   0.207  -0.837  1.00  0.00     0.034 C 
HETATM   13  C6  UNL     1      -3.414   0.599  -0.140  1.00  0.00     0.168 C 
HETATM   14  O1  UNL     1      -3.232   0.370   1.213  1.00  0.00    -0.391 OA
HETATM   15  C7  UNL     1      -1.871   0.152   1.435  1.00  0.00     0.173 C 
ENDBRANCH  10  11
ENDBRANCH   1  10
TORSDOF 5
