REMARK  14 active torsions:
REMARK  status: ('A' for Active; 'I' for Inactive)
REMARK    1  A    between atoms: C2_2  and  C3_3 
REMARK    2  A    between atoms: C6_6  and  O1_7 
REMARK    3  A    between atoms: C8_11  and  O3_12 
REMARK    4  A    between atoms: O3_12  and  C9_13 
REMARK    5  A    between atoms: C12_17  and  O5_18 
REMARK    6  A    between atoms: C13_20  and  O6_21 
REMARK    7  A    between atoms: C14_23  and  O7_24 
REMARK    8  A    between atoms: C15_26  and  C16_27 
REMARK    9  A    between atoms: C16_27  and  C17_28 
REMARK   10  A    between atoms: C18_29  and  C19_30 
REMARK   11  A    between atoms: C19_30  and  C20_31 
REMARK   12  A    between atoms: C20_31  and  C21_32 
REMARK   13  A    between atoms: C21_32  and  C22_33 
REMARK   14  A    between atoms: C22_33  and  O8_34 
ROOT
HETATM    1  C3  UNL     1      -0.754   3.755   1.370  1.00  0.00     0.040 C 
HETATM    2  C4  UNL     1      -2.225   3.439   1.245  1.00  0.00     0.014 C 
HETATM    3  C5  UNL     1      -2.438   2.192   2.104  1.00  0.00     0.049 C 
HETATM    4  C6  UNL     1      -1.087   1.799   2.593  1.00  0.00     0.147 C 
HETATM    5  C7  UNL     1      -0.885   0.330   2.637  1.00  0.00     0.195 C 
HETATM    6  O2  UNL     1      -0.977  -0.214   3.740  1.00  0.00    -0.292 OA
HETATM    7  C8  UNL     1      -0.583  -0.444   1.395  1.00  0.00     0.226 C 
HETATM    8  C15 UNL     1       0.177   0.390   0.387  1.00  0.00     0.162 C 
HETATM    9  O9  UNL     1      -0.256   1.706   0.331  1.00  0.00    -0.373 OA
HETATM   10  C23 UNL     1      -0.137   2.359   1.538  1.00  0.00     0.171 C 
ENDROOT
BRANCH   7  11
HETATM   11  O3  UNL     1      -1.721  -0.913   0.769  1.00  0.00    -0.343 OA
BRANCH  11  12
HETATM   12  C9  UNL     1      -1.777  -2.291   0.616  1.00  0.00     0.292 C 
HETATM   13  O4  UNL     1      -1.742  -2.723  -0.660  1.00  0.00    -0.351 OA
HETATM   14  C10 UNL     1      -2.883  -2.466  -1.348  1.00  0.00     0.152 C 
HETATM   15  C11 UNL     1      -3.057  -0.988  -1.555  1.00  0.00     0.042 C 
HETATM   16  C12 UNL     1      -4.115  -3.035  -0.694  1.00  0.00     0.178 C 
HETATM   17  C13 UNL     1      -3.774  -3.712   0.609  1.00  0.00     0.183 C 
HETATM   18  C14 UNL     1      -2.797  -2.966   1.436  1.00  0.00     0.204 C 
BRANCH  16  19
HETATM   19  O5  UNL     1      -5.049  -2.043  -0.462  1.00  0.00    -0.390 OA
ATOM     20  H5  UNL     1      -5.826  -2.402  -0.050  1.00  0.00     0.210 HD
ENDBRANCH  16  19
BRANCH  17  21
HETATM   21  O6  UNL     1      -3.222  -4.988   0.347  1.00  0.00    -0.390 OA
ATOM     22  H6  UNL     1      -3.007  -5.415   1.168  1.00  0.00     0.210 HD
ENDBRANCH  17  21
BRANCH  18  23
HETATM   23  O7  UNL     1      -2.258  -3.897   2.359  1.00  0.00    -0.388 OA
ATOM     24  H7  UNL     1      -2.916  -4.332   2.888  1.00  0.00     0.210 HD
ENDBRANCH  18  23
ENDBRANCH  11  12
ENDBRANCH   7  11
BRANCH   8  25
HETATM   25  C16 UNL     1       1.666   0.298   0.678  1.00  0.00     0.061 C 
BRANCH  25  26
HETATM   26  C17 UNL     1       2.373   1.122  -0.325  1.00  0.00    -0.028 C 
HETATM   27  C18 UNL     1       3.255   0.631  -1.145  1.00  0.00    -0.031 C 
BRANCH  27  28
HETATM   28  C19 UNL     1       3.691  -0.760  -1.223  1.00  0.00     0.027 C 
BRANCH  28  29
HETATM   29  C20 UNL     1       5.189  -0.886  -0.965  1.00  0.00     0.006 C 
BRANCH  29  30
HETATM   30  C21 UNL     1       5.993  -0.103  -1.972  1.00  0.00     0.026 C 
BRANCH  30  31
HETATM   31  C22 UNL     1       5.749  -0.573  -3.377  1.00  0.00     0.164 C 
BRANCH  31  32
HETATM   32  O8  UNL     1       6.532   0.202  -4.238  1.00  0.00    -0.401 OA
ATOM     33  H8  UNL     1       6.378  -0.095  -5.127  1.00  0.00     0.209 HD
ENDBRANCH  31  32
ENDBRANCH  30  31
ENDBRANCH  29  30
ENDBRANCH  28  29
ENDBRANCH  27  28
ENDBRANCH  25  26
ENDBRANCH   8  25
BRANCH   4  34
HETATM   34  O1  UNL     1      -0.740   2.413   3.801  1.00  0.00    -0.379 OA
ATOM     35  H1  UNL     1       0.122   2.162   4.113  1.00  0.00     0.211 HD
ENDBRANCH   4  34
BRANCH   1  36
HETATM   36  C2  UNL     1      -0.186   4.504   0.247  1.00  0.00    -0.030 C 
HETATM   37  C1  UNL     1      -0.863   4.962  -0.785  1.00  0.00     0.007 C 
ENDBRANCH   1  36
TORSDOF 14
