REMARK  9 active torsions:
REMARK  status: ('A' for Active; 'I' for Inactive)
REMARK    1  A    between atoms: C2_2  and  C3_3 
REMARK    2  A    between atoms: C3_3  and  C4_4 
REMARK    3  A    between atoms: C4_4  and  N1_5 
REMARK    4  A    between atoms: N1_5  and  C5_6 
REMARK    5  A    between atoms: N1_5  and  S1_28 
REMARK    6  A    between atoms: C5_6  and  C6_7 
REMARK    7  A    between atoms: C5_6  and  C17_20 
REMARK    8  A    between atoms: C6_7  and  C7_8 
REMARK       I    between atoms: C17_20  and  N3_22 
REMARK    9  A    between atoms: N3_22  and  C18_24 
ROOT
HETATM    1  C5  UNL     1      -0.513   0.851  -0.137  1.00  0.00     0.170 C 
ENDROOT
BRANCH   1   2
HETATM    2  N1  UNL     1      -1.259   2.122  -0.134  1.00  0.00    -0.197 NA
BRANCH   2   3
HETATM    3  C4  UNL     1      -0.824   2.966   0.884  1.00  0.00     0.112 C 
BRANCH   3   4
HETATM    4  C3  UNL     1      -1.824   4.050   1.285  1.00  0.00     0.041 C 
BRANCH   4   5
HETATM    5  C2  UNL     1      -3.097   3.485   1.764  1.00  0.00    -0.036 C 
HETATM    6  C1  UNL     1      -3.511   3.751   2.993  1.00  0.00     0.007 C 
ENDBRANCH   4   5
ENDBRANCH   3   4
ENDBRANCH   2   3
BRANCH   2   7
HETATM    7  S1  UNL     1      -1.391   2.670  -1.713  1.00  0.00     0.208 S 
HETATM    8  C22 UNL     1       0.158   3.212  -2.413  1.00  0.00     0.180 C 
HETATM    9  O2  UNL     1      -1.838   1.495  -2.579  1.00  0.00    -0.212 OA
HETATM   10  O3  UNL     1      -2.402   3.739  -1.944  1.00  0.00    -0.212 OA
ENDBRANCH   2   7
ENDBRANCH   1   2
BRANCH   1  11
HETATM   11  C6  UNL     1       0.842   1.039   0.411  1.00  0.00     0.072 C 
BRANCH  11  12
HETATM   12  C7  UNL     1       1.702  -0.142   0.493  1.00  0.00    -0.021 A 
HETATM   13  C8  UNL     1       1.807  -1.003   1.553  1.00  0.00     0.013 A 
HETATM   14  C9  UNL     1       1.181  -0.936   2.920  1.00  0.00     0.068 C 
HETATM   15  N2  UNL     1       2.681  -1.983   1.189  1.00  0.00    -0.359 N 
HETATM   16  C10 UNL     1       3.131  -1.780  -0.045  1.00  0.00     0.043 A 
ATOM     17  H2  UNL     1       2.953  -2.766   1.783  1.00  0.00     0.166 HD
HETATM   18  C11 UNL     1       4.013  -2.464  -0.864  1.00  0.00     0.031 A 
HETATM   19  C16 UNL     1       2.537  -0.627  -0.517  1.00  0.00    -0.001 A 
HETATM   20  C12 UNL     1       4.306  -2.008  -2.148  1.00  0.00     0.009 A 
HETATM   21  C13 UNL     1       3.714  -0.856  -2.624  1.00  0.00    -0.061 A 
HETATM   22  C14 UNL     1       4.053  -0.406  -3.999  1.00  0.00     0.048 C 
HETATM   23  C15 UNL     1       2.845  -0.193  -1.801  1.00  0.00     0.021 A 
ENDBRANCH  11  12
ENDBRANCH   1  11
BRANCH   1  24
HETATM   24  C17 UNL     1      -1.296  -0.252   0.326  1.00  0.00     0.237 C 
HETATM   25  O1  UNL     1      -2.293   0.014   1.093  1.00  0.00    -0.272 OA
HETATM   26  N3  UNL     1      -1.090  -1.637   0.008  1.00  0.00    -0.352 N 
ATOM     27  H3  UNL     1      -0.296  -1.881  -0.584  1.00  0.00     0.163 HD
BRANCH  26  28
HETATM   28  C18 UNL     1      -1.931  -2.690   0.472  1.00  0.00     0.022 C 
HETATM   29  C19 UNL     1      -3.382  -2.497  -0.022  1.00  0.00     0.037 C 
HETATM   30  C20 UNL     1      -1.912  -2.893   1.947  1.00  0.00     0.037 C 
HETATM   31  C21 UNL     1      -1.509  -4.025  -0.157  1.00  0.00     0.037 C 
ENDBRANCH  26  28
ENDBRANCH   1  24
TORSDOF 9
