REMARK  7 active torsions:
REMARK  status: ('A' for Active; 'I' for Inactive)
REMARK    1  A    between atoms: C8_8  and  N1_9 
REMARK       I    between atoms: N1_9  and  C9_10 
REMARK       I    between atoms: N1_9  and  C10_13 
REMARK       I    between atoms: C10_13  and  N3_15 
REMARK    2  A    between atoms: N3_15  and  C11_17 
REMARK    3  A    between atoms: C11_17  and  C12_18 
REMARK    4  A    between atoms: C12_18  and  C13_19 
REMARK    5  A    between atoms: C13_19  and  S1_20 
REMARK    6  A    between atoms: C18_25  and  C19_26 
REMARK    7  A    between atoms: C19_26  and  C20_27 
ROOT
HETATM    1  C1  UNL     1      -4.217  -0.587   1.626  1.00  0.00     0.014 C 
HETATM    2  C2  UNL     1      -2.999  -0.960   1.418  1.00  0.00    -0.084 C 
HETATM    3  C3  UNL     1      -2.340  -1.938   2.329  1.00  0.00     0.034 C 
HETATM    4  C4  UNL     1      -0.859  -1.807   2.214  1.00  0.00     0.009 C 
HETATM    5  C5  UNL     1      -0.297  -0.507   1.830  1.00  0.00    -0.009 C 
HETATM    6  C6  UNL     1       0.265   0.311   2.955  1.00  0.00     0.007 C 
HETATM    7  C7  UNL     1       1.221   1.287   2.290  1.00  0.00     0.027 C 
HETATM    8  C8  UNL     1       0.604   2.056   1.166  1.00  0.00     0.103 C 
HETATM    9  C15 UNL     1      -0.287   1.317   0.229  1.00  0.00     0.010 C 
HETATM   10  C16 UNL     1      -1.044   2.354  -0.577  1.00  0.00     0.012 C 
HETATM   11  C17 UNL     1      -1.175   0.418   1.010  1.00  0.00     0.004 C 
HETATM   12  C18 UNL     1      -2.142  -0.463   0.335  1.00  0.00     0.022 C 
ENDROOT
BRANCH   8  13
HETATM   13  N1  UNL     1       1.660   2.806   0.499  1.00  0.00    -0.249 N 
HETATM   14  C9  UNL     1       1.664   4.254   0.650  1.00  0.00     0.339 C 
HETATM   15  N2  UNL     1       2.624   5.039   0.007  1.00  0.00    -0.039 NA
HETATM   16  O1  UNL     1       0.789   4.829   1.372  1.00  0.00    -0.250 OA
HETATM   17  C10 UNL     1       2.709   2.243  -0.257  1.00  0.00     0.326 C 
HETATM   18  O2  UNL     1       3.537   3.061  -0.808  1.00  0.00    -0.247 OA
HETATM   19  N3  UNL     1       2.970   0.874  -0.487  1.00  0.00    -0.343 N 
ATOM     20  H3  UNL     1       2.374   0.148  -0.089  1.00  0.00     0.164 HD
BRANCH  19  21
HETATM   21  C11 UNL     1       4.130   0.535  -1.320  1.00  0.00     0.125 C 
BRANCH  21  22
HETATM   22  C12 UNL     1       4.283  -0.950  -1.476  1.00  0.00     0.030 C 
BRANCH  22  23
HETATM   23  C13 UNL     1       5.475  -1.283  -2.333  1.00  0.00     0.075 C 
BRANCH  23  24
HETATM   24  S1  UNL     1       5.682  -3.056  -2.537  1.00  0.00    -0.173 SA
HETATM   25  C14 UNL     1       6.107  -3.824  -0.928  1.00  0.00     0.089 C 
ENDBRANCH  23  24
ENDBRANCH  22  23
ENDBRANCH  21  22
ENDBRANCH  19  21
ENDBRANCH   8  13
BRANCH  12  26
HETATM   26  C19 UNL     1      -2.866  -0.086  -0.862  1.00  0.00     0.036 C 
BRANCH  26  27
HETATM   27  C20 UNL     1      -3.593  -1.299  -1.402  1.00  0.00    -0.024 C 
HETATM   28  C21 UNL     1      -4.821  -1.337  -1.814  1.00  0.00    -0.091 C 
HETATM   29  C22 UNL     1      -5.766  -0.197  -1.847  1.00  0.00     0.042 C 
HETATM   30  C23 UNL     1      -5.382  -2.643  -2.319  1.00  0.00     0.042 C 
ENDBRANCH  26  27
ENDBRANCH  12  26
TORSDOF 7
