REMARK  12 active torsions:
REMARK  status: ('A' for Active; 'I' for Inactive)
REMARK    1  A    between atoms: C2_2  and  C3_3 
REMARK    2  A    between atoms: C3_3  and  C4_4 
REMARK    3  A    between atoms: C4_4  and  N1_5 
REMARK    4  A    between atoms: N1_5  and  C5_7 
REMARK    5  A    between atoms: C5_7  and  N2_9 
REMARK    6  A    between atoms: N2_9  and  C6_11 
REMARK    7  A    between atoms: N3_14  and  C9_15 
REMARK    8  A    between atoms: C9_15  and  C10_16 
REMARK    9  A    between atoms: C10_16  and  C11_17 
REMARK   10  A    between atoms: C11_17  and  N4_18 
REMARK       I    between atoms: N4_18  and  C13_20 
REMARK   11  A    between atoms: C13_20  and  C14_22 
REMARK   12  A    between atoms: C14_22  and  C17_25 
ROOT
HETATM    1  C6  UNL     1       3.101   0.153  -0.623  1.00  0.00     0.087 C 
HETATM    2  C7  UNL     1       3.103  -0.613   0.716  1.00  0.00     0.055 C 
HETATM    3  C8  UNL     1       2.487  -2.002   0.486  1.00  0.00     0.274 C 
HETATM    4  N3  UNL     1       1.061  -1.726   0.314  1.00  0.00     0.088 N 
HETATM    5  C21 UNL     1       0.862  -0.865  -0.834  1.00  0.00     0.274 C 
HETATM    6  C22 UNL     1       2.117  -0.526  -1.567  1.00  0.00     0.055 C 
ENDROOT
BRANCH   4   7
HETATM    7  C9  UNL     1       0.281  -2.925   0.302  1.00  0.00     0.274 C 
BRANCH   7   8
HETATM    8  C10 UNL     1      -1.179  -2.570   0.267  1.00  0.00     0.050 C 
BRANCH   8   9
HETATM    9  C11 UNL     1      -1.580  -1.745   1.483  1.00  0.00     0.127 C 
BRANCH   9  10
HETATM   10  N4  UNL     1      -3.003  -1.481   1.308  1.00  0.00    -0.356 N 
HETATM   11  C12 UNL     1      -3.928  -2.437   1.857  1.00  0.00     0.152 C 
HETATM   12  C13 UNL     1      -3.379  -0.310   0.605  1.00  0.00     0.228 C 
HETATM   13  O1  UNL     1      -2.430   0.438   0.165  1.00  0.00    -0.273 OA
BRANCH  12  14
HETATM   14  C14 UNL     1      -4.771   0.108   0.346  1.00  0.00     0.040 C 
HETATM   15  C15 UNL     1      -5.439   0.438   1.637  1.00  0.00     0.026 C 
HETATM   16  C16 UNL     1      -5.486  -1.028  -0.366  1.00  0.00     0.026 C 
BRANCH  14  17
HETATM   17  C17 UNL     1      -4.783   1.297  -0.592  1.00  0.00    -0.036 C 
HETATM   18  C18 UNL     1      -4.125   0.928  -1.905  1.00  0.00     0.015 C 
HETATM   19  C19 UNL     1      -4.025   2.475  -0.033  1.00  0.00     0.015 C 
HETATM   20  C20 UNL     1      -6.199   1.739  -0.877  1.00  0.00     0.015 C 
ENDBRANCH  14  17
ENDBRANCH  12  14
ENDBRANCH   9  10
ENDBRANCH   8   9
ENDBRANCH   7   8
ENDBRANCH   4   7
BRANCH   1  21
HETATM   21  N2  UNL     1       2.680   1.477  -0.325  1.00  0.00    -0.362 N 
ATOM     22  H2  UNL     1       1.694   1.668  -0.504  1.00  0.00     0.162 HD
BRANCH  21  23
HETATM   23  C5  UNL     1       3.402   2.542   0.169  1.00  0.00     0.171 C 
HETATM   24  S1  UNL     1       2.401   3.944   0.455  1.00  0.00    -0.041 SA
BRANCH  23  25
HETATM   25  N1  UNL     1       4.720   2.737   0.479  1.00  0.00    -0.347 N 
ATOM     26  H1  UNL     1       4.900   3.652   0.893  1.00  0.00     0.167 HD
BRANCH  25  27
HETATM   27  C4  UNL     1       5.885   1.953   0.353  1.00  0.00     0.063 C 
BRANCH  27  28
HETATM   28  C3  UNL     1       6.432   1.900  -1.073  1.00  0.00     0.044 C 
BRANCH  28  29
HETATM   29  C2  UNL     1       7.673   1.048  -1.058  1.00  0.00     0.001 C 
HETATM   30  C1  UNL     1       7.332  -0.340  -0.591  1.00  0.00     0.005 C 
ENDBRANCH  28  29
ENDBRANCH  27  28
ENDBRANCH  25  27
ENDBRANCH  23  25
ENDBRANCH  21  23
ENDBRANCH   1  21
TORSDOF 12
