REMARK  11 active torsions:
REMARK  status: ('A' for Active; 'I' for Inactive)
REMARK    1  A    between atoms: C2_2  and  C3_3 
REMARK    2  A    between atoms: C3_3  and  N1_4 
REMARK    3  A    between atoms: N1_4  and  C4_5 
REMARK    4  A    between atoms: N1_4  and  C17_22 
REMARK    5  A    between atoms: C4_5  and  C5_6 
REMARK    6  A    between atoms: C5_6  and  C6_7 
REMARK    7  A    between atoms: C12_13  and  C13_14 
REMARK    8  A    between atoms: C13_14  and  N2_15 
REMARK       I    between atoms: N2_15  and  C14_17 
REMARK       I    between atoms: C14_17  and  N3_19 
REMARK    9  A    between atoms: C17_22  and  O2_23 
REMARK   10  A    between atoms: C17_22  and  C18_25 
REMARK   11  A    between atoms: C25_32  and  O3_33 
ROOT
HETATM    1  N1  UNL     1       2.105   1.750   0.059  1.00  0.00    -0.361 N 
ENDROOT
BRANCH   1   2
HETATM    2  C3  UNL     1       2.834   3.070  -0.112  1.00  0.00     0.124 C 
BRANCH   2   3
HETATM    3  C2  UNL     1       3.198   3.352  -1.516  1.00  0.00     0.015 C 
HETATM    4  C1  UNL     1       3.972   4.697  -1.527  1.00  0.00     0.006 C 
ENDBRANCH   2   3
ENDBRANCH   1   2
BRANCH   1   5
HETATM    5  C4  UNL     1       0.685   1.897  -0.013  1.00  0.00     0.129 C 
BRANCH   5   6
HETATM    6  C5  UNL     1       0.088   1.658  -1.384  1.00  0.00     0.059 C 
BRANCH   6   7
HETATM    7  C6  UNL     1      -1.359   1.882  -1.488  1.00  0.00    -0.044 A 
HETATM    8  C7  UNL     1      -1.782   3.116  -1.925  1.00  0.00     0.008 A 
HETATM    9  C8  UNL     1      -3.105   3.454  -2.033  1.00  0.00     0.001 A 
HETATM   10  C9  UNL     1      -4.065   2.540  -1.698  1.00  0.00     0.007 A 
HETATM   11  C10 UNL     1      -3.680   1.249  -1.242  1.00  0.00    -0.050 A 
HETATM   12  C11 UNL     1      -4.781   0.282  -0.998  1.00  0.00     0.049 C 
HETATM   13  C12 UNL     1      -2.351   0.928  -1.138  1.00  0.00    -0.008 A 
BRANCH  13  14
HETATM   14  C13 UNL     1      -1.803  -0.361  -0.783  1.00  0.00     0.105 C 
BRANCH  14  15
HETATM   15  N2  UNL     1      -2.588  -1.388  -0.223  1.00  0.00    -0.318 N 
HETATM   16  C14 UNL     1      -3.017  -1.331   1.148  1.00  0.00     0.321 C 
HETATM   17  O1  UNL     1      -2.692  -0.357   1.863  1.00  0.00    -0.247 OA
HETATM   18  N3  UNL     1      -3.815  -2.349   1.752  1.00  0.00    -0.343 N 
HETATM   19  C15 UNL     1      -4.232  -2.250   3.137  1.00  0.00     0.154 C 
HETATM   20  C16 UNL     1      -4.235  -3.514   1.002  1.00  0.00     0.154 C 
ATOM     21  H2  UNL     1      -2.856  -2.185  -0.800  1.00  0.00     0.170 HD
ENDBRANCH  14  15
ENDBRANCH  13  14
ENDBRANCH   6   7
ENDBRANCH   5   6
ENDBRANCH   1   5
BRANCH   1  22
HETATM   22  C17 UNL     1       2.974   0.699   0.235  1.00  0.00     0.151 C 
BRANCH  22  23
HETATM   23  O2  UNL     1       4.255   1.128   0.129  1.00  0.00    -0.345 OA
ATOM     24  H2  UNL     1       4.855   0.402   0.251  1.00  0.00     0.219 HD
ENDBRANCH  22  23
BRANCH  22  25
HETATM   25  C18 UNL     1       2.950  -0.703   0.483  1.00  0.00     0.054 A 
HETATM   26  C19 UNL     1       2.146  -1.435   1.310  1.00  0.00    -0.044 A 
HETATM   27  C20 UNL     1       1.126  -0.803   2.179  1.00  0.00     0.049 C 
HETATM   28  C21 UNL     1       2.306  -2.820   1.486  1.00  0.00     0.014 A 
HETATM   29  C22 UNL     1       3.291  -3.510   0.833  1.00  0.00    -0.059 A 
HETATM   30  C23 UNL     1       3.450  -4.980   1.024  1.00  0.00     0.048 C 
HETATM   31  C24 UNL     1       4.129  -2.809  -0.008  1.00  0.00     0.044 A 
HETATM   32  C25 UNL     1       3.958  -1.466  -0.169  1.00  0.00     0.081 A 
BRANCH  32  33
HETATM   33  O3  UNL     1       4.821  -0.809  -1.021  1.00  0.00    -0.360 OA
ATOM     34  H3  UNL     1       5.494  -1.319  -1.456  1.00  0.00     0.217 HD
ENDBRANCH  32  33
ENDBRANCH  22  25
ENDBRANCH   1  22
TORSDOF 11
