REMARK  9 active torsions:
REMARK  status: ('A' for Active; 'I' for Inactive)
REMARK    1  A    between atoms: C2_2  and  N1_3 
REMARK    2  A    between atoms: N1_3  and  C3_4 
REMARK    3  A    between atoms: N1_3  and  C5_6 
REMARK    4  A    between atoms: C5_6  and  C6_7 
REMARK    5  A    between atoms: C5_6  and  C20_28 
REMARK    6  A    between atoms: C6_7  and  N2_8 
REMARK    7  A    between atoms: N2_8  and  C7_10 
REMARK    8  A    between atoms: C7_10  and  C10_18 
REMARK       I    between atoms: N3_11  and  C8_13 
REMARK       I    between atoms: C8_13  and  N4_15 
REMARK    9  A    between atoms: C20_28  and  N5_29 
ROOT
HETATM    1  C7  UNL     1       1.408   0.293   0.743  1.00  0.00     0.090 C 
HETATM    2  N3  UNL     1       1.387   1.141   1.628  1.00  0.00    -0.298 N 
ATOM      3  H3  UNL     1       0.421   1.336   1.892  1.00  0.00     0.172 HD
HETATM    4  C8  UNL     1       2.234   1.913   2.379  1.00  0.00     0.321 C 
HETATM    5  O1  UNL     1       2.594   1.436   3.517  1.00  0.00    -0.247 OA
HETATM    6  N4  UNL     1       2.756   3.180   2.037  1.00  0.00    -0.347 N 
ATOM      7  H4  UNL     1       2.511   3.616   1.148  1.00  0.00     0.163 HD
HETATM    8  C9  UNL     1       3.640   3.850   2.961  1.00  0.00     0.151 C 
ENDROOT
BRANCH   1   9
HETATM    9  N2  UNL     1       0.086  -0.200   0.315  1.00  0.00    -0.374 N 
ATOM     10  H2  UNL     1      -0.080  -1.197   0.176  1.00  0.00     0.161 HD
BRANCH   9  11
HETATM   11  C6  UNL     1      -0.964   0.759   0.098  1.00  0.00     0.173 C 
BRANCH  11  12
HETATM   12  C5  UNL     1      -2.244   0.176  -0.428  1.00  0.00     0.016 C 
BRANCH  12  13
HETATM   13  N1  UNL     1      -3.281   1.061  -0.701  1.00  0.00    -0.285 NA
BRANCH  13  14
HETATM   14  C2  UNL     1      -2.908   1.889  -1.894  1.00  0.00     0.091 C 
HETATM   15  C1  UNL     1      -4.106   2.405  -2.609  1.00  0.00     0.021 C 
ENDBRANCH  13  14
BRANCH  13  16
HETATM   16  C3  UNL     1      -3.855   1.948   0.238  1.00  0.00     0.091 C 
HETATM   17  C4  UNL     1      -2.978   3.010   0.833  1.00  0.00     0.021 C 
ENDBRANCH  13  16
ENDBRANCH  12  13
BRANCH  12  18
HETATM   18  C20 UNL     1      -2.612  -1.183  -0.056  1.00  0.00     0.080 C 
BRANCH  18  19
HETATM   19  N5  UNL     1      -3.368  -1.617   1.008  1.00  0.00    -0.291 NA
HETATM   20  C21 UNL     1      -4.774  -1.554   1.078  1.00  0.00     0.095 C 
HETATM   21  C22 UNL     1      -5.275  -2.660   0.129  1.00  0.00     0.016 C 
HETATM   22  C23 UNL     1      -4.148  -3.658   0.237  1.00  0.00     0.016 C 
HETATM   23  C24 UNL     1      -3.140  -3.051   1.219  1.00  0.00     0.095 C 
ENDBRANCH  18  19
ENDBRANCH  12  18
ENDBRANCH  11  12
ENDBRANCH   9  11
ENDBRANCH   1   9
BRANCH   1  24
HETATM   24  C10 UNL     1       2.574  -0.276   0.074  1.00  0.00     0.019 C 
HETATM   25  C11 UNL     1       2.309  -0.319  -1.433  1.00  0.00     0.022 C 
HETATM   26  C12 UNL     1       3.446  -0.963  -2.148  1.00  0.00    -0.013 C 
HETATM   27  C13 UNL     1       3.598  -2.383  -1.645  1.00  0.00     0.009 C 
HETATM   28  C17 UNL     1       4.751  -0.205  -1.920  1.00  0.00     0.009 C 
HETATM   29  C14 UNL     1       3.865  -2.389  -0.160  1.00  0.00    -0.013 C 
HETATM   30  C15 UNL     1       5.145  -1.629   0.075  1.00  0.00     0.009 C 
HETATM   31  C19 UNL     1       2.727  -1.708   0.540  1.00  0.00     0.022 C 
HETATM   32  C16 UNL     1       4.996  -0.239  -0.450  1.00  0.00    -0.013 C 
HETATM   33  C18 UNL     1       3.858   0.478   0.264  1.00  0.00     0.022 C 
ENDBRANCH   1  24
TORSDOF 9
