REMARK  13 active torsions:
REMARK  status: ('A' for Active; 'I' for Inactive)
REMARK    1  A    between atoms: C2_2  and  C3_3 
REMARK    2  A    between atoms: C2_2  and  C15_19 
REMARK    3  A    between atoms: C5_5  and  C7_7 
REMARK    4  A    between atoms: C9_10  and  C10_11 
REMARK    5  A    between atoms: C10_11  and  C11_12 
REMARK    6  A    between atoms: C12_13  and  C14_15 
REMARK    7  A    between atoms: C14_15  and  O2_16 
REMARK    8  A    between atoms: C18_26  and  N2_27 
REMARK       I    between atoms: N2_27  and  C19_29 
REMARK    9  A    between atoms: C19_29  and  C20_31 
REMARK   10  A    between atoms: C20_31  and  C21_32 
REMARK   11  A    between atoms: C20_31  and  C23_34 
REMARK   12  A    between atoms: C23_34  and  C25_36 
REMARK   13  A    between atoms: C29_40  and  O7_41 
ROOT
HETATM    1  C15 UNL     1      -1.281  -1.320   0.476  1.00  0.00     0.194 C 
HETATM    2  O4  UNL     1      -1.241  -0.068  -0.158  1.00  0.00    -0.322 OA
HETATM    3  C16 UNL     1      -0.003   0.492  -0.045  1.00  0.00     0.155 A 
HETATM    4  N1  UNL     1       0.434   1.746  -0.354  1.00  0.00    -0.302 N 
ATOM      5  H1  UNL     1      -0.212   2.436  -0.737  1.00  0.00     0.171 HD
HETATM    6  C17 UNL     1       1.701   2.058  -0.152  1.00  0.00     0.274 A 
HETATM    7  O5  UNL     1       2.136   3.216  -0.429  1.00  0.00    -0.266 OA
HETATM    8  C18 UNL     1       2.626   1.148   0.372  1.00  0.00     0.104 A 
HETATM    9  C27 UNL     1       2.207  -0.119   0.691  1.00  0.00     0.049 A 
HETATM   10  C28 UNL     1       0.861  -0.429   0.468  1.00  0.00     0.027 A 
HETATM   11  C29 UNL     1       0.119  -1.699   0.688  1.00  0.00     0.189 C 
ENDROOT
BRANCH   1  12
HETATM   12  C2  UNL     1      -2.057  -2.197  -0.516  1.00  0.00    -0.029 C 
HETATM   13  C1  UNL     1      -1.504  -3.060  -1.171  1.00  0.00     0.019 C 
BRANCH  12  14
HETATM   14  C3  UNL     1      -3.477  -1.780  -0.606  1.00  0.00     0.154 C 
HETATM   15  C4  UNL     1      -4.349  -2.772  -1.259  1.00  0.00     0.056 C 
HETATM   16  C5  UNL     1      -5.701  -2.475  -0.636  1.00  0.00     0.045 C 
HETATM   17  C6  UNL     1      -6.627  -2.131  -1.769  1.00  0.00     0.026 C 
HETATM   18  C9  UNL     1      -5.433  -1.365   0.327  1.00  0.00     0.141 C 
HETATM   19  O3  UNL     1      -4.055  -1.379   0.579  1.00  0.00    -0.375 OA
BRANCH  16  20
HETATM   20  C7  UNL     1      -6.259  -3.669   0.048  1.00  0.00     0.134 C 
HETATM   21  C8  UNL     1      -7.604  -3.510   0.683  1.00  0.00     0.091 C 
HETATM   22  O1  UNL     1      -5.712  -4.749   0.128  1.00  0.00    -0.297 OA
ENDBRANCH  16  20
BRANCH  18  23
HETATM   23  C10 UNL     1      -5.886   0.001  -0.177  1.00  0.00     0.060 C 
BRANCH  23  24
HETATM   24  C11 UNL     1      -5.580   0.999   0.868  1.00  0.00    -0.020 C 
HETATM   25  C12 UNL     1      -4.848   2.064   0.805  1.00  0.00    -0.064 C 
HETATM   26  C13 UNL     1      -4.779   2.857   2.128  1.00  0.00     0.045 C 
BRANCH  25  27
HETATM   27  C14 UNL     1      -4.083   2.628  -0.299  1.00  0.00     0.197 C 
BRANCH  27  28
HETATM   28  O2  UNL     1      -4.091   1.976  -1.493  1.00  0.00    -0.397 OA
ATOM     29  H2  UNL     1      -3.592   2.344  -2.213  1.00  0.00     0.209 HD
ENDBRANCH  27  28
ENDBRANCH  25  27
ENDBRANCH  23  24
ENDBRANCH  18  23
ENDBRANCH  12  14
ENDBRANCH   1  12
BRANCH  11  30
HETATM   30  O7  UNL     1       0.648  -2.740  -0.016  1.00  0.00    -0.388 OA
ATOM     31  H7  UNL     1       1.555  -2.986   0.121  1.00  0.00     0.210 HD
ENDBRANCH  11  30
BRANCH   8  32
HETATM   32  N2  UNL     1       3.986   1.535   0.514  1.00  0.00    -0.322 N 
HETATM   33  C19 UNL     1       5.011   0.872   1.196  1.00  0.00     0.226 C 
HETATM   34  O6  UNL     1       4.846  -0.177   1.808  1.00  0.00    -0.273 OA
ATOM     35  H2  UNL     1       4.248   2.410   0.060  1.00  0.00     0.169 HD
BRANCH  33  36
HETATM   36  C20 UNL     1       6.383   1.448   1.192  1.00  0.00     0.081 C 
BRANCH  36  37
HETATM   37  C21 UNL     1       7.408   0.542   1.795  1.00  0.00     0.010 C 
HETATM   38  C22 UNL     1       7.608  -0.778   1.147  1.00  0.00     0.006 C 
ENDBRANCH  36  37
BRANCH  36  39
HETATM   39  C23 UNL     1       6.751   1.997  -0.149  1.00  0.00    -0.006 C 
HETATM   40  C24 UNL     1       6.709   0.950  -1.235  1.00  0.00     0.011 C 
BRANCH  39  41
HETATM   41  C25 UNL     1       8.127   2.672  -0.115  1.00  0.00     0.000 C 
HETATM   42  C26 UNL     1       8.475   3.237  -1.489  1.00  0.00     0.005 C 
ENDBRANCH  39  41
ENDBRANCH  36  39
ENDBRANCH  33  36
ENDBRANCH   8  32
TORSDOF 13
