REMARK  13 active torsions:
REMARK  status: ('A' for Active; 'I' for Inactive)
REMARK    1  A    between atoms: C2_2  and  C3_3 
REMARK    2  A    between atoms: C3_3  and  C4_4 
REMARK    3  A    between atoms: C4_4  and  C5_5 
REMARK    4  A    between atoms: C5_5  and  C6_6 
REMARK    5  A    between atoms: C6_6  and  O1_7 
REMARK    6  A    between atoms: O1_7  and  C7_8 
REMARK    7  A    between atoms: C12_14  and  O3_15 
REMARK    8  A    between atoms: C21_26  and  C22_27 
REMARK    9  A    between atoms: C22_27  and  O5_28 
REMARK   10  A    between atoms: C22_27  and  O6_30 
REMARK   11  A    between atoms: C22_27  and  C23_32 
REMARK   12  A    between atoms: C23_32  and  C24_33 
REMARK   13  A    between atoms: C24_33  and  C25_34 
ROOT
HETATM    1  C7  UNL     1       1.018   0.164  -0.406  1.00  0.00     0.048 C 
HETATM    2  C8  UNL     1       1.779   1.000  -1.100  1.00  0.00     0.019 C 
HETATM    3  C9  UNL     1       1.655   2.477  -1.061  1.00  0.00     0.089 C 
HETATM    4  C10 UNL     1       2.976   3.149  -1.010  1.00  0.00     0.137 C 
HETATM    5  O2  UNL     1       4.035   2.570  -1.141  1.00  0.00    -0.297 OA
HETATM    6  C11 UNL     1       3.001   4.617  -0.785  1.00  0.00     0.110 C 
HETATM    7  C12 UNL     1       1.572   5.101  -0.702  1.00  0.00     0.126 C 
HETATM    8  C13 UNL     1       0.732   4.337   0.266  1.00  0.00     0.042 C 
HETATM    9  C14 UNL     1       0.956   2.848   0.256  1.00  0.00    -0.023 C 
HETATM   10  C15 UNL     1       1.845   2.519   1.424  1.00  0.00     0.016 C 
HETATM   11  C16 UNL     1      -0.329   2.076   0.233  1.00  0.00     0.013 C 
HETATM   12  C17 UNL     1      -0.971   2.335  -1.115  1.00  0.00     0.084 C 
HETATM   13  C18 UNL     1      -2.455   2.287  -0.908  1.00  0.00     0.127 C 
HETATM   14  O4  UNL     1      -3.147   3.044  -1.563  1.00  0.00    -0.298 OA
HETATM   15  C19 UNL     1      -3.117   1.363   0.055  1.00  0.00     0.084 C 
HETATM   16  C20 UNL     1      -2.455   0.017  -0.126  1.00  0.00     0.011 C 
HETATM   17  C21 UNL     1      -3.370  -1.104   0.284  1.00  0.00     0.053 C 
HETATM   18  C26 UNL     1      -2.482  -2.194   0.824  1.00  0.00     0.011 C 
HETATM   19  C27 UNL     1      -1.045  -1.706   0.492  1.00  0.00     0.011 C 
HETATM   20  C28 UNL     1      -1.239  -0.216   0.693  1.00  0.00    -0.030 C 
HETATM   21  C29 UNL     1      -1.681  -0.110   2.175  1.00  0.00     0.016 C 
HETATM   22  C30 UNL     1      -0.054   0.614   0.496  1.00  0.00     0.056 C 
ENDROOT
BRANCH  17  23
HETATM   23  C22 UNL     1      -4.134  -1.697  -0.875  1.00  0.00     0.163 C 
BRANCH  23  24
HETATM   24  O5  UNL     1      -4.933  -0.751  -1.516  1.00  0.00    -0.365 OA
ATOM     25  H5  UNL     1      -5.414  -1.124  -2.245  1.00  0.00     0.213 HD
ENDBRANCH  23  24
BRANCH  23  26
HETATM   26  O6  UNL     1      -3.336  -2.298  -1.825  1.00  0.00    -0.365 OA
ATOM     27  H6  UNL     1      -3.817  -2.671  -2.554  1.00  0.00     0.213 HD
ENDBRANCH  23  26
BRANCH  23  28
HETATM   28  C23 UNL     1      -5.102  -2.711  -0.293  1.00  0.00     0.079 C 
BRANCH  28  29
HETATM   29  C24 UNL     1      -5.926  -3.372  -1.377  1.00  0.00     0.118 C 
BRANCH  29  30
HETATM   30  C25 UNL     1      -6.843  -4.345  -0.729  1.00  0.00     0.172 C 
HETATM   31  O7  UNL     1      -7.654  -5.045  -1.407  1.00  0.00    -0.648 OA
HETATM   32  O8  UNL     1      -6.857  -4.534   0.635  1.00  0.00    -0.648 OA
ENDBRANCH  29  30
ENDBRANCH  28  29
ENDBRANCH  23  28
ENDBRANCH  17  23
BRANCH   1  33
HETATM   33  O1  UNL     1       1.293  -1.170  -0.578  1.00  0.00    -0.355 OA
BRANCH  33  34
HETATM   34  C6  UNL     1       2.348  -1.910  -0.065  1.00  0.00     0.175 C 
BRANCH  34  35
HETATM   35  C5  UNL     1       3.716  -1.426  -0.482  1.00  0.00     0.027 C 
BRANCH  35  36
HETATM   36  C4  UNL     1       4.782  -2.315   0.137  1.00  0.00     0.006 C 
BRANCH  36  37
HETATM   37  C3  UNL     1       6.167  -1.866  -0.255  1.00  0.00     0.026 C 
BRANCH  37  38
HETATM   38  C2  UNL     1       7.172  -2.756   0.367  1.00  0.00    -0.037 C 
HETATM   39  C1  UNL     1       8.013  -3.448  -0.372  1.00  0.00     0.007 C 
ENDBRANCH  37  38
ENDBRANCH  36  37
ENDBRANCH  35  36
ENDBRANCH  34  35
ENDBRANCH  33  34
ENDBRANCH   1  33
BRANCH   7  40
HETATM   40  O3  UNL     1       1.603   6.441  -0.251  1.00  0.00    -0.395 OA
ATOM     41  H3  UNL     1       0.705   6.745  -0.199  1.00  0.00     0.210 HD
ENDBRANCH   7  40
TORSDOF 13
