REMARK  5 active torsions:
REMARK  status: ('A' for Active; 'I' for Inactive)
REMARK    1  A    between atoms: C8_8  and  N1_9 
REMARK    2  A    between atoms: N1_9  and  C9_11 
REMARK    3  A    between atoms: C9_11  and  C10_12 
REMARK    4  A    between atoms: C10_12  and  C11_13 
REMARK    5  A    between atoms: N2_16  and  C14_17 
ROOT
HETATM    1  C11 UNL     1       0.799  -0.249  -0.228  1.00  0.00    -0.010 C 
HETATM    2  C12 UNL     1       1.004   0.821  -1.251  1.00  0.00     0.024 C 
HETATM    3  C13 UNL     1       2.524   0.989  -1.414  1.00  0.00     0.123 C 
HETATM    4  N2  UNL     1       3.060   0.964  -0.035  1.00  0.00    -0.381 N 
HETATM    5  C23 UNL     1       2.165   1.321   1.041  1.00  0.00     0.123 C 
HETATM    6  C24 UNL     1       1.022   0.305   1.153  1.00  0.00     0.024 C 
ENDROOT
BRANCH   4   7
HETATM    7  C14 UNL     1       4.407   0.597   0.126  1.00  0.00     0.032 A 
HETATM    8  C15 UNL     1       4.954   0.414   1.368  1.00  0.00     0.030 A 
HETATM    9  C16 UNL     1       6.291   0.055   1.526  1.00  0.00     0.016 A 
HETATM   10  C17 UNL     1       7.107  -0.128   0.447  1.00  0.00    -0.008 A 
HETATM   11  C18 UNL     1       8.431  -0.484   0.624  1.00  0.00     0.036 A 
HETATM   12  C21 UNL     1       6.557   0.056  -0.806  1.00  0.00     0.045 A 
HETATM   13  C19 UNL     1       9.203  -0.655  -0.489  1.00  0.00     0.050 A 
HETATM   14 BR1  UNL     1      11.039  -1.146  -0.327  1.00  0.00    -0.048 Br
HETATM   15  C20 UNL     1       8.627  -0.464  -1.729  1.00  0.00     0.121 A 
HETATM   16 CL1  UNL     1       9.618  -0.682  -3.168  1.00  0.00    -0.063 Cl
HETATM   17  N3  UNL     1       7.343  -0.118  -1.902  1.00  0.00    -0.345 N 
ATOM     18  H3  UNL     1       6.963   0.012  -2.839  1.00  0.00     0.167 HD
HETATM   19  C22 UNL     1       5.234   0.412  -0.968  1.00  0.00     0.059 A 
ENDBRANCH   4   7
BRANCH   1  20
HETATM   20  C10 UNL     1      -0.487  -0.999  -0.369  1.00  0.00     0.024 C 
BRANCH  20  21
HETATM   21  C9  UNL     1      -1.707  -0.122  -0.254  1.00  0.00     0.114 C 
BRANCH  21  22
HETATM   22  N1  UNL     1      -2.860  -0.946  -0.404  1.00  0.00    -0.417 N 
ATOM     23  H1  UNL     1      -2.799  -1.952  -0.560  1.00  0.00     0.153 HD
BRANCH  22  24
HETATM   24  C8  UNL     1      -4.126  -0.247  -0.318  1.00  0.00     0.080 C 
HETATM   25  C2  UNL     1      -5.183  -1.211  -0.816  1.00  0.00     0.004 C 
HETATM   26  C1  UNL     1      -4.993  -2.522  -0.119  1.00  0.00     0.012 C 
HETATM   27  C3  UNL     1      -6.565  -0.681  -0.806  1.00  0.00     0.006 C 
HETATM   28  C4  UNL     1      -6.878   0.349   0.227  1.00  0.00     0.000 C 
HETATM   29  C5  UNL     1      -6.061   1.596   0.137  1.00  0.00     0.000 C 
HETATM   30  C6  UNL     1      -4.963   1.547   1.190  1.00  0.00     0.002 C 
HETATM   31  C7  UNL     1      -4.346   0.147   1.108  1.00  0.00     0.025 C 
ENDBRANCH  22  24
ENDBRANCH  21  22
ENDBRANCH  20  21
ENDBRANCH   1  20
TORSDOF 5
