REMARK  5 active torsions:
REMARK  status: ('A' for Active; 'I' for Inactive)
REMARK    1  A    between atoms: C5_6  and  C6_7 
REMARK    2  A    between atoms: N2_17  and  C13_18 
REMARK    3  A    between atoms: N3_21  and  C16_22 
REMARK    4  A    between atoms: C16_22  and  C17_23 
REMARK    5  A    between atoms: C17_23  and  C18_24 
ROOT
HETATM    1 CL1  UNL     1      -1.317  -5.850   0.934  1.00  0.00    -0.082 Cl
HETATM    2  C1  UNL     1      -2.167  -4.422   0.458  1.00  0.00     0.058 A 
HETATM    3  C2  UNL     1      -3.542  -4.470   0.310  1.00  0.00     0.026 A 
HETATM    4  C3  UNL     1      -4.179  -3.314  -0.069  1.00  0.00     0.016 A 
HETATM    5  C4  UNL     1      -3.455  -2.160  -0.289  1.00  0.00     0.004 A 
HETATM    6  C5  UNL     1      -3.896  -0.935  -0.663  1.00  0.00    -0.007 A 
HETATM    7  C12 UNL     1      -2.765  -0.158  -0.736  1.00  0.00     0.109 A 
HETATM    8  N2  UNL     1      -1.627  -0.845  -0.423  1.00  0.00    -0.327 N 
HETATM    9  C26 UNL     1      -2.065  -2.091  -0.145  1.00  0.00     0.073 A 
HETATM   10  C27 UNL     1      -1.451  -3.258   0.235  1.00  0.00     0.083 A 
HETATM   11 CL2  UNL     1       0.268  -3.306   0.456  1.00  0.00    -0.080 Cl
ENDROOT
BRANCH   8  12
HETATM   12  C13 UNL     1      -0.244  -0.349  -0.400  1.00  0.00    -0.003 C 
HETATM   13  C14 UNL     1       0.348   0.057   0.869  1.00  0.00     0.072 C 
HETATM   14  C15 UNL     1       1.363   1.197   0.588  1.00  0.00     0.122 C 
HETATM   15  N3  UNL     1       2.240   0.872  -0.501  1.00  0.00    -0.412 N 
HETATM   16  C24 UNL     1       1.584   0.560  -1.741  1.00  0.00     0.122 C 
HETATM   17  C25 UNL     1       0.593  -0.622  -1.579  1.00  0.00     0.072 C 
BRANCH  15  18
HETATM   18  C16 UNL     1       3.358   0.050  -0.173  1.00  0.00     0.117 C 
BRANCH  18  19
HETATM   19  C17 UNL     1       4.374   0.743   0.700  1.00  0.00     0.024 C 
BRANCH  19  20
HETATM   20  C18 UNL     1       5.547  -0.109   1.056  1.00  0.00    -0.013 C 
HETATM   21  C19 UNL     1       6.510   0.669   1.942  1.00  0.00     0.005 C 
HETATM   22  C20 UNL     1       7.767   1.047   1.226  1.00  0.00     0.000 C 
HETATM   23  C21 UNL     1       7.503   1.510  -0.193  1.00  0.00     0.000 C 
HETATM   24  C22 UNL     1       6.797   0.456  -1.017  1.00  0.00     0.000 C 
HETATM   25  C23 UNL     1       6.259  -0.656  -0.136  1.00  0.00     0.005 C 
ENDBRANCH  19  20
ENDBRANCH  18  19
ENDBRANCH  15  18
ENDBRANCH   8  12
BRANCH   6  26
HETATM   26  C6  UNL     1      -5.278  -0.573  -0.943  1.00  0.00     0.018 C 
HETATM   27  C7  UNL     1      -5.887   0.531  -0.583  1.00  0.00    -0.054 C 
HETATM   28  C8  UNL     1      -7.313   0.701  -0.981  1.00  0.00     0.037 C 
HETATM   29  C11 UNL     1      -5.252   1.615   0.192  1.00  0.00     0.266 C 
HETATM   30  C9  UNL     1      -8.088   1.403   0.083  1.00  0.00     0.032 C 
HETATM   31  C10 UNL     1      -7.387   2.614   0.653  1.00  0.00     0.233 C 
HETATM   32  N1  UNL     1      -6.115   2.201   1.203  1.00  0.00    -0.072 N 
ATOM     33  H12 UNL     1      -5.652   2.972   1.685  1.00  0.00     0.277 HD
ATOM     34  H11 UNL     1      -6.241   1.570   1.994  1.00  0.00     0.277 HD
ENDBRANCH   6  26
TORSDOF 5
