REMARK  6 active torsions:
REMARK  status: ('A' for Active; 'I' for Inactive)
REMARK    1  A    between atoms: C2_2  and  C4_4 
REMARK    2  A    between atoms: C8_8  and  C9_9 
REMARK    3  A    between atoms: C10_10  and  C11_11 
REMARK    4  A    between atoms: C18_22  and  C19_23 
REMARK    5  A    between atoms: C19_23  and  C20_24 
REMARK    6  A    between atoms: C20_24  and  N2_25 
ROOT
HETATM    1  N2  UNL     1       4.994   2.008  -0.065  1.00  0.00    -0.302 N 
HETATM    2  C21 UNL     1       6.314   2.162  -0.287  1.00  0.00     0.134 A 
HETATM    3  C22 UNL     1       6.542   3.378  -0.896  1.00  0.00     0.078 A 
HETATM    4  C23 UNL     1       7.797   3.936  -1.305  1.00  0.00     0.102 C 
HETATM    5  N3  UNL     1       8.819   4.376  -1.620  1.00  0.00    -0.191 NA
HETATM    6  C24 UNL     1       5.305   3.958  -1.034  1.00  0.00     0.131 A 
HETATM    7  N4  UNL     1       4.422   3.107  -0.526  1.00  0.00    -0.309 N 
ATOM      8  H4  UNL     1       3.417   3.281  -0.495  1.00  0.00     0.186 HD
ENDROOT
BRANCH   1   9
HETATM    9  C20 UNL     1       4.356   0.843   0.565  1.00  0.00     0.153 C 
BRANCH   9  10
HETATM   10  C19 UNL     1       4.028  -0.110  -0.559  1.00  0.00     0.063 C 
BRANCH  10  11
HETATM   11  C18 UNL     1       3.381  -1.346  -0.121  1.00  0.00    -0.017 A 
HETATM   12  C11 UNL     1       2.040  -1.480   0.265  1.00  0.00     0.039 A 
HETATM   13  N1  UNL     1       1.899  -2.776   0.583  1.00  0.00    -0.353 N 
HETATM   14  C12 UNL     1       3.034  -3.473   0.431  1.00  0.00     0.083 A 
ATOM     15  H1  UNL     1       1.023  -3.187   0.906  1.00  0.00     0.166 HD
HETATM   16  C13 UNL     1       3.347  -4.815   0.638  1.00  0.00     0.146 A 
HETATM   17  C17 UNL     1       3.980  -2.576  -0.014  1.00  0.00     0.005 A 
HETATM   18  F1  UNL     1       2.399  -5.666   1.075  1.00  0.00    -0.204 F 
HETATM   19  C14 UNL     1       4.607  -5.267   0.401  1.00  0.00     0.086 A 
HETATM   20  C15 UNL     1       5.572  -4.396  -0.045  1.00  0.00     0.120 A 
HETATM   21  F2  UNL     1       6.853  -4.840  -0.290  1.00  0.00    -0.206 F 
HETATM   22  C16 UNL     1       5.242  -3.074  -0.243  1.00  0.00     0.056 A 
BRANCH  12  23
HETATM   23  C10 UNL     1       1.042  -0.423   0.300  1.00  0.00     0.026 C 
HETATM   24  C9  UNL     1      -0.180  -0.672   0.679  1.00  0.00    -0.019 C 
BRANCH  24  25
HETATM   25  C8  UNL     1      -1.246   0.345   0.741  1.00  0.00     0.017 C 
HETATM   26  C7  UNL     1      -2.326   0.036  -0.239  1.00  0.00     0.006 C 
HETATM   27  C6  UNL     1      -3.145  -1.159   0.114  1.00  0.00     0.007 C 
HETATM   28  C28 UNL     1      -3.351   1.160  -0.330  1.00  0.00    -0.018 C 
HETATM   29  C5  UNL     1      -4.524  -0.974  -0.450  1.00  0.00     0.006 C 
HETATM   30  C4  UNL     1      -4.519   0.467  -0.909  1.00  0.00     0.001 C 
HETATM   31  C27 UNL     1      -3.539   1.829   0.964  1.00  0.00    -0.021 C 
HETATM   32  C29 UNL     1      -2.848   2.178  -1.352  1.00  0.00     0.020 C 
HETATM   33  C26 UNL     1      -2.864   1.550   2.070  1.00  0.00    -0.029 C 
HETATM   34  C25 UNL     1      -1.806   0.502   2.136  1.00  0.00     0.035 C 
BRANCH  30  35
HETATM   35  C2  UNL     1      -5.849   1.116  -0.791  1.00  0.00    -0.018 C 
HETATM   36  C1  UNL     1      -6.791   0.293  -1.689  1.00  0.00     0.010 C 
HETATM   37  C3  UNL     1      -6.445   1.128   0.572  1.00  0.00     0.010 C 
ENDBRANCH  30  35
ENDBRANCH  24  25
ENDBRANCH  12  23
ENDBRANCH  10  11
ENDBRANCH   9  10
ENDBRANCH   1   9
TORSDOF 6
