REMARK  5 active torsions:
REMARK  status: ('A' for Active; 'I' for Inactive)
REMARK    1  A    between atoms: C2_2  and  C3_3 
REMARK    2  A    between atoms: C4_4  and  C5_5 
REMARK    3  A    between atoms: C10_14  and  C11_15 
REMARK    4  A    between atoms: C13_17  and  C15_19 
REMARK    5  A    between atoms: C15_19  and  C16_20 
ROOT
HETATM    1  C11 UNL     1      -0.079  -0.288   0.244  1.00  0.00     0.069 C 
HETATM    2  C12 UNL     1      -0.865  -1.182  -0.632  1.00  0.00     0.031 C 
HETATM    3  C13 UNL     1      -2.372  -1.244  -0.174  1.00  0.00    -0.002 C 
HETATM    4  C14 UNL     1      -2.810  -2.535  -0.974  1.00  0.00     0.024 C 
HETATM    5  C24 UNL     1      -2.407  -1.655   1.193  1.00  0.00    -0.071 C 
HETATM    6  C25 UNL     1      -3.307  -2.753   1.727  1.00  0.00     0.044 C 
HETATM    7  C26 UNL     1      -1.534  -1.145   2.100  1.00  0.00     0.037 C 
HETATM    8  C27 UNL     1      -0.526  -0.153   1.671  1.00  0.00     0.204 C 
HETATM    9  F1  UNL     1       0.624  -0.372   2.466  1.00  0.00    -0.220 F 
HETATM   10 CL1  UNL     1      -0.975   1.514   2.110  1.00  0.00    -0.077 Cl
ENDROOT
BRANCH   1  11
HETATM   11  C10 UNL     1       1.360  -0.657   0.200  1.00  0.00    -0.011 C 
HETATM   12  C2  UNL     1       2.301   0.061  -0.378  1.00  0.00    -0.066 C 
HETATM   13  C1  UNL     1       1.880   1.328  -1.028  1.00  0.00     0.048 C 
BRANCH  12  14
HETATM   14  C3  UNL     1       3.675  -0.422  -0.346  1.00  0.00     0.005 C 
HETATM   15  C4  UNL     1       4.703   0.194  -0.880  1.00  0.00     0.008 C 
BRANCH  15  16
HETATM   16  C5  UNL     1       6.052  -0.369  -0.797  1.00  0.00     0.184 C 
HETATM   17  O1  UNL     1       6.131  -1.424   0.172  1.00  0.00    -0.292 OA
HETATM   18  C6  UNL     1       7.501  -1.498   0.488  1.00  0.00     0.362 C 
HETATM   19  O2  UNL     1       8.117  -2.509   0.909  1.00  0.00    -0.238 OA
HETATM   20  N1  UNL     1       8.099  -0.228   0.256  1.00  0.00    -0.326 N 
HETATM   21  C7  UNL     1       7.036   0.636  -0.213  1.00  0.00     0.058 C 
ATOM     22  H1  UNL     1       9.078   0.023   0.392  1.00  0.00     0.165 HD
HETATM   23  C8  UNL     1       7.518   1.611  -1.253  1.00  0.00     0.041 C 
HETATM   24  C9  UNL     1       6.438   1.333   0.988  1.00  0.00     0.041 C 
ENDBRANCH  15  16
ENDBRANCH  12  14
ENDBRANCH   1  11
BRANCH   3  25
HETATM   25  C15 UNL     1      -3.038  -0.155  -0.845  1.00  0.00    -0.005 C 
BRANCH  25  26
HETATM   26  C16 UNL     1      -4.397   0.296  -0.801  1.00  0.00    -0.045 A 
HETATM   27  C17 UNL     1      -5.110   0.068  -1.944  1.00  0.00     0.062 A 
HETATM   28  C18 UNL     1      -6.486   0.451  -2.111  1.00  0.00     0.172 A 
HETATM   29  O3  UNL     1      -7.130   0.205  -3.189  1.00  0.00    -0.289 OA
HETATM   30  C19 UNL     1      -7.156   1.136  -1.019  1.00  0.00     0.052 A 
HETATM   31  C20 UNL     1      -6.485   1.392   0.048  1.00  0.00    -0.009 A 
HETATM   32  C21 UNL     1      -5.058   1.047   0.248  1.00  0.00    -0.003 A 
HETATM   33  C22 UNL     1      -4.981   0.544   1.659  1.00  0.00     0.024 C 
HETATM   34  C23 UNL     1      -4.390   2.467   0.330  1.00  0.00     0.024 C 
ENDBRANCH  25  26
ENDBRANCH   3  25
TORSDOF 5
