REMARK  10 active torsions:
REMARK  status: ('A' for Active; 'I' for Inactive)
REMARK       I    between atoms: N1_2  and  C2_4 
REMARK       I    between atoms: C2_4  and  N2_5 
REMARK       I    between atoms: C2_4  and  N6_31 
REMARK    1  A    between atoms: N2_5  and  C3_7 
REMARK    2  A    between atoms: C4_12  and  S1_13 
REMARK    3  A    between atoms: S1_13  and  C5_14 
REMARK    4  A    between atoms: C5_14  and  C6_15 
REMARK    5  A    between atoms: C6_15  and  C8_17 
REMARK    6  A    between atoms: C8_17  and  N5_18 
REMARK    7  A    between atoms: N5_18  and  C9_20 
REMARK    8  A    between atoms: C9_20  and  S3_22 
REMARK    9  A    between atoms: S3_22  and  C10_23 
REMARK   10  A    between atoms: C10_23  and  C11_24 
ROOT
HETATM    1  S1  UNL     1      -2.160   2.722   2.780  1.00  0.00    -0.103 SA
ENDROOT
BRANCH   1   2
HETATM    2  C4  UNL     1      -3.283   1.749   1.756  1.00  0.00     0.130 A 
HETATM    3  N4  UNL     1      -3.019   1.069   0.650  1.00  0.00    -0.286 N 
HETATM    4  N3  UNL     1      -3.946   0.433   0.054  1.00  0.00    -0.278 N 
ATOM      5  H4  UNL     1      -2.070   1.055   0.275  1.00  0.00     0.188 HD
HETATM    6  C3  UNL     1      -5.178   0.470   0.568  1.00  0.00     0.180 A 
ATOM      7  H3  UNL     1      -3.752  -0.094  -0.798  1.00  0.00     0.189 HD
HETATM    8  S4  UNL     1      -4.955   1.457   1.945  1.00  0.00    -0.026 SA
BRANCH   6   9
HETATM    9  N2  UNL     1      -6.252  -0.112   0.106  1.00  0.00    -0.169 N 
HETATM   10  C2  UNL     1      -6.135  -0.883  -1.077  1.00  0.00     0.675 C 
HETATM   11  N1  UNL     1      -6.187  -2.162  -1.056  1.00  0.00    -0.231 N 
HETATM   12  N6  UNL     1      -5.960  -0.211  -2.308  1.00  0.00    -0.231 N 
HETATM   13  C1  UNL     1      -6.368  -2.847   0.191  1.00  0.00     0.165 C 
ATOM     14  H1  UNL     1      -6.100  -2.692  -1.923  1.00  0.00     0.177 HD
HETATM   15  C17 UNL     1      -5.489  -0.963  -3.449  1.00  0.00     0.165 C 
ATOM     16  H6  UNL     1      -6.162   0.785  -2.390  1.00  0.00     0.177 HD
ATOM     17  H2  UNL     1      -7.148  -0.014   0.583  1.00  0.00     0.186 HD
ENDBRANCH   6   9
ENDBRANCH   1   2
BRANCH   1  18
HETATM   18  C5  UNL     1      -0.498   2.664   2.081  1.00  0.00     0.087 C 
BRANCH  18  19
HETATM   19  C6  UNL     1       0.011   1.241   2.198  1.00  0.00     0.009 C 
HETATM   20  C7  UNL     1       0.041   0.824   3.658  1.00  0.00     0.012 C 
BRANCH  19  21
HETATM   21  C8  UNL     1       1.454   1.254   1.718  1.00  0.00     0.126 C 
BRANCH  21  22
HETATM   22  N5  UNL     1       2.004  -0.073   1.798  1.00  0.00    -0.375 N 
ATOM     23  H5  UNL     1       1.427  -0.847   2.128  1.00  0.00     0.161 HD
BRANCH  22  24
HETATM   24  C9  UNL     1       3.358  -0.303   1.414  1.00  0.00     0.134 C 
HETATM   25  S2  UNL     1       3.918  -1.830   1.540  1.00  0.00    -0.053 SA
BRANCH  24  26
HETATM   26  S3  UNL     1       4.308   1.071   0.856  1.00  0.00    -0.096 SA
BRANCH  26  27
HETATM   27  C10 UNL     1       5.959   0.757   0.306  1.00  0.00     0.120 C 
BRANCH  27  28
HETATM   28  C11 UNL     1       6.019  -0.010  -0.956  1.00  0.00    -0.049 A 
HETATM   29  C12 UNL     1       6.273  -1.356  -1.041  1.00  0.00     0.008 A 
HETATM   30  C13 UNL     1       6.294  -2.044  -2.256  1.00  0.00     0.001 A 
HETATM   31  C14 UNL     1       6.056  -1.382  -3.432  1.00  0.00     0.000 A 
HETATM   32  C15 UNL     1       5.800  -0.030  -3.371  1.00  0.00     0.001 A 
HETATM   33  C16 UNL     1       5.781   0.642  -2.174  1.00  0.00     0.008 A 
ENDBRANCH  27  28
ENDBRANCH  26  27
ENDBRANCH  24  26
ENDBRANCH  22  24
ENDBRANCH  21  22
ENDBRANCH  19  21
ENDBRANCH  18  19
ENDBRANCH   1  18
TORSDOF 10
