REMARK  13 active torsions:
REMARK  status: ('A' for Active; 'I' for Inactive)
REMARK    1  A    between atoms: C6_6  and  O1_7 
REMARK    2  A    between atoms: C6_6  and  C7_9 
REMARK    3  A    between atoms: C7_9  and  C8_11 
REMARK    4  A    between atoms: C8_11  and  C10_13 
REMARK    5  A    between atoms: C10_13  and  O3_14 
REMARK    6  A    between atoms: C10_13  and  C11_16 
REMARK    7  A    between atoms: C11_16  and  O4_18 
REMARK    8  A    between atoms: O4_18  and  C13_19 
REMARK    9  A    between atoms: C13_19  and  O6_21 
REMARK   10  A    between atoms: O6_21  and  C14_22 
REMARK   11  A    between atoms: C19_27  and  C20_28 
REMARK   12  A    between atoms: C20_28  and  C21_29 
REMARK   13  A    between atoms: C25_33  and  O7_34 
ROOT
HETATM    1  C1  UNL     1      -4.519  -2.354   1.475  1.00  0.00     0.017 C 
HETATM    2  C2  UNL     1      -3.801  -1.420   0.868  1.00  0.00    -0.057 C 
HETATM    3  C3  UNL     1      -3.806  -1.496  -0.620  1.00  0.00     0.036 C 
HETATM    4  C4  UNL     1      -2.376  -1.562  -1.157  1.00  0.00     0.008 C 
HETATM    5  C5  UNL     1      -1.447  -2.211  -0.206  1.00  0.00     0.046 C 
HETATM    6  C6  UNL     1      -0.405  -1.358   0.431  1.00  0.00     0.122 C 
HETATM    7  C17 UNL     1      -0.723   0.060   0.677  1.00  0.00     0.082 C 
HETATM    8  C18 UNL     1      -2.149   0.343   1.091  1.00  0.00    -0.048 C 
HETATM    9  C19 UNL     1      -2.492   1.553   0.706  1.00  0.00    -0.017 C 
HETATM   10  C25 UNL     1      -3.137  -0.481   1.815  1.00  0.00     0.175 C 
ENDROOT
BRANCH   6  11
HETATM   11  O1  UNL     1      -0.083  -1.956   1.651  1.00  0.00    -0.382 OA
ATOM     12  H1  UNL     1       0.582  -1.412   2.057  1.00  0.00     0.211 HD
ENDBRANCH   6  11
BRANCH   6  13
HETATM   13  C7  UNL     1       0.877  -1.395  -0.389  1.00  0.00     0.168 C 
HETATM   14  O2  UNL     1       0.744  -0.948  -1.519  1.00  0.00    -0.294 OA
BRANCH  13  15
HETATM   15  C8  UNL     1       2.148  -1.926   0.158  1.00  0.00     0.089 C 
HETATM   16  C9  UNL     1       2.673  -1.143   1.342  1.00  0.00     0.021 C 
BRANCH  15  17
HETATM   17  C10 UNL     1       3.182  -2.265  -0.854  1.00  0.00     0.185 C 
BRANCH  17  18
HETATM   18  O3  UNL     1       4.309  -2.745  -0.179  1.00  0.00    -0.388 OA
ATOM     19  H3  UNL     1       4.970  -2.962  -0.826  1.00  0.00     0.210 HD
ENDBRANCH  17  18
BRANCH  17  20
HETATM   20  C11 UNL     1       3.506  -1.111  -1.705  1.00  0.00     0.079 C 
HETATM   21  C12 UNL     1       3.387  -1.206  -3.008  1.00  0.00     0.049 C 
BRANCH  20  22
HETATM   22  O4  UNL     1       3.935   0.062  -1.110  1.00  0.00    -0.258 OA
BRANCH  22  23
HETATM   23  C13 UNL     1       5.284   0.346  -0.879  1.00  0.00     0.411 C 
HETATM   24  O5  UNL     1       6.110  -0.522  -1.241  1.00  0.00    -0.229 OA
BRANCH  23  25
HETATM   25  O6  UNL     1       5.706   1.512  -0.287  1.00  0.00    -0.293 OA
BRANCH  25  26
HETATM   26  C14 UNL     1       7.092   1.797  -0.054  1.00  0.00     0.126 C 
HETATM   27  C15 UNL     1       7.258   1.929   1.435  1.00  0.00     0.040 C 
HETATM   28  C16 UNL     1       7.476   3.082  -0.727  1.00  0.00     0.040 C 
ENDBRANCH  25  26
ENDBRANCH  23  25
ENDBRANCH  22  23
ENDBRANCH  20  22
ENDBRANCH  17  20
ENDBRANCH  15  17
ENDBRANCH  13  15
ENDBRANCH   6  13
BRANCH   9  29
HETATM   29  C20 UNL     1      -3.774   2.247   0.893  1.00  0.00     0.054 C 
BRANCH  29  30
HETATM   30  C21 UNL     1      -4.403   2.634  -0.407  1.00  0.00    -0.021 C 
HETATM   31  C22 UNL     1      -5.622   2.209  -0.672  1.00  0.00    -0.091 C 
HETATM   32  C23 UNL     1      -6.214   2.626  -2.000  1.00  0.00     0.042 C 
HETATM   33  C24 UNL     1      -6.480   1.383   0.185  1.00  0.00     0.042 C 
ENDBRANCH  29  30
ENDBRANCH   9  29
BRANCH  10  34
HETATM   34  O7  UNL     1      -2.546  -1.182   2.878  1.00  0.00    -0.387 OA
ATOM     35  H7  UNL     1      -2.123  -0.583   3.482  1.00  0.00     0.210 HD
ENDBRANCH  10  34
TORSDOF 13
