REMARK  10 active torsions:
REMARK  status: ('A' for Active; 'I' for Inactive)
REMARK    1  A    between atoms: C2_2  and  O1_3 
REMARK    2  A    between atoms: O1_3  and  C3_4 
REMARK    3  A    between atoms: C3_4  and  C6_7 
REMARK    4  A    between atoms: C9_13  and  O3_14 
REMARK    5  A    between atoms: C13_19  and  C14_20 
REMARK    6  A    between atoms: C14_20  and  C16_22 
REMARK    7  A    between atoms: C16_22  and  C17_23 
REMARK    8  A    between atoms: C22_28  and  C23_29 
REMARK    9  A    between atoms: C23_29  and  O4_30 
REMARK   10  A    between atoms: C24_32  and  O5_33 
ROOT
HETATM    1  C6  UNL     1      -3.106   0.431   0.318  1.00  0.00     0.100 A 
HETATM    2  O2  UNL     1      -4.025  -0.478   0.483  1.00  0.00    -0.293 OA
HETATM    3  C7  UNL     1      -3.751  -1.586  -0.082  1.00  0.00     0.159 A 
HETATM    4  N1  UNL     1      -4.415  -2.754  -0.153  1.00  0.00    -0.343 N 
ATOM      5  H1  UNL     1      -5.321  -2.831   0.309  1.00  0.00     0.167 HD
HETATM    6  C8  UNL     1      -3.938  -3.808  -0.800  1.00  0.00     0.127 A 
HETATM    7  C9  UNL     1      -2.722  -3.690  -1.415  1.00  0.00     0.087 A 
HETATM    8  C10 UNL     1      -1.954  -2.500  -1.396  1.00  0.00    -0.012 A 
HETATM    9  C11 UNL     1      -0.664  -2.479  -2.040  1.00  0.00     0.052 C 
HETATM   10  C12 UNL     1      -2.489  -1.426  -0.713  1.00  0.00     0.037 A 
HETATM   11  C13 UNL     1      -2.054  -0.153  -0.475  1.00  0.00     0.014 A 
ENDROOT
BRANCH  11  12
HETATM   12  C14 UNL     1      -0.782   0.528  -0.747  1.00  0.00    -0.068 C 
HETATM   13  C15 UNL     1      -0.236   0.572  -2.110  1.00  0.00     0.044 C 
BRANCH  12  14
HETATM   14  C16 UNL     1       0.265   0.207   0.317  1.00  0.00     0.066 C 
BRANCH  14  15
HETATM   15  C17 UNL     1       1.577   0.889   0.275  1.00  0.00     0.126 C 
HETATM   16  C18 UNL     1       2.476   0.768  -0.884  1.00  0.00     0.039 C 
HETATM   17  C19 UNL     1       3.810   1.226  -0.217  1.00  0.00     0.023 C 
HETATM   18  C20 UNL     1       4.994   0.864  -1.031  1.00  0.00     0.035 C 
HETATM   19  C25 UNL     1       3.645   0.441   1.069  1.00  0.00     0.159 C 
HETATM   20  C21 UNL     1       6.037   0.113  -0.289  1.00  0.00    -0.019 C 
HETATM   21  C22 UNL     1       5.677  -0.777   0.623  1.00  0.00    -0.029 C 
HETATM   22  C24 UNL     1       4.193  -0.956   0.844  1.00  0.00     0.178 C 
HETATM   23  O6  UNL     1       2.333   0.495   1.415  1.00  0.00    -0.377 OA
BRANCH  21  24
HETATM   24  C23 UNL     1       6.620  -1.579   1.420  1.00  0.00     0.200 C 
BRANCH  24  25
HETATM   25  O4  UNL     1       7.925  -1.247   1.060  1.00  0.00    -0.397 OA
ATOM     26  H4  UNL     1       8.533  -1.764   1.574  1.00  0.00     0.209 HD
ENDBRANCH  24  25
ENDBRANCH  21  24
BRANCH  22  27
HETATM   27  O5  UNL     1       3.951  -1.750   1.954  1.00  0.00    -0.389 OA
ATOM     28  H5  UNL     1       3.018  -1.863   2.093  1.00  0.00     0.210 HD
ENDBRANCH  22  27
ENDBRANCH  14  15
ENDBRANCH  12  14
ENDBRANCH  11  12
BRANCH   1  29
HETATM   29  C3  UNL     1      -3.185   1.780   0.848  1.00  0.00     0.103 C 
HETATM   30  C4  UNL     1      -3.202   2.911  -0.161  1.00  0.00     0.053 C 
HETATM   31  C5  UNL     1      -2.190   2.120   1.972  1.00  0.00     0.053 C 
BRANCH  29  32
HETATM   32  O1  UNL     1      -4.408   1.919   1.539  1.00  0.00    -0.374 OA
BRANCH  32  33
HETATM   33  C2  UNL     1      -5.551   1.896   0.799  1.00  0.00     0.165 C 
HETATM   34  C1  UNL     1      -6.776   2.082   1.727  1.00  0.00     0.033 C 
ENDBRANCH  32  33
ENDBRANCH  29  32
ENDBRANCH   1  29
BRANCH   7  35
HETATM   35  O3  UNL     1      -2.167  -4.760  -2.112  1.00  0.00    -0.359 OA
ATOM     36  H3  UNL     1      -1.322  -4.678  -2.539  1.00  0.00     0.217 HD
ENDBRANCH   7  35
TORSDOF 10
