REMARK  13 active torsions:
REMARK  status: ('A' for Active; 'I' for Inactive)
REMARK    1  A    between atoms: C2_2  and  C3_3 
REMARK    2  A    between atoms: C3_3  and  C4_4 
REMARK    3  A    between atoms: C4_4  and  N1_5 
REMARK    4  A    between atoms: C4_4  and  O1_9 
REMARK    5  A    between atoms: C4_4  and  C5_11 
REMARK    6  A    between atoms: C5_11  and  S1_12 
REMARK    7  A    between atoms: S1_12  and  S2_13 
REMARK    8  A    between atoms: S2_13  and  C6_14 
REMARK    9  A    between atoms: C6_14  and  C7_15 
REMARK   10  A    between atoms: C8_16  and  O2_17 
REMARK   11  A    between atoms: N2_21  and  O3_23 
REMARK   12  A    between atoms: C11_25  and  O4_26 
REMARK   13  A    between atoms: C12_28  and  O5_29 
ROOT
HETATM    1  C7  UNL     1      -2.203   1.360   0.989  1.00  0.00     0.056 C 
HETATM    2  C8  UNL     1      -2.297   1.022  -0.444  1.00  0.00     0.131 C 
HETATM    3  C9  UNL     1      -3.628   0.352  -0.743  1.00  0.00     0.089 C 
HETATM    4  C10 UNL     1      -3.660  -0.920   0.003  1.00  0.00     0.043 C 
HETATM    5  N2  UNL     1      -3.960  -2.046  -0.537  1.00  0.00    -0.275 N 
ATOM      6  H2  UNL     1      -3.960  -2.884   0.044  1.00  0.00     0.193 HD
HETATM    7  C11 UNL     1      -3.321  -0.842   1.448  1.00  0.00     0.194 C 
HETATM    8  C12 UNL     1      -3.135   0.587   1.895  1.00  0.00     0.160 C 
ENDROOT
BRANCH   1   9
HETATM    9  C6  UNL     1      -0.781   1.334   1.568  1.00  0.00     0.096 C 
BRANCH   9  10
HETATM   10  S2  UNL     1       0.335   2.477   0.783  1.00  0.00    -0.097 SA
BRANCH  10  11
HETATM   11  S1  UNL     1       0.736   1.820  -1.164  1.00  0.00    -0.093 SA
BRANCH  11  12
HETATM   12  C5  UNL     1       2.182   0.823  -1.247  1.00  0.00     0.154 C 
BRANCH  12  13
HETATM   13  C4  UNL     1       2.229  -0.474  -0.545  1.00  0.00     0.231 C 
BRANCH  13  14
HETATM   14  C3  UNL     1       3.591  -1.125  -0.849  1.00  0.00     0.069 C 
BRANCH  14  15
HETATM   15  C2  UNL     1       4.735  -0.215  -0.479  1.00  0.00     0.000 C 
HETATM   16  C1  UNL     1       6.040  -0.945  -0.789  1.00  0.00     0.005 C 
ENDBRANCH  14  15
ENDBRANCH  13  14
BRANCH  13  17
HETATM   17  N1  UNL     1       2.325  -0.252   0.922  1.00  0.00    -0.046 N 
ATOM     18  H13 UNL     1       2.543  -1.082   1.474  1.00  0.00     0.278 HD
ATOM     19  H12 UNL     1       3.139   0.280   1.229  1.00  0.00     0.278 HD
ATOM     20  H11 UNL     1       1.423   0.179   1.123  1.00  0.00     0.278 HD
ENDBRANCH  13  17
BRANCH  13  21
HETATM   21  O1  UNL     1       1.257  -1.386  -0.862  1.00  0.00    -0.364 OA
ATOM     22  H1  UNL     1       0.417  -0.984  -0.674  1.00  0.00     0.212 HD
ENDBRANCH  13  21
ENDBRANCH  12  13
ENDBRANCH  11  12
ENDBRANCH  10  11
ENDBRANCH   9  10
ENDBRANCH   1   9
BRANCH   2  23
HETATM   23  O2  UNL     1      -2.331   2.218  -1.188  1.00  0.00    -0.395 OA
ATOM     24  H2  UNL     1      -2.392   2.000  -2.111  1.00  0.00     0.210 HD
ENDBRANCH   2  23
BRANCH   8  25
HETATM   25  O5  UNL     1      -4.385   1.187   2.015  1.00  0.00    -0.392 OA
ATOM     26  H5  UNL     1      -4.970   0.701   2.584  1.00  0.00     0.210 HD
ENDBRANCH   8  25
BRANCH   7  27
HETATM   27  O4  UNL     1      -2.220  -1.630   1.777  1.00  0.00    -0.387 OA
ATOM     28  H4  UNL     1      -2.003  -1.580   2.701  1.00  0.00     0.210 HD
ENDBRANCH   7  27
BRANCH   5  29
HETATM   29  O3  UNL     1      -4.282  -2.164  -1.872  1.00  0.00    -0.290 OA
ATOM     30  H3  UNL     1      -4.504  -2.997  -2.271  1.00  0.00     0.244 HD
ENDBRANCH   5  29
TORSDOF 13
