REMARK  7 active torsions:
REMARK  status: ('A' for Active; 'I' for Inactive)
REMARK    1  A    between atoms: C1_4  and  C2_6 
REMARK    2  A    between atoms: C5_9  and  C6_10 
REMARK    3  A    between atoms: C6_10  and  N3_11 
REMARK    4  A    between atoms: C6_10  and  C9_21 
REMARK    5  A    between atoms: N3_11  and  C7_13 
REMARK    6  A    between atoms: C8_17  and  N5_18 
REMARK       I    between atoms: C9_21  and  N6_23 
REMARK    7  A    between atoms: N6_23  and  N7_25 
ROOT
HETATM    1  C6  UNL     1      -1.295   0.793   0.271  1.00  0.00     0.217 C 
ENDROOT
BRANCH   1   2
HETATM    2  C5  UNL     1       0.038   0.341  -0.257  1.00  0.00     0.015 A 
HETATM    3  C4  UNL     1       0.442   0.126  -1.549  1.00  0.00     0.018 A 
HETATM    4  C3  UNL     1       1.696  -0.282  -1.752  1.00  0.00     0.023 A 
HETATM    5  C2  UNL     1       2.492  -0.456  -0.655  1.00  0.00     0.046 A 
HETATM    6  S2  UNL     1       1.451  -0.041   0.629  1.00  0.00    -0.089 SA
BRANCH   5   7
HETATM    7  C1  UNL     1       3.897  -0.893  -0.587  1.00  0.00     0.127 C 
HETATM    8  N1  UNL     1       4.501  -1.158  -1.695  1.00  0.00    -0.387 N 
ATOM      9  H12 UNL     1       5.474  -1.461  -1.648  1.00  0.00     0.157 HD
ATOM     10  H11 UNL     1       4.005  -1.064  -2.581  1.00  0.00     0.157 HD
HETATM   11  N2  UNL     1       4.581  -1.023   0.634  1.00  0.00    -0.082 NA
ENDBRANCH   5   7
ENDBRANCH   1   2
BRANCH   1  12
HETATM   12  N3  UNL     1      -1.715   0.127   1.445  1.00  0.00    -0.362 N 
ATOM     13  H3  UNL     1      -1.647   0.692   2.291  1.00  0.00     0.161 HD
BRANCH  12  14
HETATM   14  C7  UNL     1      -2.208  -1.169   1.660  1.00  0.00     0.139 A 
HETATM   15  S1  UNL     1      -2.559  -1.873   3.215  1.00  0.00     0.009 SA
HETATM   16  N4  UNL     1      -2.976  -3.084   2.161  1.00  0.00    -0.303 N 
HETATM   17  C8  UNL     1      -2.636  -2.343   1.081  1.00  0.00     0.215 A 
ATOM     18  H4  UNL     1      -3.347  -4.027   2.281  1.00  0.00     0.176 HD
BRANCH  17  19
HETATM   19  N5  UNL     1      -2.758  -2.725  -0.300  1.00  0.00    -0.094 N 
HETATM   20  O1  UNL     1      -3.162  -3.887  -0.636  1.00  0.00    -0.530 OA
HETATM   21  O2  UNL     1      -2.471  -1.940  -1.367  1.00  0.00    -0.530 OA
ENDBRANCH  17  19
ENDBRANCH  12  14
ENDBRANCH   1  12
BRANCH   1  22
HETATM   22  C9  UNL     1      -1.138   2.268   0.551  1.00  0.00     0.263 C 
HETATM   23  O3  UNL     1      -1.369   2.736   1.692  1.00  0.00    -0.269 OA
HETATM   24  N6  UNL     1      -0.724   3.160  -0.468  1.00  0.00    -0.275 N 
ATOM     25  H6  UNL     1      -0.525   2.820  -1.409  1.00  0.00     0.189 HD
BRANCH  24  26
HETATM   26  N7  UNL     1      -0.594   4.515  -0.158  1.00  0.00    -0.343 N 
ATOM     27  H72 UNL     1      -0.797   4.839   0.788  1.00  0.00     0.176 HD
ATOM     28  H71 UNL     1      -0.296   5.157  -0.892  1.00  0.00     0.176 HD
ENDBRANCH  24  26
ENDBRANCH   1  22
TORSDOF 7
