REMARK  10 active torsions:
REMARK  status: ('A' for Active; 'I' for Inactive)
REMARK    1  A    between atoms: C2_2  and  C3_4 
REMARK    2  A    between atoms: C3_4  and  N1_5 
REMARK    3  A    between atoms: C3_4  and  C4_9 
REMARK    4  A    between atoms: C4_9  and  N2_10 
REMARK    5  A    between atoms: C4_9  and  C12_30 
REMARK       I    between atoms: N2_10  and  C5_12 
REMARK       I    between atoms: C5_12  and  N3_14 
REMARK    6  A    between atoms: N3_14  and  C6_16 
REMARK    7  A    between atoms: C10_20  and  N4_21 
REMARK    8  A    between atoms: C11_26  and  N6_27 
REMARK    9  A    between atoms: C12_30  and  N7_31 
REMARK   10  A    between atoms: C12_30  and  O5_35 
ROOT
HETATM    1  N2  UNL     1      -1.034  -0.374  -0.432  1.00  0.00    -0.332 N 
ATOM      2  H2  UNL     1      -1.061  -0.906  -1.302  1.00  0.00     0.164 HD
HETATM    3  C5  UNL     1       0.246   0.019   0.107  1.00  0.00     0.321 C 
HETATM    4  O2  UNL     1       0.159   0.671   1.179  1.00  0.00    -0.247 OA
HETATM    5  N3  UNL     1       1.423  -0.329  -0.557  1.00  0.00    -0.306 N 
ATOM      6  H3  UNL     1       1.331  -0.862  -1.422  1.00  0.00     0.170 HD
ENDROOT
BRANCH   1   7
HETATM    7  C4  UNL     1      -2.289  -0.034   0.227  1.00  0.00     0.179 C 
BRANCH   7   8
HETATM    8  C3  UNL     1      -3.116   0.882  -0.608  1.00  0.00     0.278 C 
BRANCH   8   9
HETATM    9  C2  UNL     1      -4.402   1.314  -0.044  1.00  0.00     0.155 C 
HETATM   10  C1  UNL     1      -5.579   0.425  -0.036  1.00  0.00     0.093 C 
HETATM   11  O1  UNL     1      -4.528   2.454   0.441  1.00  0.00    -0.296 OA
ENDBRANCH   8   9
BRANCH   8  12
HETATM   12  N1  UNL     1      -2.353   2.144  -0.834  1.00  0.00    -0.066 N 
ATOM     13  H13 UNL     1      -2.847   2.829  -1.406  1.00  0.00     0.275 HD
ATOM     14  H12 UNL     1      -2.265   2.729  -0.003  1.00  0.00     0.275 HD
ATOM     15  H11 UNL     1      -1.460   1.844  -1.226  1.00  0.00     0.275 HD
ENDBRANCH   8  12
ENDBRANCH   7   8
BRANCH   7  16
HETATM   16  C12 UNL     1      -2.957  -1.264   0.739  1.00  0.00     0.341 C 
BRANCH  16  17
HETATM   17  N7  UNL     1      -2.046  -1.988   1.659  1.00  0.00    -0.051 N 
ATOM     18  H73 UNL     1      -1.147  -2.194   1.224  1.00  0.00     0.277 HD
ATOM     19  H72 UNL     1      -1.712  -1.391   2.415  1.00  0.00     0.277 HD
ATOM     20  H71 UNL     1      -2.503  -2.830   2.009  1.00  0.00     0.277 HD
ENDBRANCH  16  17
BRANCH  16  21
HETATM   21  O5  UNL     1      -3.263  -2.198  -0.246  1.00  0.00    -0.368 OA
ATOM     22  H5  UNL     1      -3.689  -2.982   0.080  1.00  0.00     0.212 HD
ENDBRANCH  16  21
ENDBRANCH   7  16
ENDBRANCH   1   7
BRANCH   5  23
HETATM   23  C6  UNL     1       2.729  -0.006  -0.133  1.00  0.00     0.071 A 
HETATM   24  C7  UNL     1       3.080   0.693   0.989  1.00  0.00     0.032 A 
HETATM   25  C8  UNL     1       4.411   0.969   1.338  1.00  0.00     0.005 A 
HETATM   26  C9  UNL     1       5.440   0.534   0.544  1.00  0.00     0.034 A 
HETATM   27  C10 UNL     1       5.099  -0.172  -0.590  1.00  0.00     0.082 A 
HETATM   28  C11 UNL     1       3.806  -0.447  -0.941  1.00  0.00     0.157 A 
BRANCH  27  29
HETATM   29  N4  UNL     1       6.182  -0.626  -1.420  1.00  0.00    -0.305 N 
HETATM   30  N5  UNL     1       7.047   0.215  -1.794  1.00  0.00    -0.345 N 
ATOM     31  H52 UNL     1       6.965   1.190  -1.505  1.00  0.00     0.176 HD
ATOM     32  H51 UNL     1       7.815  -0.107  -2.383  1.00  0.00     0.176 HD
ATOM     33  H4  UNL     1       6.250  -1.604  -1.700  1.00  0.00     0.186 HD
ENDBRANCH  27  29
BRANCH  28  34
HETATM   34  N6  UNL     1       3.523  -1.181  -2.121  1.00  0.00    -0.111 N 
HETATM   35  O3  UNL     1       3.075  -0.621  -3.114  1.00  0.00    -0.532 OA
HETATM   36  O4  UNL     1       3.759  -2.524  -2.140  1.00  0.00    -0.532 OA
ENDBRANCH  28  34
ENDBRANCH   5  23
TORSDOF 10
