REMARK  11 active torsions:
REMARK  status: ('A' for Active; 'I' for Inactive)
REMARK    1  A    between atoms: O1_1  and  C1_3 
REMARK    2  A    between atoms: C1_3  and  C2_4 
REMARK    3  A    between atoms: C1_3  and  C6_11 
REMARK    4  A    between atoms: C2_4  and  S1_5 
REMARK    5  A    between atoms: S1_5  and  S2_6 
REMARK    6  A    between atoms: S2_6  and  C3_7 
REMARK    7  A    between atoms: C3_7  and  C4_8 
REMARK    8  A    between atoms: C4_8  and  C5_9 
REMARK    9  A    between atoms: C8_13  and  O2_14 
REMARK   10  A    between atoms: C9_16  and  O3_17 
REMARK   11  A    between atoms: C10_19  and  O4_20 
ROOT
HETATM    1  C6  UNL     1      -1.720   0.295   0.005  1.00  0.00     0.156 C 
HETATM    2  C7  UNL     1      -2.575  -0.413  -0.974  1.00  0.00     0.069 C 
HETATM    3  C8  UNL     1      -3.758  -0.999  -0.189  1.00  0.00     0.154 C 
HETATM    4  C9  UNL     1      -4.458   0.202   0.383  1.00  0.00     0.201 C 
HETATM    5  C10 UNL     1      -3.597   1.160   1.095  1.00  0.00     0.288 C 
HETATM    6  O5  UNL     1      -2.308   1.270   0.741  1.00  0.00    -0.351 OA
ENDROOT
BRANCH   1   7
HETATM    7  C1  UNL     1      -0.508   0.861  -0.686  1.00  0.00     0.157 C 
BRANCH   7   8
HETATM    8  O1  UNL     1       0.175  -0.039  -1.465  1.00  0.00    -0.392 OA
ATOM      9  H1  UNL     1      -0.427  -0.440  -2.081  1.00  0.00     0.210 HD
ENDBRANCH   7   8
BRANCH   7  10
HETATM   10  C2  UNL     1       0.452   1.500   0.295  1.00  0.00     0.120 C 
BRANCH  10  11
HETATM   11  S1  UNL     1       1.217   0.269   1.378  1.00  0.00    -0.095 SA
BRANCH  11  12
HETATM   12  S2  UNL     1       2.497  -1.034   0.295  1.00  0.00    -0.098 SA
BRANCH  12  13
HETATM   13  C3  UNL     1       4.198  -0.378   0.240  1.00  0.00     0.087 C 
BRANCH  13  14
HETATM   14  C4  UNL     1       5.022  -1.366  -0.550  1.00  0.00     0.022 C 
BRANCH  14  15
HETATM   15  C5  UNL     1       6.460  -0.998  -0.696  1.00  0.00     0.087 C 
HETATM   16  S3  UNL     1       6.733   0.566  -1.536  1.00  0.00    -0.098 SA
ENDBRANCH  14  15
ENDBRANCH  13  14
ENDBRANCH  12  13
ENDBRANCH  11  12
ENDBRANCH  10  11
ENDBRANCH   7  10
ENDBRANCH   1   7
BRANCH   3  17
HETATM   17  O2  UNL     1      -3.292  -1.807   0.824  1.00  0.00    -0.393 OA
ATOM     18  H2  UNL     1      -4.024  -2.169   1.310  1.00  0.00     0.210 HD
ENDBRANCH   3  17
BRANCH   5  19
HETATM   19  O4  UNL     1      -4.192   2.442   1.023  1.00  0.00    -0.369 OA
ATOM     20  H4  UNL     1      -3.636   3.060   1.483  1.00  0.00     0.212 HD
ENDBRANCH   5  19
BRANCH   4  21
HETATM   21  O3  UNL     1      -5.530  -0.246   1.189  1.00  0.00    -0.388 OA
ATOM     22  H3  UNL     1      -5.972   0.513   1.550  1.00  0.00     0.210 HD
ENDBRANCH   4  21
TORSDOF 11
