REMARK  20 active torsions:
REMARK  status: ('A' for Active; 'I' for Inactive)
REMARK    1  A    between atoms: C2_2  and  C3_3 
REMARK    2  A    between atoms: C3_3  and  C4_4 
REMARK    3  A    between atoms: C4_4  and  C5_5 
REMARK    4  A    between atoms: C5_5  and  C6_6 
REMARK    5  A    between atoms: C7_7  and  C8_8 
REMARK    6  A    between atoms: C8_8  and  C9_9 
REMARK    7  A    between atoms: C10_10  and  C11_11 
REMARK    8  A    between atoms: C11_11  and  C12_12 
REMARK    9  A    between atoms: C13_13  and  C14_14 
REMARK   10  A    between atoms: C14_14  and  C15_15 
REMARK   11  A    between atoms: C16_16  and  C17_17 
REMARK   12  A    between atoms: C17_17  and  C18_18 
REMARK   13  A    between atoms: C19_19  and  C20_20 
REMARK   14  A    between atoms: C20_20  and  C21_21 
REMARK   15  A    between atoms: C21_21  and  C22_22 
REMARK   16  A    between atoms: C22_22  and  C23_23 
REMARK   17  A    between atoms: C24_24  and  C25_25 
REMARK   18  A    between atoms: C25_25  and  C26_26 
REMARK   19  A    between atoms: C27_27  and  C28_28 
REMARK   20  A    between atoms: C28_28  and  C29_29 
ROOT
HETATM    1  C15 UNL     1       0.288   4.241  -1.047  1.00  0.00    -0.026 C 
HETATM    2  C16 UNL     1      -0.475   4.112   0.011  1.00  0.00    -0.026 C 
ENDROOT
BRANCH   2   3
HETATM    3  C17 UNL     1      -0.717   2.889   0.803  1.00  0.00     0.053 C 
BRANCH   3   4
HETATM    4  C18 UNL     1      -2.169   2.539   0.779  1.00  0.00    -0.027 C 
HETATM    5  C19 UNL     1      -3.004   3.300   0.098  1.00  0.00    -0.030 C 
BRANCH   5   6
HETATM    6  C20 UNL     1      -4.467   2.936   0.080  1.00  0.00     0.027 C 
BRANCH   6   7
HETATM    7  C21 UNL     1      -4.886   2.689  -1.370  1.00  0.00     0.007 C 
BRANCH   7   8
HETATM    8  C22 UNL     1      -4.083   1.555  -1.973  1.00  0.00     0.027 C 
BRANCH   8   9
HETATM    9  C23 UNL     1      -4.336   0.332  -1.188  1.00  0.00    -0.030 C 
HETATM   10  C24 UNL     1      -4.856  -0.762  -1.754  1.00  0.00    -0.027 C 
BRANCH  10  11
HETATM   11  C25 UNL     1      -5.121  -2.010  -0.979  1.00  0.00     0.053 C 
BRANCH  11  12
HETATM   12  C26 UNL     1      -6.555  -2.374  -1.023  1.00  0.00    -0.027 C 
HETATM   13  C27 UNL     1      -7.244  -2.447   0.100  1.00  0.00    -0.030 C 
BRANCH  13  14
HETATM   14  C28 UNL     1      -8.692  -2.809   0.128  1.00  0.00     0.031 C 
BRANCH  14  15
HETATM   15  C29 UNL     1      -9.434  -1.660   0.733  1.00  0.00    -0.011 C 
HETATM   16  C30 UNL     1      -9.039  -1.282   2.144  1.00  0.00     0.005 C 
HETATM   17  C31 UNL     1     -10.520  -1.001   2.411  1.00  0.00     0.001 C 
HETATM   18  C32 UNL     1     -10.817  -1.976   1.265  1.00  0.00     0.005 C 
ENDBRANCH  14  15
ENDBRANCH  13  14
ENDBRANCH  11  12
ENDBRANCH  10  11
ENDBRANCH   8   9
ENDBRANCH   7   8
ENDBRANCH   6   7
ENDBRANCH   5   6
ENDBRANCH   3   4
ENDBRANCH   2   3
BRANCH   1  19
HETATM   19  C14 UNL     1       1.075   3.149  -1.668  1.00  0.00     0.053 C 
BRANCH  19  20
HETATM   20  C13 UNL     1       2.525   3.462  -1.669  1.00  0.00    -0.026 C 
HETATM   21  C12 UNL     1       3.433   2.753  -1.083  1.00  0.00    -0.026 C 
BRANCH  21  22
HETATM   22  C11 UNL     1       3.279   1.520  -0.304  1.00  0.00     0.053 C 
BRANCH  22  23
HETATM   23  C10 UNL     1       4.041   0.406  -0.927  1.00  0.00    -0.026 C 
HETATM   24  C9  UNL     1       5.005  -0.220  -0.283  1.00  0.00    -0.026 C 
BRANCH  24  25
HETATM   25  C8  UNL     1       5.736  -1.333  -0.960  1.00  0.00     0.053 C 
BRANCH  25  26
HETATM   26  C7  UNL     1       7.150  -0.978  -1.033  1.00  0.00    -0.026 C 
HETATM   27  C6  UNL     1       8.151  -1.649  -0.504  1.00  0.00    -0.026 C 
BRANCH  27  28
HETATM   28  C5  UNL     1       8.043  -2.878   0.259  1.00  0.00     0.053 C 
BRANCH  28  29
HETATM   29  C4  UNL     1       8.527  -2.837   1.651  1.00  0.00    -0.027 C 
BRANCH  29  30
HETATM   30  C3  UNL     1       9.922  -2.629   2.000  1.00  0.00    -0.030 C 
BRANCH  30  31
HETATM   31  C2  UNL     1      10.651  -1.408   1.616  1.00  0.00     0.022 C 
HETATM   32  C1  UNL     1      12.064  -1.497   2.235  1.00  0.00     0.009 C 
ENDBRANCH  30  31
ENDBRANCH  29  30
ENDBRANCH  28  29
ENDBRANCH  27  28
ENDBRANCH  25  26
ENDBRANCH  24  25
ENDBRANCH  22  23
ENDBRANCH  21  22
ENDBRANCH  19  20
ENDBRANCH   1  19
TORSDOF 20
