REMARK  20 active torsions:
REMARK  status: ('A' for Active; 'I' for Inactive)
REMARK    1  A    between atoms: C2_2  and  C3_3 
REMARK    2  A    between atoms: C4_4  and  C5_5 
REMARK    3  A    between atoms: C5_5  and  C6_6 
REMARK    4  A    between atoms: C6_6  and  C7_7 
REMARK    5  A    between atoms: C7_7  and  C8_8 
REMARK    6  A    between atoms: C9_9  and  C10_10 
REMARK    7  A    between atoms: C10_10  and  C11_11 
REMARK    8  A    between atoms: C12_12  and  C13_13 
REMARK    9  A    between atoms: C13_13  and  C14_14 
REMARK   10  A    between atoms: C15_15  and  C16_16 
REMARK   11  A    between atoms: C16_16  and  C17_17 
REMARK   12  A    between atoms: C18_18  and  C19_19 
REMARK   13  A    between atoms: C19_19  and  C20_20 
REMARK   14  A    between atoms: C20_20  and  C21_21 
REMARK   15  A    between atoms: C22_22  and  C23_23 
REMARK   16  A    between atoms: C23_23  and  C24_24 
REMARK   17  A    between atoms: C24_24  and  C25_25 
REMARK   18  A    between atoms: C25_25  and  C26_26 
REMARK   19  A    between atoms: C27_27  and  C28_28 
REMARK   20  A    between atoms: C28_28  and  C29_29 
ROOT
HETATM    1  C16 UNL     1       0.619   0.718   0.834  1.00  0.00     0.053 C 
ENDROOT
BRANCH   1   2
HETATM    2  C15 UNL     1       1.867   0.338   0.145  1.00  0.00    -0.027 C 
HETATM    3  C14 UNL     1       2.959   1.105   0.231  1.00  0.00    -0.027 C 
BRANCH   3   4
HETATM    4  C13 UNL     1       2.932   2.345   1.005  1.00  0.00     0.053 C 
BRANCH   4   5
HETATM    5  C12 UNL     1       3.758   2.433   2.182  1.00  0.00    -0.027 C 
HETATM    6  C11 UNL     1       4.617   1.714   2.738  1.00  0.00    -0.027 C 
BRANCH   6   7
HETATM    7  C10 UNL     1       5.262   0.396   2.477  1.00  0.00     0.053 C 
BRANCH   7   8
HETATM    8  C9  UNL     1       6.745   0.702   2.538  1.00  0.00    -0.027 C 
HETATM    9  C8  UNL     1       7.585   0.459   1.624  1.00  0.00    -0.029 C 
BRANCH   9  10
HETATM   10  C7  UNL     1       7.528  -0.133   0.288  1.00  0.00     0.038 C 
BRANCH  10  11
HETATM   11  C6  UNL     1       8.481  -1.366   0.402  1.00  0.00     0.088 C 
BRANCH  11  12
HETATM   12  C5  UNL     1       9.537  -1.425  -0.327  1.00  0.00    -0.156 C 
BRANCH  12  13
HETATM   13  C4  UNL     1      10.686  -1.603  -1.043  1.00  0.00     0.046 C 
HETATM   14  C3  UNL     1      11.089  -0.710  -1.942  1.00  0.00    -0.019 C 
BRANCH  14  15
HETATM   15  C2  UNL     1      12.309  -0.823  -2.750  1.00  0.00     0.023 C 
HETATM   16  C1  UNL     1      13.181   0.383  -2.388  1.00  0.00     0.009 C 
ENDBRANCH  14  15
ENDBRANCH  12  13
ENDBRANCH  11  12
ENDBRANCH  10  11
ENDBRANCH   9  10
ENDBRANCH   7   8
ENDBRANCH   6   7
ENDBRANCH   4   5
ENDBRANCH   3   4
ENDBRANCH   1   2
BRANCH   1  17
HETATM   17  C17 UNL     1       0.177  -0.340   1.777  1.00  0.00    -0.027 C 
HETATM   18  C18 UNL     1      -0.986  -0.899   1.761  1.00  0.00    -0.030 C 
BRANCH  18  19
HETATM   19  C19 UNL     1      -2.097  -0.633   0.838  1.00  0.00     0.030 C 
BRANCH  19  20
HETATM   20  C20 UNL     1      -2.427  -1.942   0.121  1.00  0.00     0.030 C 
BRANCH  20  21
HETATM   21  C21 UNL     1      -3.584  -1.732  -0.756  1.00  0.00    -0.030 C 
HETATM   22  C22 UNL     1      -4.231  -0.620  -0.919  1.00  0.00    -0.031 C 
BRANCH  22  23
HETATM   23  C23 UNL     1      -5.402  -0.606  -1.870  1.00  0.00     0.027 C 
BRANCH  23  24
HETATM   24  C24 UNL     1      -6.618  -0.274  -1.025  1.00  0.00     0.007 C 
BRANCH  24  25
HETATM   25  C25 UNL     1      -6.559   1.037  -0.335  1.00  0.00     0.027 C 
BRANCH  25  26
HETATM   26  C26 UNL     1      -7.779   1.201   0.539  1.00  0.00    -0.031 C 
HETATM   27  C27 UNL     1      -8.689   0.273   0.607  1.00  0.00    -0.030 C 
BRANCH  27  28
HETATM   28  C28 UNL     1      -9.908   0.310   1.412  1.00  0.00     0.031 C 
BRANCH  28  29
HETATM   29  C29 UNL     1     -11.184   0.165   0.635  1.00  0.00    -0.011 C 
HETATM   30  C30 UNL     1     -11.287  -1.138  -0.141  1.00  0.00     0.005 C 
HETATM   31  C31 UNL     1     -11.333  -0.276  -1.403  1.00  0.00     0.001 C 
HETATM   32  C32 UNL     1     -11.398   0.990  -0.580  1.00  0.00     0.005 C 
ENDBRANCH  28  29
ENDBRANCH  27  28
ENDBRANCH  25  26
ENDBRANCH  24  25
ENDBRANCH  23  24
ENDBRANCH  22  23
ENDBRANCH  20  21
ENDBRANCH  19  20
ENDBRANCH  18  19
ENDBRANCH   1  17
TORSDOF 20
