REMARK  7 active torsions:
REMARK  status: ('A' for Active; 'I' for Inactive)
REMARK    1  A    between atoms: C3_5  and  N2_6 
REMARK       I    between atoms: N2_6  and  C4_8 
REMARK       I    between atoms: C4_8  and  N3_10 
REMARK    2  A    between atoms: N3_10  and  C5_12 
REMARK    3  A    between atoms: C12_21  and  C13_22 
REMARK    4  A    between atoms: C13_22  and  N5_24 
REMARK    5  A    between atoms: C13_22  and  C15_28 
REMARK    6  A    between atoms: C15_28  and  C16_29 
REMARK    7  A    between atoms: C18_35  and  C19_36 
ROOT
HETATM    1  C1  UNL     1       0.349   3.699  -0.463  1.00  0.00     0.069 C 
HETATM    2  C2  UNL     1      -0.201   2.364  -0.221  1.00  0.00     0.016 A 
HETATM    3  N1  UNL     1       0.598   1.312   0.054  1.00  0.00    -0.344 N 
ATOM      4  H1  UNL     1       1.601   1.489   0.111  1.00  0.00     0.167 HD
HETATM    5  C3  UNL     1       0.184   0.056   0.258  1.00  0.00     0.139 A 
HETATM    6  C11 UNL     1      -1.212  -0.139   0.170  1.00  0.00     0.106 A 
HETATM    7  N4  UNL     1      -1.950  -1.243   0.313  1.00  0.00    -0.339 N 
ATOM      8  H4  UNL     1      -1.590  -2.174   0.523  1.00  0.00     0.167 HD
HETATM    9  C12 UNL     1      -3.236  -0.928   0.136  1.00  0.00     0.119 A 
HETATM   10  N6  UNL     1      -3.333   0.370  -0.121  1.00  0.00    -0.341 N 
ATOM     11  H6  UNL     1      -4.193   0.889  -0.299  1.00  0.00     0.167 HD
HETATM   12  C17 UNL     1      -2.073   0.878  -0.103  1.00  0.00     0.073 A 
HETATM   13  C18 UNL     1      -1.573   2.166  -0.306  1.00  0.00    -0.003 A 
ENDROOT
BRANCH   5  14
HETATM   14  N2  UNL     1       0.902  -0.958   0.505  1.00  0.00    -0.293 N 
HETATM   15  C4  UNL     1       2.210  -1.268   0.665  1.00  0.00     0.322 C 
HETATM   16  O1  UNL     1       2.502  -2.209   1.495  1.00  0.00    -0.247 OA
HETATM   17  N3  UNL     1       3.297  -0.671   0.016  1.00  0.00    -0.338 N 
ATOM     18  H3  UNL     1       3.135   0.083  -0.652  1.00  0.00     0.164 HD
ATOM     19  H2  UNL     1       0.321  -1.789   0.617  1.00  0.00     0.172 HD
BRANCH  17  20
HETATM   20  C5  UNL     1       4.682  -1.125   0.291  1.00  0.00     0.086 C 
HETATM   21  C6  UNL     1       5.339  -0.021   1.058  1.00  0.00     0.025 C 
HETATM   22  C7  UNL     1       6.804   0.126   0.880  1.00  0.00     0.002 C 
HETATM   23  C8  UNL     1       7.374  -1.129   0.286  1.00  0.00     0.000 C 
HETATM   24  C9  UNL     1       6.767  -1.292  -1.086  1.00  0.00     0.002 C 
HETATM   25  C10 UNL     1       5.267  -1.442  -1.029  1.00  0.00     0.025 C 
ENDBRANCH  17  20
ENDBRANCH   5  14
BRANCH  13  26
HETATM   26  C19 UNL     1      -2.423   3.305  -0.591  1.00  0.00     0.015 C 
HETATM   27  C20 UNL     1      -3.903   3.019  -0.729  1.00  0.00     0.015 C 
HETATM   28  C21 UNL     1      -2.220   4.488   0.371  1.00  0.00     0.015 C 
ENDBRANCH  13  26
BRANCH   9  29
HETATM   29  C13 UNL     1      -4.336  -1.935   0.221  1.00  0.00     0.187 C 
HETATM   30  C14 UNL     1      -5.539  -1.426   0.948  1.00  0.00     0.055 C 
BRANCH  29  31
HETATM   31  N5  UNL     1      -3.835  -3.110   0.949  1.00  0.00    -0.063 N 
ATOM     32  H53 UNL     1      -2.984  -3.493   0.537  1.00  0.00     0.275 HD
ATOM     33  H52 UNL     1      -3.451  -2.870   1.863  1.00  0.00     0.275 HD
ATOM     34  H51 UNL     1      -4.586  -3.798   1.007  1.00  0.00     0.275 HD
ENDBRANCH  29  31
BRANCH  29  35
HETATM   35  C15 UNL     1      -4.661  -2.352  -1.184  1.00  0.00     0.159 C 
BRANCH  35  36
HETATM   36  C16 UNL     1      -5.735  -3.363  -1.273  1.00  0.00     0.175 C 
HETATM   37  O2  UNL     1      -6.024  -3.823  -2.435  1.00  0.00    -0.648 OA
HETATM   38  O3  UNL     1      -6.454  -3.859  -0.237  1.00  0.00    -0.648 OA
ENDBRANCH  35  36
ENDBRANCH  29  35
ENDBRANCH   9  29
TORSDOF 7
