REMARK  1 active torsions:
REMARK  status: ('A' for Active; 'I' for Inactive)
REMARK       I    between atoms: C2_4  and  N2_5 
REMARK       I    between atoms: C2_4  and  N4_9 
REMARK    1  A    between atoms: N4_9  and  N5_11 
ROOT
HETATM    1  C1  UNL     1      -3.246  -0.585  -0.304  1.00  0.00     0.165 C 
HETATM    2  N1  UNL     1      -1.901  -1.045  -0.032  1.00  0.00    -0.229 N 
ATOM      3  H1  UNL     1      -1.580  -1.894  -0.498  1.00  0.00     0.177 HD
HETATM    4  C2  UNL     1      -1.089  -0.448   0.760  1.00  0.00     0.701 C 
HETATM    5  N2  UNL     1      -1.427   0.734   1.456  1.00  0.00    -0.125 N 
ATOM      6  H2  UNL     1      -1.525   0.728   2.471  1.00  0.00     0.197 HD
HETATM    7  C3  UNL     1      -1.624   1.909   0.732  1.00  0.00     0.196 C 
HETATM    8  N3  UNL     1      -1.791   2.891   0.134  1.00  0.00    -0.171 NA
HETATM    9  N4  UNL     1       0.195  -0.983   0.951  1.00  0.00    -0.131 N 
ATOM     10  H4  UNL     1       0.320  -1.987   1.078  1.00  0.00     0.205 HD
ENDROOT
BRANCH   9  11
HETATM   11  N5  UNL     1       1.290  -0.136   0.966  1.00  0.00    -0.277 N 
HETATM   12  C4  UNL     1       2.112  -0.095  -0.022  1.00  0.00     0.104 C 
HETATM   13  C5  UNL     1       3.278   0.823   0.021  1.00  0.00     0.086 C 
HETATM   14  N6  UNL     1       1.887  -0.928  -1.136  1.00  0.00    -0.087 NA
ATOM     15  H5  UNL     1       1.447   0.466   1.774  1.00  0.00     0.188 HD
ENDBRANCH   9  11
TORSDOF 1
