REMARK  3 active torsions:
REMARK  status: ('A' for Active; 'I' for Inactive)
REMARK       I    between atoms: N1_2  and  C2_4 
REMARK       I    between atoms: C2_4  and  N2_5 
REMARK    1  A    between atoms: N3_7  and  N4_9 
REMARK    2  A    between atoms: C3_11  and  O1_13 
REMARK    3  A    between atoms: N5_15  and  N6_17 
ROOT
HETATM    1  C1  UNL     1      -3.123  -1.323  -1.438  1.00  0.00     0.165 C 
HETATM    2  N1  UNL     1      -2.154  -1.378  -0.361  1.00  0.00    -0.228 N 
ATOM      3  H1  UNL     1      -1.893  -2.268   0.064  1.00  0.00     0.177 HD
HETATM    4  C2  UNL     1      -1.580  -0.163   0.085  1.00  0.00     0.709 C 
HETATM    5  N2  UNL     1      -0.287   0.188  -0.384  1.00  0.00    -0.116 N 
ATOM      6  H2  UNL     1      -0.093   0.304  -1.378  1.00  0.00     0.207 HD
HETATM    7  N3  UNL     1       0.616   0.350   0.494  1.00  0.00    -0.227 N 
ATOM      8  H3  UNL     1       0.419   0.232   1.488  1.00  0.00     0.209 HD
HETATM    9  N5  UNL     1      -2.211   0.596   0.888  1.00  0.00    -0.117 N 
ATOM     10  H5  UNL     1      -3.137   0.295   1.193  1.00  0.00     0.207 HD
ENDROOT
BRANCH   9  11
HETATM   11  N6  UNL     1      -1.735   1.801   1.379  1.00  0.00    -0.235 N 
HETATM   12  N7  UNL     1      -2.193   2.247   2.460  1.00  0.00    -0.330 N 
ATOM     13  H72 UNL     1      -2.907   1.716   2.959  1.00  0.00     0.178 HD
ATOM     14  H71 UNL     1      -1.843   3.134   2.821  1.00  0.00     0.178 HD
ATOM     15  H6  UNL     1      -1.021   2.320   0.868  1.00  0.00     0.208 HD
ENDBRANCH   9  11
BRANCH   7  16
HETATM   16  N4  UNL     1       1.909   0.701   0.034  1.00  0.00    -0.269 N 
HETATM   17  C3  UNL     1       2.940   0.030   0.427  1.00  0.00     0.127 C 
HETATM   18  C4  UNL     1       4.271   0.420  -0.070  1.00  0.00     0.098 C 
ATOM     19  H4  UNL     1       2.026   1.485  -0.608  1.00  0.00     0.190 HD
BRANCH  17  20
HETATM   20  O1  UNL     1       2.765  -1.037   1.304  1.00  0.00    -0.349 OA
ATOM     21  H1  UNL     1       3.523  -1.531   1.593  1.00  0.00     0.219 HD
ENDBRANCH  17  20
ENDBRANCH   7  16
TORSDOF 3
