REMARK  1 active torsions:
REMARK  status: ('A' for Active; 'I' for Inactive)
REMARK       I    between atoms: N1_2  and  C2_4 
REMARK       I    between atoms: C2_4  and  N3_8 
REMARK    1  A    between atoms: N3_8  and  C3_10 
ROOT
HETATM    1  C1  UNL     1      -3.638   0.932   0.792  1.00  0.00     0.165 C 
HETATM    2  N1  UNL     1      -2.540   0.162   1.346  1.00  0.00    -0.231 N 
ATOM      3  H1  UNL     1      -2.234   0.283   2.311  1.00  0.00     0.177 HD
HETATM    4  C2  UNL     1      -1.918  -0.762   0.483  1.00  0.00     0.669 C 
HETATM    5  N2  UNL     1      -2.146  -2.006   0.637  1.00  0.00    -0.235 N 
ATOM      6  H21 UNL     1      -1.696  -2.675   0.012  1.00  0.00     0.174 HD
ATOM      7  H22 UNL     1      -2.766  -2.355   1.367  1.00  0.00     0.174 HD
HETATM    8  N3  UNL     1      -1.062  -0.280  -0.525  1.00  0.00    -0.198 N 
ATOM      9  H3  UNL     1      -1.461   0.327  -1.241  1.00  0.00     0.180 HD
ENDROOT
BRANCH   8  10
HETATM   10  C3  UNL     1       0.342  -0.590  -0.608  1.00  0.00     0.262 C 
HETATM   11  C4  UNL     1       1.008   0.068  -1.797  1.00  0.00     0.073 C 
HETATM   12  C5  UNL     1       2.454   0.005  -1.346  1.00  0.00     0.124 C 
HETATM   13  N4  UNL     1       2.347  -0.355   0.064  1.00  0.00    -0.199 NA
HETATM   14  C6  UNL     1       3.342   0.379   0.804  1.00  0.00     0.143 C 
HETATM   15  O1  UNL     1       1.083  -0.051   0.435  1.00  0.00    -0.277 OA
ENDBRANCH   8  10
TORSDOF 1
