REMARK  8 active torsions:
REMARK  status: ('A' for Active; 'I' for Inactive)
REMARK    1  A    between atoms: C2_2  and  O1_3 
REMARK    2  A    between atoms: C8_16  and  N4_17 
REMARK       I    between atoms: N4_17  and  C9_19 
REMARK    3  A    between atoms: C9_19  and  C10_21 
REMARK    4  A    between atoms: C10_21  and  C11_22 
REMARK    5  A    between atoms: C11_22  and  O3_23 
REMARK    6  A    between atoms: N5_25  and  N6_27 
REMARK    7  A    between atoms: N6_27  and  N7_29 
REMARK    8  A    between atoms: C12_34  and  O4_35 
ROOT
HETATM    1  C1  UNL     1       5.677  -0.843  -0.564  1.00  0.00     0.054 C 
HETATM    2  C2  UNL     1       4.655   0.100  -0.055  1.00  0.00     0.114 C 
HETATM    3  C3  UNL     1       4.420  -0.034   1.463  1.00  0.00     0.163 C 
HETATM    4  N1  UNL     1       3.124   0.621   1.579  1.00  0.00    -0.385 N 
ATOM      5  H1  UNL     1       2.792   1.113   2.409  1.00  0.00     0.159 HD
HETATM    6  C4  UNL     1       2.442   0.488   0.462  1.00  0.00     0.080 C 
HETATM    7  C5  UNL     1       3.248  -0.277  -0.480  1.00  0.00     0.068 C 
HETATM    8  N2  UNL     1       2.881  -1.041  -1.395  1.00  0.00    -0.387 N 
ATOM      9  H2  UNL     1       3.646  -1.461  -1.923  1.00  0.00     0.159 HD
HETATM   10  C6  UNL     1       1.580  -1.431  -1.834  1.00  0.00     0.140 C 
HETATM   11  C7  UNL     1       0.800  -2.132  -0.746  1.00  0.00     0.157 C 
HETATM   12  N3  UNL     1      -0.507  -1.657  -0.510  1.00  0.00    -0.225 N 
ATOM     13  H3  UNL     1      -1.259  -2.220  -0.907  1.00  0.00     0.177 HD
HETATM   14  C8  UNL     1      -0.883  -0.600   0.144  1.00  0.00     0.679 C 
HETATM   15  N8  UNL     1       0.010   0.287   0.772  1.00  0.00    -0.194 N 
ATOM     16  H8  UNL     1      -0.122   0.420   1.775  1.00  0.00     0.180 HD
HETATM   17  C12 UNL     1       1.089   1.031   0.171  1.00  0.00     0.287 C 
ENDROOT
BRANCH  14  18
HETATM   18  N4  UNL     1      -2.288  -0.384   0.213  1.00  0.00    -0.155 N 
HETATM   19  C9  UNL     1      -2.927   0.688   0.850  1.00  0.00     0.285 C 
HETATM   20  O2  UNL     1      -2.154   1.541   1.409  1.00  0.00    -0.265 OA
ATOM     21  H4  UNL     1      -2.885  -1.073  -0.244  1.00  0.00     0.187 HD
BRANCH  19  22
HETATM   22  C10 UNL     1      -4.331   0.895   0.921  1.00  0.00     0.118 C 
HETATM   23  N5  UNL     1      -5.272   0.208   0.457  1.00  0.00    -0.283 N 
ATOM     24  H5  UNL     1      -6.184   0.612   0.669  1.00  0.00     0.188 HD
BRANCH  22  25
HETATM   25  C11 UNL     1      -4.778   2.145   1.675  1.00  0.00     0.228 C 
BRANCH  25  26
HETATM   26  O3  UNL     1      -6.163   2.258   1.688  1.00  0.00    -0.395 OA
ATOM     27  H3  UNL     1      -6.441   3.036   2.157  1.00  0.00     0.209 HD
ENDBRANCH  25  26
ENDBRANCH  22  25
BRANCH  23  28
HETATM   28  N6  UNL     1      -5.373  -0.935  -0.254  1.00  0.00    -0.249 N 
ATOM     29  H6  UNL     1      -5.196  -1.833   0.196  1.00  0.00     0.207 HD
BRANCH  28  30
HETATM   30  N7  UNL     1      -5.721  -0.887  -1.611  1.00  0.00    -0.331 N 
ATOM     31  H72 UNL     1      -5.895   0.019  -2.046  1.00  0.00     0.178 HD
ATOM     32  H71 UNL     1      -5.797  -1.751  -2.148  1.00  0.00     0.178 HD
ENDBRANCH  28  30
ENDBRANCH  23  28
ENDBRANCH  19  22
ENDBRANCH  14  18
BRANCH  17  33
HETATM   33  O4  UNL     1       1.083   2.343   0.734  1.00  0.00    -0.370 OA
ATOM     34  H4  UNL     1       0.218   2.690   0.548  1.00  0.00     0.212 HD
ENDBRANCH  17  33
BRANCH   2  35
HETATM   35  O1  UNL     1       4.843   1.424  -0.365  1.00  0.00    -0.382 OA
ATOM     36  H1  UNL     1       4.187   2.029  -0.038  1.00  0.00     0.211 HD
ENDBRANCH   2  35
TORSDOF 8
