REMARK  2 active torsions:
REMARK  status: ('A' for Active; 'I' for Inactive)
REMARK    1  A    between atoms: C2_2  and  C3_3 
REMARK    2  A    between atoms: C11_11  and  N1_12 
REMARK       I    between atoms: N1_12  and  C12_14 
ROOT
HETATM    1  C3  UNL     1      -1.229   0.904   0.339  1.00  0.00     0.017 C 
HETATM    2  C4  UNL     1      -2.448  -0.026   0.236  1.00  0.00    -0.007 C 
HETATM    3  C5  UNL     1      -2.441  -0.707  -1.089  1.00  0.00     0.010 C 
HETATM    4  C6  UNL     1      -1.162  -1.514  -1.186  1.00  0.00    -0.012 C 
HETATM    5  C7  UNL     1      -1.199  -2.560  -0.089  1.00  0.00     0.009 C 
HETATM    6  C8  UNL     1      -1.150  -1.818   1.217  1.00  0.00    -0.012 C 
HETATM    7  C9  UNL     1      -2.432  -1.014   1.356  1.00  0.00     0.010 C 
HETATM    8  C10 UNL     1       0.044  -0.939   1.268  1.00  0.00     0.036 C 
HETATM    9  C11 UNL     1       0.034   0.142   0.146  1.00  0.00     0.037 C 
HETATM   10  C14 UNL     1       0.076  -0.646  -1.123  1.00  0.00     0.036 C 
ENDROOT
BRANCH   9  11
HETATM   11  N1  UNL     1       1.178   0.922   0.460  1.00  0.00    -0.355 N 
HETATM   12  C12 UNL     1       2.528   0.549   0.206  1.00  0.00     0.184 C 
HETATM   13  N2  UNL     1       3.008   0.199  -1.073  1.00  0.00    -0.064 NA
HETATM   14  N3  UNL     1       3.371   0.522   1.170  1.00  0.00    -0.369 N 
HETATM   15  C13 UNL     1       4.738   0.146   0.919  1.00  0.00     0.148 C 
ATOM     16  H3  UNL     1       3.074   0.767   2.115  1.00  0.00     0.161 HD
ATOM     17  H1  UNL     1       1.019   1.826   0.905  1.00  0.00     0.163 HD
ENDBRANCH   9  11
BRANCH   1  18
HETATM   18  C2  UNL     1      -1.502   2.048  -0.558  1.00  0.00     0.003 C 
HETATM   19  C1  UNL     1      -0.473   3.130  -0.649  1.00  0.00     0.005 C 
ENDBRANCH   1  18
TORSDOF 2
