REMARK  1 active torsions:
REMARK  status: ('A' for Active; 'I' for Inactive)
REMARK    1  A    between atoms: C5_6  and  C6_7 
ROOT
HETATM    1  C1  UNL     1      -3.010   0.269   0.088  1.00  0.00     0.017 C 
HETATM    2  C2  UNL     1      -1.526   0.241   0.005  1.00  0.00    -0.024 C 
HETATM    3  C3  UNL     1      -0.925   1.585  -0.160  1.00  0.00     0.068 C 
HETATM    4 BR1  UNL     1      -1.579   2.731   1.247  1.00  0.00    -0.090 Br
HETATM    5  C4  UNL     1       0.586   1.608  -0.161  1.00  0.00     0.033 C 
HETATM    6  C5  UNL     1       1.076   0.184  -0.089  1.00  0.00     0.017 C 
HETATM    7  C7  UNL     1       0.468  -0.654  -1.195  1.00  0.00     0.022 C 
HETATM    8  C8  UNL     1      -1.000  -0.808  -0.950  1.00  0.00    -0.003 C 
HETATM    9  C9  UNL     1      -1.136  -1.793   0.223  1.00  0.00     0.011 C 
HETATM   10  C10 UNL     1      -0.907  -0.574   1.119  1.00  0.00    -0.003 C 
HETATM   11  C11 UNL     1       0.568  -0.377   1.231  1.00  0.00     0.022 C 
ENDROOT
BRANCH   6  12
HETATM   12  C6  UNL     1       2.544   0.166  -0.161  1.00  0.00     0.095 C 
HETATM   13  N1  UNL     1       3.204   1.260  -0.219  1.00  0.00    -0.390 N 
ATOM     14  H12 UNL     1       2.654   2.119  -0.217  1.00  0.00     0.157 HD
ATOM     15  H11 UNL     1       4.223   1.248  -0.269  1.00  0.00     0.157 HD
HETATM   16  N2  UNL     1       3.309  -1.029  -0.164  1.00  0.00    -0.087 NA
ENDBRANCH   6  12
TORSDOF 1
