REMARK  1 active torsions:
REMARK  status: ('A' for Active; 'I' for Inactive)
REMARK    1  A    between atoms: C3_8  and  C4_9 
ROOT
HETATM    1  N1  UNL     1       4.708   1.064   0.632  1.00  0.00    -0.388 N 
ATOM      2  H11 UNL     1       4.819   2.069   0.765  1.00  0.00     0.157 HD
ATOM      3  H12 UNL     1       5.597   0.678   0.951  1.00  0.00     0.157 HD
HETATM    4  C1  UNL     1       3.750   0.354   0.188  1.00  0.00     0.089 C 
HETATM    5  N2  UNL     1       3.595  -1.047   0.002  1.00  0.00    -0.378 N 
ATOM      6  H2  UNL     1       4.356  -1.726   0.033  1.00  0.00     0.160 HD
HETATM    7  C2  UNL     1       2.199  -1.375  -0.239  1.00  0.00     0.128 C 
HETATM    8  C3  UNL     1       1.526  -0.118   0.257  1.00  0.00     0.038 C 
HETATM    9  C14 UNL     1       2.431   0.927  -0.285  1.00  0.00     0.155 C 
HETATM   10 CL1  UNL     1       2.585   0.839  -2.075  1.00  0.00    -0.116 Cl
ENDROOT
BRANCH   8  11
HETATM   11  C4  UNL     1       0.093  -0.019   0.026  1.00  0.00    -0.032 C 
HETATM   12  C5  UNL     1      -0.564  -1.207   0.747  1.00  0.00     0.014 C 
HETATM   13  C6  UNL     1      -2.050  -1.077   0.796  1.00  0.00    -0.013 C 
HETATM   14  C7  UNL     1      -2.414   0.211   1.483  1.00  0.00     0.009 C 
HETATM   15  C11 UNL     1      -2.548  -1.106  -0.649  1.00  0.00     0.009 C 
HETATM   16  C8  UNL     1      -1.892   1.379   0.664  1.00  0.00    -0.013 C 
HETATM   17  C9  UNL     1      -2.395   1.320  -0.747  1.00  0.00     0.009 C 
HETATM   18  C13 UNL     1      -0.397   1.290   0.659  1.00  0.00     0.014 C 
HETATM   19  C10 UNL     1      -1.919   0.027  -1.378  1.00  0.00    -0.013 C 
HETATM   20  C12 UNL     1      -0.391  -0.036  -1.375  1.00  0.00     0.014 C 
ENDBRANCH   8  11
TORSDOF 1
