REMARK  5 active torsions:
REMARK  status: ('A' for Active; 'I' for Inactive)
REMARK    1  A    between atoms: C2_2  and  C3_3 
REMARK    2  A    between atoms: C8_8  and  C9_9 
REMARK    3  A    between atoms: C11_15  and  C12_16 
REMARK    4  A    between atoms: C12_16  and  C14_18 
REMARK    5  A    between atoms: C17_24  and  C18_25 
ROOT
HETATM    1  C3  UNL     1      -2.836   0.405  -0.288  1.00  0.00     0.077 C 
HETATM    2  C4  UNL     1      -3.125   1.682   0.468  1.00  0.00     0.014 C 
HETATM    3  C5  UNL     1      -2.579   2.827  -0.307  1.00  0.00     0.001 C 
HETATM    4  C6  UNL     1      -1.442   3.557   0.292  1.00  0.00     0.002 C 
HETATM    5  C7  UNL     1      -0.511   2.804   1.153  1.00  0.00     0.032 C 
HETATM    6  C8  UNL     1       0.909   2.710   0.574  1.00  0.00     0.146 C 
HETATM    7  N1  UNL     1       0.823   1.977  -0.655  1.00  0.00    -0.348 N 
ATOM      8  H1  UNL     1       0.106   2.293  -1.308  1.00  0.00     0.163 HD
HETATM    9  C10 UNL     1       1.587   0.891  -1.077  1.00  0.00     0.241 C 
HETATM   10  O2  UNL     1       1.934   0.899  -2.314  1.00  0.00    -0.271 OA
HETATM   11  C11 UNL     1       2.051  -0.261  -0.308  1.00  0.00     0.180 C 
HETATM   12  N2  UNL     1       1.344  -0.540   0.906  1.00  0.00    -0.346 N 
ATOM     13  H2  UNL     1       1.783  -0.223   1.771  1.00  0.00     0.163 HD
HETATM   14  C16 UNL     1       0.118  -1.199   1.035  1.00  0.00     0.241 C 
HETATM   15  O3  UNL     1      -0.408  -1.252   2.201  1.00  0.00    -0.271 OA
HETATM   16  C17 UNL     1      -0.646  -1.853  -0.057  1.00  0.00     0.180 C 
HETATM   17  N3  UNL     1      -2.058  -1.936   0.307  1.00  0.00    -0.347 N 
ATOM     18  H3  UNL     1      -2.483  -2.859   0.390  1.00  0.00     0.163 HD
HETATM   19  C21 UNL     1      -2.870  -0.795   0.551  1.00  0.00     0.222 C 
HETATM   20  O4  UNL     1      -3.666  -0.823   1.553  1.00  0.00    -0.273 OA
ENDROOT
BRANCH  11  21
HETATM   21  C12 UNL     1       3.530  -0.051  -0.017  1.00  0.00     0.013 C 
HETATM   22  C13 UNL     1       4.344   0.064  -1.265  1.00  0.00     0.012 C 
BRANCH  21  23
HETATM   23  C14 UNL     1       4.057  -1.238   0.785  1.00  0.00     0.002 C 
HETATM   24  C15 UNL     1       5.520  -1.028   1.073  1.00  0.00     0.005 C 
ENDBRANCH  21  23
ENDBRANCH  11  21
BRANCH   6  25
HETATM   25  C9  UNL     1       1.500   4.055   0.408  1.00  0.00     0.256 C 
HETATM   26  O1  UNL     1       1.848   4.414  -0.702  1.00  0.00    -0.305 OA
ENDBRANCH   6  25
BRANCH  16  27
HETATM   27  C18 UNL     1      -0.119  -3.266  -0.190  1.00  0.00     0.009 C 
HETATM   28  C19 UNL     1      -0.876  -3.949  -1.292  1.00  0.00     0.012 C 
HETATM   29  C20 UNL     1      -0.216  -4.014   1.121  1.00  0.00     0.012 C 
ENDBRANCH  16  27
BRANCH   1  30
HETATM   30  C2  UNL     1      -3.815   0.342  -1.441  1.00  0.00     0.009 C 
HETATM   31  C1  UNL     1      -5.243   0.332  -1.013  1.00  0.00     0.006 C 
ENDBRANCH   1  30
TORSDOF 5
