REMARK  7 active torsions:
REMARK  status: ('A' for Active; 'I' for Inactive)
REMARK    1  A    between atoms: O1_2  and  C2_3 
REMARK    2  A    between atoms: C10_14  and  N2_15 
REMARK    3  A    between atoms: N2_15  and  C11_17 
REMARK    4  A    between atoms: C14_22  and  N4_23 
REMARK    5  A    between atoms: N4_23  and  C15_25 
REMARK    6  A    between atoms: C15_25  and  C16_26 
REMARK    7  A    between atoms: C16_26  and  C17_27 
ROOT
HETATM    1  C11 UNL     1      -0.730   0.741  -0.465  1.00  0.00     0.683 A 
HETATM    2  N3  UNL     1      -0.759   0.665   0.847  1.00  0.00    -0.202 N 
ATOM      3  H3  UNL     1      -1.647   0.784   1.334  1.00  0.00     0.183 HD
HETATM    4  C12 UNL     1       0.374   0.430   1.572  1.00  0.00     0.110 A 
HETATM    5  C13 UNL     1       1.578   0.267   0.931  1.00  0.00     0.066 A 
HETATM    6  C14 UNL     1       1.590   0.350  -0.448  1.00  0.00     0.118 A 
HETATM    7  N5  UNL     1       0.464   0.579  -1.095  1.00  0.00    -0.177 N 
ATOM      8  H5  UNL     1       0.490   0.637  -2.113  1.00  0.00     0.186 HD
ENDROOT
BRANCH   1   9
HETATM    9  N2  UNL     1      -1.773   1.035  -1.203  1.00  0.00    -0.194 N 
ATOM     10  H2  UNL     1      -1.674   1.067  -2.218  1.00  0.00     0.184 HD
BRANCH   9  11
HETATM   11  C10 UNL     1      -3.056   1.314  -0.611  1.00  0.00     0.042 A 
HETATM   12  C6  UNL     1      -4.007   0.409  -0.627  1.00  0.00     0.038 A 
HETATM   13  C5  UNL     1      -3.878  -0.816  -1.246  1.00  0.00     0.048 A 
HETATM   14  C7  UNL     1      -5.187   0.682   0.086  1.00  0.00     0.075 A 
HETATM   15  C4  UNL     1      -4.855  -1.786  -1.195  1.00  0.00     0.028 A 
HETATM   16 CL1  UNL     1      -2.474  -1.198  -2.228  1.00  0.00    -0.083 Cl
HETATM   17  C3  UNL     1      -6.014  -1.541  -0.505  1.00  0.00     0.041 A 
HETATM   18  C2  UNL     1      -6.153  -0.331   0.111  1.00  0.00     0.095 A 
HETATM   19  N1  UNL     1      -5.407   1.773   0.709  1.00  0.00    -0.387 N 
HETATM   20  C8  UNL     1      -4.515   2.864   0.762  1.00  0.00     0.126 A 
ATOM     21  H1  UNL     1      -6.293   1.863   1.205  1.00  0.00     0.159 HD
HETATM   22  C9  UNL     1      -3.246   2.617   0.050  1.00  0.00     0.078 A 
BRANCH  18  23
HETATM   23  O1  UNL     1      -7.323  -0.061   0.815  1.00  0.00    -0.354 OA
HETATM   24  C1  UNL     1      -8.335  -1.043   0.876  1.00  0.00     0.210 C 
ENDBRANCH  18  23
ENDBRANCH   9  11
ENDBRANCH   1   9
BRANCH   6  25
HETATM   25  N4  UNL     1       2.739   0.192  -1.035  1.00  0.00    -0.376 N 
ATOM     26  H4  UNL     1       2.776   0.248  -2.053  1.00  0.00     0.161 HD
BRANCH  25  27
HETATM   27  C15 UNL     1       3.953  -0.056  -0.322  1.00  0.00     0.126 C 
BRANCH  27  28
HETATM   28  C16 UNL     1       5.019  -0.507  -1.327  1.00  0.00     0.058 C 
BRANCH  28  29
HETATM   29  C17 UNL     1       6.288  -0.771  -0.614  1.00  0.00    -0.057 A 
HETATM   30  C18 UNL     1       7.221   0.252  -0.439  1.00  0.00     0.007 A 
HETATM   31  C19 UNL     1       8.407   0.036   0.219  1.00  0.00     0.001 A 
HETATM   32  C20 UNL     1       8.696  -1.207   0.722  1.00  0.00     0.000 A 
HETATM   33  C21 UNL     1       7.783  -2.247   0.563  1.00  0.00     0.001 A 
HETATM   34  C22 UNL     1       6.609  -1.991  -0.101  1.00  0.00     0.007 A 
ENDBRANCH  28  29
ENDBRANCH  27  28
ENDBRANCH  25  27
ENDBRANCH   6  25
TORSDOF 7
