REMARK  4 active torsions:
REMARK  status: ('A' for Active; 'I' for Inactive)
REMARK    1  A    between atoms: C1_4  and  N2_5 
REMARK    2  A    between atoms: N2_5  and  C2_7 
REMARK    3  A    between atoms: C4_11  and  N4_12 
REMARK       I    between atoms: N4_12  and  C5_14 
REMARK       I    between atoms: C5_14  and  N5_15 
REMARK       I    between atoms: C5_14  and  N6_19 
REMARK    4  A    between atoms: N9_27  and  O1_28 
ROOT
HETATM    1  C2  UNL     1       1.961  -0.170   0.270  1.00  0.00     0.712 C 
HETATM    2  N3  UNL     1       0.828  -0.923   0.334  1.00  0.00    -0.196 N 
ATOM      3  H3  UNL     1       0.940  -1.937   0.322  1.00  0.00     0.183 HD
HETATM    4  C3  UNL     1      -0.448  -0.436   0.413  1.00  0.00     0.154 C 
HETATM    5  C4  UNL     1      -0.886   0.723  -0.178  1.00  0.00     0.122 C 
HETATM    6  N7  UNL     1      -0.171   1.842  -0.395  1.00  0.00    -0.313 N 
ATOM      7  H7  UNL     1      -0.718   2.666  -0.644  1.00  0.00     0.170 HD
HETATM    8  C6  UNL     1       1.178   2.036  -0.331  1.00  0.00     0.239 C 
HETATM    9  N8  UNL     1       1.672   3.322  -0.689  1.00  0.00    -0.060 NA
HETATM   10  N9  UNL     1       2.098   1.147   0.033  1.00  0.00    -0.021 N 
ENDROOT
BRANCH   5  11
HETATM   11  N4  UNL     1      -2.074   0.747  -0.557  1.00  0.00    -0.326 N 
HETATM   12  C5  UNL     1      -3.118  -0.208  -0.508  1.00  0.00     0.481 C 
HETATM   13  N5  UNL     1      -2.757  -1.533  -0.945  1.00  0.00    -0.033 N 
HETATM   14  N6  UNL     1      -3.613  -0.295   0.849  1.00  0.00    -0.033 N 
ATOM     15  H53 UNL     1      -2.358  -1.497  -1.883  1.00  0.00     0.278 HD
ATOM     16  H52 UNL     1      -1.949  -1.868  -0.420  1.00  0.00     0.278 HD
ATOM     17  H51 UNL     1      -3.509  -2.221  -0.910  1.00  0.00     0.278 HD
ATOM     18  H63 UNL     1      -2.872  -0.495   1.521  1.00  0.00     0.278 HD
ATOM     19  H62 UNL     1      -3.899   0.612   1.217  1.00  0.00     0.278 HD
ATOM     20  H61 UNL     1      -4.365  -0.983   0.884  1.00  0.00     0.278 HD
ATOM     21  H4  UNL     1      -2.348   1.630  -0.988  1.00  0.00     0.164 HD
ENDBRANCH   5  11
BRANCH   1  22
HETATM   22  N2  UNL     1       3.089  -0.768   0.457  1.00  0.00    -0.186 N 
ATOM     23  H2  UNL     1       3.955  -0.230   0.414  1.00  0.00     0.185 HD
BRANCH  22  24
HETATM   24  C1  UNL     1       3.145  -2.138   0.717  1.00  0.00     0.191 C 
HETATM   25  N1  UNL     1       4.220  -2.799   0.511  1.00  0.00    -0.395 N 
ATOM     26  H12 UNL     1       5.037  -2.304   0.152  1.00  0.00     0.156 HD
ATOM     27  H11 UNL     1       4.261  -3.800   0.701  1.00  0.00     0.156 HD
ENDBRANCH  22  24
ENDBRANCH   1  22
BRANCH  10  28
HETATM   28  O1  UNL     1       3.367   1.643   0.189  1.00  0.00    -0.267 OA
ATOM     29  H1  UNL     1       3.464   2.573   0.022  1.00  0.00     0.246 HD
ENDBRANCH  10  28
TORSDOF 4
