REMARK  4 active torsions:
REMARK  status: ('A' for Active; 'I' for Inactive)
REMARK    1  A    between atoms: N1_2  and  C2_4 
REMARK    2  A    between atoms: C3_7  and  N3_8 
REMARK    3  A    between atoms: N5_14  and  N6_16 
REMARK    4  A    between atoms: C7_21  and  N8_22 
ROOT
HETATM    1  C2  UNL     1       2.399   0.504  -0.286  1.00  0.00     0.706 A 
HETATM    2  N2  UNL     1       1.117   0.844  -0.186  1.00  0.00    -0.021 N 
ATOM      3  H2  UNL     1       0.884   1.837  -0.188  1.00  0.00     0.203 HD
HETATM    4  C3  UNL     1       0.093  -0.055  -0.081  1.00  0.00     0.728 A 
HETATM    5  N7  UNL     1       0.461  -1.329  -0.085  1.00  0.00    -0.021 N 
ATOM      6  H7  UNL     1      -0.258  -2.048  -0.010  1.00  0.00     0.203 HD
HETATM    7  C7  UNL     1       1.747  -1.708  -0.184  1.00  0.00     0.705 A 
HETATM    8  N9  UNL     1       2.739  -0.789  -0.286  1.00  0.00    -0.022 N 
ATOM      9  H9  UNL     1       3.715  -1.076  -0.360  1.00  0.00     0.203 HD
ENDROOT
BRANCH   4  10
HETATM   10  N3  UNL     1      -1.228   0.436   0.016  1.00  0.00    -0.010 N 
HETATM   11  C4  UNL     1      -1.573   1.865  -0.012  1.00  0.00     0.187 C 
HETATM   12  C5  UNL     1      -3.037   1.973   0.325  1.00  0.00     0.159 C 
HETATM   13  N4  UNL     1      -3.545   0.673  -0.095  1.00  0.00    -0.223 N 
HETATM   14  C6  UNL     1      -2.472  -0.226   0.156  1.00  0.00     0.709 C 
ATOM     15  H4  UNL     1      -4.464   0.457  -0.482  1.00  0.00     0.177 HD
HETATM   16  N5  UNL     1      -2.637  -1.449   0.462  1.00  0.00    -0.138 N 
ATOM     17  H5  UNL     1      -1.796  -2.004   0.622  1.00  0.00     0.205 HD
BRANCH  16  18
HETATM   18  N6  UNL     1      -3.845  -2.092   0.597  1.00  0.00    -0.331 N 
ATOM     19  H62 UNL     1      -4.674  -1.521   0.433  1.00  0.00     0.177 HD
ATOM     20  H61 UNL     1      -3.977  -3.073   0.842  1.00  0.00     0.177 HD
ENDBRANCH  16  18
ENDBRANCH   4  10
BRANCH   1  21
HETATM   21  N1  UNL     1       3.325   1.398  -0.381  1.00  0.00    -0.229 N 
HETATM   22  C1  UNL     1       4.724   1.080  -0.491  1.00  0.00     0.165 C 
ATOM     23  H1  UNL     1       3.051   2.381  -0.378  1.00  0.00     0.177 HD
ENDBRANCH   1  21
BRANCH   7  24
HETATM   24  N8  UNL     1       2.025  -2.970  -0.180  1.00  0.00    -0.234 N 
ATOM     25  H82 UNL     1       1.279  -3.661  -0.103  1.00  0.00     0.174 HD
ATOM     26  H81 UNL     1       3.001  -3.258  -0.255  1.00  0.00     0.174 HD
ENDBRANCH   7  24
TORSDOF 4
