REMARK  1 active torsions:
REMARK  status: ('A' for Active; 'I' for Inactive)
REMARK    1  A    between atoms: N1_2  and  C2_4 
ROOT
HETATM    1  C2  UNL     1      -1.009   0.020  -0.069  1.00  0.00     0.217 C 
HETATM    2  C3  UNL     1       0.196   0.889   0.313  1.00  0.00     0.078 C 
HETATM    3  C4  UNL     1       1.436   0.463  -0.401  1.00  0.00     0.039 C 
HETATM    4  C5  UNL     1       2.612   1.122   0.286  1.00  0.00     0.033 C 
HETATM    5 CL1  UNL     1       1.316   0.976  -2.095  1.00  0.00    -0.119 Cl
HETATM    6  C6  UNL     1       1.640  -1.030  -0.373  1.00  0.00     0.051 C 
HETATM    7  C7  UNL     1       0.373  -1.814  -0.392  1.00  0.00     0.172 C 
HETATM    8  O1  UNL     1      -0.665  -1.269   0.328  1.00  0.00    -0.367 OA
ENDROOT
BRANCH   1   9
HETATM    9  N1  UNL     1      -2.104   0.471   0.731  1.00  0.00    -0.401 N 
HETATM   10  C1  UNL     1      -3.382  -0.060   0.382  1.00  0.00     0.142 C 
ATOM     11  H1  UNL     1      -1.980   1.129   1.501  1.00  0.00     0.155 HD
ENDBRANCH   1   9
TORSDOF 1
