REMARK  2 active torsions:
REMARK  status: ('A' for Active; 'I' for Inactive)
REMARK    1  A    between atoms: C3_7  and  N2_8 
REMARK    2  A    between atoms: N2_8  and  C4_10 
ROOT
HETATM    1 CL1  UNL     1      -2.912   1.328  -1.658  1.00  0.00    -0.123 Cl
HETATM    2  C1  UNL     1      -2.361  -0.122  -0.776  1.00  0.00     0.111 C 
HETATM    3  C2  UNL     1      -2.670  -0.007   0.688  1.00  0.00     0.255 C 
HETATM    4  N1  UNL     1      -1.429   0.103   1.402  1.00  0.00    -0.053 N 
ATOM      5  H11 UNL     1      -1.481  -0.260   2.354  1.00  0.00     0.279 HD
ATOM      6  H12 UNL     1      -1.189   1.065   1.642  1.00  0.00     0.279 HD
HETATM    7  C3  UNL     1      -0.408  -0.558   0.591  1.00  0.00     0.281 C 
HETATM    8  C7  UNL     1      -0.865  -0.215  -0.800  1.00  0.00     0.076 C 
ENDROOT
BRANCH   7   9
HETATM    9  N2  UNL     1       0.829   0.029   0.903  1.00  0.00    -0.391 N 
ATOM     10  H2  UNL     1       0.876   0.784   1.587  1.00  0.00     0.155 HD
BRANCH   9  11
HETATM   11  C4  UNL     1       1.998  -0.422   0.276  1.00  0.00     0.078 A 
HETATM   12  C5  UNL     1       2.327  -0.278  -1.149  1.00  0.00     0.027 A 
HETATM   13  C6  UNL     1       2.898   0.734  -0.245  1.00  0.00     0.027 A 
ENDBRANCH   9  11
ENDBRANCH   7   9
TORSDOF 2
