REMARK  1 active torsions:
REMARK  status: ('A' for Active; 'I' for Inactive)
REMARK    1  A    between atoms: C2_2  and  C3_3 
ROOT
HETATM    1  C3  UNL     1       1.205   0.146  -0.199  1.00  0.00     0.056 C 
HETATM    2  C4  UNL     1       0.830  -1.266   0.368  1.00  0.00     0.095 C 
HETATM    3  C5  UNL     1      -0.572  -1.239   0.430  1.00  0.00    -0.163 C 
HETATM    4  C6  UNL     1      -1.923  -1.567   0.591  1.00  0.00     0.200 C 
HETATM    5  N1  UNL     1      -2.671  -0.295   0.346  1.00  0.00    -0.377 N 
ATOM      6  H1  UNL     1      -3.560  -0.101   0.807  1.00  0.00     0.161 HD
HETATM    7  C7  UNL     1      -2.090   0.625  -0.553  1.00  0.00     0.176 C 
HETATM    8  N2  UNL     1      -1.012   1.435  -0.362  1.00  0.00    -0.365 N 
ATOM      9  H2  UNL     1      -1.192   2.408  -0.610  1.00  0.00     0.165 HD
HETATM   10  C8  UNL     1       0.256   1.224   0.090  1.00  0.00     0.071 C 
ENDROOT
BRANCH   1  11
HETATM   11  C2  UNL     1       2.570   0.509   0.224  1.00  0.00    -0.026 C 
HETATM   12  C1  UNL     1       3.567   0.568  -0.631  1.00  0.00     0.007 C 
ENDBRANCH   1  11
TORSDOF 1
