REMARK  1 active torsions:
REMARK  status: ('A' for Active; 'I' for Inactive)
REMARK    1  A    between atoms: O1_2  and  C2_3 
ROOT
HETATM    1  C2  UNL     1       0.980   0.277   0.363  1.00  0.00     0.321 C 
HETATM    2  C3  UNL     1       0.304   1.624   0.195  1.00  0.00     0.064 C 
HETATM    3  C4  UNL     1      -0.983   1.206  -0.525  1.00  0.00     0.042 C 
HETATM    4  C5  UNL     1      -1.145  -0.241  -0.135  1.00  0.00     0.121 C 
HETATM    5  C6  UNL     1      -2.483  -0.489   0.537  1.00  0.00     0.046 C 
HETATM    6  C7  UNL     1      -0.936  -1.173  -1.310  1.00  0.00     0.046 C 
HETATM    7  N1  UNL     1      -0.123  -0.524   0.859  1.00  0.00    -0.041 N 
ATOM      8  H11 UNL     1      -0.393  -0.346   1.826  1.00  0.00     0.281 HD
ATOM      9  H12 UNL     1       0.084  -1.512   1.004  1.00  0.00     0.281 HD
ENDROOT
BRANCH   1  10
HETATM   10  O1  UNL     1       2.010   0.285   1.254  1.00  0.00    -0.364 OA
HETATM   11  C1  UNL     1       3.216  -0.159   0.736  1.00  0.00     0.204 C 
ENDBRANCH   1  10
TORSDOF 1
