REMARK  1 active torsions:
REMARK  status: ('A' for Active; 'I' for Inactive)
REMARK    1  A    between atoms: C2_2  and  C3_3 
ROOT
HETATM    1  C3  UNL     1      -0.722  -0.014   0.598  1.00  0.00     0.208 C 
HETATM    2  C4  UNL     1      -0.956   1.105   1.615  1.00  0.00     0.067 C 
HETATM    3  N1  UNL     1      -0.090  -1.097   1.305  1.00  0.00    -0.106 NA
HETATM    4  N2  UNL     1       1.156  -1.310   0.770  1.00  0.00    -0.107 NA
HETATM    5  C5  UNL     1       1.464  -0.257  -0.151  1.00  0.00     0.205 C 
HETATM    6  C6  UNL     1       2.129  -0.727  -1.399  1.00  0.00     0.067 C 
HETATM    7  C7  UNL     1       2.423   0.733   0.529  1.00  0.00     0.067 C 
HETATM    8  N3  UNL     1       0.237   0.418  -0.320  1.00  0.00    -0.027 N 
ATOM      9  H31 UNL     1       0.361   1.430  -0.280  1.00  0.00     0.282 HD
ATOM     10  H32 UNL     1      -0.103   0.337  -1.278  1.00  0.00     0.282 HD
ENDROOT
BRANCH   1  11
HETATM   11  C2  UNL     1      -2.018  -0.499   0.029  1.00  0.00     0.053 C 
HETATM   12  C1  UNL     1      -2.805   0.555  -0.682  1.00  0.00     0.009 C 
ENDBRANCH   1  11
TORSDOF 1
