REMARK  2 active torsions:
REMARK  status: ('A' for Active; 'I' for Inactive)
REMARK    1  A    between atoms: C2_2  and  N1_3 
REMARK    2  A    between atoms: N2_5  and  N3_7 
ROOT
HETATM    1  N3  UNL     1      -0.156  -0.013   0.092  1.00  0.00    -0.224 N 
HETATM    2  C3  UNL     1      -1.239   0.762  -0.462  1.00  0.00     0.172 C 
HETATM    3  C4  UNL     1      -2.477  -0.034  -0.111  1.00  0.00     0.019 C 
HETATM    4  C5  UNL     1      -3.595   0.831   0.410  1.00  0.00     0.013 C 
HETATM    5  C6  UNL     1      -1.943  -0.971   0.957  1.00  0.00     0.142 C 
HETATM    6  N4  UNL     1      -0.636  -1.288   0.390  1.00  0.00    -0.122 NA
ENDROOT
BRANCH   1   7
HETATM    7  N2  UNL     1       1.151   0.401   0.308  1.00  0.00    -0.233 N 
HETATM    8  N1  UNL     1       2.124  -0.257  -0.172  1.00  0.00    -0.321 N 
ATOM      9  H1  UNL     1       1.979  -1.102  -0.725  1.00  0.00     0.181 HD
ATOM     10  H2  UNL     1       1.331   1.241   0.857  1.00  0.00     0.209 HD
BRANCH   8  11
HETATM   11  C2  UNL     1       3.454   0.255   0.107  1.00  0.00     0.136 C 
HETATM   12  C1  UNL     1       4.424  -0.347  -0.883  1.00  0.00     0.028 C 
ENDBRANCH   8  11
ENDBRANCH   1   7
TORSDOF 2
