REMARK  12 active torsions:
REMARK  status: ('A' for Active; 'I' for Inactive)
REMARK    1  A    between atoms: C2_3  and  N2_4 
REMARK    2  A    between atoms: N5_12  and  C4_13 
REMARK    3  A    between atoms: C4_13  and  C5_14 
REMARK    4  A    between atoms: N6_16  and  C7_17 
REMARK    5  A    between atoms: C8_23  and  N9_24 
REMARK    6  A    between atoms: C9_31  and  N12_32 
REMARK    7  A    between atoms: N12_32  and  C10_34 
REMARK    8  A    between atoms: C10_34  and  C11_35 
REMARK    9  A    between atoms: C11_35  and  O2_36 
REMARK   10  A    between atoms: C12_38  and  O3_39 
REMARK   11  A    between atoms: C14_42  and  N13_43 
REMARK   12  A    between atoms: N13_43  and  O4_45 
ROOT
HETATM    1  C1  UNL     1      -5.214  -2.770   0.180  1.00  0.00     0.177 C 
HETATM    2  N1  UNL     1      -3.930  -2.177   0.489  1.00  0.00    -0.170 N 
HETATM    3  C2  UNL     1      -3.072  -2.829   1.298  1.00  0.00     0.681 A 
HETATM    4  N3  UNL     1      -1.860  -2.376   1.652  1.00  0.00    -0.174 N 
ATOM      5  H3  UNL     1      -1.256  -2.917   2.270  1.00  0.00     0.186 HD
HETATM    6  C3  UNL     1      -1.466  -1.184   1.165  1.00  0.00     0.152 A 
HETATM    7  N4  UNL     1      -0.264  -0.659   1.472  1.00  0.00    -0.280 N 
ATOM      8  H4  UNL     1       0.358  -1.183   2.088  1.00  0.00     0.189 HD
HETATM    9  N5  UNL     1       0.136   0.498   1.009  1.00  0.00    -0.267 N 
HETATM   10  C9  UNL     1      -0.662   1.253   0.171  1.00  0.00     0.153 A 
HETATM   11  C12 UNL     1      -1.916   0.771  -0.187  1.00  0.00     0.129 A 
HETATM   12  C13 UNL     1      -2.378  -0.468   0.291  1.00  0.00     0.093 A 
HETATM   13  C14 UNL     1      -3.623  -0.968  -0.051  1.00  0.00     0.159 A 
ENDROOT
BRANCH   9  14
HETATM   14  C4  UNL     1       1.457   1.004   1.388  1.00  0.00     0.210 C 
BRANCH  14  15
HETATM   15  C5  UNL     1       2.471   0.548   0.420  1.00  0.00     0.064 A 
HETATM   16  C6  UNL     1       3.208  -0.611   0.492  1.00  0.00     0.148 A 
HETATM   17  N6  UNL     1       4.007  -0.647  -0.571  1.00  0.00    -0.230 N 
HETATM   18  N10 UNL     1       3.761   0.456  -1.265  1.00  0.00    -0.234 N 
HETATM   19  N11 UNL     1       2.847   1.197  -0.702  1.00  0.00    -0.287 N 
ATOM     20  H10 UNL     1       4.232   0.697  -2.137  1.00  0.00     0.209 HD
ATOM     21  H11 UNL     1       2.488   2.089  -1.042  1.00  0.00     0.188 HD
BRANCH  17  22
HETATM   22  C7  UNL     1       4.952  -1.668  -0.913  1.00  0.00     0.195 A 
HETATM   23  N7  UNL     1       4.728  -2.958  -1.205  1.00  0.00    -0.220 N 
HETATM   24  O1  UNL     1       5.838  -3.576  -1.466  1.00  0.00    -0.153 OA
ATOM     25  H7  UNL     1       3.807  -3.395  -1.220  1.00  0.00     0.198 HD
HETATM   26  N8  UNL     1       6.797  -2.709  -1.350  1.00  0.00    -0.222 N 
HETATM   27  C8  UNL     1       6.317  -1.506  -1.009  1.00  0.00     0.169 A 
ATOM     28  H8  UNL     1       7.785  -2.916  -1.499  1.00  0.00     0.198 HD
BRANCH  27  29
HETATM   29  N9  UNL     1       6.992  -0.432  -0.815  1.00  0.00    -0.381 N 
ATOM     30  H92 UNL     1       6.626   0.484  -0.555  1.00  0.00     0.157 HD
ATOM     31  H91 UNL     1       8.002  -0.312  -0.886  1.00  0.00     0.157 HD
ENDBRANCH  27  29
ENDBRANCH  17  22
ENDBRANCH  14  15
ENDBRANCH   9  14
BRANCH  10  32
HETATM   32  N12 UNL     1      -0.174   2.320  -0.196  1.00  0.00    -0.371 N 
ATOM     33  H12 UNL     1       0.742   2.346   0.253  1.00  0.00     0.161 HD
BRANCH  32  34
HETATM   34  C10 UNL     1      -0.237   3.481  -0.896  1.00  0.00     0.147 C 
BRANCH  34  35
HETATM   35  C11 UNL     1      -0.972   4.545  -0.050  1.00  0.00     0.183 C 
BRANCH  35  36
HETATM   36  O2  UNL     1      -1.050   5.734  -0.739  1.00  0.00    -0.399 OA
ATOM     37  H2  UNL     1      -1.502   6.388  -0.219  1.00  0.00     0.209 HD
ENDBRANCH  35  36
ENDBRANCH  34  35
ENDBRANCH  32  34
ENDBRANCH  10  32
BRANCH  11  38
HETATM   38  O3  UNL     1      -2.801   1.420  -1.008  1.00  0.00    -0.356 OA
ATOM     39  H3  UNL     1      -3.658   1.091  -1.253  1.00  0.00     0.218 HD
ENDBRANCH  11  38
BRANCH   3  40
HETATM   40  N2  UNL     1      -3.436  -3.990   1.782  1.00  0.00    -0.234 N 
ATOM     41  H22 UNL     1      -4.358  -4.334   1.513  1.00  0.00     0.174 HD
ATOM     42  H21 UNL     1      -2.787  -4.484   2.394  1.00  0.00     0.174 HD
ENDBRANCH   3  40
BRANCH  13  43
HETATM   43  N13 UNL     1      -4.378  -0.303  -0.818  1.00  0.00    -0.252 N 
ATOM     44  H13 UNL     1      -3.999   0.588  -1.140  1.00  0.00     0.196 HD
BRANCH  43  45
HETATM   45  O4  UNL     1      -5.611  -0.604  -1.270  1.00  0.00    -0.288 OA
ATOM     46  H4  UNL     1      -6.178  -0.105  -1.846  1.00  0.00     0.244 HD
ENDBRANCH  43  45
ENDBRANCH  13  43
TORSDOF 12
