REMARK  14 active torsions:
REMARK  status: ('A' for Active; 'I' for Inactive)
REMARK    1  A    between atoms: C2_2  and  O2_4 
REMARK    2  A    between atoms: O2_4  and  C3_5 
REMARK    3  A    between atoms: C3_5  and  O3_6 
REMARK    4  A    between atoms: C3_5  and  C4_8 
REMARK    5  A    between atoms: C3_5  and  C9_15 
REMARK    6  A    between atoms: C4_8  and  O5_10 
REMARK    7  A    between atoms: O5_10  and  C5_11 
REMARK    8  A    between atoms: C9_15  and  C10_23 
REMARK    9  A    between atoms: N1_16  and  N2_18 
REMARK   10  A    between atoms: N2_18  and  N3_20 
REMARK       I    between atoms: C10_23  and  N4_25 
REMARK   11  A    between atoms: C12_30  and  O7_31 
REMARK   12  A    between atoms: C13_33  and  C14_34 
REMARK   13  A    between atoms: C14_34  and  O8_35 
REMARK   14  A    between atoms: C14_34  and  O9_37 
ROOT
HETATM    1  C9  UNL     1      -0.296   0.666  -0.615  1.00  0.00     0.168 C 
HETATM    2  N1  UNL     1      -0.011   1.644   0.118  1.00  0.00    -0.280 N 
ATOM      3  H1  UNL     1      -0.610   2.451  -0.055  1.00  0.00     0.188 HD
ENDROOT
BRANCH   1   4
HETATM    4  C3  UNL     1      -1.424   0.741  -1.630  1.00  0.00     0.312 C 
BRANCH   4   5
HETATM    5  O2  UNL     1      -1.855   2.014  -1.889  1.00  0.00    -0.268 OA
BRANCH   5   6
HETATM    6  C2  UNL     1      -2.550   2.887  -1.108  1.00  0.00     0.258 C 
HETATM    7  C1  UNL     1      -2.932   4.258  -1.574  1.00  0.00     0.126 C 
HETATM    8  O1  UNL     1      -2.856   2.474   0.039  1.00  0.00    -0.266 OA
ENDBRANCH   5   6
ENDBRANCH   4   5
BRANCH   4   9
HETATM    9  O3  UNL     1      -0.777   0.354  -2.840  1.00  0.00    -0.352 OA
ATOM     10  H3  UNL     1      -0.478  -0.530  -2.660  1.00  0.00     0.214 HD
ENDBRANCH   4   9
BRANCH   4  11
HETATM   11  C4  UNL     1      -2.407  -0.270  -1.319  1.00  0.00     0.330 C 
HETATM   12  O4  UNL     1      -2.576  -1.223  -2.124  1.00  0.00    -0.258 OA
BRANCH  11  13
HETATM   13  O5  UNL     1      -3.226  -0.343  -0.208  1.00  0.00    -0.307 OA
BRANCH  13  14
HETATM   14  C5  UNL     1      -4.158  -1.326   0.063  1.00  0.00     0.060 C 
HETATM   15  C6  UNL     1      -5.248  -1.434  -1.003  1.00  0.00     0.045 C 
HETATM   16  C7  UNL     1      -4.823  -0.986   1.400  1.00  0.00     0.045 C 
HETATM   17  C8  UNL     1      -3.597  -2.717   0.209  1.00  0.00     0.045 C 
ENDBRANCH  13  14
ENDBRANCH  11  13
ENDBRANCH   4  11
ENDBRANCH   1   4
BRANCH   1  18
HETATM   18  C10 UNL     1       0.484  -0.564  -0.473  1.00  0.00     0.277 C 
HETATM   19  O6  UNL     1       0.136  -1.514  -1.249  1.00  0.00    -0.266 OA
HETATM   20  N4  UNL     1       1.517  -0.686   0.435  1.00  0.00    -0.303 N 
HETATM   21  C11 UNL     1       2.752  -0.591   0.151  1.00  0.00     0.187 A 
ATOM     22  H4  UNL     1       1.270  -0.866   1.408  1.00  0.00     0.171 HD
HETATM   23  N5  UNL     1       3.620  -0.746   1.199  1.00  0.00    -0.316 N 
HETATM   24  C15 UNL     1       3.207  -0.341  -1.114  1.00  0.00     0.333 A 
HETATM   25  C12 UNL     1       4.919  -0.646   0.952  1.00  0.00     0.177 A 
ATOM     26  H5  UNL     1       3.277  -0.933   2.141  1.00  0.00     0.169 HD
HETATM   27  C13 UNL     1       5.338  -0.391  -0.353  1.00  0.00     0.162 A 
HETATM   28  O10 UNL     1       4.497  -0.248  -1.328  1.00  0.00    -0.267 OA
HETATM   29  O11 UNL     1       2.455  -0.192  -2.091  1.00  0.00    -0.255 OA
BRANCH  25  30
HETATM   30  O7  UNL     1       5.821  -0.798   1.989  1.00  0.00    -0.344 OA
ATOM     31  H7  UNL     1       6.752  -0.726   1.812  1.00  0.00     0.219 HD
ENDBRANCH  25  30
BRANCH  27  32
HETATM   32  C14 UNL     1       6.781  -0.284  -0.608  1.00  0.00     0.317 C 
BRANCH  32  33
HETATM   33  O8  UNL     1       7.417  -1.330   0.054  1.00  0.00    -0.365 OA
ATOM     34  H8  UNL     1       8.350  -1.261  -0.111  1.00  0.00     0.213 HD
ENDBRANCH  32  33
BRANCH  32  35
HETATM   35  O9  UNL     1       7.037  -0.383  -1.959  1.00  0.00    -0.365 OA
ATOM     36  H9  UNL     1       7.970  -0.314  -2.124  1.00  0.00     0.213 HD
ENDBRANCH  32  35
ENDBRANCH  27  32
ENDBRANCH   1  18
BRANCH   2  37
HETATM   37  N2  UNL     1       0.904   1.875   1.082  1.00  0.00    -0.249 N 
ATOM     38  H2  UNL     1       1.797   2.283   0.805  1.00  0.00     0.207 HD
BRANCH  37  39
HETATM   39  N3  UNL     1       0.706   1.590   2.443  1.00  0.00    -0.331 N 
ATOM     40  H32 UNL     1      -0.193   1.183   2.702  1.00  0.00     0.178 HD
ATOM     41  H31 UNL     1       1.398   1.765   3.172  1.00  0.00     0.178 HD
ENDBRANCH  37  39
ENDBRANCH   2  37
TORSDOF 14
