REMARK  13 active torsions:
REMARK  status: ('A' for Active; 'I' for Inactive)
REMARK    1  A    between atoms: C3_3  and  C4_4 
REMARK    2  A    between atoms: C5_15  and  S1_16 
REMARK    3  A    between atoms: S1_16  and  C6_17 
REMARK    4  A    between atoms: C6_17  and  C7_18 
REMARK    5  A    between atoms: C7_18  and  O1_19 
REMARK    6  A    between atoms: C7_18  and  N7_21 
REMARK    7  A    between atoms: C7_18  and  O3_24 
REMARK    8  A    between atoms: N7_21  and  O2_22 
REMARK    9  A    between atoms: O3_24  and  C8_25 
REMARK   10  A    between atoms: C8_25  and  C9_27 
REMARK   11  A    between atoms: C9_27  and  O5_28 
REMARK   12  A    between atoms: C9_27  and  N8_30 
REMARK   13  A    between atoms: C10_33  and  O6_34 
ROOT
HETATM    1  C7  UNL     1      -1.154  -0.477  -0.247  1.00  0.00     0.282 C 
ENDROOT
BRANCH   1   2
HETATM    2  C6  UNL     1       0.197   0.148  -0.022  1.00  0.00     0.172 C 
BRANCH   2   3
HETATM    3  S1  UNL     1       1.558  -0.961  -0.461  1.00  0.00    -0.103 SA
BRANCH   3   4
HETATM    4  C5  UNL     1       3.092  -0.136  -0.161  1.00  0.00     0.093 A 
HETATM    5  C2  UNL     1       4.356  -0.648  -0.370  1.00  0.00     0.005 A 
HETATM    6  C1  UNL     1       4.721  -1.990  -0.889  1.00  0.00     0.054 C 
HETATM    7  C3  UNL     1       5.265   0.316  -0.011  1.00  0.00     0.102 A 
HETATM    8  N5  UNL     1       4.543   1.371   0.402  1.00  0.00    -0.296 N 
HETATM    9  N6  UNL     1       3.251   1.107   0.314  1.00  0.00    -0.293 N 
ATOM     10  H5  UNL     1       4.936   2.251   0.736  1.00  0.00     0.187 HD
ATOM     11  H6  UNL     1       2.497   1.746   0.567  1.00  0.00     0.187 HD
BRANCH   7  12
HETATM   12  C4  UNL     1       6.722   0.233  -0.057  1.00  0.00     0.160 A 
HETATM   13  N1  UNL     1       7.497  -0.785  -0.455  1.00  0.00    -0.268 N 
HETATM   14  N2  UNL     1       8.782  -0.432  -0.334  1.00  0.00    -0.007 NA
ATOM     15  H1  UNL     1       7.161  -1.686  -0.796  1.00  0.00     0.185 HD
HETATM   16  N3  UNL     1       8.829   0.805   0.140  1.00  0.00    -0.007 NA
HETATM   17  N4  UNL     1       7.574   1.208   0.308  1.00  0.00    -0.268 N 
ATOM     18  H4  UNL     1       7.297   2.124   0.662  1.00  0.00     0.185 HD
ENDBRANCH   7  12
ENDBRANCH   3   4
ENDBRANCH   2   3
ENDBRANCH   1   2
BRANCH   1  19
HETATM   19  O1  UNL     1      -1.350  -0.836  -1.576  1.00  0.00    -0.350 OA
ATOM     20  H1  UNL     1      -2.203  -1.230  -1.718  1.00  0.00     0.214 HD
ENDBRANCH   1  19
BRANCH   1  21
HETATM   21  N7  UNL     1      -1.308  -1.607   0.643  1.00  0.00    -0.033 NA
BRANCH  21  22
HETATM   22  O2  UNL     1      -0.337  -2.500   0.356  1.00  0.00    -0.291 OA
ATOM     23  H2  UNL     1      -0.438  -3.242   0.940  1.00  0.00     0.239 HD
ENDBRANCH  21  22
ENDBRANCH   1  21
BRANCH   1  24
HETATM   24  O3  UNL     1      -2.145   0.510   0.077  1.00  0.00    -0.258 OA
BRANCH  24  25
HETATM   25  C8  UNL     1      -3.506   0.138  -0.063  1.00  0.00     0.340 C 
HETATM   26  O4  UNL     1      -3.747  -1.015  -0.455  1.00  0.00    -0.255 OA
BRANCH  25  27
HETATM   27  C9  UNL     1      -4.510   1.107   0.255  1.00  0.00     0.243 C 
BRANCH  27  28
HETATM   28  O5  UNL     1      -4.040   2.255   0.648  1.00  0.00    -0.340 OA
ATOM     29  H5  UNL     1      -4.706   2.898   0.859  1.00  0.00     0.219 HD
ENDBRANCH  27  28
BRANCH  27  30
HETATM   30  N8  UNL     1      -5.910   0.969   0.194  1.00  0.00    -0.174 N 
HETATM   31  N9  UNL     1      -6.725   1.998   0.534  1.00  0.00    -0.252 N 
HETATM   32  C10 UNL     1      -8.002   1.629   0.396  1.00  0.00     0.240 A 
ATOM     33  H9  UNL     1      -6.411   2.916   0.848  1.00  0.00     0.191 HD
HETATM   34  N10 UNL     1      -8.030   0.361  -0.033  1.00  0.00    -0.271 N 
HETATM   35  C11 UNL     1      -6.708  -0.022  -0.149  1.00  0.00     0.351 A 
ATOM     36  H10 UNL     1      -8.855  -0.204  -0.233  1.00  0.00     0.174 HD
HETATM   37  O7  UNL     1      -6.381  -1.178  -0.536  1.00  0.00    -0.244 OA
BRANCH  32  38
HETATM   38  O6  UNL     1      -9.134   2.391   0.643  1.00  0.00    -0.331 OA
ATOM     39  H6  UNL     1     -10.042   2.129   0.545  1.00  0.00     0.221 HD
ENDBRANCH  32  38
ENDBRANCH  27  30
ENDBRANCH  25  27
ENDBRANCH  24  25
ENDBRANCH   1  24
TORSDOF 13
