REMARK  10 active torsions:
REMARK  status: ('A' for Active; 'I' for Inactive)
REMARK    1  A    between atoms: O1_2  and  C2_3 
REMARK    2  A    between atoms: C2_3  and  C3_4 
REMARK    3  A    between atoms: C3_4  and  C4_5 
REMARK    4  A    between atoms: C4_5  and  C5_6 
REMARK    5  A    between atoms: C5_6  and  C6_7 
REMARK    6  A    between atoms: C6_7  and  C7_8 
REMARK    7  A    between atoms: C7_8  and  O3_10 
REMARK    8  A    between atoms: C21_24  and  C22_25 
REMARK    9  A    between atoms: C22_25  and  O4_27 
REMARK   10  A    between atoms: C22_25  and  O5_29 
ROOT
HETATM    1  C3  UNL     1       2.721  -0.591  -0.779  1.00  0.00    -0.015 C 
HETATM    2  C9  UNL     1       2.945   0.883  -0.732  1.00  0.00     0.013 C 
HETATM    3  C10 UNL     1       1.560   1.503  -1.044  1.00  0.00     0.011 C 
HETATM    4  C11 UNL     1       0.705   0.607  -0.187  1.00  0.00    -0.036 C 
HETATM    5  C12 UNL     1       0.899   0.887   1.260  1.00  0.00     0.016 C 
HETATM    6  C13 UNL     1      -0.759   0.569  -0.586  1.00  0.00    -0.002 C 
HETATM    7  C14 UNL     1      -1.459   1.863  -0.456  1.00  0.00     0.006 C 
HETATM    8  C15 UNL     1      -2.922   1.823  -0.253  1.00  0.00     0.010 C 
HETATM    9  C16 UNL     1      -3.522   0.491  -0.460  1.00  0.00    -0.031 C 
HETATM   10  C17 UNL     1      -3.371   0.110  -1.920  1.00  0.00     0.016 C 
HETATM   11  C18 UNL     1      -2.793  -0.487   0.456  1.00  0.00    -0.001 C 
HETATM   12  C19 UNL     1      -3.593  -1.731   0.233  1.00  0.00     0.006 C 
HETATM   13  C20 UNL     1      -5.013  -1.163   0.402  1.00  0.00     0.011 C 
HETATM   14  C21 UNL     1      -4.922   0.293  -0.071  1.00  0.00     0.056 C 
HETATM   15  C24 UNL     1      -1.348  -0.552   0.283  1.00  0.00    -0.005 C 
HETATM   16  C25 UNL     1      -0.809  -1.887  -0.214  1.00  0.00     0.006 C 
HETATM   17  C26 UNL     1       0.698  -1.862   0.120  1.00  0.00     0.007 C 
HETATM   18  C27 UNL     1       1.240  -0.735  -0.651  1.00  0.00     0.005 C 
ENDROOT
BRANCH   1  19
HETATM   19  C2  UNL     1       3.060  -1.026  -2.215  1.00  0.00     0.176 C 
BRANCH  19  20
HETATM   20  O1  UNL     1       2.773  -2.356  -2.419  1.00  0.00    -0.395 OA
HETATM   21  C1  UNL     1       3.098  -2.678  -3.718  1.00  0.00     0.201 C 
ENDBRANCH  19  20
ENDBRANCH   1  19
BRANCH   1  22
HETATM   22  C4  UNL     1       3.492  -1.371   0.208  1.00  0.00     0.012 C 
BRANCH  22  23
HETATM   23  C5  UNL     1       4.958  -1.359   0.179  1.00  0.00     0.011 C 
BRANCH  23  24
HETATM   24  C6  UNL     1       5.717  -0.128   0.454  1.00  0.00     0.111 C 
BRANCH  24  25
HETATM   25  C7  UNL     1       5.575   0.423   1.827  1.00  0.00     0.258 C 
HETATM   26  O2  UNL     1       4.885  -0.068   2.727  1.00  0.00    -0.265 OA
BRANCH  25  27
HETATM   27  O3  UNL     1       6.282   1.585   2.107  1.00  0.00    -0.326 OA
HETATM   28  C8  UNL     1       6.250   2.222   3.352  1.00  0.00     0.213 C 
ENDBRANCH  25  27
ENDBRANCH  24  25
ENDBRANCH  23  24
ENDBRANCH  22  23
ENDBRANCH   1  22
BRANCH  14  29
HETATM   29  C22 UNL     1      -5.524   1.238   0.900  1.00  0.00     0.159 C 
HETATM   30  C23 UNL     1      -6.981   0.789   1.112  1.00  0.00     0.079 C 
BRANCH  29  31
HETATM   31  O4  UNL     1      -4.958   1.290   2.142  1.00  0.00    -0.365 OA
ATOM     32  H4  UNL     1      -5.344   1.896   2.764  1.00  0.00     0.213 HD
ENDBRANCH  29  31
BRANCH  29  33
HETATM   33  O5  UNL     1      -5.602   2.492   0.306  1.00  0.00    -0.365 OA
ATOM     34  H5  UNL     1      -5.988   3.098   0.928  1.00  0.00     0.213 HD
ENDBRANCH  29  33
ENDBRANCH  14  29
TORSDOF 10
