REMARK  10 active torsions:
REMARK  status: ('A' for Active; 'I' for Inactive)
REMARK    1  A    between atoms: C2_2  and  O2_4 
REMARK    2  A    between atoms: O2_4  and  C3_5 
REMARK    3  A    between atoms: C3_5  and  C4_6 
REMARK    4  A    between atoms: C3_5  and  C7_9 
REMARK    5  A    between atoms: C7_9  and  C9_11 
REMARK    6  A    between atoms: C9_11  and  C10_12 
REMARK    7  A    between atoms: C10_12  and  C11_13 
REMARK    8  A    between atoms: C13_15  and  C14_16 
REMARK    9  A    between atoms: C14_16  and  N1_17 
REMARK   10  A    between atoms: C23_32  and  O4_33 
ROOT
HETATM    1  C11 UNL     1       0.488  -0.355  -0.507  1.00  0.00    -0.013 C 
HETATM    2  C12 UNL     1       0.153  -1.160  -1.686  1.00  0.00     0.021 C 
HETATM    3  C13 UNL     1       0.746   1.097  -0.719  1.00  0.00     0.024 C 
HETATM    4  C15 UNL     1       1.783   1.436   0.327  1.00  0.00     0.013 C 
HETATM    5  C16 UNL     1       2.224   0.170   0.993  1.00  0.00     0.008 C 
HETATM    6  C17 UNL     1       3.752   0.155   1.015  1.00  0.00    -0.009 C 
HETATM    7  C18 UNL     1       4.236  -1.134   1.714  1.00  0.00     0.021 C 
HETATM    8  C19 UNL     1       4.406   1.260   1.706  1.00  0.00     0.057 C 
HETATM    9  C20 UNL     1       5.523   1.865   0.967  1.00  0.00    -0.001 A 
HETATM   10  C21 UNL     1       6.490   2.821   1.339  1.00  0.00     0.124 A 
HETATM   11  N2  UNL     1       7.178   3.107   0.230  1.00  0.00    -0.271 N 
ATOM     12  H2  UNL     1       7.949   3.772   0.177  1.00  0.00     0.194 HD
HETATM   13  O3  UNL     1       6.728   2.423  -0.761  1.00  0.00    -0.235 OA
HETATM   14  C22 UNL     1       5.717   1.645  -0.365  1.00  0.00     0.139 A 
HETATM   15  C23 UNL     1       4.899   0.681  -1.110  1.00  0.00     0.105 C 
HETATM   16  C24 UNL     1       3.987   0.012  -0.449  1.00  0.00    -0.034 C 
HETATM   17  C25 UNL     1       2.944  -0.966  -0.969  1.00  0.00     0.048 C 
HETATM   18  C26 UNL     1       1.847  -0.893  -0.007  1.00  0.00    -0.025 C 
HETATM   19  C27 UNL     1       1.680  -2.274   0.589  1.00  0.00     0.017 C 
ENDROOT
BRANCH   1  20
HETATM   20  C10 UNL     1      -0.460  -0.580   0.632  1.00  0.00    -0.020 C 
BRANCH  20  21
HETATM   21  C9  UNL     1      -1.887  -0.312   0.588  1.00  0.00    -0.023 C 
BRANCH  21  22
HETATM   22  C7  UNL     1      -2.816  -1.073  -0.256  1.00  0.00     0.034 C 
HETATM   23  C8  UNL     1      -2.807  -2.521   0.313  1.00  0.00     0.017 C 
BRANCH  22  24
HETATM   24  C3  UNL     1      -4.263  -0.579  -0.169  1.00  0.00     0.142 C 
BRANCH  24  25
HETATM   25  O2  UNL     1      -4.771  -0.554   1.109  1.00  0.00    -0.315 OA
BRANCH  25  26
HETATM   26  C2  UNL     1      -5.672  -1.344   1.716  1.00  0.00     0.255 C 
HETATM   27  C1  UNL     1      -6.097  -1.155   3.120  1.00  0.00     0.126 C 
HETATM   28  O1  UNL     1      -6.162  -2.267   1.064  1.00  0.00    -0.266 OA
ENDBRANCH  25  26
ENDBRANCH  24  25
BRANCH  24  29
HETATM   29  C4  UNL     1      -4.599   0.510  -1.095  1.00  0.00     0.008 C 
HETATM   30  C5  UNL     1      -4.220   1.892  -0.739  1.00  0.00     0.012 C 
HETATM   31  C6  UNL     1      -6.108   0.559  -1.347  1.00  0.00     0.012 C 
ENDBRANCH  24  29
ENDBRANCH  22  24
ENDBRANCH  21  22
ENDBRANCH  20  21
ENDBRANCH   1  20
BRANCH   3  32
HETATM   32  C14 UNL     1       1.094   1.676  -1.999  1.00  0.00     0.235 C 
BRANCH  32  33
HETATM   33  N1  UNL     1       0.167   1.552  -3.098  1.00  0.00    -0.079 N 
ATOM     34  H13 UNL     1      -0.053   0.565  -3.233  1.00  0.00     0.274 HD
ATOM     35  H12 UNL     1      -0.739   1.919  -2.807  1.00  0.00     0.274 HD
ATOM     36  H11 UNL     1       0.412   1.960  -4.000  1.00  0.00     0.274 HD
ENDBRANCH  32  33
ENDBRANCH   3  32
BRANCH  15  37
HETATM   37  O4  UNL     1       5.113   0.513  -2.465  1.00  0.00    -0.357 OA
ATOM     38  H4  UNL     1       4.583  -0.111  -2.947  1.00  0.00     0.217 HD
ENDBRANCH  15  37
TORSDOF 10
