REMARK  1 active torsions:
REMARK  status: ('A' for Active; 'I' for Inactive)
REMARK    1  A    between atoms: C1_2  and  C2_4 
ROOT
HETATM    1  C2  UNL     1      -0.997  -0.113  -0.392  1.00  0.00     0.151 C 
HETATM    2  C3  UNL     1      -1.437   1.324  -0.677  1.00  0.00     0.228 C 
HETATM    3  O3  UNL     1      -0.423   1.751  -1.511  1.00  0.00    -0.239 OA
HETATM    4  O4  UNL     1       0.589   0.974  -1.479  1.00  0.00    -0.229 OA
HETATM    5  C4  UNL     1       0.464   0.103  -0.395  1.00  0.00     0.112 C 
HETATM    6  C5  UNL     1       1.367  -1.078  -0.408  1.00  0.00     0.042 C 
HETATM    7  C6  UNL     1       2.364  -0.240   0.398  1.00  0.00     0.006 C 
HETATM    8  C7  UNL     1       1.169   0.644   0.783  1.00  0.00     0.042 C 
ENDROOT
BRANCH   1   9
HETATM    9  C1  UNL     1      -1.622  -0.725   0.750  1.00  0.00     0.182 C 
HETATM   10  O1  UNL     1      -0.997  -1.181   1.737  1.00  0.00    -0.648 OA
HETATM   11  O2  UNL     1      -3.005  -0.833   0.794  1.00  0.00    -0.648 OA
ENDBRANCH   1   9
TORSDOF 1
