REMARK  7 active torsions:
REMARK  status: ('A' for Active; 'I' for Inactive)
REMARK    1  A    between atoms: O1_2  and  C2_3 
REMARK    2  A    between atoms: C4_5  and  O2_6 
REMARK    3  A    between atoms: C8_10  and  O3_11 
REMARK    4  A    between atoms: C11_15  and  C12_16 
REMARK    5  A    between atoms: C14_21  and  O6_22 
REMARK    6  A    between atoms: C18_27  and  O7_28 
REMARK    7  A    between atoms: O7_28  and  C19_29 
REMARK       I    between atoms: C19_29  and  N3_31 
REMARK       I    between atoms: N3_31  and  C20_33 
ROOT
HETATM    1  C2  UNL     1      -1.632   1.712  -2.491  1.00  0.00     0.107 A 
HETATM    2  C3  UNL     1      -1.871   2.431  -1.363  1.00  0.00     0.077 A 
HETATM    3  C4  UNL     1      -1.506   1.883  -0.142  1.00  0.00     0.083 A 
HETATM    4  C6  UNL     1      -0.907   0.630  -0.041  1.00  0.00     0.046 A 
HETATM    5  C7  UNL     1      -0.667  -0.104  -1.172  1.00  0.00     0.124 A 
HETATM    6  C8  UNL     1      -1.041   0.467  -2.392  1.00  0.00     0.136 A 
HETATM    7  O4  UNL     1      -0.099  -1.344  -1.144  1.00  0.00    -0.305 OA
HETATM    8  C10 UNL     1       0.262  -1.940   0.027  1.00  0.00     0.103 A 
HETATM    9  C11 UNL     1       0.813  -3.209  -0.052  1.00  0.00     0.090 A 
HETATM   10  C13 UNL     1       1.171  -3.847   1.113  1.00  0.00     0.098 A 
HETATM   11  N2  UNL     1       1.737  -5.151   1.031  1.00  0.00    -0.098 NA
HETATM   12  C14 UNL     1       0.968  -3.202   2.310  1.00  0.00     0.097 A 
HETATM   13  C15 UNL     1       0.411  -1.917   2.380  1.00  0.00    -0.015 A 
HETATM   14  C16 UNL     1       0.240  -1.401   3.741  1.00  0.00     0.052 C 
HETATM   15  C17 UNL     1       0.052  -1.267   1.219  1.00  0.00     0.020 A 
HETATM   16  C18 UNL     1      -0.452   0.135   1.306  1.00  0.00     0.209 C 
ENDROOT
BRANCH  16  17
HETATM   17  O7  UNL     1       0.741   0.904   1.522  1.00  0.00    -0.288 OA
BRANCH  17  18
HETATM   18  C19 UNL     1       1.011   1.784   2.499  1.00  0.00     0.369 C 
HETATM   19  O8  UNL     1       0.203   2.064   3.409  1.00  0.00    -0.238 OA
HETATM   20  N3  UNL     1       2.276   2.484   2.571  1.00  0.00    -0.257 N 
HETATM   21  C20 UNL     1       3.255   2.224   1.571  1.00  0.00     0.337 C 
ATOM     22  H3  UNL     1       2.462   3.149   3.322  1.00  0.00     0.175 HD
HETATM   23  N4  UNL     1       4.514   2.886   1.599  1.00  0.00    -0.040 NA
HETATM   24  O9  UNL     1       3.023   1.391   0.630  1.00  0.00    -0.251 OA
ENDBRANCH  17  18
ENDBRANCH  16  17
BRANCH   3  25
HETATM   25  O2  UNL     1      -1.774   2.649   0.972  1.00  0.00    -0.355 OA
HETATM   26  C5  UNL     1      -2.374   3.911   0.921  1.00  0.00     0.210 C 
ENDBRANCH   3  25
BRANCH   6  27
HETATM   27  O3  UNL     1      -0.807  -0.250  -3.551  1.00  0.00    -0.351 OA
HETATM   28  C9  UNL     1      -1.826  -1.076  -4.107  1.00  0.00     0.210 C 
ENDBRANCH   6  27
BRANCH   9  29
HETATM   29  C12 UNL     1       1.034  -3.877  -1.319  1.00  0.00     0.269 C 
HETATM   30  N1  UNL     1       0.718  -3.322  -2.577  1.00  0.00    -0.057 NA
HETATM   31  O5  UNL     1       1.537  -5.026  -1.323  1.00  0.00    -0.271 OA
ENDBRANCH   9  29
BRANCH  12  32
HETATM   32  O6  UNL     1       1.337  -3.869   3.493  1.00  0.00    -0.358 OA
ATOM     33  H6  UNL     1       1.197  -3.423   4.320  1.00  0.00     0.217 HD
ENDBRANCH  12  32
BRANCH   1  34
HETATM   34  O1  UNL     1      -1.985   2.238  -3.734  1.00  0.00    -0.353 OA
HETATM   35  C1  UNL     1      -2.587   3.504  -3.856  1.00  0.00     0.210 C 
ENDBRANCH   1  34
TORSDOF 7
