REMARK  10 active torsions:
REMARK  status: ('A' for Active; 'I' for Inactive)
REMARK       I    between atoms: N1_2  and  C2_3 
REMARK       I    between atoms: C2_3  and  N2_4 
REMARK       I    between atoms: C2_3  and  N3_7 
REMARK       I    between atoms: N3_7  and  C4_8 
REMARK    1  A    between atoms: C4_8  and  O2_10 
REMARK    2  A    between atoms: O2_10  and  C5_11 
REMARK    3  A    between atoms: C6_12  and  O3_13 
REMARK    4  A    between atoms: O3_13  and  C7_14 
REMARK    5  A    between atoms: C9_16  and  O4_17 
REMARK    6  A    between atoms: C10_19  and  O5_20 
REMARK    7  A    between atoms: C11_22  and  O6_23 
REMARK    8  A    between atoms: C13_25  and  O7_26 
REMARK    9  A    between atoms: C16_30  and  C17_31 
REMARK   10  A    between atoms: C17_31  and  O9_33 
ROOT
HETATM    1  C7  UNL     1      -0.903   1.460  -0.004  1.00  0.00     0.075 C 
HETATM    2  C8  UNL     1      -1.803   0.598   0.369  1.00  0.00     0.043 A 
HETATM    3  C9  UNL     1      -1.588  -0.337   1.372  1.00  0.00     0.115 A 
HETATM    4  C10 UNL     1      -2.592  -1.196   1.804  1.00  0.00     0.136 A 
HETATM    5  C11 UNL     1      -3.855  -1.185   1.282  1.00  0.00     0.138 A 
HETATM    6  C13 UNL     1      -4.080  -0.241   0.292  1.00  0.00     0.113 A 
HETATM    7  C14 UNL     1      -3.107   0.629  -0.147  1.00  0.00     0.013 A 
HETATM    8  C15 UNL     1      -3.469   1.571  -0.980  1.00  0.00     0.004 C 
HETATM    9  C16 UNL     1      -2.580   2.703  -1.421  1.00  0.00     0.123 C 
HETATM   10  C19 UNL     1      -1.163   2.425  -1.129  1.00  0.00     0.019 C 
HETATM   11  C20 UNL     1      -0.302   3.660  -1.025  1.00  0.00     0.023 C 
HETATM   12  C21 UNL     1      -0.648   1.695  -2.405  1.00  0.00     0.023 C 
ENDROOT
BRANCH   1  13
HETATM   13  O3  UNL     1       0.370   1.554   0.560  1.00  0.00    -0.323 OA
BRANCH  13  14
HETATM   14  C6  UNL     1       1.476   0.842   0.211  1.00  0.00     0.167 C 
HETATM   15  C5  UNL     1       2.436   0.722  -0.622  1.00  0.00     0.173 C 
BRANCH  15  16
HETATM   16  O2  UNL     1       3.407  -0.283  -0.536  1.00  0.00    -0.260 OA
BRANCH  16  17
HETATM   17  C4  UNL     1       3.605  -1.181   0.488  1.00  0.00     0.448 C 
HETATM   18  N3  UNL     1       4.504  -2.255   0.389  1.00  0.00    -0.296 NA
HETATM   19  C2  UNL     1       5.332  -3.249   0.304  1.00  0.00     0.338 C 
HETATM   20  N1  UNL     1       6.055  -4.115   0.228  1.00  0.00    -0.384 NA
HETATM   21  N2  UNL     1       6.280  -2.444  -0.992  1.00  0.00    -0.324 N 
HETATM   22  C1  UNL     1       6.765  -5.242   0.323  1.00  0.00     0.234 C 
HETATM   23  C3  UNL     1       7.138  -1.581  -0.372  1.00  0.00     0.123 C 
ATOM     24  H2  UNL     1       6.194  -2.601  -1.996  1.00  0.00     0.169 HD
HETATM   25  O1  UNL     1       2.951  -1.084   1.554  1.00  0.00    -0.220 OA
ENDBRANCH  16  17
ENDBRANCH  15  16
ENDBRANCH  13  14
ENDBRANCH   1  13
BRANCH   3  26
HETATM   26  O4  UNL     1      -0.366  -0.451   1.994  1.00  0.00    -0.357 OA
ATOM     27  H4  UNL     1      -0.219  -1.091   2.681  1.00  0.00     0.217 HD
ENDBRANCH   3  26
BRANCH   9  28
HETATM   28  C17 UNL     1      -3.102   3.816  -0.522  1.00  0.00     0.267 C 
HETATM   29  O8  UNL     1      -2.437   4.538   0.205  1.00  0.00    -0.265 OA
BRANCH  28  30
HETATM   30  O9  UNL     1      -4.472   4.011  -0.543  1.00  0.00    -0.326 OA
HETATM   31  C18 UNL     1      -5.046   5.020   0.294  1.00  0.00     0.213 C 
ENDBRANCH  28  30
ENDBRANCH   9  28
BRANCH   4  32
HETATM   32  O5  UNL     1      -2.300  -2.114   2.813  1.00  0.00    -0.356 OA
ATOM     33  H5  UNL     1      -2.986  -2.701   3.108  1.00  0.00     0.218 HD
ENDBRANCH   4  32
BRANCH   6  34
HETATM   34  O7  UNL     1      -5.349  -0.198  -0.253  1.00  0.00    -0.357 OA
ATOM     35  H7  UNL     1      -5.503   0.449  -0.931  1.00  0.00     0.217 HD
ENDBRANCH   6  34
BRANCH   5  36
HETATM   36  O6  UNL     1      -4.854  -2.021   1.670  1.00  0.00    -0.351 OA
HETATM   37  C12 UNL     1      -5.063  -3.350   1.223  1.00  0.00     0.210 C 
ENDBRANCH   5  36
TORSDOF 10
