REMARK  8 active torsions:
REMARK  status: ('A' for Active; 'I' for Inactive)
REMARK    1  A    between atoms: C3_4  and  O2_5 
REMARK    2  A    between atoms: C4_7  and  S1_8 
REMARK    3  A    between atoms: S1_8  and  N1_11 
REMARK    4  A    between atoms: C7_14  and  N2_15 
REMARK    5  A    between atoms: N2_15  and  C8_17 
REMARK    6  A    between atoms: C9_18  and  O5_19 
REMARK    7  A    between atoms: C14_26  and  S2_27 
REMARK    8  A    between atoms: S2_27  and  N4_28 
ROOT
HETATM    1  C8  UNL     1       0.564   0.765  -0.157  1.00  0.00     0.084 A 
HETATM    2  C9  UNL     1       0.781   1.784   0.751  1.00  0.00     0.095 A 
HETATM    3  C10 UNL     1       2.048   1.824   1.295  1.00  0.00     0.066 A 
HETATM    4  C11 UNL     1       3.059   0.942   0.993  1.00  0.00     0.060 A 
HETATM    5  N3  UNL     1       4.328   1.109   1.640  1.00  0.00    -0.101 NA
HETATM    6  C12 UNL     1       2.831  -0.094   0.067  1.00  0.00     0.010 A 
HETATM    7  C13 UNL     1       3.710  -1.033  -0.333  1.00  0.00     0.047 A 
HETATM    8  C14 UNL     1       3.280  -1.955  -1.249  1.00  0.00     0.121 A 
HETATM    9  S3  UNL     1       1.664  -1.487  -1.526  1.00  0.00    -0.073 SA
HETATM   10  C15 UNL     1       1.582  -0.142  -0.475  1.00  0.00     0.048 A 
ENDROOT
BRANCH   1  11
HETATM   11  N2  UNL     1      -0.671   0.598  -0.795  1.00  0.00    -0.349 N 
ATOM     12  H2  UNL     1      -0.759  -0.176  -1.453  1.00  0.00     0.166 HD
BRANCH  11  13
HETATM   13  C7  UNL     1      -1.816   1.425  -0.597  1.00  0.00     0.090 A 
HETATM   14  C2  UNL     1      -2.119   2.586  -1.305  1.00  0.00     0.080 A 
HETATM   15  C1  UNL     1      -1.247   3.132  -2.396  1.00  0.00     0.079 C 
HETATM   16  O1  UNL     1      -3.240   3.048  -0.839  1.00  0.00    -0.289 OA
HETATM   17  C3  UNL     1      -3.716   2.310   0.110  1.00  0.00     0.209 A 
HETATM   18  C4  UNL     1      -2.837   1.249   0.306  1.00  0.00     0.161 A 
BRANCH  17  19
HETATM   19  O2  UNL     1      -4.890   2.468   0.861  1.00  0.00    -0.339 OA
ATOM     20  H2  UNL     1      -5.240   1.926   1.558  1.00  0.00     0.220 HD
ENDBRANCH  17  19
BRANCH  18  21
HETATM   21  S1  UNL     1      -2.997  -0.053   1.462  1.00  0.00     0.250 S 
HETATM   22  O3  UNL     1      -1.677  -0.618   1.892  1.00  0.00    -0.205 OA
HETATM   23  O4  UNL     1      -3.736   0.375   2.687  1.00  0.00    -0.205 OA
BRANCH  21  24
HETATM   24  N1  UNL     1      -3.882  -1.373   0.759  1.00  0.00    -0.215 NA
HETATM   25  C5  UNL     1      -3.191  -1.909  -0.390  1.00  0.00     0.129 C 
HETATM   26  C6  UNL     1      -3.985  -2.424   1.755  1.00  0.00     0.129 C 
ENDBRANCH  21  24
ENDBRANCH  18  21
ENDBRANCH  11  13
ENDBRANCH   1  11
BRANCH   2  27
HETATM   27  O5  UNL     1      -0.196   2.695   1.089  1.00  0.00    -0.358 OA
ATOM     28  H5  UNL     1      -0.047   3.395   1.713  1.00  0.00     0.217 HD
ENDBRANCH   2  27
BRANCH   8  29
HETATM   29  S2  UNL     1       4.174  -3.296  -1.967  1.00  0.00     0.263 S 
HETATM   30  O6  UNL     1       3.448  -4.571  -1.655  1.00  0.00    -0.200 OA
HETATM   31  O7  UNL     1       4.207  -3.118  -3.437  1.00  0.00    -0.200 OA
BRANCH  29  32
HETATM   32  N4  UNL     1       5.752  -3.315  -1.344  1.00  0.00    -0.324 N 
ATOM     33  H42 UNL     1       6.113  -2.648  -0.661  1.00  0.00     0.169 HD
ATOM     34  H41 UNL     1       6.269  -4.090  -1.759  1.00  0.00     0.169 HD
ENDBRANCH  29  32
ENDBRANCH   8  29
TORSDOF 8
