REMARK  7 active torsions:
REMARK  status: ('A' for Active; 'I' for Inactive)
REMARK    1  A    between atoms: O1_2  and  C2_3 
REMARK    2  A    between atoms: C2_3  and  C3_5 
REMARK    3  A    between atoms: C8_11  and  N1_12 
REMARK    4  A    between atoms: N1_12  and  C9_14 
REMARK    5  A    between atoms: C9_14  and  O3_15 
REMARK    6  A    between atoms: C9_14  and  C10_17 
REMARK    7  A    between atoms: C15_24  and  C16_25 
ROOT
HETATM    1  C3  UNL     1      -5.369  -1.144   1.987  1.00  0.00     0.126 C 
HETATM    2  C4  UNL     1      -5.772  -2.426   1.292  1.00  0.00     0.024 C 
HETATM    3  C5  UNL     1      -4.910  -2.509   0.080  1.00  0.00     0.042 C 
HETATM    4  C6  UNL     1      -3.664  -1.677   0.411  1.00  0.00    -0.021 A 
HETATM    5  C7  UNL     1      -3.951  -0.915   1.491  1.00  0.00     0.006 A 
HETATM    6  S1  UNL     1      -2.514  -0.053   1.754  1.00  0.00    -0.074 SA
HETATM    7  C8  UNL     1      -1.547  -0.695   0.446  1.00  0.00     0.094 A 
HETATM    8  C19 UNL     1      -2.415  -1.567  -0.135  1.00  0.00     0.085 A 
HETATM    9  C20 UNL     1      -1.968  -2.371  -1.308  1.00  0.00     0.103 C 
HETATM   10  N5  UNL     1      -1.635  -3.037  -2.235  1.00  0.00    -0.191 NA
ENDROOT
BRANCH   7  11
HETATM   11  N1  UNL     1      -0.194  -0.325   0.184  1.00  0.00    -0.352 N 
ATOM     12  H1  UNL     1       0.229   0.316   0.855  1.00  0.00     0.163 HD
BRANCH  11  13
HETATM   13  C9  UNL     1       0.641  -0.734  -0.891  1.00  0.00     0.272 C 
BRANCH  13  14
HETATM   14  O3  UNL     1       0.123  -0.128  -2.058  1.00  0.00    -0.371 OA
ATOM     15  H3  UNL     1       0.681  -0.401  -2.777  1.00  0.00     0.212 HD
ENDBRANCH  13  14
BRANCH  13  16
HETATM   16  C10 UNL     1       2.035  -0.201  -0.723  1.00  0.00     0.087 A 
HETATM   17  C11 UNL     1       2.753  -0.227   0.446  1.00  0.00     0.092 A 
HETATM   18  N2  UNL     1       2.411  -0.732   1.731  1.00  0.00    -0.099 NA
HETATM   19  C12 UNL     1       3.991   0.357   0.206  1.00  0.00     0.092 A 
HETATM   20  C13 UNL     1       5.110   0.609   0.979  1.00  0.00     0.191 A 
HETATM   21  C17 UNL     1       4.001   0.731  -1.119  1.00  0.00     0.167 A 
HETATM   22  O4  UNL     1       5.069   0.256   2.185  1.00  0.00    -0.287 OA
HETATM   23  C14 UNL     1       6.206   1.225   0.415  1.00  0.00     0.098 A 
HETATM   24  C15 UNL     1       6.138   1.571  -0.930  1.00  0.00     0.146 A 
HETATM   25  O6  UNL     1       5.059   1.315  -1.627  1.00  0.00    -0.287 OA
HETATM   26  N4  UNL     1       2.802   0.377  -1.645  1.00  0.00    -0.329 N 
HETATM   27  C18 UNL     1       2.479   0.630  -3.044  1.00  0.00     0.158 C 
BRANCH  24  28
HETATM   28  C16 UNL     1       7.292   2.225  -1.544  1.00  0.00     0.288 C 
HETATM   29  N3  UNL     1       8.467   2.511  -0.808  1.00  0.00    -0.055 NA
HETATM   30  O5  UNL     1       7.227   2.538  -2.763  1.00  0.00    -0.269 OA
ENDBRANCH  24  28
ENDBRANCH  13  16
ENDBRANCH  11  13
ENDBRANCH   7  11
BRANCH   1  31
HETATM   31  C2  UNL     1      -6.261  -0.047   1.529  1.00  0.00     0.267 C 
HETATM   32  O2  UNL     1      -7.270  -0.237   0.803  1.00  0.00    -0.264 OA
BRANCH  31  33
HETATM   33  O1  UNL     1      -5.978   1.254   1.915  1.00  0.00    -0.326 OA
HETATM   34  C1  UNL     1      -6.836   2.314   1.476  1.00  0.00     0.213 C 
ENDBRANCH  31  33
ENDBRANCH   1  31
TORSDOF 7
