REMARK  8 active torsions:
REMARK  status: ('A' for Active; 'I' for Inactive)
REMARK    1  A    between atoms: O1_2  and  C2_3 
REMARK    2  A    between atoms: C7_9  and  O3_10 
REMARK    3  A    between atoms: C8_12  and  O4_13 
REMARK    4  A    between atoms: C10_15  and  O5_16 
REMARK    5  A    between atoms: C11_18  and  N1_19 
REMARK    6  A    between atoms: N1_19  and  N2_21 
REMARK    7  A    between atoms: C18_33  and  O9_34 
REMARK    8  A    between atoms: C19_36  and  O10_37 
ROOT
HETATM    1  C2  UNL     1       4.573   0.766  -0.889  1.00  0.00     0.105 A 
HETATM    2  C3  UNL     1       3.867  -0.419  -1.051  1.00  0.00     0.058 A 
HETATM    3  C4  UNL     1       2.515  -0.494  -0.821  1.00  0.00     0.055 A 
HETATM    4  C5  UNL     1       1.862  -1.686  -0.992  1.00  0.00     0.201 A 
HETATM    5  O2  UNL     1       2.518  -2.676  -1.355  1.00  0.00    -0.286 OA
HETATM    6  C6  UNL     1       0.501  -1.741  -0.756  1.00  0.00     0.087 A 
HETATM    7  C7  UNL     1      -0.208  -2.911  -0.906  1.00  0.00     0.119 A 
HETATM    8  C8  UNL     1      -1.594  -2.914  -0.645  1.00  0.00     0.138 A 
HETATM    9  C10 UNL     1      -2.182  -1.739  -0.251  1.00  0.00     0.133 A 
HETATM   10  C11 UNL     1      -1.541  -0.559  -0.088  1.00  0.00     0.119 A 
HETATM   11  C16 UNL     1      -0.156  -0.598  -0.356  1.00  0.00     0.124 A 
HETATM   12  O8  UNL     1       0.524   0.521  -0.206  1.00  0.00    -0.303 OA
HETATM   13  C17 UNL     1       1.812   0.619  -0.419  1.00  0.00     0.126 A 
HETATM   14  C18 UNL     1       2.500   1.806  -0.252  1.00  0.00     0.137 A 
HETATM   15  C19 UNL     1       3.880   1.875  -0.488  1.00  0.00     0.137 A 
ENDROOT
BRANCH  10  16
HETATM   16  N1  UNL     1      -2.106   0.661   0.298  1.00  0.00    -0.289 N 
ATOM     17  H1  UNL     1      -1.445   1.437   0.342  1.00  0.00     0.187 HD
BRANCH  16  18
HETATM   18  N2  UNL     1      -3.400   0.995   0.629  1.00  0.00    -0.241 N 
HETATM   19  C12 UNL     1      -4.516   1.055  -0.294  1.00  0.00     0.163 C 
HETATM   20  C13 UNL     1      -5.169   2.427  -0.320  1.00  0.00     0.125 C 
HETATM   21  C14 UNL     1      -5.291   2.979   1.049  1.00  0.00     0.227 C 
HETATM   22  O6  UNL     1      -5.975   4.057   1.168  1.00  0.00    -0.273 OA
HETATM   23  N3  UNL     1      -4.707   2.396   2.213  1.00  0.00    -0.278 N 
HETATM   24  C15 UNL     1      -3.719   1.361   1.996  1.00  0.00     0.343 C 
ATOM     25  H3  UNL     1      -4.973   2.694   3.152  1.00  0.00     0.173 HD
HETATM   26  O7  UNL     1      -3.136   0.777   2.919  1.00  0.00    -0.245 OA
ENDBRANCH  16  18
ENDBRANCH  10  16
BRANCH   9  27
HETATM   27  O5  UNL     1      -3.569  -1.765   0.007  1.00  0.00    -0.356 OA
ATOM     28  H5  UNL     1      -3.976  -0.951   0.280  1.00  0.00     0.218 HD
ENDBRANCH   9  27
BRANCH   8  29
HETATM   29  O4  UNL     1      -2.370  -4.032  -0.769  1.00  0.00    -0.351 OA
HETATM   30  C9  UNL     1      -2.673  -4.985   0.198  1.00  0.00     0.210 C 
ENDBRANCH   8  29
BRANCH   7  31
HETATM   31  O3  UNL     1       0.331  -4.073  -1.290  1.00  0.00    -0.357 OA
ATOM     32  H3  UNL     1      -0.158  -4.881  -1.394  1.00  0.00     0.218 HD
ENDBRANCH   7  31
BRANCH  14  33
HETATM   33  O9  UNL     1       1.847   2.944   0.150  1.00  0.00    -0.356 OA
ATOM     34  H9  UNL     1       2.320   3.760   0.265  1.00  0.00     0.218 HD
ENDBRANCH  14  33
BRANCH  15  35
HETATM   35  O10 UNL     1       4.547   3.096  -0.306  1.00  0.00    -0.351 OA
HETATM   36  C20 UNL     1       5.072   3.456   0.965  1.00  0.00     0.210 C 
ENDBRANCH  15  35
BRANCH   1  37
HETATM   37  O1  UNL     1       5.944   0.821  -1.128  1.00  0.00    -0.353 OA
HETATM   38  C1  UNL     1       6.654  -0.308  -1.539  1.00  0.00     0.210 C 
ENDBRANCH   1  37
TORSDOF 8
