REMARK  7 active torsions:
REMARK  status: ('A' for Active; 'I' for Inactive)
REMARK    1  A    between atoms: N1_1  and  C1_4 
REMARK    2  A    between atoms: C4_12  and  C5_13 
REMARK    3  A    between atoms: C5_13  and  O3_15 
REMARK    4  A    between atoms: O3_15  and  C6_16 
REMARK    5  A    between atoms: C6_16  and  C7_18 
REMARK    6  A    between atoms: C7_18  and  N4_19 
REMARK    7  A    between atoms: C7_18  and  N5_23 
ROOT
HETATM    1  C5  UNL     1      -0.231  -1.077   0.065  1.00  0.00     0.306 C 
HETATM    2  O2  UNL     1      -0.073  -2.320   0.178  1.00  0.00    -0.259 OA
ENDROOT
BRANCH   1   3
HETATM    3  C4  UNL     1      -1.592  -0.536   0.138  1.00  0.00     0.099 A 
HETATM    4  C1  UNL     1      -1.856   0.806   0.025  1.00  0.00     0.120 A 
HETATM    5  N2  UNL     1      -3.145   1.204   0.105  1.00  0.00    -0.294 N 
HETATM    6  C2  UNL     1      -4.168   0.380   0.286  1.00  0.00     0.325 A 
ATOM      7  H2  UNL     1      -3.343   2.201   0.021  1.00  0.00     0.172 HD
HETATM    8  O1  UNL     1      -5.374   0.745   0.362  1.00  0.00    -0.247 OA
HETATM    9  N3  UNL     1      -3.930  -0.939   0.399  1.00  0.00    -0.318 N 
HETATM   10  C3  UNL     1      -2.667  -1.376   0.325  1.00  0.00     0.114 A 
ATOM     11  H3  UNL     1      -4.699  -1.595   0.539  1.00  0.00     0.170 HD
BRANCH   4  12
HETATM   12  N1  UNL     1      -0.890   1.633  -0.151  1.00  0.00    -0.384 N 
ATOM     13  H12 UNL     1      -1.086   2.630  -0.235  1.00  0.00     0.157 HD
ATOM     14  H11 UNL     1       0.083   1.333  -0.211  1.00  0.00     0.157 HD
ENDBRANCH   4  12
ENDBRANCH   1   3
BRANCH   1  15
HETATM   15  O3  UNL     1       0.880  -0.278  -0.122  1.00  0.00    -0.238 OA
BRANCH  15  16
HETATM   16  C6  UNL     1       2.168  -0.757  -0.194  1.00  0.00     0.325 C 
HETATM   17  O4  UNL     1       2.351  -1.996  -0.084  1.00  0.00    -0.260 OA
BRANCH  16  18
HETATM   18  C7  UNL     1       3.371   0.087  -0.394  1.00  0.00     0.476 C 
BRANCH  18  19
HETATM   19  N4  UNL     1       3.105   1.470  -0.511  1.00  0.00    -0.041 N 
ATOM     20  H43 UNL     1       2.426   1.639  -1.253  1.00  0.00     0.277 HD
ATOM     21  H42 UNL     1       2.571   1.798   0.294  1.00  0.00     0.277 HD
ATOM     22  H41 UNL     1       3.932   2.050  -0.649  1.00  0.00     0.277 HD
ENDBRANCH  18  19
BRANCH  18  23
HETATM   23  N5  UNL     1       4.280  -0.143   0.708  1.00  0.00    -0.041 N 
ATOM     24  H53 UNL     1       3.841   0.009   1.616  1.00  0.00     0.277 HD
ATOM     25  H52 UNL     1       4.509  -1.130   0.828  1.00  0.00     0.277 HD
ATOM     26  H51 UNL     1       5.107   0.437   0.570  1.00  0.00     0.277 HD
ENDBRANCH  18  23
ENDBRANCH  16  18
ENDBRANCH  15  16
ENDBRANCH   1  15
TORSDOF 7
