REMARK  4 active torsions:
REMARK  status: ('A' for Active; 'I' for Inactive)
REMARK    1  A    between atoms: N1_1  and  C1_4 
REMARK    2  A    between atoms: C2_10  and  C3_11 
REMARK    3  A    between atoms: C3_11  and  N4_12 
REMARK    4  A    between atoms: N4_12  and  C4_14 
ROOT
HETATM    1  N4  UNL     1      -0.016  -0.596  -0.295  1.00  0.00    -0.365 N 
ATOM      2  H4  UNL     1      -0.409  -1.518  -0.483  1.00  0.00     0.161 HD
ENDROOT
BRANCH   1   3
HETATM    3  C3  UNL     1      -0.950   0.478  -0.072  1.00  0.00     0.184 C 
BRANCH   3   4
HETATM    4  C2  UNL     1      -2.358  -0.003  -0.108  1.00  0.00     0.097 A 
HETATM    5  C1  UNL     1      -3.469   0.787   0.071  1.00  0.00     0.147 A 
HETATM    6  N2  UNL     1      -4.537  -0.013  -0.034  1.00  0.00    -0.224 N 
HETATM    7  O1  UNL     1      -4.108  -1.222  -0.264  1.00  0.00    -0.155 OA
ATOM      8  H2  UNL     1      -5.513   0.273   0.051  1.00  0.00     0.198 HD
HETATM    9  N3  UNL     1      -2.799  -1.243  -0.313  1.00  0.00    -0.240 N 
ATOM     10  H3  UNL     1      -2.219  -2.065  -0.479  1.00  0.00     0.196 HD
BRANCH   5  11
HETATM   11  N1  UNL     1      -3.532   2.050   0.297  1.00  0.00    -0.382 N 
ATOM     12  H12 UNL     1      -4.356   2.636   0.430  1.00  0.00     0.157 HD
ATOM     13  H11 UNL     1      -2.718   2.660   0.377  1.00  0.00     0.157 HD
ENDBRANCH   5  11
ENDBRANCH   3   4
ENDBRANCH   1   3
BRANCH   1  14
HETATM   14  C4  UNL     1       1.264  -0.502  -0.280  1.00  0.00     0.186 A 
HETATM   15  N5  UNL     1       1.978  -1.628  -0.513  1.00  0.00    -0.277 N 
HETATM   16  N6  UNL     1       3.295  -1.619  -0.517  1.00  0.00    -0.250 N 
ATOM     17  H5  UNL     1       1.485  -2.503  -0.689  1.00  0.00     0.189 HD
HETATM   18  C5  UNL     1       4.002  -0.496  -0.290  1.00  0.00     0.341 A 
ATOM     19  H6  UNL     1       3.795  -2.490  -0.698  1.00  0.00     0.192 HD
HETATM   20  O2  UNL     1       5.271  -0.527  -0.302  1.00  0.00    -0.245 OA
HETATM   21  N7  UNL     1       3.323   0.630  -0.057  1.00  0.00    -0.271 N 
HETATM   22  C6  UNL     1       1.968   0.657  -0.046  1.00  0.00     0.294 A 
ATOM     23  H7  UNL     1       3.838   1.493   0.117  1.00  0.00     0.174 HD
HETATM   24  O3  UNL     1       1.383   1.732   0.175  1.00  0.00    -0.264 OA
ENDBRANCH   1  14
TORSDOF 4
