REMARK  3 active torsions:
REMARK  status: ('A' for Active; 'I' for Inactive)
REMARK    1  A    between atoms: C2_5  and  N3_6 
REMARK    2  A    between atoms: C3_13  and  C4_14 
REMARK    3  A    between atoms: N5_15  and  C5_17 
ROOT
HETATM    1  N1  UNL     1      -1.897   1.413   1.871  1.00  0.00    -0.085 NA
HETATM    2  C1  UNL     1      -2.358   0.882   0.614  1.00  0.00     0.128 C 
HETATM    3  N2  UNL     1      -3.506   0.382   0.348  1.00  0.00    -0.331 N 
ATOM      4  H2  UNL     1      -4.272   0.291   1.015  1.00  0.00     0.164 HD
HETATM    5  C2  UNL     1      -3.560  -0.043  -1.059  1.00  0.00     0.485 C 
HETATM    6  N4  UNL     1      -2.131  -0.253  -1.361  1.00  0.00    -0.014 N 
ATOM      7  H41 UNL     1      -1.888  -0.297  -2.351  1.00  0.00     0.283 HD
ATOM      8  H42 UNL     1      -1.763  -1.180  -1.145  1.00  0.00     0.283 HD
HETATM    9  C3  UNL     1      -1.558   0.829  -0.628  1.00  0.00     0.292 C 
ENDROOT
BRANCH   9  10
HETATM   10  C4  UNL     1      -0.117   0.676  -0.369  1.00  0.00     0.103 C 
HETATM   11  N5  UNL     1       0.555  -0.387  -0.613  1.00  0.00    -0.353 N 
ATOM     12  H5  UNL     1       0.070  -1.189  -1.015  1.00  0.00     0.166 HD
BRANCH  11  13
HETATM   13  C5  UNL     1       1.943  -0.496  -0.349  1.00  0.00     0.114 A 
HETATM   14  C6  UNL     1       2.538  -1.538   0.290  1.00  0.00     0.123 A 
HETATM   15  C7  UNL     1       3.905  -1.510   0.478  1.00  0.00     0.252 A 
HETATM   16  O1  UNL     1       4.503  -2.454   1.066  1.00  0.00    -0.268 OA
HETATM   17  N6  UNL     1       4.677  -0.487   0.051  1.00  0.00    -0.275 N 
HETATM   18  C8  UNL     1       4.052   0.528  -0.578  1.00  0.00     0.328 A 
ATOM     19  H6  UNL     1       5.686  -0.483   0.198  1.00  0.00     0.173 HD
HETATM   20  O2  UNL     1       4.774   1.483  -0.976  1.00  0.00    -0.247 OA
HETATM   21  N7  UNL     1       2.722   0.531  -0.777  1.00  0.00    -0.294 N 
ATOM     22  H7  UNL     1       2.290   1.320  -1.259  1.00  0.00     0.172 HD
ENDBRANCH  11  13
ENDBRANCH   9  10
BRANCH   5  23
HETATM   23  N3  UNL     1      -4.302  -1.268  -1.105  1.00  0.00    -0.033 N 
ATOM     24  H33 UNL     1      -3.926  -1.986  -0.485  1.00  0.00     0.278 HD
ATOM     25  H32 UNL     1      -5.224  -1.193  -0.675  1.00  0.00     0.278 HD
ATOM     26  H31 UNL     1      -4.339  -1.563  -2.081  1.00  0.00     0.278 HD
ENDBRANCH   5  23
TORSDOF 3
