REMARK  8 active torsions:
REMARK  status: ('A' for Active; 'I' for Inactive)
REMARK    1  A    between atoms: C2_2  and  N1_3 
REMARK    2  A    between atoms: C2_2  and  N2_7 
REMARK    3  A    between atoms: C2_2  and  C5_23 
REMARK    4  A    between atoms: N2_7  and  C3_9 
REMARK    5  A    between atoms: N4_13  and  O2_14 
REMARK    6  A    between atoms: C4_16  and  N5_17 
REMARK    7  A    between atoms: N5_17  and  N6_18 
REMARK    8  A    between atoms: N5_17  and  O3_21 
ROOT
HETATM    1  C3  UNL     1       1.021   0.316  -0.479  1.00  0.00     0.173 A 
HETATM    2  N3  UNL     1       0.883   1.434  -1.208  1.00  0.00    -0.220 N 
ATOM      3  H3  UNL     1       0.015   1.782  -1.615  1.00  0.00     0.198 HD
HETATM    4  O1  UNL     1       2.040   1.990  -1.302  1.00  0.00    -0.125 OA
HETATM    5  N4  UNL     1       2.950   1.309  -0.676  1.00  0.00    -0.083 N 
HETATM    6  C4  UNL     1       2.351   0.234  -0.135  1.00  0.00     0.229 A 
ENDROOT
BRANCH   1   7
HETATM    7  N2  UNL     1       0.123  -0.512  -0.158  1.00  0.00    -0.340 N 
ATOM      8  H2  UNL     1       0.422  -1.307   0.406  1.00  0.00     0.163 HD
BRANCH   7   9
HETATM    9  C2  UNL     1      -1.259  -0.461  -0.494  1.00  0.00     0.197 C 
HETATM   10  C1  UNL     1      -1.879  -1.801  -0.140  1.00  0.00     0.071 C 
BRANCH   9  11
HETATM   11  N1  UNL     1      -1.380  -0.328  -1.936  1.00  0.00    -0.053 N 
ATOM     12  H13 UNL     1      -0.977  -1.111  -2.451  1.00  0.00     0.277 HD
ATOM     13  H12 UNL     1      -2.336  -0.435  -2.275  1.00  0.00     0.277 HD
ATOM     14  H11 UNL     1      -0.963   0.572  -2.174  1.00  0.00     0.277 HD
ENDBRANCH   9  11
BRANCH   9  15
HETATM   15  C5  UNL     1      -2.003   0.685   0.119  1.00  0.00     0.042 A 
HETATM   16  C6  UNL     1      -2.172   0.840   1.574  1.00  0.00     0.009 A 
HETATM   17  C7  UNL     1      -3.318   0.270   0.775  1.00  0.00     0.009 A 
ENDBRANCH   9  15
ENDBRANCH   7   9
ENDBRANCH   1   7
BRANCH   6  18
HETATM   18  N5  UNL     1       3.028  -0.755   0.633  1.00  0.00    -0.051 NA
BRANCH  18  19
HETATM   19  N6  UNL     1       3.941  -0.196   1.534  1.00  0.00    -0.335 NA
ATOM     20  H62 UNL     1       4.594   0.371   0.994  1.00  0.00     0.173 HD
ATOM     21  H61 UNL     1       4.426  -0.905   2.084  1.00  0.00     0.173 HD
ENDBRANCH  18  19
BRANCH  18  22
HETATM   22  O3  UNL     1       2.166  -1.503   1.346  1.00  0.00    -0.288 OA
ATOM     23  H3  UNL     1       2.618  -2.163   1.859  1.00  0.00     0.239 HD
ENDBRANCH  18  22
ENDBRANCH   6  18
BRANCH   5  24
HETATM   24  O2  UNL     1       4.268   1.670  -0.612  1.00  0.00    -0.260 OA
ATOM     25  H2  UNL     1       4.934   1.171  -0.154  1.00  0.00     0.247 HD
ENDBRANCH   5  24
TORSDOF 8
