REMARK  6 active torsions:
REMARK  status: ('A' for Active; 'I' for Inactive)
REMARK    1  A    between atoms: C3_3  and  C4_4 
REMARK    2  A    between atoms: C7_11  and  N3_12 
REMARK    3  A    between atoms: N6_23  and  C11_24 
REMARK    4  A    between atoms: C11_24  and  C13_26 
REMARK    5  A    between atoms: C16_29  and  N7_30 
REMARK       I    between atoms: N7_30  and  C17_32 
REMARK    6  A    between atoms: C17_32  and  C18_34 
ROOT
HETATM    1  C1  UNL     1       3.843  -0.147  -1.835  1.00  0.00     0.071 C 
HETATM    2  C2  UNL     1       3.386  -0.792  -0.583  1.00  0.00     0.037 A 
HETATM    3  C3  UNL     1       4.161  -0.994   0.554  1.00  0.00     0.019 A 
HETATM    4  C10 UNL     1       3.374  -1.622   1.502  1.00  0.00     0.121 A 
HETATM    5  N5  UNL     1       2.193  -1.775   0.933  1.00  0.00    -0.308 N 
ATOM      6  H5  UNL     1       1.393  -2.212   1.391  1.00  0.00     0.186 HD
HETATM    7  N6  UNL     1       2.166  -1.289  -0.317  1.00  0.00    -0.291 N 
ENDROOT
BRANCH   7   8
HETATM    8  C11 UNL     1       1.025  -1.316  -1.181  1.00  0.00     0.108 C 
HETATM    9  C12 UNL     1       1.303  -1.953  -2.532  1.00  0.00     0.035 C 
BRANCH   8  10
HETATM   10  C13 UNL     1       0.343   0.032  -1.346  1.00  0.00     0.010 C 
HETATM   11  C14 UNL     1      -0.818  -0.168  -2.270  1.00  0.00     0.009 C 
HETATM   12  C15 UNL     1      -2.028   0.643  -1.979  1.00  0.00     0.026 C 
HETATM   13  C16 UNL     1      -2.410   0.725  -0.523  1.00  0.00     0.084 C 
HETATM   14  C24 UNL     1      -1.392   0.068   0.385  1.00  0.00     0.026 C 
HETATM   15  C25 UNL     1      -0.044   0.586   0.005  1.00  0.00     0.009 C 
BRANCH  13  16
HETATM   16  N7  UNL     1      -3.746   0.264  -0.275  1.00  0.00    -0.356 N 
HETATM   17  C17 UNL     1      -4.820   1.050   0.166  1.00  0.00     0.222 C 
HETATM   18  O1  UNL     1      -4.658   2.283   0.382  1.00  0.00    -0.273 OA
ATOM     19  H7  UNL     1      -3.931  -0.726  -0.434  1.00  0.00     0.162 HD
BRANCH  17  20
HETATM   20  C18 UNL     1      -6.168   0.476   0.395  1.00  0.00     0.083 C 
HETATM   21  C19 UNL     1      -7.146   1.560   0.811  1.00  0.00     0.014 C 
HETATM   22  C20 UNL     1      -8.378   0.960   1.414  1.00  0.00     0.007 C 
HETATM   23  C21 UNL     1      -8.527  -0.496   0.974  1.00  0.00     0.079 C 
HETATM   24  C22 UNL     1      -7.394  -1.347   1.467  1.00  0.00     0.244 C 
HETATM   25  F2  UNL     1      -7.147  -2.328   0.514  1.00  0.00    -0.206 F 
HETATM   26  F3  UNL     1      -7.690  -1.945   2.693  1.00  0.00    -0.206 F 
HETATM   27  C23 UNL     1      -6.140  -0.507   1.571  1.00  0.00     0.093 C 
ENDBRANCH  17  20
ENDBRANCH  13  16
ENDBRANCH   8  10
ENDBRANCH   7   8
BRANCH   3  28
HETATM   28  C4  UNL     1       5.561  -0.627   0.750  1.00  0.00     0.034 A 
HETATM   29  C5  UNL     1       6.543  -1.595   0.722  1.00  0.00     0.105 A 
HETATM   30  N1  UNL     1       7.852  -1.293   0.901  1.00  0.00    -0.349 N 
HETATM   31  C6  UNL     1       8.246  -0.027   1.114  1.00  0.00     0.151 A 
ATOM     32  H1  UNL     1       8.548  -2.038   0.874  1.00  0.00     0.167 HD
HETATM   33  N2  UNL     1       9.455   0.528   1.317  1.00  0.00    -0.174 N 
HETATM   34  C8  UNL     1       7.280   0.958   1.146  1.00  0.00     0.133 A 
HETATM   35  C7  UNL     1       9.282   1.855   1.479  1.00  0.00     0.678 A 
ATOM     36  H2  UNL     1      10.346   0.032   1.344  1.00  0.00     0.186 HD
HETATM   37  N4  UNL     1       7.955   2.098   1.372  1.00  0.00    -0.185 N 
ATOM     38  H4  UNL     1       7.526   3.020   1.452  1.00  0.00     0.184 HD
HETATM   39  C9  UNL     1       5.937   0.676   0.966  1.00  0.00     0.160 A 
HETATM   40  F1  UNL     1       5.020   1.696   1.009  1.00  0.00    -0.203 F 
BRANCH  35  41
HETATM   41  N3  UNL     1      10.188   2.739   1.695  1.00  0.00    -0.234 N 
ATOM     42  H32 UNL     1      11.188   2.556   1.776  1.00  0.00     0.174 HD
ATOM     43  H31 UNL     1      10.057   3.743   1.818  1.00  0.00     0.174 HD
ENDBRANCH  35  41
ENDBRANCH   3  28
TORSDOF 6
