REMARK  10 active torsions:
REMARK  status: ('A' for Active; 'I' for Inactive)
REMARK    1  A    between atoms: N1_2  and  N2_4 
REMARK    2  A    between atoms: C2_6  and  N3_7 
REMARK    3  A    between atoms: C2_6  and  C3_12 
REMARK    4  A    between atoms: N3_7  and  N4_9 
REMARK    5  A    between atoms: C4_15  and  N6_16 
REMARK    6  A    between atoms: N8_21  and  C5_22 
REMARK    7  A    between atoms: C5_22  and  C6_23 
REMARK    8  A    between atoms: C6_23  and  C7_24 
REMARK    9  A    between atoms: C7_24  and  N9_25 
REMARK   10  A    between atoms: N9_25  and  N10_26 
ROOT
HETATM    1  C3  UNL     1      -1.204   1.092   0.020  1.00  0.00     0.185 A 
HETATM    2  N5  UNL     1      -1.683   2.058   0.857  1.00  0.00    -0.170 N 
ATOM      3  H5  UNL     1      -2.439   1.924   1.529  1.00  0.00     0.186 HD
HETATM    4  C4  UNL     1      -1.020   3.205   0.670  1.00  0.00     0.692 A 
HETATM    5  N7  UNL     1      -0.130   2.938  -0.287  1.00  0.00    -0.129 N 
ATOM      6  H7  UNL     1       0.536   3.613  -0.663  1.00  0.00     0.206 HD
HETATM    7  N8  UNL     1      -0.231   1.656  -0.690  1.00  0.00    -0.259 N 
ENDROOT
BRANCH   1   8
HETATM    8  C2  UNL     1      -1.716  -0.279  -0.071  1.00  0.00     0.181 C 
HETATM    9  N2  UNL     1      -1.806  -0.872  -1.183  1.00  0.00    -0.282 N 
ATOM     10  H2  UNL     1      -1.504  -0.347  -2.003  1.00  0.00     0.188 HD
BRANCH   9  11
HETATM   11  N1  UNL     1      -2.265  -2.145  -1.408  1.00  0.00    -0.320 N 
HETATM   12  C1  UNL     1      -1.977  -3.182  -0.723  1.00  0.00     0.139 C 
ATOM     13  H1  UNL     1      -2.897  -2.275  -2.198  1.00  0.00     0.185 HD
ENDBRANCH   9  11
BRANCH   8  14
HETATM   14  N3  UNL     1      -2.105  -0.918   1.117  1.00  0.00    -0.288 N 
ATOM     15  H3  UNL     1      -3.027  -1.350   1.183  1.00  0.00     0.188 HD
BRANCH  14  16
HETATM   16  N4  UNL     1      -1.243  -0.964   2.200  1.00  0.00    -0.343 N 
ATOM     17  H42 UNL     1      -0.325  -0.527   2.118  1.00  0.00     0.176 HD
ATOM     18  H41 UNL     1      -1.526  -1.428   3.063  1.00  0.00     0.176 HD
ENDBRANCH  14  16
ENDBRANCH   8  14
ENDBRANCH   1   8
BRANCH   7  19
HETATM   19  C5  UNL     1       0.671   1.132  -1.685  1.00  0.00     0.153 C 
BRANCH  19  20
HETATM   20  C6  UNL     1       1.997   0.771  -1.112  1.00  0.00     0.039 C 
BRANCH  20  21
HETATM   21  C7  UNL     1       2.080  -0.286  -0.089  1.00  0.00     0.136 C 
BRANCH  21  22
HETATM   22  N9  UNL     1       1.693  -1.603  -0.477  1.00  0.00    -0.148 NA
BRANCH  22  23
HETATM   23  N10 UNL     1       1.831  -2.478   0.606  1.00  0.00    -0.348 N 
ATOM     24 2H10 UNL     1       2.161  -2.200   1.530  1.00  0.00     0.172 HD
ATOM     25 1H10 UNL     1       1.554  -3.420   0.329  1.00  0.00     0.172 HD
ENDBRANCH  22  23
ENDBRANCH  21  22
ENDBRANCH  20  21
ENDBRANCH  19  20
ENDBRANCH   7  19
BRANCH   4  26
HETATM   26  N6  UNL     1      -1.215   4.317   1.291  1.00  0.00    -0.233 N 
ATOM     27  H62 UNL     1      -1.896   4.521   2.023  1.00  0.00     0.174 HD
ATOM     28  H61 UNL     1      -0.710   5.191   1.148  1.00  0.00     0.174 HD
ENDBRANCH   4  26
TORSDOF 10
