REMARK  6 active torsions:
REMARK  status: ('A' for Active; 'I' for Inactive)
REMARK    1  A    between atoms: C4_4  and  C5_5 
REMARK    2  A    between atoms: C11_14  and  C12_15 
REMARK    3  A    between atoms: C12_15  and  O1_16 
REMARK    4  A    between atoms: C13_18  and  C14_19 
REMARK    5  A    between atoms: C19_26  and  N3_27 
REMARK    6  A    between atoms: N3_27  and  C20_29 
ROOT
HETATM    1  C14 UNL     1       1.048  -1.223  -0.837  1.00  0.00     0.085 A 
HETATM    2  C15 UNL     1       1.315  -1.972  -1.959  1.00  0.00     0.122 A 
HETATM    3  N2  UNL     1       0.169  -2.370  -2.488  1.00  0.00    -0.349 N 
ATOM      4  H2  UNL     1       0.055  -2.940  -3.326  1.00  0.00     0.167 HD
HETATM    5  C16 UNL     1      -0.826  -1.878  -1.706  1.00  0.00     0.127 A 
HETATM    6  C17 UNL     1      -2.198  -2.033  -1.859  1.00  0.00     0.054 A 
HETATM    7  C18 UNL     1      -3.022  -1.432  -0.918  1.00  0.00     0.053 A 
HETATM    8  C19 UNL     1      -2.465  -0.721   0.105  1.00  0.00     0.120 A 
HETATM    9  N6  UNL     1      -1.123  -0.611   0.186  1.00  0.00    -0.277 N 
ATOM     10  H6  UNL     1      -0.717  -0.074   0.952  1.00  0.00     0.189 HD
HETATM   11  N7  UNL     1      -0.309  -1.183  -0.706  1.00  0.00    -0.236 N 
ENDROOT
BRANCH   1  12
HETATM   12  C13 UNL     1       2.024  -0.541  -0.003  1.00  0.00     0.008 A 
HETATM   13  C11 UNL     1       3.150   0.050  -0.456  1.00  0.00     0.011 A 
HETATM   14  C4  UNL     1       4.211   0.408   0.443  1.00  0.00     0.005 A 
HETATM   15  C3  UNL     1       4.023   0.138   1.778  1.00  0.00     0.021 A 
HETATM   16  C2  UNL     1       2.877  -0.453   2.239  1.00  0.00    -0.060 A 
HETATM   17  C1  UNL     1       2.731  -0.717   3.701  1.00  0.00     0.048 C 
HETATM   18  C29 UNL     1       1.856  -0.808   1.386  1.00  0.00     0.021 A 
BRANCH  13  19
HETATM   19  C12 UNL     1       3.359   0.545  -1.813  1.00  0.00     0.144 C 
BRANCH  19  20
HETATM   20  O1  UNL     1       2.463   0.365  -2.798  1.00  0.00    -0.372 OA
ATOM     21  H1  UNL     1       2.599   0.687  -3.681  1.00  0.00     0.216 HD
ENDBRANCH  19  20
ENDBRANCH  13  19
BRANCH  14  22
HETATM   22  C5  UNL     1       5.447   0.979  -0.059  1.00  0.00     0.049 A 
HETATM   23  N1  UNL     1       5.569   2.111  -0.747  1.00  0.00    -0.362 N 
HETATM   24  C6  UNL     1       6.724   2.580  -1.228  1.00  0.00     0.130 A 
ATOM     25  H1  UNL     1       4.725   2.657  -0.919  1.00  0.00     0.165 HD
HETATM   26  C7  UNL     1       7.896   1.886  -1.029  1.00  0.00     0.132 A 
HETATM   27  F1  UNL     1       9.105   2.334  -1.515  1.00  0.00    -0.205 F 
HETATM   28  C8  UNL     1       7.847   0.694  -0.319  1.00  0.00     0.052 A 
HETATM   29  C9  UNL     1       6.617   0.254   0.159  1.00  0.00    -0.031 A 
HETATM   30  C10 UNL     1       6.657  -1.035   0.906  1.00  0.00     0.050 C 
ENDBRANCH  14  22
ENDBRANCH   1  12
BRANCH   8  31
HETATM   31  N3  UNL     1      -3.205  -0.179   1.024  1.00  0.00    -0.340 N 
ATOM     32  H3  UNL     1      -2.762   0.348   1.777  1.00  0.00     0.167 HD
BRANCH  31  33
HETATM   33  C20 UNL     1      -4.598  -0.304   1.000  1.00  0.00     0.063 A 
HETATM   34  C21 UNL     1      -5.217  -1.496   1.307  1.00  0.00     0.137 A 
HETATM   35  N4  UNL     1      -6.543  -1.668   1.293  1.00  0.00    -0.307 N 
HETATM   36  N5  UNL     1      -7.299  -0.636   0.966  1.00  0.00    -0.296 N 
ATOM     37  H4  UNL     1      -6.958  -2.570   1.528  1.00  0.00     0.186 HD
HETATM   38  C22 UNL     1      -8.743  -0.771   0.917  1.00  0.00     0.178 C 
HETATM   39  C23 UNL     1      -6.765   0.572   0.651  1.00  0.00     0.063 A 
HETATM   40  C24 UNL     1      -7.606   1.607   0.329  1.00  0.00     0.035 A 
HETATM   41  C28 UNL     1      -5.392   0.769   0.660  1.00  0.00     0.023 A 
HETATM   42  C25 UNL     1      -7.055   2.854   0.012  1.00  0.00     0.044 A 
HETATM   43  C26 UNL     1      -5.691   3.043   0.023  1.00  0.00     0.117 A 
HETATM   44  F2  UNL     1      -5.153   4.267  -0.284  1.00  0.00    -0.206 F 
HETATM   45  C27 UNL     1      -4.847   2.003   0.347  1.00  0.00     0.058 A 
ENDBRANCH  31  33
ENDBRANCH   8  31
TORSDOF 6
