REMARK  5 active torsions:
REMARK  status: ('A' for Active; 'I' for Inactive)
REMARK    1  A    between atoms: C6_7  and  S1_8 
REMARK    2  A    between atoms: C9_13  and  C10_14 
REMARK    3  A    between atoms: C11_17  and  N2_18 
REMARK    4  A    between atoms: N2_18  and  C12_20 
REMARK    5  A    between atoms: C19_35  and  C20_36 
ROOT
HETATM    1  C1  UNL     1      -0.223  -1.295  -3.562  1.00  0.00     0.018 C 
HETATM    2  C2  UNL     1      -0.796  -0.621  -2.736  1.00  0.00    -0.077 C 
HETATM    3  C3  UNL     1      -1.485   0.190  -1.779  1.00  0.00     0.032 A 
HETATM    4  C4  UNL     1      -2.482   1.063  -2.242  1.00  0.00     0.065 A 
HETATM    5  C5  UNL     1      -3.146   1.862  -1.339  1.00  0.00     0.139 A 
HETATM    6  F1  UNL     1      -4.126   2.732  -1.730  1.00  0.00    -0.204 F 
HETATM    7  C6  UNL     1      -2.838   1.806  -0.008  1.00  0.00     0.098 A 
HETATM    8  C8  UNL     1      -1.856   0.939   0.406  1.00  0.00     0.041 A 
HETATM    9  C9  UNL     1      -1.165   0.121  -0.452  1.00  0.00     0.012 A 
ENDROOT
BRANCH   9  10
HETATM   10  C10 UNL     1      -0.126  -0.786  -0.001  1.00  0.00     0.056 A 
HETATM   11  N1  UNL     1       1.116  -0.237   0.082  1.00  0.00    -0.341 N 
HETATM   12  C11 UNL     1       2.182  -0.932   0.470  1.00  0.00     0.107 A 
ATOM     13  H1  UNL     1       1.235   0.746  -0.163  1.00  0.00     0.167 HD
HETATM   14  C17 UNL     1       1.995  -2.281   0.801  1.00  0.00     0.049 A 
HETATM   15  C18 UNL     1       0.760  -2.857   0.727  1.00  0.00     0.018 A 
HETATM   16  C19 UNL     1      -0.327  -2.097   0.318  1.00  0.00     0.002 A 
BRANCH  12  17
HETATM   17  N2  UNL     1       3.325  -0.454   0.575  1.00  0.00    -0.327 N 
ATOM     18  H2  UNL     1       4.003  -1.150   0.887  1.00  0.00     0.169 HD
BRANCH  17  19
HETATM   19  C12 UNL     1       3.906   0.780   0.376  1.00  0.00     0.138 A 
HETATM   20  N3  UNL     1       3.319   1.982   0.418  1.00  0.00    -0.337 N 
HETATM   21  C13 UNL     1       3.968   3.136   0.226  1.00  0.00     0.183 A 
ATOM     22  H3  UNL     1       2.318   2.021   0.608  1.00  0.00     0.168 HD
HETATM   23  N4  UNL     1       5.287   3.171  -0.030  1.00  0.00    -0.337 N 
HETATM   24  C14 UNL     1       5.961   2.000  -0.091  1.00  0.00     0.138 A 
ATOM     25  H4  UNL     1       5.768   4.059  -0.175  1.00  0.00     0.168 HD
HETATM   26  N5  UNL     1       7.257   1.726  -0.320  1.00  0.00    -0.337 N 
HETATM   27  C16 UNL     1       5.292   0.833   0.106  1.00  0.00     0.122 A 
HETATM   28  C15 UNL     1       7.378   0.386  -0.262  1.00  0.00     0.182 A 
ATOM     29  H5  UNL     1       8.001   2.399  -0.502  1.00  0.00     0.168 HD
HETATM   30  N6  UNL     1       6.175  -0.176  -0.001  1.00  0.00    -0.346 N 
ATOM     31  H6  UNL     1       5.976  -1.172   0.096  1.00  0.00     0.167 HD
ENDBRANCH  17  19
ENDBRANCH  12  17
BRANCH  16  32
HETATM   32  C20 UNL     1      -1.621  -2.720   0.278  1.00  0.00    -0.024 A 
HETATM   33  C21 UNL     1      -1.882  -3.695  -0.696  1.00  0.00     0.014 A 
HETATM   34  C22 UNL     1      -3.081  -4.326  -0.761  1.00  0.00     0.024 A 
HETATM   35  C23 UNL     1      -4.062  -3.996   0.156  1.00  0.00     0.034 A 
HETATM   36 CL1  UNL     1      -5.595  -4.817   0.058  1.00  0.00    -0.084 Cl
HETATM   37  C24 UNL     1      -3.823  -3.041   1.119  1.00  0.00     0.024 A 
HETATM   38  C25 UNL     1      -2.610  -2.397   1.192  1.00  0.00     0.014 A 
ENDBRANCH  16  32
ENDBRANCH   9  10
BRANCH   7  39
HETATM   39  S1  UNL     1      -3.693   2.839   1.145  1.00  0.00     0.174 S 
HETATM   40  C7  UNL     1      -3.449   4.550   0.728  1.00  0.00     0.167 C 
HETATM   41  O1  UNL     1      -5.140   2.467   1.065  1.00  0.00    -0.223 OA
HETATM   42  O2  UNL     1      -3.114   2.557   2.520  1.00  0.00    -0.223 OA
ENDBRANCH   7  39
TORSDOF 5
