REMARK  6 active torsions:
REMARK  status: ('A' for Active; 'I' for Inactive)
REMARK    1  A    between atoms: N2_5  and  C4_6 
REMARK    2  A    between atoms: C7_9  and  N3_10 
REMARK    3  A    between atoms: N3_10  and  C8_12 
REMARK    4  A    between atoms: C10_18  and  N6_19 
REMARK    5  A    between atoms: N6_19  and  C11_21 
REMARK    6  A    between atoms: C14_24  and  C15_25 
ROOT
HETATM    1  C8  UNL     1      -1.224   2.027   2.100  1.00  0.00     0.698 A 
HETATM    2  N4  UNL     1      -0.354   2.768   2.811  1.00  0.00    -0.187 N 
ATOM      3  H4  UNL     1      -0.713   3.481   3.446  1.00  0.00     0.185 HD
HETATM    4  C9  UNL     1       0.975   2.594   2.708  1.00  0.00     0.215 A 
HETATM    5  N5  UNL     1       1.439   1.654   1.872  1.00  0.00    -0.187 N 
ATOM      6  H5  UNL     1       2.446   1.515   1.788  1.00  0.00     0.185 HD
HETATM    7  C10 UNL     1       0.596   0.881   1.133  1.00  0.00     0.698 A 
HETATM    8  N8  UNL     1      -0.733   1.093   1.270  1.00  0.00    -0.022 N 
ATOM      9  H8  UNL     1      -1.382   0.525   0.726  1.00  0.00     0.203 HD
ENDROOT
BRANCH   7  10
HETATM   10  N6  UNL     1       1.058  -0.014   0.337  1.00  0.00    -0.191 N 
ATOM     11  H6  UNL     1       0.425  -0.592  -0.216  1.00  0.00     0.184 HD
BRANCH  10  12
HETATM   12  C11 UNL     1       2.453  -0.186   0.239  1.00  0.00     0.049 A 
HETATM   13  C12 UNL     1       3.137  -0.001  -0.942  1.00  0.00     0.031 A 
HETATM   14  C13 UNL     1       4.509  -0.173  -1.026  1.00  0.00     0.016 A 
HETATM   15  C14 UNL     1       5.245  -0.538   0.077  1.00  0.00    -0.009 A 
HETATM   16  C24 UNL     1       4.576  -0.727   1.264  1.00  0.00     0.016 A 
HETATM   17  C25 UNL     1       3.209  -0.550   1.326  1.00  0.00     0.031 A 
BRANCH  15  18
HETATM   18  C15 UNL     1       6.691  -0.714  -0.033  1.00  0.00     0.043 A 
HETATM   19  C16 UNL     1       7.498  -1.077   1.022  1.00  0.00     0.031 A 
HETATM   20  C17 UNL     1       8.865  -1.203   0.749  1.00  0.00     0.016 A 
HETATM   21  C18 UNL     1       9.382  -0.978  -0.501  1.00  0.00    -0.003 A 
HETATM   22  C19 UNL     1      10.726  -1.093  -0.803  1.00  0.00     0.056 A 
HETATM   23  C23 UNL     1       8.532  -0.616  -1.524  1.00  0.00     0.082 A 
HETATM   24  C20 UNL     1      11.167  -0.844  -2.106  1.00  0.00     0.120 A 
HETATM   25  F1  UNL     1      12.468  -0.952  -2.417  1.00  0.00    -0.206 F 
HETATM   26  C21 UNL     1      10.287  -0.484  -3.103  1.00  0.00     0.086 A 
HETATM   27  C22 UNL     1       8.962  -0.369  -2.811  1.00  0.00     0.146 A 
HETATM   28  F2  UNL     1       8.040  -0.014  -3.762  1.00  0.00    -0.204 F 
HETATM   29  N7  UNL     1       7.239  -0.498  -1.260  1.00  0.00    -0.352 N 
ATOM     30  H7  UNL     1       6.617  -0.229  -2.022  1.00  0.00     0.166 HD
ENDBRANCH  15  18
ENDBRANCH  10  12
ENDBRANCH   7  10
BRANCH   1  31
HETATM   31  N3  UNL     1      -2.491   2.195   2.200  1.00  0.00    -0.191 N 
ATOM     32  H3  UNL     1      -2.832   2.913   2.839  1.00  0.00     0.184 HD
BRANCH  31  33
HETATM   33  C7  UNL     1      -3.442   1.441   1.474  1.00  0.00     0.049 A 
HETATM   34  C6  UNL     1      -3.800   0.178   1.874  1.00  0.00     0.032 A 
HETATM   35  C5  UNL     1      -4.726  -0.564   1.174  1.00  0.00     0.031 A 
HETATM   36  C4  UNL     1      -5.326  -0.034   0.026  1.00  0.00     0.030 A 
HETATM   37  C27 UNL     1      -4.968   1.226  -0.370  1.00  0.00     0.031 A 
HETATM   38  C26 UNL     1      -4.020   1.969   0.357  1.00  0.00     0.032 A 
BRANCH  36  39
HETATM   39  N2  UNL     1      -6.284  -0.766  -0.707  1.00  0.00    -0.378 N 
HETATM   40  C3  UNL     1      -6.823  -0.401  -1.997  1.00  0.00     0.153 C 
HETATM   41  C2  UNL     1      -8.218   0.143  -1.730  1.00  0.00     0.291 C 
HETATM   42  N1  UNL     1      -8.872  -0.782  -0.825  1.00  0.00     0.087 N 
HETATM   43  C1  UNL     1      -9.099  -0.179   0.452  1.00  0.00     0.310 C 
HETATM   44  C29 UNL     1      -8.252  -2.079  -0.767  1.00  0.00     0.291 C 
HETATM   45  C28 UNL     1      -6.845  -2.028  -0.169  1.00  0.00     0.153 C 
ENDBRANCH  36  39
ENDBRANCH  31  33
ENDBRANCH   1  31
TORSDOF 6
