REMARK  5 active torsions:
REMARK  status: ('A' for Active; 'I' for Inactive)
REMARK    1  A    between atoms: C5_6  and  C6_7 
REMARK    2  A    between atoms: C6_7  and  O1_8 
REMARK    3  A    between atoms: C6_7  and  C7_10 
REMARK    4  A    between atoms: C6_7  and  C13_17 
REMARK    5  A    between atoms: C18_24  and  N3_25 
ROOT
HETATM    1  C6  UNL     1      -0.554   2.050   0.585  1.00  0.00     0.140 C 
ENDROOT
BRANCH   1   2
HETATM    2  C5  UNL     1      -1.362   0.903   0.108  1.00  0.00    -0.014 A 
HETATM    3  C4  UNL     1      -1.424   0.564  -1.226  1.00  0.00     0.013 A 
HETATM    4  C3  UNL     1      -2.182  -0.525  -1.653  1.00  0.00     0.031 A 
HETATM    5  C2  UNL     1      -2.892  -1.297  -0.758  1.00  0.00     0.045 A 
HETATM    6  N1  UNL     1      -3.673  -2.380  -0.948  1.00  0.00    -0.349 N 
HETATM    7  C26 UNL     1      -2.831  -0.960   0.580  1.00  0.00     0.004 A 
HETATM    8  C1  UNL     1      -3.987  -3.039  -2.200  1.00  0.00     0.156 C 
HETATM    9  C31 UNL     1      -4.117  -2.742   0.268  1.00  0.00     0.061 A 
HETATM   10  C27 UNL     1      -3.617  -1.889   1.225  1.00  0.00     0.006 A 
HETATM   11  C30 UNL     1      -4.950  -3.791   0.648  1.00  0.00     0.118 A 
HETATM   12  C28 UNL     1      -3.960  -2.103   2.538  1.00  0.00     0.031 A 
HETATM   13  C29 UNL     1      -4.797  -3.163   2.886  1.00  0.00     0.088 A 
HETATM   14  N5  UNL     1      -5.276  -3.987   1.933  1.00  0.00    -0.373 N 
ATOM     15  H5  UNL     1      -5.888  -4.761   2.190  1.00  0.00     0.164 HD
HETATM   16  C25 UNL     1      -2.076   0.126   1.000  1.00  0.00     0.025 A 
ENDBRANCH   1   2
BRANCH   1  17
HETATM   17  O1  UNL     1      -0.298   1.857   1.973  1.00  0.00    -0.376 OA
ATOM     18  H1  UNL     1       0.220   2.592   2.279  1.00  0.00     0.211 HD
ENDBRANCH   1  17
BRANCH   1  19
HETATM   19  C7  UNL     1      -1.210   3.360   0.445  1.00  0.00    -0.015 A 
HETATM   20  C8  UNL     1      -1.186   4.277   1.511  1.00  0.00     0.014 A 
HETATM   21  C9  UNL     1      -1.798   5.505   1.421  1.00  0.00     0.043 A 
HETATM   22  C10 UNL     1      -2.461   5.891   0.281  1.00  0.00     0.116 A 
HETATM   23  F1  UNL     1      -3.073   7.089   0.159  1.00  0.00    -0.206 F 
HETATM   24  C11 UNL     1      -2.505   5.022  -0.780  1.00  0.00     0.043 A 
HETATM   25  C12 UNL     1      -1.886   3.799  -0.668  1.00  0.00     0.014 A 
ENDBRANCH   1  19
BRANCH   1  26
HETATM   26  C13 UNL     1       0.789   2.071  -0.041  1.00  0.00    -0.011 A 
HETATM   27  C14 UNL     1       1.283   3.183  -0.634  1.00  0.00     0.028 A 
HETATM   28  C15 UNL     1       2.526   3.184  -1.216  1.00  0.00     0.097 A 
HETATM   29  N2  UNL     1       3.267   2.043  -1.190  1.00  0.00    -0.328 N 
HETATM   30  C16 UNL     1       4.492   1.743  -1.666  1.00  0.00     0.141 A 
HETATM   31  C23 UNL     1       2.808   0.924  -0.610  1.00  0.00     0.069 A 
HETATM   32  C17 UNL     1       4.789   0.435  -1.379  1.00  0.00     0.161 A 
HETATM   33  F2  UNL     1       5.961  -0.200  -1.721  1.00  0.00    -0.202 F 
HETATM   34  C18 UNL     1       3.727  -0.111  -0.703  1.00  0.00     0.098 A 
HETATM   35  C24 UNL     1       1.555   0.922  -0.023  1.00  0.00     0.043 A 
BRANCH  34  36
HETATM   36  N3  UNL     1       3.577  -1.430  -0.203  1.00  0.00    -0.373 N 
HETATM   37  C19 UNL     1       4.038  -1.699   1.166  1.00  0.00     0.150 C 
HETATM   38  C20 UNL     1       4.909  -2.924   1.233  1.00  0.00     0.252 C 
HETATM   39  N4  UNL     1       4.823  -3.739   0.054  1.00  0.00    -0.072 N 
HETATM   40  C21 UNL     1       3.497  -3.854  -0.483  1.00  0.00     0.252 C 
ATOM     41  H42 UNL     1       5.470  -3.405  -0.660  1.00  0.00     0.277 HD
ATOM     42  H41 UNL     1       5.220  -4.662   0.228  1.00  0.00     0.277 HD
HETATM   43  C22 UNL     1       2.997  -2.514  -0.959  1.00  0.00     0.150 C 
ENDBRANCH  34  36
ENDBRANCH   1  26
TORSDOF 5
