REMARK  5 active torsions:
REMARK  status: ('A' for Active; 'I' for Inactive)
REMARK    1  A    between atoms: N1_2  and  C2_4 
REMARK    2  A    between atoms: C3_7  and  N3_8 
REMARK    3  A    between atoms: N3_8  and  C4_10 
REMARK    4  A    between atoms: C8_19  and  N7_20 
REMARK    5  A    between atoms: N7_20  and  C9_22 
ROOT
HETATM    1  C2  UNL     1       1.946  -2.217  -0.879  1.00  0.00     0.706 A 
HETATM    2  N2  UNL     1       2.401  -1.113  -0.218  1.00  0.00    -0.021 N 
ATOM      3  H2  UNL     1       3.381  -1.053   0.059  1.00  0.00     0.203 HD
HETATM    4  C3  UNL     1       1.559  -0.105   0.069  1.00  0.00     0.713 A 
HETATM    5  N6  UNL     1       0.278  -0.224  -0.313  1.00  0.00    -0.021 N 
ATOM      6  H6  UNL     1      -0.366   0.538  -0.098  1.00  0.00     0.203 HD
HETATM    7  C8  UNL     1      -0.198  -1.299  -0.966  1.00  0.00     0.711 A 
HETATM    8  N8  UNL     1       0.658  -2.294  -1.242  1.00  0.00    -0.021 N 
ATOM      9  H8  UNL     1       0.324  -3.122  -1.736  1.00  0.00     0.203 HD
ENDROOT
BRANCH   7  10
HETATM   10  N7  UNL     1      -1.445  -1.345  -1.303  1.00  0.00    -0.190 N 
ATOM     11  H7  UNL     1      -1.783  -2.171  -1.797  1.00  0.00     0.184 HD
BRANCH  10  12
HETATM   12  C9  UNL     1      -2.362  -0.312  -1.023  1.00  0.00     0.056 A 
HETATM   13  C10 UNL     1      -2.394   0.808  -1.826  1.00  0.00     0.031 A 
HETATM   14  C11 UNL     1      -3.274   1.842  -1.588  1.00  0.00     0.014 A 
HETATM   15  C12 UNL     1      -4.156   1.762  -0.514  1.00  0.00    -0.025 A 
HETATM   16  C13 UNL     1      -5.050   2.767  -0.239  1.00  0.00     0.012 A 
HETATM   17  C17 UNL     1      -4.148   0.652   0.309  1.00  0.00    -0.018 A 
HETATM   18  C14 UNL     1      -5.944   2.716   0.827  1.00  0.00     0.001 A 
HETATM   19  C15 UNL     1      -5.929   1.598   1.649  1.00  0.00     0.001 A 
HETATM   20  C16 UNL     1      -5.029   0.592   1.367  1.00  0.00     0.013 A 
HETATM   21  C18 UNL     1      -3.248  -0.363   0.034  1.00  0.00    -0.024 A 
HETATM   22  C19 UNL     1      -3.236  -1.544   0.905  1.00  0.00     0.051 C 
ENDBRANCH  10  12
ENDBRANCH   7  10
BRANCH   4  23
HETATM   23  N3  UNL     1       1.979   0.937   0.692  1.00  0.00    -0.174 N 
ATOM     24  H3  UNL     1       1.335   1.698   0.908  1.00  0.00     0.186 HD
BRANCH  23  25
HETATM   25  C4  UNL     1       3.344   1.026   1.080  1.00  0.00     0.137 A 
HETATM   26  C5  UNL     1       4.354   1.465   0.236  1.00  0.00     0.140 A 
HETATM   27  N4  UNL     1       5.480   1.414   0.934  1.00  0.00    -0.354 N 
HETATM   28  C6  UNL     1       6.813   1.773   0.488  1.00  0.00     0.156 C 
HETATM   29  C7  UNL     1       5.212   0.965   2.162  1.00  0.00     0.183 A 
HETATM   30  N5  UNL     1       3.909   0.728   2.252  1.00  0.00    -0.337 N 
ATOM     31  H5  UNL     1       3.422   0.378   3.077  1.00  0.00     0.168 HD
ENDBRANCH  23  25
ENDBRANCH   4  23
BRANCH   1  32
HETATM   32  N1  UNL     1       2.809  -3.156  -1.126  1.00  0.00    -0.229 N 
HETATM   33  C1  UNL     1       2.320  -4.326  -1.830  1.00  0.00     0.165 C 
ATOM     34  H1  UNL     1       3.784  -3.074  -0.838  1.00  0.00     0.177 HD
ENDBRANCH   1  32
TORSDOF 5
