REMARK  4 active torsions:
REMARK  status: ('A' for Active; 'I' for Inactive)
REMARK    1  A    between atoms: C6_10  and  N2_11 
REMARK    2  A    between atoms: N2_11  and  S2_13 
REMARK    3  A    between atoms: S2_13  and  C7_16 
REMARK    4  A    between atoms: C9_18  and  C10_19 
ROOT
HETATM    1  C1  UNL     1      -5.318   1.690   0.761  1.00  0.00     0.057 C 
HETATM    2  C2  UNL     1      -4.391   0.702   0.120  1.00  0.00    -0.012 A 
HETATM    3  S1  UNL     1      -4.731  -0.326  -1.185  1.00  0.00    -0.076 SA
HETATM    4  C3  UNL     1      -3.207  -1.115  -1.312  1.00  0.00     0.087 A 
HETATM    5  N1  UNL     1      -2.719  -2.087  -2.151  1.00  0.00    -0.358 N 
ATOM      6  H1  UNL     1      -3.322  -2.474  -2.877  1.00  0.00     0.166 HD
HETATM    7  C4  UNL     1      -1.471  -2.530  -2.030  1.00  0.00     0.115 A 
HETATM    8  C5  UNL     1      -0.687  -1.985  -1.043  1.00  0.00     0.077 A 
HETATM    9 CL1  UNL     1       0.980  -2.605  -0.916  1.00  0.00    -0.080 Cl
HETATM   10  C6  UNL     1      -1.132  -1.008  -0.178  1.00  0.00     0.079 A 
HETATM   11  C12 UNL     1      -2.486  -0.537  -0.319  1.00  0.00     0.034 A 
HETATM   12  C13 UNL     1      -3.088   0.403   0.427  1.00  0.00    -0.034 A 
HETATM   13  C14 UNL     1      -2.432   1.154   1.580  1.00  0.00     0.050 C 
ENDROOT
BRANCH  10  14
HETATM   14  N2  UNL     1      -0.404  -0.553   0.685  1.00  0.00    -0.277 N 
ATOM     15  H2  UNL     1      -1.001   0.130   1.151  1.00  0.00     0.179 HD
BRANCH  14  16
HETATM   16  S2  UNL     1       0.990  -0.433   1.502  1.00  0.00     0.269 S 
HETATM   17  O1  UNL     1       0.863   0.328   2.843  1.00  0.00    -0.200 OA
HETATM   18  O2  UNL     1       1.623  -1.763   1.907  1.00  0.00    -0.200 OA
BRANCH  16  19
HETATM   19  C7  UNL     1       2.250   0.492   0.665  1.00  0.00     0.121 A 
HETATM   20  C8  UNL     1       3.487   0.044   0.328  1.00  0.00     0.050 A 
HETATM   21  C9  UNL     1       4.314   0.916  -0.301  1.00  0.00     0.037 A 
HETATM   22  C11 UNL     1       3.808   2.175  -0.535  1.00  0.00     0.067 A 
HETATM   23  S3  UNL     1       2.238   2.098   0.115  1.00  0.00    -0.087 SA
BRANCH  21  24
HETATM   24  C10 UNL     1       5.694   0.591  -0.736  1.00  0.00     0.265 C 
HETATM   25  N3  UNL     1       6.210  -0.695  -0.496  1.00  0.00    -0.057 NA
HETATM   26  O3  UNL     1       6.426   1.420  -1.314  1.00  0.00    -0.271 OA
ENDBRANCH  21  24
ENDBRANCH  16  19
ENDBRANCH  14  16
ENDBRANCH  10  14
TORSDOF 4
