REMARK  6 active torsions:
REMARK  status: ('A' for Active; 'I' for Inactive)
REMARK    1  A    between atoms: N1_1  and  C1_5 
REMARK    2  A    between atoms: C1_5  and  C2_6 
REMARK    3  A    between atoms: C1_5  and  C12_23 
REMARK    4  A    between atoms: C2_6  and  O2_8 
REMARK    5  A    between atoms: O2_8  and  C3_9 
REMARK    6  A    between atoms: C4_11  and  C5_12 
ROOT
HETATM    1  C3  UNL     1       0.390   0.144   0.531  1.00  0.00     0.138 A 
HETATM    2  S1  UNL     1       1.618   0.122   1.717  1.00  0.00    -0.064 SA
HETATM    3  C4  UNL     1       2.981   0.326   0.708  1.00  0.00     0.009 A 
HETATM    4  C10 UNL     1       2.428   0.405  -0.539  1.00  0.00     0.041 A 
HETATM    5  C11 UNL     1       1.091   0.311  -0.630  1.00  0.00     0.053 A 
HETATM    6 BR1  UNL     1       0.132   0.403  -2.319  1.00  0.00    -0.048 Br
ENDROOT
BRANCH   1   7
HETATM    7  O2  UNL     1      -1.012   0.021   0.689  1.00  0.00    -0.268 OA
BRANCH   7   8
HETATM    8  C2  UNL     1      -1.793   1.142   0.888  1.00  0.00     0.295 C 
HETATM    9  O1  UNL     1      -1.148   2.255   0.915  1.00  0.00    -0.262 OA
BRANCH   8  10
HETATM   10  C1  UNL     1      -3.258   1.147   1.064  1.00  0.00     0.286 C 
BRANCH  10  11
HETATM   11  N1  UNL     1      -3.747   2.511   1.317  1.00  0.00    -0.066 N 
ATOM     12  H13 UNL     1      -3.270   2.943   2.108  1.00  0.00     0.275 HD
ATOM     13  H12 UNL     1      -3.452   3.160   0.587  1.00  0.00     0.275 HD
ATOM     14  H11 UNL     1      -4.760   2.514   1.439  1.00  0.00     0.275 HD
ENDBRANCH  10  11
BRANCH  10  15
HETATM   15  C12 UNL     1      -4.011   0.616  -0.125  1.00  0.00     0.026 C 
HETATM   16  C13 UNL     1      -5.481   0.608   0.195  1.00  0.00     0.007 C 
HETATM   17  C14 UNL     1      -6.047  -0.490  -0.683  1.00  0.00     0.000 C 
HETATM   18  C15 UNL     1      -4.903  -1.434  -0.957  1.00  0.00     0.000 C 
HETATM   19  C16 UNL     1      -3.686  -0.857  -0.265  1.00  0.00     0.007 C 
ENDBRANCH  10  15
ENDBRANCH   8  10
ENDBRANCH   7   8
ENDBRANCH   1   7
BRANCH   3  20
HETATM   20  C5  UNL     1       4.386   0.413   1.119  1.00  0.00     0.031 C 
HETATM   21  C6  UNL     1       5.332  -0.186   0.472  1.00  0.00     0.012 C 
HETATM   22  C7  UNL     1       5.191  -1.023  -0.731  1.00  0.00     0.064 C 
HETATM   23  C9  UNL     1       6.765  -0.133   0.842  1.00  0.00     0.247 C 
HETATM   24  C8  UNL     1       6.450  -1.879  -0.658  1.00  0.00     0.128 C 
HETATM   25  N2  UNL     1       7.442  -1.002  -0.054  1.00  0.00    -0.357 N 
ATOM     26  H2  UNL     1       8.445  -1.010  -0.241  1.00  0.00     0.162 HD
HETATM   27  O3  UNL     1       7.245   0.561   1.775  1.00  0.00    -0.268 OA
ENDBRANCH   3  20
TORSDOF 6
