REMARK  5 active torsions:
REMARK  status: ('A' for Active; 'I' for Inactive)
REMARK    1  A    between atoms: C5_7  and  N3_8 
REMARK    2  A    between atoms: N3_8  and  C6_10 
REMARK    3  A    between atoms: C12_20  and  N6_21 
REMARK    4  A    between atoms: N6_21  and  C13_23 
REMARK    5  A    between atoms: C13_23  and  C14_24 
ROOT
HETATM    1  N1  UNL     1       2.646  -2.696  -1.802  1.00  0.00    -0.191 NA
HETATM    2  C1  UNL     1       1.870  -2.080  -1.212  1.00  0.00     0.105 C 
HETATM    3  C2  UNL     1       0.886  -1.320  -0.507  1.00  0.00     0.114 A 
HETATM    4  C3  UNL     1      -0.352  -1.184  -1.158  1.00  0.00     0.114 A 
HETATM    5  C4  UNL     1      -0.603  -1.771  -2.441  1.00  0.00     0.105 C 
HETATM    6  N2  UNL     1      -0.811  -2.260  -3.478  1.00  0.00    -0.191 NA
HETATM    7  C5  UNL     1      -1.306  -0.451  -0.485  1.00  0.00     0.143 A 
HETATM    8  N4  UNL     1      -1.053   0.095   0.723  1.00  0.00    -0.283 N 
ATOM      9  H4  UNL     1      -1.782   0.631   1.194  1.00  0.00     0.188 HD
HETATM   10  N5  UNL     1       0.115  -0.053   1.300  1.00  0.00    -0.283 N 
ATOM     11  H5  UNL     1       0.268   0.376   2.213  1.00  0.00     0.188 HD
HETATM   12  C12 UNL     1       1.146  -0.766   0.721  1.00  0.00     0.142 A 
ENDROOT
BRANCH  12  13
HETATM   13  N6  UNL     1       2.196  -0.833   1.366  1.00  0.00    -0.349 N 
ATOM     14  H6  UNL     1       2.088  -0.323   2.243  1.00  0.00     0.167 HD
BRANCH  13  15
HETATM   15  C13 UNL     1       3.467  -1.366   1.300  1.00  0.00     0.103 C 
BRANCH  15  16
HETATM   16  C14 UNL     1       4.407  -0.416   0.586  1.00  0.00     0.005 A 
HETATM   17  C15 UNL     1       5.742  -0.611   0.300  1.00  0.00     0.156 A 
HETATM   18  O1  UNL     1       6.216   0.449  -0.333  1.00  0.00    -0.314 OA
HETATM   19  C16 UNL     1       5.256   1.346  -0.482  1.00  0.00     0.122 A 
HETATM   20 BR1  UNL     1       5.448   3.059  -1.341  1.00  0.00    -0.023 Br
HETATM   21  C17 UNL     1       4.105   0.833   0.085  1.00  0.00     0.059 A 
ENDBRANCH  15  16
ENDBRANCH  13  15
ENDBRANCH  12  13
BRANCH   7  22
HETATM   22  N3  UNL     1      -2.446  -0.304  -1.043  1.00  0.00    -0.340 N 
ATOM     23  H3  UNL     1      -2.589  -0.736  -1.956  1.00  0.00     0.167 HD
BRANCH  22  24
HETATM   24  C6  UNL     1      -3.527   0.422  -0.476  1.00  0.00     0.033 A 
HETATM   25  C7  UNL     1      -4.561  -0.278   0.107  1.00  0.00     0.029 A 
HETATM   26  C8  UNL     1      -5.622   0.404   0.665  1.00  0.00     0.002 A 
HETATM   27  C9  UNL     1      -5.648   1.770   0.639  1.00  0.00     0.000 A 
HETATM   28  C10 UNL     1      -4.613   2.478   0.055  1.00  0.00     0.002 A 
HETATM   29  C11 UNL     1      -3.555   1.799  -0.501  1.00  0.00     0.029 A 
ENDBRANCH  22  24
ENDBRANCH   7  22
TORSDOF 5
