REMARK  6 active torsions:
REMARK  status: ('A' for Active; 'I' for Inactive)
REMARK    1  A    between atoms: O1_2  and  N1_3 
REMARK    2  A    between atoms: N1_3  and  C2_5 
REMARK    3  A    between atoms: C3_8  and  N3_9 
REMARK    4  A    between atoms: N3_9  and  N4_11 
REMARK    5  A    between atoms: C4_16  and  N6_17 
REMARK    6  A    between atoms: N6_17  and  C5_19 
ROOT
HETATM    1  C2  UNL     1       2.589  -0.241  -0.304  1.00  0.00     0.731 A 
HETATM    2  N2  UNL     1       2.473   0.964  -0.892  1.00  0.00    -0.018 N 
ATOM      3  H2  UNL     1       3.308   1.431  -1.246  1.00  0.00     0.203 HD
HETATM    4  C3  UNL     1       1.262   1.570  -1.022  1.00  0.00     0.725 A 
HETATM    5  N5  UNL     1       0.155   0.970  -0.562  1.00  0.00    -0.020 N 
ATOM      6  H5  UNL     1      -0.756   1.420  -0.657  1.00  0.00     0.203 HD
HETATM    7  C4  UNL     1       0.263  -0.225   0.022  1.00  0.00     0.712 A 
HETATM    8  N9  UNL     1       1.460  -0.812   0.145  1.00  0.00    -0.019 N 
ATOM      9  H9  UNL     1       1.516  -1.725   0.596  1.00  0.00     0.203 HD
ENDROOT
BRANCH   7  10
HETATM   10  N6  UNL     1      -0.805  -0.839   0.483  1.00  0.00    -0.178 N 
ATOM     11  H6  UNL     1      -0.713  -1.752   0.927  1.00  0.00     0.185 HD
BRANCH  10  12
HETATM   12  C5  UNL     1      -2.069  -0.243   0.366  1.00  0.00     0.123 C 
HETATM   13  N7  UNL     1      -2.530   0.662   1.161  1.00  0.00    -0.353 N 
HETATM   14  C6  UNL     1      -3.862   1.033   0.725  1.00  0.00     0.396 C 
ATOM     15  H7  UNL     1      -2.038   1.053   1.965  1.00  0.00     0.162 HD
HETATM   16  N8  UNL     1      -4.315  -0.169   0.064  1.00  0.00     0.108 N 
HETATM   17  C7  UNL     1      -4.448  -1.188   1.116  1.00  0.00     0.312 C 
HETATM   18  C8  UNL     1      -3.103  -0.540  -0.684  1.00  0.00     0.350 C 
ENDBRANCH  10  12
ENDBRANCH   7  10
BRANCH   4  19
HETATM   19  N3  UNL     1       1.165   2.710  -1.580  1.00  0.00    -0.138 N 
ATOM     20  H3  UNL     1       0.235   3.122  -1.653  1.00  0.00     0.205 HD
BRANCH  19  21
HETATM   21  N4  UNL     1       2.229   3.433  -2.096  1.00  0.00    -0.331 N 
ATOM     22  H42 UNL     1       3.151   3.005  -2.014  1.00  0.00     0.177 HD
ATOM     23  H41 UNL     1       2.151   4.346  -2.543  1.00  0.00     0.177 HD
ENDBRANCH  19  21
ENDBRANCH   4  19
BRANCH   1  24
HETATM   24  N1  UNL     1       3.754  -0.820  -0.180  1.00  0.00    -0.096 N 
ATOM     25  H1  UNL     1       4.592  -0.357  -0.532  1.00  0.00     0.213 HD
BRANCH  24  26
HETATM   26  O1  UNL     1       3.851  -2.029   0.413  1.00  0.00    -0.271 OA
HETATM   27  C1  UNL     1       4.876  -2.463   1.250  1.00  0.00     0.238 C 
ENDBRANCH  24  26
ENDBRANCH   1  24
TORSDOF 6
