REMARK  6 active torsions:
REMARK  status: ('A' for Active; 'I' for Inactive)
REMARK    1  A    between atoms: O1_2  and  C2_3 
REMARK    2  A    between atoms: C2_3  and  N2_7 
REMARK    3  A    between atoms: C5_15  and  C6_17 
REMARK    4  A    between atoms: C6_17  and  O4_18 
REMARK    5  A    between atoms: C6_17  and  C7_20 
REMARK    6  A    between atoms: C7_20  and  N5_22 
ROOT
HETATM    1  N2  UNL     1       1.279   0.482  -0.418  1.00  0.00    -0.200 N 
HETATM    2  C3  UNL     1       1.581   1.583  -1.258  1.00  0.00     0.337 C 
HETATM    3  O2  UNL     1       2.504   1.495  -2.140  1.00  0.00    -0.246 OA
HETATM    4  N3  UNL     1       0.850   2.768  -1.108  1.00  0.00    -0.276 N 
ATOM      5  H3  UNL     1       1.061   3.564  -1.710  1.00  0.00     0.173 HD
HETATM    6  C4  UNL     1      -0.070   2.873  -0.238  1.00  0.00     0.239 C 
HETATM    7  N4  UNL     1      -0.811   4.078  -0.086  1.00  0.00    -0.056 NA
HETATM    8  O3  UNL     1      -0.392   1.817   0.601  1.00  0.00    -0.260 OA
HETATM    9  C5  UNL     1       0.121   0.518   0.443  1.00  0.00     0.334 C 
HETATM   10  F1  UNL     1       0.511   0.072   1.689  1.00  0.00    -0.183 F 
ENDROOT
BRANCH   9  11
HETATM   11  C6  UNL     1      -0.950  -0.363  -0.159  1.00  0.00     0.239 C 
BRANCH  11  12
HETATM   12  O4  UNL     1      -0.526  -1.681  -0.284  1.00  0.00    -0.386 OA
ATOM     13  H4  UNL     1      -1.199  -2.235  -0.662  1.00  0.00     0.210 HD
ENDBRANCH  11  12
BRANCH  11  14
HETATM   14  C7  UNL     1      -2.253  -0.263   0.601  1.00  0.00     0.215 C 
HETATM   15  C8  UNL     1      -3.262  -1.131  -0.161  1.00  0.00     0.043 C 
BRANCH  14  16
HETATM   16  N5  UNL     1      -2.179  -0.786   1.932  1.00  0.00    -0.073 N 
ATOM     17  H53 UNL     1      -1.839  -1.747   1.924  1.00  0.00     0.274 HD
ATOM     18  H52 UNL     1      -1.422  -0.343   2.453  1.00  0.00     0.274 HD
ATOM     19  H51 UNL     1      -3.058  -0.719   2.445  1.00  0.00     0.274 HD
ENDBRANCH  14  16
ENDBRANCH  11  14
ENDBRANCH   9  11
BRANCH   1  20
HETATM   20  C2  UNL     1       2.140  -0.641  -0.448  1.00  0.00     0.227 C 
HETATM   21  N1  UNL     1       2.329  -1.304  -1.537  1.00  0.00    -0.365 N 
ATOM     22  H12 UNL     1       2.949  -2.113  -1.559  1.00  0.00     0.159 HD
ATOM     23  H11 UNL     1       1.840  -0.996  -2.377  1.00  0.00     0.159 HD
BRANCH  20  24
HETATM   24  O1  UNL     1       2.796  -1.054   0.679  1.00  0.00    -0.327 OA
HETATM   25  C1  UNL     1       3.887  -1.958   0.672  1.00  0.00     0.213 C 
ENDBRANCH  20  24
ENDBRANCH   1  20
TORSDOF 6
