REMARK  0 active torsions:
REMARK  status: ('A' for Active; 'I' for Inactive)
REMARK       I    between atoms: C2_2  and  N1_4 
REMARK       I    between atoms: N1_4  and  C3_6 
REMARK       I    between atoms: C3_6  and  N2_8 
REMARK       I    between atoms: N3_11  and  C6_12 
ROOT
HETATM    1  C1  UNL     1       5.225   0.657   0.142  1.00  0.00     0.117 C 
HETATM    2  C2  UNL     1       4.155  -0.366   0.112  1.00  0.00     0.221 C 
HETATM    3  O1  UNL     1       4.466  -1.565   0.216  1.00  0.00    -0.274 OA
HETATM    4  N1  UNL     1       2.818   0.062  -0.034  1.00  0.00    -0.280 N 
ATOM      5  H1  UNL     1       2.595   1.054  -0.117  1.00  0.00     0.173 HD
HETATM    6  C3  UNL     1       1.787  -0.918  -0.063  1.00  0.00     0.325 C 
HETATM    7  O2  UNL     1       2.095  -2.131   0.041  1.00  0.00    -0.247 OA
HETATM    8  N2  UNL     1       0.416  -0.522  -0.210  1.00  0.00    -0.331 N 
HETATM    9  C4  UNL     1       0.039   0.851  -0.330  1.00  0.00     0.147 C 
HETATM   10  C5  UNL     1      -1.384   0.897  -0.889  1.00  0.00     0.145 C 
HETATM   11  N3  UNL     1      -2.261   0.168   0.001  1.00  0.00    -0.353 N 
HETATM   12  C6  UNL     1      -3.531   0.681   0.352  1.00  0.00     0.184 C 
HETATM   13  N4  UNL     1      -3.658   1.917   0.626  1.00  0.00    -0.374 N 
ATOM     14  H41 UNL     1      -4.574   2.287   0.879  1.00  0.00     0.158 HD
ATOM     15  H42 UNL     1      -2.846   2.534   0.591  1.00  0.00     0.158 HD
HETATM   16  N5  UNL     1      -4.652  -0.171   0.400  1.00  0.00    -0.064 NA
HETATM   17  C7  UNL     1      -1.778  -1.116   0.518  1.00  0.00     0.145 C 
HETATM   18  C8  UNL     1      -0.575  -1.578  -0.231  1.00  0.00     0.147 C 
ENDROOT
TORSDOF 0
