REMARK  2 active torsions:
REMARK  status: ('A' for Active; 'I' for Inactive)
REMARK    1  A    between atoms: C5_11  and  C6_12 
REMARK    2  A    between atoms: N3_13  and  N4_15 
ROOT
HETATM    1  C6  UNL     1      -0.913  -0.316   0.788  1.00  0.00     0.126 C 
HETATM    2  N3  UNL     1       0.139   0.392   0.998  1.00  0.00    -0.309 N 
ATOM      3  H3  UNL     1       0.086   1.389   0.790  1.00  0.00     0.186 HD
ENDROOT
BRANCH   1   4
HETATM    4  C5  UNL     1      -2.156   0.231   0.275  1.00  0.00     0.071 A 
HETATM    5  C2  UNL     1      -3.260  -0.562   0.065  1.00  0.00     0.027 A 
HETATM    6  C1  UNL     1      -3.202  -2.009   0.361  1.00  0.00     0.069 C 
HETATM    7  N1  UNL     1      -4.408  -0.027  -0.416  1.00  0.00    -0.312 N 
HETATM    8  C3  UNL     1      -4.514   1.281  -0.702  1.00  0.00     0.327 A 
ATOM      9  H1  UNL     1      -5.214  -0.634  -0.565  1.00  0.00     0.170 HD
HETATM   10  O1  UNL     1      -5.586   1.777  -1.149  1.00  0.00    -0.247 OA
HETATM   11  N2  UNL     1      -3.456   2.089  -0.509  1.00  0.00    -0.275 N 
HETATM   12  C4  UNL     1      -2.298   1.578  -0.031  1.00  0.00     0.263 A 
ATOM     13  H2  UNL     1      -3.527   3.084  -0.722  1.00  0.00     0.173 HD
HETATM   14  O2  UNL     1      -1.353   2.371   0.127  1.00  0.00    -0.267 OA
ENDBRANCH   1   4
BRANCH   2  15
HETATM   15  N4  UNL     1       1.330  -0.095   1.482  1.00  0.00    -0.276 N 
HETATM   16  C7  UNL     1       2.442  -0.098   0.846  1.00  0.00     0.227 C 
HETATM   17  O3  UNL     1       3.584  -0.609   1.418  1.00  0.00    -0.329 OA
HETATM   18  C10 UNL     1       2.485   0.446  -0.496  1.00  0.00     0.294 C 
HETATM   19  C8  UNL     1       4.804  -0.778   0.730  1.00  0.00     0.197 C 
HETATM   20  C9  UNL     1       4.970   0.126  -0.438  1.00  0.00     0.149 C 
HETATM   21  N5  UNL     1       3.764   0.412  -1.156  1.00  0.00    -0.352 N 
ATOM     22  H5  UNL     1       3.813   0.596  -2.158  1.00  0.00     0.162 HD
HETATM   23  O4  UNL     1       1.478   0.933  -1.088  1.00  0.00    -0.264 OA
ATOM     24  H4  UNL     1       1.328  -0.486   2.424  1.00  0.00     0.189 HD
ENDBRANCH   2  15
TORSDOF 2
