REMARK  2 active torsions:
REMARK  status: ('A' for Active; 'I' for Inactive)
REMARK    1  A    between atoms: C1_2  and  C2_3 
REMARK    2  A    between atoms: C2_3  and  N1_4 
ROOT
HETATM    1  N1  UNL     1       2.577  -0.260  -0.110  1.00  0.00     0.121 N 
HETATM    2  C3  UNL     1       1.806  -1.129   0.809  1.00  0.00     0.302 C 
HETATM    3  C4  UNL     1       0.845  -1.925  -0.052  1.00  0.00     0.262 C 
HETATM    4  N2  UNL     1       0.154  -2.882   0.740  1.00  0.00    -0.071 N 
ATOM      5  H21 UNL     1      -0.040  -2.501   1.666  1.00  0.00     0.277 HD
ATOM      6  H22 UNL     1       0.777  -3.649   0.992  1.00  0.00     0.277 HD
HETATM    7  C5  UNL     1      -1.050  -3.392   0.150  1.00  0.00     0.258 C 
HETATM    8  C6  UNL     1      -1.891  -2.348  -0.525  1.00  0.00     0.195 C 
HETATM    9  O2  UNL     1      -2.301  -1.433   0.422  1.00  0.00    -0.388 OA
HETATM   10  C7  UNL     1      -3.564  -0.900   0.156  1.00  0.00     0.195 C 
HETATM   11  C8  UNL     1      -3.503   0.597   0.172  1.00  0.00     0.258 C 
HETATM   12  N3  UNL     1      -2.132   1.017   0.237  1.00  0.00    -0.073 N 
ATOM     13  H31 UNL     1      -1.586   0.577  -0.504  1.00  0.00     0.277 HD
ATOM     14  H32 UNL     1      -1.671   0.613   1.053  1.00  0.00     0.277 HD
HETATM   15  C9  UNL     1      -1.958   2.445   0.213  1.00  0.00     0.234 C 
HETATM   16  C10 UNL     1      -0.721   2.726  -0.618  1.00  0.00     0.055 C 
HETATM   17  C11 UNL     1       0.490   2.717   0.256  1.00  0.00     0.236 C 
HETATM   18  N4  UNL     1       0.938   1.372   0.621  1.00  0.00    -0.049 N 
ATOM     19  H41 UNL     1       0.171   0.750   0.876  1.00  0.00     0.279 HD
ATOM     20  H42 UNL     1       1.432   1.343   1.513  1.00  0.00     0.279 HD
HETATM   21  C12 UNL     1       1.730   0.873  -0.482  1.00  0.00     0.503 C 
ENDROOT
BRANCH   1  22
HETATM   22  C2  UNL     1       3.756   0.209   0.609  1.00  0.00     0.343 C 
BRANCH  22  23
HETATM   23  C1  UNL     1       4.757   0.774  -0.335  1.00  0.00     0.261 C 
HETATM   24  O1  UNL     1       5.766   1.276   0.077  1.00  0.00    -0.305 OA
ENDBRANCH  22  23
ENDBRANCH   1  22
TORSDOF 2
