REMARK  5 active torsions:
REMARK  status: ('A' for Active; 'I' for Inactive)
REMARK       I    between atoms: C2_2  and  N1_4 
REMARK    1  A    between atoms: N1_4  and  S1_6 
REMARK    2  A    between atoms: S1_6  and  C3_9 
REMARK    3  A    between atoms: C4_14  and  N4_15 
REMARK    4  A    between atoms: N4_15  and  N5_17 
REMARK    5  A    between atoms: N6_22  and  N7_23 
ROOT
HETATM    1  C3  UNL     1      -0.220  -0.002   1.094  1.00  0.00     0.263 A 
HETATM    2  N2  UNL     1      -0.864   1.053   0.505  1.00  0.00    -0.271 N 
ATOM      3  H2  UNL     1      -0.392   1.957   0.483  1.00  0.00     0.189 HD
HETATM    4  N3  UNL     1      -2.057   0.961  -0.032  1.00  0.00    -0.278 N 
ATOM      5  H3  UNL     1      -2.501   1.773  -0.462  1.00  0.00     0.189 HD
HETATM    6  C4  UNL     1      -2.682  -0.233  -0.002  1.00  0.00     0.205 A 
HETATM    7  C5  UNL     1      -2.039  -1.301   0.590  1.00  0.00     0.315 A 
HETATM    8  O4  UNL     1      -2.612  -2.427   0.625  1.00  0.00    -0.262 OA
HETATM    9  N6  UNL     1      -0.826  -1.173   1.127  1.00  0.00    -0.194 N 
ENDROOT
BRANCH   1  10
HETATM   10  S1  UNL     1       1.324   0.295   1.735  1.00  0.00     0.300 S 
HETATM   11  O2  UNL     1       1.364   1.738   2.231  1.00  0.00    -0.197 OA
HETATM   12  O3  UNL     1       1.508  -0.543   2.984  1.00  0.00    -0.197 OA
BRANCH  10  13
HETATM   13  N1  UNL     1       2.659   0.060   0.730  1.00  0.00    -0.248 N 
HETATM   14  C2  UNL     1       2.809   0.906  -0.384  1.00  0.00     0.227 C 
HETATM   15  C1  UNL     1       3.951   0.764  -1.317  1.00  0.00     0.118 C 
HETATM   16  O1  UNL     1       1.967   1.798  -0.598  1.00  0.00    -0.273 OA
ATOM     17  H1  UNL     1       3.339  -0.675   0.925  1.00  0.00     0.182 HD
ENDBRANCH  10  13
ENDBRANCH   1  10
BRANCH   9  18
HETATM   18  N7  UNL     1      -0.171  -2.233   1.727  1.00  0.00    -0.333 N 
ATOM     19  H72 UNL     1       0.757  -2.135   2.138  1.00  0.00     0.177 HD
ATOM     20  H71 UNL     1      -0.640  -3.139   1.753  1.00  0.00     0.177 HD
ENDBRANCH   9  18
BRANCH   6  21
HETATM   21  N4  UNL     1      -3.849  -0.392  -0.507  1.00  0.00    -0.286 N 
ATOM     22  H4  UNL     1      -4.287  -1.312  -0.463  1.00  0.00     0.188 HD
BRANCH  21  23
HETATM   23  N5  UNL     1      -4.535   0.655  -1.113  1.00  0.00    -0.343 N 
ATOM     24  H52 UNL     1      -4.083   1.568  -1.148  1.00  0.00     0.176 HD
ATOM     25  H51 UNL     1      -5.464   0.528  -1.515  1.00  0.00     0.176 HD
ENDBRANCH  21  23
ENDBRANCH   6  21
TORSDOF 5
