REMARK  5 active torsions:
REMARK  status: ('A' for Active; 'I' for Inactive)
REMARK    1  A    between atoms: N1_2  and  O1_3 
REMARK    2  A    between atoms: N1_2  and  C2_5 
REMARK    3  A    between atoms: C3_8  and  C4_9 
REMARK    4  A    between atoms: N6_17  and  N7_19 
REMARK    5  A    between atoms: N7_19  and  O3_21 
ROOT
HETATM    1  C2  UNL     1       1.059  -0.648   0.044  1.00  0.00     0.182 C 
HETATM    2  N2  UNL     1      -0.220  -1.130   0.042  1.00  0.00    -0.331 N 
ATOM      3  H2  UNL     1      -0.317  -2.139   0.152  1.00  0.00     0.168 HD
HETATM    4  C3  UNL     1      -1.373  -0.434  -0.088  1.00  0.00     0.141 C 
HETATM    5  C5  UNL     1      -1.542   0.828  -0.610  1.00  0.00     0.150 C 
HETATM    6  N4  UNL     1      -2.842   1.055  -1.127  1.00  0.00    -0.080 NA
HETATM    7  N5  UNL     1      -0.653   1.861  -0.695  1.00  0.00    -0.324 N 
ATOM      8  H5  UNL     1      -1.031   2.780  -0.927  1.00  0.00     0.169 HD
HETATM    9  C6  UNL     1       0.676   1.777  -0.501  1.00  0.00     0.178 C 
HETATM   10  N6  UNL     1       1.329   2.890  -0.613  1.00  0.00    -0.262 N 
ATOM     11  H6  UNL     1       2.340   2.887  -0.476  1.00  0.00     0.190 HD
HETATM   12  C7  UNL     1       1.427   0.659  -0.199  1.00  0.00     0.262 C 
HETATM   13  O4  UNL     1       2.686   0.826  -0.124  1.00  0.00    -0.280 OA
ENDROOT
BRANCH  10  14
HETATM   14  N7  UNL     1       0.688   4.095  -0.916  1.00  0.00    -0.208 N 
ATOM     15  H7  UNL     1      -0.146   4.132  -1.503  1.00  0.00     0.215 HD
BRANCH  14  16
HETATM   16  O3  UNL     1       1.206   5.138  -0.417  1.00  0.00    -0.274 OA
ATOM     17  H3  UNL     1       0.770   5.957  -0.623  1.00  0.00     0.246 HD
ENDBRANCH  14  16
ENDBRANCH  10  14
BRANCH   1  18
HETATM   18  N1  UNL     1       2.105  -1.569   0.320  1.00  0.00    -0.245 N 
HETATM   19  C1  UNL     1       3.017  -1.430   1.436  1.00  0.00     0.187 C 
BRANCH  18  20
HETATM   20  O1  UNL     1       2.286  -2.649  -0.489  1.00  0.00    -0.286 OA
ATOM     21  H1  UNL     1       1.688  -2.740  -1.221  1.00  0.00     0.244 HD
ENDBRANCH  18  20
ENDBRANCH   1  18
BRANCH   4  22
HETATM   22  C4  UNL     1      -2.594  -1.082   0.374  1.00  0.00     0.284 C 
HETATM   23  N3  UNL     1      -2.630  -2.368   0.937  1.00  0.00    -0.056 NA
HETATM   24  O2  UNL     1      -3.702  -0.464   0.272  1.00  0.00    -0.269 OA
ENDBRANCH   4  22
TORSDOF 5
