REMARK  6 active torsions:
REMARK  status: ('A' for Active; 'I' for Inactive)
REMARK    1  A    between atoms: N1_1  and  C1_4 
REMARK    2  A    between atoms: C2_10  and  C3_11 
REMARK    3  A    between atoms: C3_11  and  C4_13 
REMARK    4  A    between atoms: C4_13  and  N4_14 
REMARK    5  A    between atoms: C6_19  and  N6_20 
REMARK    6  A    between atoms: N7_23  and  N8_24 
ROOT
HETATM    1  N4  UNL     1      -0.874   0.110  -0.498  1.00  0.00    -0.241 N 
HETATM    2  C5  UNL     1      -1.329   1.382  -0.544  1.00  0.00     0.345 A 
HETATM    3  O3  UNL     1      -0.577   2.284  -1.016  1.00  0.00    -0.246 OA
HETATM    4  N5  UNL     1      -2.558   1.705  -0.099  1.00  0.00    -0.139 N 
ATOM      5  H5  UNL     1      -2.889   2.669  -0.138  1.00  0.00     0.189 HD
HETATM    6  C6  UNL     1      -3.344   0.724   0.401  1.00  0.00     0.705 A 
HETATM    7  N7  UNL     1      -2.868  -0.533   0.435  1.00  0.00    -0.038 N 
HETATM    8  C7  UNL     1      -1.646  -0.874  -0.003  1.00  0.00     0.366 A 
HETATM    9  O4  UNL     1      -1.246  -2.066   0.049  1.00  0.00    -0.244 OA
ENDROOT
BRANCH   1  10
HETATM   10  C4  UNL     1       0.454  -0.152  -0.995  1.00  0.00     0.224 C 
BRANCH  10  11
HETATM   11  C3  UNL     1       1.436  -0.015   0.093  1.00  0.00     0.200 C 
HETATM   12  O2  UNL     1       1.104   0.287   1.255  1.00  0.00    -0.289 OA
BRANCH  11  13
HETATM   13  C2  UNL     1       2.845  -0.239  -0.200  1.00  0.00     0.149 A 
HETATM   14  C1  UNL     1       3.922  -0.166   0.651  1.00  0.00     0.153 A 
HETATM   15  N2  UNL     1       5.019  -0.450  -0.055  1.00  0.00    -0.224 N 
HETATM   16  O1  UNL     1       4.645  -0.685  -1.273  1.00  0.00    -0.155 OA
ATOM     17  H2  UNL     1       5.975  -0.477   0.299  1.00  0.00     0.198 HD
HETATM   18  N3  UNL     1       3.365  -0.573  -1.408  1.00  0.00    -0.234 N 
ATOM     19  H3  UNL     1       2.838  -0.711  -2.270  1.00  0.00     0.197 HD
BRANCH  14  20
HETATM   20  N1  UNL     1       3.836   0.130   1.908  1.00  0.00    -0.382 N 
ATOM     21  H12 UNL     1       4.635   0.184   2.539  1.00  0.00     0.157 HD
ATOM     22  H11 UNL     1       2.998   0.347   2.447  1.00  0.00     0.157 HD
ENDBRANCH  14  20
ENDBRANCH  11  13
ENDBRANCH  10  11
ENDBRANCH   1  10
BRANCH   7  23
HETATM   23  N8  UNL     1      -3.700  -1.544   0.959  1.00  0.00    -0.320 N 
ATOM     24  H82 UNL     1      -4.629  -1.285   1.292  1.00  0.00     0.178 HD
ATOM     25  H81 UNL     1      -3.339  -2.498   0.985  1.00  0.00     0.178 HD
ENDBRANCH   7  23
BRANCH   6  26
HETATM   26  N6  UNL     1      -4.534   0.949   0.848  1.00  0.00    -0.233 N 
ATOM     27  H62 UNL     1      -4.895   1.903   0.822  1.00  0.00     0.174 HD
ATOM     28  H61 UNL     1      -5.127   0.209   1.225  1.00  0.00     0.174 HD
ENDBRANCH   6  26
TORSDOF 6
