REMARK  6 active torsions:
REMARK  status: ('A' for Active; 'I' for Inactive)
REMARK    1  A    between atoms: N5_16  and  C7_17 
REMARK    2  A    between atoms: C7_17  and  C9_25 
REMARK    3  A    between atoms: N6_18  and  N7_20 
REMARK    4  A    between atoms: C9_25  and  O2_26 
REMARK    5  A    between atoms: C9_25  and  C10_28 
REMARK    6  A    between atoms: C10_28  and  O3_29 
ROOT
HETATM    1  C1  UNL     1      -3.279   0.968  -2.833  1.00  0.00     0.164 C 
HETATM    2  N1  UNL     1      -2.544   0.757  -1.578  1.00  0.00    -0.268 N 
HETATM    3  C2  UNL     1      -3.105   1.290  -0.489  1.00  0.00     0.280 A 
HETATM    4  O1  UNL     1      -4.197   1.930  -0.549  1.00  0.00    -0.265 OA
HETATM    5  C3  UNL     1      -2.431   1.103   0.698  1.00  0.00     0.133 A 
HETATM    6  N2  UNL     1      -2.972   1.628   1.816  1.00  0.00    -0.346 N 
ATOM      7  H2  UNL     1      -3.851   2.142   1.758  1.00  0.00     0.167 HD
HETATM    8  C4  UNL     1      -2.368   1.482   2.999  1.00  0.00     0.182 A 
HETATM    9  N3  UNL     1      -1.221   0.804   3.032  1.00  0.00    -0.337 N 
ATOM     10  H3  UNL     1      -0.756   0.691   3.933  1.00  0.00     0.168 HD
HETATM   11  C5  UNL     1      -0.635   0.256   1.939  1.00  0.00     0.130 A 
HETATM   12  N4  UNL     1       0.467  -0.381   2.051  1.00  0.00    -0.384 N 
ATOM     13  H41 UNL     1       0.908  -0.793   1.229  1.00  0.00     0.157 HD
ATOM     14  H42 UNL     1       0.915  -0.484   2.961  1.00  0.00     0.157 HD
HETATM   15  C6  UNL     1      -1.231   0.393   0.729  1.00  0.00     0.121 A 
HETATM   16  N5  UNL     1      -0.690  -0.131  -0.376  1.00  0.00    -0.243 N 
HETATM   17  C11 UNL     1      -1.396   0.078  -1.548  1.00  0.00     0.337 A 
HETATM   18  O4  UNL     1      -0.928  -0.397  -2.629  1.00  0.00    -0.246 OA
ENDROOT
BRANCH  16  19
HETATM   19  C7  UNL     1       0.493  -0.859  -0.502  1.00  0.00     0.138 C 
HETATM   20  N6  UNL     1       1.593  -0.293  -0.685  1.00  0.00    -0.284 N 
ATOM     21  H6  UNL     1       2.354  -0.968  -0.754  1.00  0.00     0.188 HD
BRANCH  20  22
HETATM   22  N7  UNL     1       2.039   0.969  -0.815  1.00  0.00    -0.275 N 
HETATM   23  C8  UNL     1       3.057   1.501  -0.227  1.00  0.00     0.215 C 
HETATM   24  N8  UNL     1       3.893   0.836   0.674  1.00  0.00    -0.065 NA
HETATM   25  N9  UNL     1       3.325   2.858  -0.533  1.00  0.00    -0.065 NA
ATOM     26  H7  UNL     1       1.515   1.572  -1.448  1.00  0.00     0.189 HD
ENDBRANCH  20  22
BRANCH  19  27
HETATM   27  C9  UNL     1       0.466  -2.314  -0.559  1.00  0.00     0.211 C 
BRANCH  27  28
HETATM   28  O2  UNL     1      -0.392  -3.007   0.235  1.00  0.00    -0.386 OA
ATOM     29  H2  UNL     1      -0.410  -3.956   0.198  1.00  0.00     0.210 HD
ENDBRANCH  27  28
BRANCH  27  30
HETATM   30  C10 UNL     1       1.901  -2.865  -0.436  1.00  0.00     0.203 C 
BRANCH  30  31
HETATM   31  O3  UNL     1       1.887  -4.182  -0.819  1.00  0.00    -0.398 OA
ATOM     32  H3  UNL     1       2.771  -4.521  -0.743  1.00  0.00     0.209 HD
ENDBRANCH  30  31
ENDBRANCH  27  30
ENDBRANCH  19  27
ENDBRANCH  16  19
TORSDOF 6
