REMARK  9 active torsions:
REMARK  status: ('A' for Active; 'I' for Inactive)
REMARK    1  A    between atoms: N1_1  and  C1_4 
REMARK    2  A    between atoms: C5_14  and  N5_15 
REMARK       I    between atoms: N5_15  and  C6_17 
REMARK    3  A    between atoms: C6_17  and  C7_19 
REMARK    4  A    between atoms: C7_19  and  N6_20 
REMARK    5  A    between atoms: N7_24  and  C8_25 
REMARK    6  A    between atoms: C10_28  and  O3_29 
REMARK    7  A    between atoms: C10_28  and  O4_31 
REMARK    8  A    between atoms: C11_33  and  O5_34 
REMARK    9  A    between atoms: C12_36  and  O6_37 
ROOT
HETATM    1  C1  UNL     1       1.728  -3.486  -0.971  1.00  0.00     0.131 A 
HETATM    2  N2  UNL     1       0.731  -4.359  -1.176  1.00  0.00    -0.337 N 
ATOM      3  H2  UNL     1       0.936  -5.331  -1.410  1.00  0.00     0.168 HD
HETATM    4  C2  UNL     1      -0.553  -3.935  -1.069  1.00  0.00     0.183 A 
HETATM    5  N3  UNL     1      -0.864  -2.665  -0.763  1.00  0.00    -0.336 N 
ATOM      6  H3  UNL     1      -1.844  -2.392  -0.693  1.00  0.00     0.168 HD
HETATM    7  C3  UNL     1       0.079  -1.761  -0.550  1.00  0.00     0.157 A 
HETATM    8  C4  UNL     1       1.394  -2.197  -0.661  1.00  0.00     0.137 A 
HETATM    9  N4  UNL     1       2.152  -1.124  -0.407  1.00  0.00    -0.184 N 
ATOM     10  H4  UNL     1       3.172  -1.098  -0.406  1.00  0.00     0.184 HD
HETATM   11  C5  UNL     1       1.337  -0.087  -0.154  1.00  0.00     0.690 A 
HETATM   12  N7  UNL     1       0.049  -0.457  -0.237  1.00  0.00    -0.151 N 
ENDROOT
BRANCH  12  13
HETATM   13  C8  UNL     1      -1.076   0.385  -0.031  1.00  0.00     0.216 C 
HETATM   14  C9  UNL     1      -2.076   0.388  -1.104  1.00  0.00     0.217 C 
HETATM   15  O2  UNL     1      -1.899   0.047  -2.244  1.00  0.00    -0.289 OA
HETATM   16  C10 UNL     1      -3.330   0.893  -0.505  1.00  0.00     0.254 C 
HETATM   17  C11 UNL     1      -3.033   1.064   0.988  1.00  0.00     0.219 C 
HETATM   18  C12 UNL     1      -1.911   0.030   1.173  1.00  0.00     0.184 C 
BRANCH  16  19
HETATM   19  O3  UNL     1      -3.625   2.155  -1.016  1.00  0.00    -0.357 OA
ATOM     20  H3  UNL     1      -4.431   2.479  -0.631  1.00  0.00     0.213 HD
ENDBRANCH  16  19
BRANCH  16  21
HETATM   21  O4  UNL     1      -4.396   0.045  -0.624  1.00  0.00    -0.357 OA
ATOM     22  H4  UNL     1      -5.202   0.369  -0.239  1.00  0.00     0.213 HD
ENDBRANCH  16  21
BRANCH  17  23
HETATM   23  O5  UNL     1      -4.093   0.724   1.781  1.00  0.00    -0.387 OA
ATOM     24  H5  UNL     1      -3.909   0.830   2.707  1.00  0.00     0.210 HD
ENDBRANCH  17  23
BRANCH  18  25
HETATM   25  O6  UNL     1      -1.248   0.216   2.367  1.00  0.00    -0.390 OA
ATOM     26  H6  UNL     1      -1.774  -0.008   3.126  1.00  0.00     0.210 HD
ENDBRANCH  18  25
ENDBRANCH  12  13
BRANCH  11  27
HETATM   27  N5  UNL     1       1.813   1.224   0.159  1.00  0.00    -0.158 N 
HETATM   28  C6  UNL     1       3.183   1.503   0.219  1.00  0.00     0.261 C 
HETATM   29  O1  UNL     1       4.029   0.588  -0.006  1.00  0.00    -0.271 OA
ATOM     30  H5  UNL     1       1.142   1.970   0.342  1.00  0.00     0.187 HD
BRANCH  28  31
HETATM   31  C7  UNL     1       3.634   2.876   0.548  1.00  0.00     0.332 C 
BRANCH  31  32
HETATM   32  N6  UNL     1       5.070   2.925   0.552  1.00  0.00    -0.071 N 
ATOM     33  H63 UNL     1       5.477   2.227   1.175  1.00  0.00     0.274 HD
ATOM     34  H62 UNL     1       5.469   2.589  -0.325  1.00  0.00     0.274 HD
ATOM     35  H61 UNL     1       5.380   3.870   0.778  1.00  0.00     0.274 HD
ENDBRANCH  31  32
ENDBRANCH  28  31
ENDBRANCH  11  27
BRANCH   1  36
HETATM   36  N1  UNL     1       2.946  -3.863  -1.067  1.00  0.00    -0.383 N 
ATOM     37  H12 UNL     1       3.195  -4.825  -1.298  1.00  0.00     0.157 HD
ATOM     38  H11 UNL     1       3.704  -3.199  -0.911  1.00  0.00     0.157 HD
ENDBRANCH   1  36
TORSDOF 9
