REMARK  10 active torsions:
REMARK  status: ('A' for Active; 'I' for Inactive)
REMARK    1  A    between atoms: N1_1  and  C1_4 
REMARK    2  A    between atoms: N3_9  and  C3_10 
REMARK    3  A    between atoms: C5_13  and  O3_14 
REMARK    4  A    between atoms: C5_13  and  C6_16 
REMARK    5  A    between atoms: C6_16  and  O4_17 
REMARK    6  A    between atoms: C6_16  and  C7_19 
REMARK    7  A    between atoms: C8_22  and  O6_23 
REMARK    8  A    between atoms: C9_27  and  C10_28 
REMARK    9  A    between atoms: C10_28  and  O7_29 
REMARK   10  A    between atoms: C10_28  and  O8_31 
ROOT
HETATM    1  C1  UNL     1      -3.539   0.150   0.765  1.00  0.00     0.132 A 
HETATM    2  N2  UNL     1      -3.286  -0.990   1.434  1.00  0.00    -0.292 N 
ATOM      3  H2  UNL     1      -4.003  -1.449   1.996  1.00  0.00     0.172 HD
HETATM    4  C2  UNL     1      -2.044  -1.497   1.327  1.00  0.00     0.343 A 
HETATM    5  O1  UNL     1      -1.836  -2.578   1.973  1.00  0.00    -0.245 OA
HETATM    6  N3  UNL     1      -1.074  -0.928   0.600  1.00  0.00    -0.233 N 
HETATM    7  N5  UNL     1      -1.360   0.185  -0.040  1.00  0.00    -0.290 N 
ATOM      8  H5  UNL     1      -0.628   0.626  -0.597  1.00  0.00     0.187 HD
HETATM    9  C9  UNL     1      -2.570   0.771   0.004  1.00  0.00     0.124 A 
ENDROOT
BRANCH   6  10
HETATM   10  C3  UNL     1       0.212  -1.581   0.573  1.00  0.00     0.171 C 
HETATM   11  C4  UNL     1       0.913  -1.279   1.883  1.00  0.00     0.202 C 
HETATM   12  O2  UNL     1       2.233  -1.589   1.566  1.00  0.00    -0.348 OA
HETATM   13  C5  UNL     1       2.476  -1.136   0.297  1.00  0.00     0.225 C 
HETATM   14  C8  UNL     1       1.166  -0.917  -0.400  1.00  0.00     0.210 C 
BRANCH  13  15
HETATM   15  O3  UNL     1       3.213  -2.109  -0.386  1.00  0.00    -0.361 OA
ATOM     16  H3  UNL     1       3.382  -1.795  -1.266  1.00  0.00     0.213 HD
ENDBRANCH  13  15
BRANCH  13  17
HETATM   17  C6  UNL     1       3.287   0.149   0.404  1.00  0.00     0.272 C 
BRANCH  17  18
HETATM   18  O4  UNL     1       2.610   1.115   1.104  1.00  0.00    -0.381 OA
ATOM     19  H4  UNL     1       3.116   1.916   1.171  1.00  0.00     0.210 HD
ENDBRANCH  17  18
BRANCH  17  20
HETATM   20  C7  UNL     1       3.667   0.561  -0.960  1.00  0.00     0.265 C 
HETATM   21  N4  UNL     1       3.334   1.850  -1.440  1.00  0.00    -0.060 NA
HETATM   22  O5  UNL     1       4.287  -0.239  -1.687  1.00  0.00    -0.274 OA
ENDBRANCH  17  20
ENDBRANCH  13  17
BRANCH  14  23
HETATM   23  O6  UNL     1       1.104  -1.631  -1.588  1.00  0.00    -0.388 OA
ATOM     24  H6  UNL     1       1.702  -1.215  -2.198  1.00  0.00     0.210 HD
ENDBRANCH  14  23
ENDBRANCH   6  10
BRANCH   9  25
HETATM   25  C10 UNL     1      -2.835   2.043  -0.748  1.00  0.00     0.310 C 
BRANCH  25  26
HETATM   26  O7  UNL     1      -1.770   2.942  -0.556  1.00  0.00    -0.366 OA
ATOM     27  H7  UNL     1      -1.938   3.747  -1.032  1.00  0.00     0.213 HD
ENDBRANCH  25  26
BRANCH  25  28
HETATM   28  O8  UNL     1      -4.014   2.631  -0.365  1.00  0.00    -0.366 OA
ATOM     29  H8  UNL     1      -4.182   3.436  -0.841  1.00  0.00     0.213 HD
ENDBRANCH  25  28
ENDBRANCH   9  25
BRANCH   1  30
HETATM   30  N1  UNL     1      -4.708   0.719   0.805  1.00  0.00    -0.384 N 
ATOM     31  H12 UNL     1      -5.424   0.260   1.368  1.00  0.00     0.157 HD
ATOM     32  H11 UNL     1      -4.900   1.583   0.298  1.00  0.00     0.157 HD
ENDBRANCH   1  30
TORSDOF 10
