REMARK  12 active torsions:
REMARK  status: ('A' for Active; 'I' for Inactive)
REMARK    1  A    between atoms: C2_2  and  O2_4 
REMARK    2  A    between atoms: O2_4  and  C3_5 
REMARK    3  A    between atoms: C3_5  and  C4_6 
REMARK    4  A    between atoms: C3_5  and  C21_26 
REMARK    5  A    between atoms: C4_6  and  C5_7 
REMARK    6  A    between atoms: C5_7  and  C6_8 
REMARK    7  A    between atoms: C5_7  and  C15_17 
REMARK    8  A    between atoms: C7_9  and  C8_10 
REMARK       I    between atoms: C15_17  and  N1_19 
REMARK    9  A    between atoms: C21_26  and  N3_27 
REMARK   10  A    between atoms: C21_26  and  C27_36 
REMARK       I    between atoms: N3_27  and  C22_29 
REMARK   11  A    between atoms: C22_29  and  O5_31 
REMARK   12  A    between atoms: O5_31  and  C23_32 
ROOT
HETATM    1  C4  UNL     1      -0.308   1.310  -0.753  1.00  0.00     0.079 C 
ENDROOT
BRANCH   1   2
HETATM    2  C3  UNL     1       0.634   0.258  -1.217  1.00  0.00     0.159 C 
BRANCH   2   3
HETATM    3  O2  UNL     1       0.423  -0.052  -2.614  1.00  0.00    -0.314 OA
BRANCH   3   4
HETATM    4  C2  UNL     1       0.070  -1.286  -3.074  1.00  0.00     0.255 C 
HETATM    5  C1  UNL     1      -0.119  -1.481  -4.534  1.00  0.00     0.126 C 
HETATM    6  O1  UNL     1      -0.088  -2.226  -2.260  1.00  0.00    -0.266 OA
ENDBRANCH   3   4
ENDBRANCH   2   3
BRANCH   2   7
HETATM    7  C21 UNL     1       2.095   0.549  -0.988  1.00  0.00     0.120 C 
BRANCH   7   8
HETATM    8  N3  UNL     1       2.817  -0.708  -1.311  1.00  0.00    -0.329 N 
HETATM    9  C22 UNL     1       3.617  -1.382  -0.382  1.00  0.00     0.365 C 
HETATM   10  O4  UNL     1       3.751  -0.940   0.774  1.00  0.00    -0.238 OA
ATOM     11  H3  UNL     1       2.726  -1.096  -2.250  1.00  0.00     0.165 HD
BRANCH   9  12
HETATM   12  O5  UNL     1       4.261  -2.546  -0.762  1.00  0.00    -0.274 OA
BRANCH  12  13
HETATM   13  C23 UNL     1       5.078  -3.284   0.077  1.00  0.00     0.149 C 
HETATM   14  C24 UNL     1       4.615  -4.259   0.835  1.00  0.00    -0.065 C 
HETATM   15  C25 UNL     1       5.545  -5.020   1.721  1.00  0.00     0.045 C 
HETATM   16  C26 UNL     1       3.182  -4.647   0.854  1.00  0.00     0.045 C 
ENDBRANCH  12  13
ENDBRANCH   9  12
ENDBRANCH   7   8
BRANCH   7  17
HETATM   17  C27 UNL     1       2.710   1.596  -1.838  1.00  0.00     0.003 C 
HETATM   18  C28 UNL     1       2.201   2.969  -1.825  1.00  0.00     0.011 C 
HETATM   19  C29 UNL     1       4.220   1.631  -1.550  1.00  0.00     0.011 C 
ENDBRANCH   7  17
ENDBRANCH   2   7
ENDBRANCH   1   2
BRANCH   1  20
HETATM   20  C5  UNL     1      -0.315   1.774   0.618  1.00  0.00     0.012 C 
BRANCH  20  21
HETATM   21  C6  UNL     1      -0.702   1.115   1.856  1.00  0.00     0.013 C 
HETATM   22  C7  UNL     1      -0.224  -0.136   2.398  1.00  0.00     0.007 C 
BRANCH  22  23
HETATM   23  C8  UNL     1      -0.731  -1.432   1.948  1.00  0.00    -0.062 C 
HETATM   24  C9  UNL     1      -1.738  -1.512   1.104  1.00  0.00    -0.020 C 
HETATM   25  C10 UNL     1      -2.412  -2.732   0.515  1.00  0.00     0.027 C 
HETATM   26  C11 UNL     1      -2.852  -3.600   1.704  1.00  0.00     0.004 C 
HETATM   27  C12 UNL     1      -1.661  -4.397   2.179  1.00  0.00     0.001 C 
HETATM   28  C13 UNL     1      -0.959  -3.542   3.242  1.00  0.00     0.005 C 
HETATM   29  C14 UNL     1      -0.011  -2.599   2.531  1.00  0.00     0.038 C 
ENDBRANCH  22  23
ENDBRANCH  20  21
BRANCH  20  30
HETATM   30  C15 UNL     1      -0.904   3.185   0.655  1.00  0.00     0.249 C 
HETATM   31  O3  UNL     1      -0.166   4.106   1.158  1.00  0.00    -0.268 OA
HETATM   32  N1  UNL     1      -2.150   3.560   0.202  1.00  0.00    -0.345 N 
HETATM   33  C16 UNL     1      -2.568   4.964   0.316  1.00  0.00     0.156 C 
HETATM   34  C20 UNL     1      -3.100   2.674  -0.389  1.00  0.00     0.156 C 
HETATM   35  C17 UNL     1      -3.330   5.409  -0.910  1.00  0.00     0.291 C 
HETATM   36  N2  UNL     1      -4.434   4.552  -1.221  1.00  0.00     0.087 N 
HETATM   37  C18 UNL     1      -5.718   5.212  -1.086  1.00  0.00     0.310 C 
HETATM   38  C19 UNL     1      -4.448   3.391  -0.357  1.00  0.00     0.291 C 
ENDBRANCH  20  30
ENDBRANCH   1  20
TORSDOF 12
