REMARK  13 active torsions:
REMARK  status: ('A' for Active; 'I' for Inactive)
REMARK    1  A    between atoms: C2_2  and  C3_3 
REMARK    2  A    between atoms: C2_2  and  C6_7 
REMARK    3  A    between atoms: C3_3  and  C5_5 
REMARK    4  A    between atoms: C7_9  and  O3_10 
REMARK    5  A    between atoms: C16_21  and  C17_22 
REMARK    6  A    between atoms: C17_22  and  C18_23 
REMARK    7  A    between atoms: C18_23  and  C19_24 
REMARK    8  A    between atoms: C20_25  and  C21_26 
REMARK    9  A    between atoms: C28_33  and  C29_34 
REMARK   10  A    between atoms: C29_34  and  C30_35 
REMARK   11  A    between atoms: C31_36  and  C32_37 
REMARK   12  A    between atoms: C32_37  and  C33_38 
REMARK   13  A    between atoms: C33_38  and  N1_39 
ROOT
HETATM    1  C6  UNL     1      -2.463   0.345   0.017  1.00  0.00     0.162 C 
HETATM    2  O2  UNL     1      -2.039  -0.391   1.180  1.00  0.00    -0.350 OA
HETATM    3  C7  UNL     1      -1.986  -1.763   0.936  1.00  0.00     0.270 C 
HETATM    4  C9  UNL     1      -1.034  -2.084  -0.178  1.00  0.00     0.102 C 
HETATM    5  C10 UNL     1      -0.229  -3.286  -0.097  1.00  0.00     0.167 C 
HETATM    6  O4  UNL     1      -0.303  -4.080   1.039  1.00  0.00    -0.347 OA
HETATM    7  C11 UNL     1       0.828  -4.881   1.063  1.00  0.00     0.158 C 
HETATM    8  C12 UNL     1       0.699  -5.922  -0.022  1.00  0.00     0.078 C 
HETATM    9  C13 UNL     1       0.951  -5.477   2.438  1.00  0.00     0.078 C 
HETATM   10  O5  UNL     1       1.812  -3.953   0.767  1.00  0.00    -0.348 OA
HETATM   11  C14 UNL     1       1.244  -3.173  -0.293  1.00  0.00     0.159 C 
HETATM   12  C15 UNL     1       1.810  -1.819  -0.229  1.00  0.00     0.074 C 
HETATM   13  C16 UNL     1       0.956  -0.818  -0.908  1.00  0.00    -0.045 C 
HETATM   14  C27 UNL     1      -0.372  -0.733  -0.479  1.00  0.00    -0.054 C 
HETATM   15  C28 UNL     1      -1.493   0.074  -1.105  1.00  0.00     0.052 C 
ENDROOT
BRANCH  13  16
HETATM   16  C17 UNL     1       1.540  -0.357  -2.239  1.00  0.00     0.063 C 
BRANCH  16  17
HETATM   17  C18 UNL     1       2.610   0.333  -2.162  1.00  0.00    -0.128 C 
BRANCH  17  18
HETATM   18  C19 UNL     1       3.786   1.094  -2.088  1.00  0.00     0.056 C 
HETATM   19  C20 UNL     1       4.331   1.244  -0.814  1.00  0.00     0.019 C 
BRANCH  19  20
HETATM   20  C21 UNL     1       5.542   2.023  -0.683  1.00  0.00    -0.036 A 
HETATM   21  C22 UNL     1       6.141   1.993   0.555  1.00  0.00     0.011 A 
HETATM   22  C23 UNL     1       7.272   2.742   0.814  1.00  0.00     0.001 A 
HETATM   23  C24 UNL     1       7.807   3.534  -0.129  1.00  0.00     0.000 A 
HETATM   24  C25 UNL     1       7.241   3.615  -1.409  1.00  0.00     0.001 A 
HETATM   25  C26 UNL     1       6.096   2.824  -1.624  1.00  0.00     0.011 A 
ENDBRANCH  19  20
ENDBRANCH  17  18
ENDBRANCH  16  17
ENDBRANCH  13  16
BRANCH  15  26
HETATM   26  C29 UNL     1      -0.952   1.386  -1.667  1.00  0.00     0.038 C 
BRANCH  26  27
HETATM   27  C30 UNL     1      -1.947   2.333  -2.106  1.00  0.00    -0.030 C 
HETATM   28  C31 UNL     1      -2.132   3.591  -1.598  1.00  0.00    -0.029 C 
BRANCH  28  29
HETATM   29  C32 UNL     1      -1.253   4.119  -0.553  1.00  0.00     0.054 C 
BRANCH  29  30
HETATM   30  C33 UNL     1      -2.095   4.419   0.666  1.00  0.00     0.233 C 
BRANCH  30  31
HETATM   31  N1  UNL     1      -1.299   4.958   1.729  1.00  0.00    -0.079 N 
ATOM     32  H13 UNL     1      -0.515   4.346   1.957  1.00  0.00     0.274 HD
ATOM     33  H12 UNL     1      -0.775   5.778   1.425  1.00  0.00     0.274 HD
ATOM     34  H11 UNL     1      -1.867   5.160   2.552  1.00  0.00     0.274 HD
ENDBRANCH  30  31
ENDBRANCH  29  30
ENDBRANCH  28  29
ENDBRANCH  26  27
ENDBRANCH  15  26
BRANCH   3  35
HETATM   35  O3  UNL     1      -1.611  -2.313   2.148  1.00  0.00    -0.365 OA
HETATM   36  C8  UNL     1      -2.548  -3.028   2.804  1.00  0.00     0.204 C 
ENDBRANCH   3  35
BRANCH   1  37
HETATM   37  C2  UNL     1      -3.881   0.150  -0.176  1.00  0.00    -0.050 C 
HETATM   38  C1  UNL     1      -4.403  -0.766  -1.029  1.00  0.00     0.017 C 
BRANCH  37  39
HETATM   39  C3  UNL     1      -5.021   0.757   0.648  1.00  0.00     0.073 C 
HETATM   40  C4  UNL     1      -4.676   0.972   2.094  1.00  0.00     0.022 C 
BRANCH  39  41
HETATM   41  C5  UNL     1      -5.322   2.127   0.057  1.00  0.00     0.239 C 
HETATM   42  O1  UNL     1      -6.479   2.506   0.037  1.00  0.00    -0.306 OA
ENDBRANCH  39  41
ENDBRANCH  37  39
ENDBRANCH   1  37
TORSDOF 13
