REMARK  16 active torsions:
REMARK  status: ('A' for Active; 'I' for Inactive)
REMARK    1  A    between atoms: C2_2  and  C3_3 
REMARK    2  A    between atoms: C3_3  and  C4_4 
REMARK    3  A    between atoms: C4_4  and  O2_6 
REMARK    4  A    between atoms: O2_6  and  C5_7 
REMARK    5  A    between atoms: C7_9  and  C8_10 
REMARK    6  A    between atoms: C8_10  and  O3_11 
REMARK    7  A    between atoms: O3_11  and  N1_12 
REMARK    8  A    between atoms: N1_12  and  C9_13 
REMARK    9  A    between atoms: N1_12  and  C10_15 
REMARK   10  A    between atoms: C10_15  and  C11_16 
REMARK   11  A    between atoms: C19_25  and  C20_26 
REMARK   12  A    between atoms: C20_26  and  C21_27 
REMARK   13  A    between atoms: C21_27  and  N2_28 
REMARK   14  A    between atoms: N2_28  and  C23_30 
REMARK   15  A    between atoms: C23_30  and  N3_32 
REMARK   16  A    between atoms: N3_32  and  C24_34 
ROOT
HETATM    1  C5  UNL     1      -2.062   2.533   0.540  1.00  0.00     0.145 C 
HETATM    2  C6  UNL     1      -2.112   1.084   0.841  1.00  0.00     0.078 C 
HETATM    3  C7  UNL     1      -1.225   0.300  -0.211  1.00  0.00     0.111 C 
HETATM    4  O5  UNL     1      -1.786   0.664  -1.419  1.00  0.00    -0.362 OA
HETATM    5  C14 UNL     1      -1.655   1.976  -1.778  1.00  0.00     0.064 C 
HETATM    6  C15 UNL     1      -0.624   2.062  -2.897  1.00  0.00     0.046 C 
HETATM    7  C16 UNL     1      -2.955   2.490  -2.304  1.00  0.00     0.046 C 
HETATM    8  C17 UNL     1      -1.103   2.791  -0.627  1.00  0.00     0.072 C 
HETATM    9  C18 UNL     1       0.172   2.172  -0.233  1.00  0.00    -0.011 C 
HETATM   10  C19 UNL     1       0.104   0.807  -0.004  1.00  0.00    -0.045 C 
ENDROOT
BRANCH  10  11
HETATM   11  C20 UNL     1       1.345   0.212   0.477  1.00  0.00     0.057 C 
BRANCH  11  12
HETATM   12  C21 UNL     1       2.003  -0.808  -0.399  1.00  0.00     0.129 C 
BRANCH  12  13
HETATM   13  N2  UNL     1       3.259  -1.262   0.254  1.00  0.00    -0.362 N 
HETATM   14  C22 UNL     1       3.184  -2.043   1.481  1.00  0.00     0.152 C 
BRANCH  13  15
HETATM   15  C23 UNL     1       4.509  -0.930  -0.320  1.00  0.00     0.170 C 
HETATM   16  S1  UNL     1       4.571  -0.057  -1.697  1.00  0.00    -0.041 SA
BRANCH  15  17
HETATM   17  N3  UNL     1       5.714  -1.343   0.276  1.00  0.00    -0.359 N 
ATOM     18  H3  UNL     1       5.671  -1.891   1.135  1.00  0.00     0.162 HD
BRANCH  17  19
HETATM   19  C24 UNL     1       7.012  -1.025  -0.277  1.00  0.00     0.021 C 
HETATM   20  C25 UNL     1       7.179  -1.563  -1.674  1.00  0.00     0.037 C 
HETATM   21  C26 UNL     1       8.082  -1.620   0.621  1.00  0.00     0.037 C 
HETATM   22  C27 UNL     1       7.160   0.467  -0.273  1.00  0.00     0.037 C 
ENDBRANCH  17  19
ENDBRANCH  15  17
ENDBRANCH  13  15
ENDBRANCH  12  13
ENDBRANCH  11  12
ENDBRANCH  10  11
BRANCH   3  23
HETATM   23  C8  UNL     1      -1.542  -1.158  -0.018  1.00  0.00     0.244 C 
BRANCH  23  24
HETATM   24  O3  UNL     1      -1.224  -1.958  -1.024  1.00  0.00    -0.273 OA
BRANCH  24  25
HETATM   25  N1  UNL     1      -1.439  -3.236  -1.115  1.00  0.00    -0.233 N 
BRANCH  25  26
HETATM   26  C9  UNL     1      -0.333  -4.001  -1.714  1.00  0.00     0.376 C 
HETATM   27  O4  UNL     1      -0.375  -5.226  -1.872  1.00  0.00    -0.281 OA
ENDBRANCH  25  26
BRANCH  25  28
HETATM   28  C10 UNL     1      -2.592  -4.027  -0.824  1.00  0.00     0.162 C 
BRANCH  28  29
HETATM   29  C11 UNL     1      -2.688  -4.735   0.462  1.00  0.00    -0.002 C 
HETATM   30  C12 UNL     1      -2.669  -3.927   1.718  1.00  0.00     0.011 C 
HETATM   31  C13 UNL     1      -4.020  -5.533   0.515  1.00  0.00     0.011 C 
ENDBRANCH  28  29
ENDBRANCH  25  28
ENDBRANCH  24  25
ENDBRANCH  23  24
ENDBRANCH   3  23
BRANCH   1  32
HETATM   32  O2  UNL     1      -3.284   3.128   0.185  1.00  0.00    -0.315 OA
BRANCH  32  33
HETATM   33  C4  UNL     1      -3.788   4.260   0.846  1.00  0.00     0.259 C 
HETATM   34  O1  UNL     1      -3.100   4.714   1.768  1.00  0.00    -0.265 OA
BRANCH  33  35
HETATM   35  C3  UNL     1      -5.086   4.778   0.363  1.00  0.00     0.111 C 
BRANCH  35  36
HETATM   36  C2  UNL     1      -5.466   5.988   1.177  1.00  0.00     0.005 C 
HETATM   37  C1  UNL     1      -5.609   5.638   2.627  1.00  0.00     0.005 C 
ENDBRANCH  35  36
ENDBRANCH  33  35
ENDBRANCH  32  33
ENDBRANCH   1  32
TORSDOF 16
