REMARK  11 active torsions:
REMARK  status: ('A' for Active; 'I' for Inactive)
REMARK    1  A    between atoms: O1_2  and  C2_3 
REMARK    2  A    between atoms: C2_3  and  C3_4 
REMARK    3  A    between atoms: C3_4  and  N1_5 
REMARK    4  A    between atoms: C3_4  and  C26_35 
REMARK       I    between atoms: N1_5  and  C4_7 
REMARK    5  A    between atoms: C4_7  and  C5_9 
REMARK    6  A    between atoms: C9_13  and  C10_14 
REMARK    7  A    between atoms: C10_14  and  N2_15 
REMARK    8  A    between atoms: C12_19  and  N4_20 
REMARK    9  A    between atoms: N4_20  and  C14_22 
REMARK   10  A    between atoms: C14_22  and  C15_23 
REMARK   11  A    between atoms: C15_23  and  C16_24 
ROOT
HETATM    1  C5  UNL     1      -1.880  -0.333  -0.374  1.00  0.00     0.044 C 
HETATM    2  C6  UNL     1      -2.146  -1.747  -0.878  1.00  0.00     0.026 C 
HETATM    3  C7  UNL     1      -1.864  -0.400   1.155  1.00  0.00     0.020 C 
HETATM    4  C8  UNL     1      -0.973  -1.535   1.552  1.00  0.00     0.007 C 
HETATM    5  C9  UNL     1       0.412  -1.276   0.984  1.00  0.00     0.006 C 
HETATM    6  C22 UNL     1       0.502   0.022   0.275  1.00  0.00     0.016 C 
HETATM    7  C23 UNL     1      -0.557   0.124  -0.850  1.00  0.00    -0.031 C 
HETATM    8  C24 UNL     1      -0.455   1.535  -1.345  1.00  0.00     0.016 C 
HETATM    9  C25 UNL     1      -0.057  -0.766  -1.968  1.00  0.00     0.016 C 
ENDROOT
BRANCH   5  10
HETATM   10  C10 UNL     1       1.370  -1.351   2.137  1.00  0.00     0.157 C 
BRANCH  10  11
HETATM   11  N2  UNL     1       2.750  -1.144   1.811  1.00  0.00    -0.258 N 
HETATM   12  N3  UNL     1       3.401  -2.241   1.380  1.00  0.00    -0.305 N 
HETATM   13  C11 UNL     1       4.688  -2.196   1.025  1.00  0.00     0.137 A 
ATOM     14  H3  UNL     1       2.900  -3.127   1.323  1.00  0.00     0.186 HD
HETATM   15  C12 UNL     1       5.366  -1.006   1.099  1.00  0.00     0.056 A 
HETATM   16  C20 UNL     1       4.734   0.138   1.536  1.00  0.00     0.107 A 
HETATM   17  C21 UNL     1       3.409   0.021   1.886  1.00  0.00     0.264 A 
HETATM   18  O3  UNL     1       2.823   1.055   2.288  1.00  0.00    -0.267 OA
BRANCH  15  19
HETATM   19  N4  UNL     1       6.754  -0.863   0.738  1.00  0.00    -0.364 N 
HETATM   20  C13 UNL     1       7.705  -1.150   1.773  1.00  0.00     0.155 C 
BRANCH  19  21
HETATM   21  C14 UNL     1       7.069  -0.452  -0.569  1.00  0.00     0.064 C 
BRANCH  21  22
HETATM   22  C15 UNL     1       7.613   0.917  -0.683  1.00  0.00     0.049 C 
BRANCH  22  23
HETATM   23  C16 UNL     1       8.900   1.211  -0.002  1.00  0.00    -0.010 C 
HETATM   24  C17 UNL     1      10.109   0.418  -0.420  1.00  0.00     0.005 C 
HETATM   25  C18 UNL     1      10.920   1.705  -0.227  1.00  0.00     0.001 C 
HETATM   26  C19 UNL     1       9.624   2.450  -0.569  1.00  0.00     0.005 C 
ENDBRANCH  22  23
ENDBRANCH  21  22
ENDBRANCH  19  21
ENDBRANCH  15  19
ENDBRANCH  10  11
ENDBRANCH   5  10
BRANCH   1  27
HETATM   27  C4  UNL     1      -3.053   0.450  -0.753  1.00  0.00     0.227 C 
HETATM   28  N1  UNL     1      -4.329   0.025  -0.326  1.00  0.00    -0.353 N 
ATOM     29  H1  UNL     1      -4.399  -0.822   0.238  1.00  0.00     0.163 HD
HETATM   30  O2  UNL     1      -2.978   1.481  -1.438  1.00  0.00    -0.273 OA
BRANCH  28  31
HETATM   31  C3  UNL     1      -5.550   0.746  -0.657  1.00  0.00     0.112 C 
BRANCH  31  32
HETATM   32  C2  UNL     1      -6.117   1.305   0.586  1.00  0.00     0.192 C 
BRANCH  32  33
HETATM   33  O1  UNL     1      -6.435   0.373   1.568  1.00  0.00    -0.394 OA
HETATM   34  C1  UNL     1      -6.957   0.950   2.701  1.00  0.00     0.201 C 
ENDBRANCH  32  33
ENDBRANCH  31  32
BRANCH  31  35
HETATM   35  C26 UNL     1      -6.436  -0.141  -1.485  1.00  0.00     0.010 C 
HETATM   36  C27 UNL     1      -6.935  -1.369  -0.828  1.00  0.00     0.007 C 
HETATM   37  C28 UNL     1      -8.376  -1.451  -0.499  1.00  0.00     0.000 C 
HETATM   38  C29 UNL     1      -9.271  -0.828  -1.528  1.00  0.00     0.000 C 
HETATM   39  C30 UNL     1      -8.832   0.619  -1.679  1.00  0.00     0.000 C 
HETATM   40  C31 UNL     1      -7.464   0.630  -2.267  1.00  0.00     0.007 C 
ENDBRANCH  31  35
ENDBRANCH  28  31
ENDBRANCH   1  27
TORSDOF 11
