REMARK  12 active torsions:
REMARK  status: ('A' for Active; 'I' for Inactive)
REMARK    1  A    between atoms: C15_16  and  C17_18 
REMARK    2  A    between atoms: C17_18  and  O2_19 
REMARK    3  A    between atoms: O2_19  and  C18_20 
REMARK    4  A    between atoms: C18_20  and  C19_22 
REMARK    5  A    between atoms: C19_22  and  C20_23 
REMARK    6  A    between atoms: C20_23  and  C21_24 
REMARK    7  A    between atoms: C21_24  and  C22_25 
REMARK    8  A    between atoms: C22_25  and  C23_26 
REMARK    9  A    between atoms: C23_26  and  C24_27 
REMARK   10  A    between atoms: C24_27  and  C25_28 
REMARK   11  A    between atoms: C26_30  and  C28_32 
REMARK   12  A    between atoms: C28_32  and  O5_33 
ROOT
HETATM    1  C1  UNL     1      -6.415   2.162   1.675  1.00  0.00     0.024 C 
HETATM    2  C2  UNL     1      -6.350   1.235   0.480  1.00  0.00     0.021 C 
HETATM    3  C3  UNL     1      -5.754   1.861  -0.732  1.00  0.00     0.018 C 
HETATM    4  C4  UNL     1      -4.257   1.848  -0.850  1.00  0.00     0.007 C 
HETATM    5  C5  UNL     1      -3.654   0.828   0.124  1.00  0.00     0.002 C 
HETATM    6  C6  UNL     1      -4.579  -0.321  -0.008  1.00  0.00    -0.004 C 
HETATM    7  C7  UNL     1      -3.801  -1.570   0.218  1.00  0.00     0.006 C 
HETATM    8  C8  UNL     1      -2.871  -1.570  -1.015  1.00  0.00     0.007 C 
HETATM    9  C9  UNL     1      -1.750  -0.532  -0.835  1.00  0.00     0.009 C 
HETATM   10  C10 UNL     1      -2.188   0.605  -0.036  1.00  0.00    -0.018 C 
HETATM   11  C11 UNL     1      -1.741   1.968  -0.637  1.00  0.00     0.020 C 
HETATM   12  C12 UNL     1      -1.596   0.686   1.331  1.00  0.00    -0.013 C 
HETATM   13  C13 UNL     1      -0.330   0.580   1.680  1.00  0.00     0.048 C 
HETATM   14  C14 UNL     1       0.758   0.351   0.737  1.00  0.00     0.160 C 
HETATM   15  O1  UNL     1       1.802   1.030   0.894  1.00  0.00    -0.292 OA
HETATM   16  C15 UNL     1       0.793  -0.612  -0.421  1.00  0.00     0.052 C 
HETATM   17  C16 UNL     1       1.434   0.025  -1.630  1.00  0.00     0.027 C 
HETATM   18  C26 UNL     1      -0.504  -1.304  -0.681  1.00  0.00    -0.002 C 
HETATM   19  C27 UNL     1      -0.558  -2.461   0.286  1.00  0.00     0.019 C 
HETATM   20  C29 UNL     1      -5.773  -0.102   0.846  1.00  0.00     0.006 C 
HETATM   21  C30 UNL     1      -6.834  -1.150   0.673  1.00  0.00     0.013 C 
HETATM   22  C31 UNL     1      -8.120  -0.376   0.801  1.00  0.00     0.079 C 
HETATM   23  C32 UNL     1      -7.777   0.905   0.162  1.00  0.00     0.135 C 
HETATM   24  O6  UNL     1      -8.561   1.563  -0.513  1.00  0.00    -0.297 OA
ENDROOT
BRANCH  16  25
HETATM   25  C17 UNL     1       1.822  -1.600   0.088  1.00  0.00     0.197 C 
BRANCH  25  26
HETATM   26  O2  UNL     1       3.046  -0.828   0.272  1.00  0.00    -0.320 OA
BRANCH  26  27
HETATM   27  C18 UNL     1       4.189  -1.486   0.718  1.00  0.00     0.258 C 
HETATM   28  O3  UNL     1       4.094  -2.709   0.940  1.00  0.00    -0.265 OA
BRANCH  27  29
HETATM   29  C19 UNL     1       5.477  -0.785   0.924  1.00  0.00     0.111 C 
BRANCH  29  30
HETATM   30  C20 UNL     1       5.402   0.686   0.682  1.00  0.00     0.010 C 
BRANCH  30  31
HETATM   31  C21 UNL     1       6.740   1.343   0.895  1.00  0.00     0.000 C 
BRANCH  31  32
HETATM   32  C22 UNL     1       7.803   0.812  -0.037  1.00  0.00     0.000 C 
BRANCH  32  33
HETATM   33  C23 UNL     1       9.126   1.502   0.196  1.00  0.00     0.007 C 
BRANCH  33  34
HETATM   34  C24 UNL     1      10.152   0.951  -0.763  1.00  0.00     0.069 C 
BRANCH  34  35
HETATM   35  C25 UNL     1      10.388  -0.498  -0.627  1.00  0.00     0.231 C 
HETATM   36  O4  UNL     1       9.720  -1.360  -1.164  1.00  0.00    -0.307 OA
ENDBRANCH  34  35
ENDBRANCH  33  34
ENDBRANCH  32  33
ENDBRANCH  31  32
ENDBRANCH  30  31
ENDBRANCH  29  30
ENDBRANCH  27  29
ENDBRANCH  26  27
ENDBRANCH  25  26
ENDBRANCH  16  25
BRANCH  18  37
HETATM   37  C28 UNL     1      -0.324  -1.958  -2.076  1.00  0.00     0.175 C 
BRANCH  37  38
HETATM   38  O5  UNL     1       0.745  -2.762  -2.234  1.00  0.00    -0.400 OA
ATOM     39  H5  UNL     1       0.855  -3.163  -3.088  1.00  0.00     0.209 HD
ENDBRANCH  37  38
ENDBRANCH  18  37
TORSDOF 12
