REMARK  4 active torsions:
REMARK  status: ('A' for Active; 'I' for Inactive)
REMARK    1  A    between atoms: C1_2  and  C2_3 
REMARK       I    between atoms: C1_2  and  N1_9 
REMARK    2  A    between atoms: N2_12  and  N3_13 
REMARK    3  A    between atoms: C8_14  and  O2_15 
REMARK    4  A    between atoms: C11_19  and  O3_20 
ROOT
HETATM    1  O1  UNL     1       3.542   2.883  -1.210  1.00  0.00    -0.267 OA
HETATM    2  C1  UNL     1       3.302   1.629  -1.397  1.00  0.00     0.262 C 
HETATM    3  N1  UNL     1       2.008   1.141  -1.220  1.00  0.00    -0.344 N 
HETATM    4  C6  UNL     1       1.655  -0.223  -1.366  1.00  0.00     0.147 C 
HETATM    5  C7  UNL     1       0.230  -0.526  -0.973  1.00  0.00     0.163 C 
HETATM    6  N2  UNL     1      -0.329   0.337   0.025  1.00  0.00    -0.314 N 
HETATM    7  C15 UNL     1       0.340   1.556   0.406  1.00  0.00     0.163 C 
HETATM    8  C16 UNL     1       0.962   2.129  -0.880  1.00  0.00     0.147 C 
ENDROOT
BRANCH   6   9
HETATM    9  N3  UNL     1      -1.568  -0.062   0.618  1.00  0.00    -0.213 N 
HETATM   10  C8  UNL     1      -2.207   0.479   1.659  1.00  0.00     0.170 A 
HETATM   11  C9  UNL     1      -3.393  -0.186   1.925  1.00  0.00     0.005 A 
HETATM   12  C10 UNL     1      -3.494  -1.189   1.004  1.00  0.00     0.005 A 
HETATM   13  C14 UNL     1      -4.572  -0.199   2.831  1.00  0.00     0.044 C 
HETATM   14  C11 UNL     1      -2.350  -1.093   0.201  1.00  0.00     0.170 A 
HETATM   15  C12 UNL     1      -4.741  -1.975   1.210  1.00  0.00     0.044 C 
HETATM   16  C13 UNL     1      -5.189  -1.537   2.586  1.00  0.00     0.009 C 
BRANCH  10  17
HETATM   17  O2  UNL     1      -1.798   1.554   2.413  1.00  0.00    -0.344 OA
ATOM     18  H2  UNL     1      -2.252   1.939   3.153  1.00  0.00     0.219 HD
ENDBRANCH  10  17
BRANCH  14  19
HETATM   19  O3  UNL     1      -2.097  -1.947  -0.854  1.00  0.00    -0.344 OA
ATOM     20  H3  UNL     1      -2.643  -2.667  -1.145  1.00  0.00     0.219 HD
ENDBRANCH  14  19
ENDBRANCH   6   9
BRANCH   2  21
HETATM   21  C2  UNL     1       4.413   0.758  -1.795  1.00  0.00     0.094 A 
HETATM   22  S1  UNL     1       4.445  -0.910  -2.165  1.00  0.00    -0.095 SA
HETATM   23  C3  UNL     1       6.098  -1.109  -2.513  1.00  0.00     0.052 A 
HETATM   24  C4  UNL     1       6.585   0.151  -2.328  1.00  0.00     0.032 A 
HETATM   25  C5  UNL     1       5.739   1.117  -1.961  1.00  0.00     0.057 A 
HETATM   26 CL1  UNL     1       6.241   2.818  -1.667  1.00  0.00    -0.083 Cl
ENDBRANCH   2  21
TORSDOF 4
