REMARK  4 active torsions:
REMARK  status: ('A' for Active; 'I' for Inactive)
REMARK    1  A    between atoms: O1_1  and  N1_3 
REMARK    2  A    between atoms: C1_4  and  C2_5 
REMARK    3  A    between atoms: C6_16  and  C7_17 
REMARK    4  A    between atoms: C7_17  and  O3_18 
ROOT
HETATM    1  N1  UNL     1       0.437   0.319   0.065  1.00  0.00    -0.187 N 
HETATM    2  C1  UNL     1       1.391  -0.550   0.295  1.00  0.00     0.185 A 
HETATM    3  N2  UNL     1       0.787  -1.753   0.627  1.00  0.00    -0.280 N 
ATOM      4  H2  UNL     1       1.271  -2.620   0.861  1.00  0.00     0.188 HD
HETATM    5  N3  UNL     1      -0.521  -1.584   0.589  1.00  0.00    -0.283 N 
ATOM      6  H3  UNL     1      -1.223  -2.297   0.788  1.00  0.00     0.188 HD
HETATM    7  C6  UNL     1      -0.764  -0.330   0.249  1.00  0.00     0.161 A 
ENDROOT
BRANCH   2   8
HETATM    8  C2  UNL     1       2.858  -0.449   0.297  1.00  0.00     0.141 A 
HETATM    9  O2  UNL     1       3.657  -1.381   0.832  1.00  0.00    -0.298 OA
HETATM   10  C3  UNL     1       4.900  -1.096   0.734  1.00  0.00     0.123 A 
HETATM   11 BR1  UNL     1       6.434  -2.094   1.338  1.00  0.00    -0.023 Br
HETATM   12  C4  UNL     1       4.993   0.107   0.092  1.00  0.00     0.067 A 
HETATM   13  C5  UNL     1       3.676   0.517  -0.187  1.00  0.00     0.052 A 
HETATM   14 BR2  UNL     1       3.325   2.133  -1.121  1.00  0.00    -0.048 Br
ENDBRANCH   2   8
BRANCH   1  15
HETATM   15  O1  UNL     1       0.567   1.637  -0.263  1.00  0.00    -0.280 OA
ATOM     16  H1  UNL     1      -0.124   2.267  -0.430  1.00  0.00     0.245 HD
ENDBRANCH   1  15
BRANCH   7  17
HETATM   17  C7  UNL     1      -2.073   0.303   0.082  1.00  0.00     0.119 C 
HETATM   18  C8  UNL     1      -2.936  -0.305  -1.004  1.00  0.00     0.046 C 
HETATM   19  C9  UNL     1      -4.126  -0.151  -0.050  1.00  0.00     0.007 C 
HETATM   20  C10 UNL     1      -3.132  -0.170   1.092  1.00  0.00     0.046 C 
BRANCH  17  21
HETATM   21  O3  UNL     1      -2.078   1.691   0.077  1.00  0.00    -0.382 OA
ATOM     22  H3  UNL     1      -2.928   2.102  -0.031  1.00  0.00     0.211 HD
ENDBRANCH  17  21
ENDBRANCH   7  17
TORSDOF 4
