REMARK  4 active torsions:
REMARK  status: ('A' for Active; 'I' for Inactive)
REMARK    1  A    between atoms: C1_2  and  C2_4 
REMARK    2  A    between atoms: C4_7  and  N1_8 
REMARK    3  A    between atoms: C5_10  and  N2_11 
REMARK    4  A    between atoms: C7_13  and  O3_14 
ROOT
HETATM    1  N2  UNL     1      -0.075   0.054   0.023  1.00  0.00    -0.311 N 
HETATM    2  C6  UNL     1      -0.722   0.087  -1.275  1.00  0.00     0.165 C 
HETATM    3  C7  UNL     1      -2.082  -0.502  -0.943  1.00  0.00     0.154 C 
HETATM    4  C8  UNL     1      -2.433   0.267   0.314  1.00  0.00     0.072 C 
HETATM    5  C9  UNL     1      -3.411  -0.490   1.181  1.00  0.00     0.025 C 
HETATM    6  C10 UNL     1      -4.745   0.060   0.662  1.00  0.00     0.043 C 
HETATM    7  C11 UNL     1      -4.463   1.524   0.515  1.00  0.00     0.114 C 
HETATM    8 CL1  UNL     1      -4.671   2.295   2.112  1.00  0.00    -0.102 Cl
HETATM    9 CL2  UNL     1      -5.592   2.296  -0.613  1.00  0.00    -0.102 Cl
HETATM   10  C12 UNL     1      -3.055   1.596   0.023  1.00  0.00     0.064 C 
HETATM   11  C13 UNL     1      -1.091   0.387   0.962  1.00  0.00     0.236 C 
HETATM   12  O4  UNL     1      -0.819   0.724   2.150  1.00  0.00    -0.272 OA
ENDROOT
BRANCH   1  13
HETATM   13  C5  UNL     1       1.293  -0.253   0.265  1.00  0.00     0.187 C 
HETATM   14  N1  UNL     1       2.079  -0.532  -0.687  1.00  0.00    -0.332 N 
ATOM     15  H1  UNL     1       1.697  -0.529  -1.633  1.00  0.00     0.168 HD
BRANCH  14  16
HETATM   16  C4  UNL     1       3.458  -0.849  -0.533  1.00  0.00     0.150 A 
HETATM   17  S1  UNL     1       4.170  -2.380  -0.770  1.00  0.00    -0.063 SA
HETATM   18  C3  UNL     1       5.791  -1.976  -0.408  1.00  0.00     0.090 A 
HETATM   19  C2  UNL     1       5.681  -0.632  -0.115  1.00  0.00     0.118 A 
HETATM   20  N3  UNL     1       4.492  -0.112  -0.191  1.00  0.00    -0.331 N 
ATOM     21  H3  UNL     1       4.360   0.878   0.017  1.00  0.00     0.168 HD
BRANCH  19  22
HETATM   22  C1  UNL     1       6.864   0.149   0.261  1.00  0.00     0.227 C 
HETATM   23  O1  UNL     1       7.997  -0.371   0.328  1.00  0.00    -0.643 OA
HETATM   24  O2  UNL     1       6.746   1.493   0.553  1.00  0.00    -0.643 OA
ENDBRANCH  19  22
ENDBRANCH  14  16
ENDBRANCH   1  13
BRANCH   3  25
HETATM   25  O3  UNL     1      -1.893  -1.831  -0.616  1.00  0.00    -0.393 OA
ATOM     26  H3  UNL     1      -2.744  -2.199  -0.408  1.00  0.00     0.210 HD
ENDBRANCH   3  25
TORSDOF 4
