REMARK  4 active torsions:
REMARK  status: ('A' for Active; 'I' for Inactive)
REMARK    1  A    between atoms: O1_2  and  C2_3 
REMARK    2  A    between atoms: N1_15  and  O3_17 
REMARK    3  A    between atoms: C14_22  and  C15_23 
REMARK    4  A    between atoms: C15_23  and  O4_25 
ROOT
HETATM    1  C2  UNL     1      -1.628  -0.429   0.745  1.00  0.00     0.179 C 
HETATM    2  C3  UNL     1      -0.485  -1.370   0.771  1.00  0.00     0.073 C 
HETATM    3  C4  UNL     1       0.606  -1.067  -0.209  1.00  0.00     0.057 C 
HETATM    4  C5  UNL     1       1.115   0.313   0.097  1.00  0.00     0.179 C 
HETATM    5  O2  UNL     1       1.913   0.162   1.288  1.00  0.00    -0.327 OA
HETATM    6  C6  UNL     1       3.124  -0.439   0.920  1.00  0.00     0.083 A 
HETATM    7  C7  UNL     1       4.046  -1.176   1.634  1.00  0.00     0.038 A 
HETATM    8  C8  UNL     1       5.190  -1.680   1.056  1.00  0.00     0.003 A 
HETATM    9  C9  UNL     1       5.389  -1.421  -0.291  1.00  0.00     0.001 A 
HETATM   10  C10 UNL     1       4.482  -0.693  -1.006  1.00  0.00     0.016 A 
HETATM   11  C11 UNL     1       3.333  -0.189  -0.413  1.00  0.00     0.025 A 
HETATM   12  C12 UNL     1       2.200   0.600  -0.879  1.00  0.00     0.086 C 
HETATM   13  N1  UNL     1       2.209   1.354  -1.914  1.00  0.00    -0.269 N 
ATOM     14  H1  UNL     1       1.367   1.871  -2.168  1.00  0.00     0.194 HD
HETATM   15  C13 UNL     1       0.101   1.347   0.271  1.00  0.00     0.295 C 
HETATM   16  F1  UNL     1       0.335   2.382  -0.637  1.00  0.00    -0.201 F 
HETATM   17  F2  UNL     1       0.271   1.945   1.523  1.00  0.00    -0.201 F 
HETATM   18  C14 UNL     1      -1.352   0.887   0.078  1.00  0.00     0.111 C 
HETATM   19  C17 UNL     1      -1.770   0.993  -1.351  1.00  0.00     0.026 C 
HETATM   20  C18 UNL     1      -2.488  -0.125  -1.977  1.00  0.00     0.028 C 
HETATM   21  C19 UNL     1      -2.605  -1.374  -1.142  1.00  0.00     0.171 C 
HETATM   22  O5  UNL     1      -2.725  -1.053   0.185  1.00  0.00    -0.354 OA
ENDROOT
BRANCH  13  23
HETATM   23  O3  UNL     1       3.332   1.474  -2.682  1.00  0.00    -0.290 OA
ATOM     24  H3  UNL     1       3.339   2.033  -3.450  1.00  0.00     0.244 HD
ENDBRANCH  13  23
BRANCH  18  25
HETATM   25  C15 UNL     1      -2.137   1.946   0.838  1.00  0.00     0.134 C 
HETATM   26  C16 UNL     1      -3.609   1.751   0.860  1.00  0.00     0.040 C 
BRANCH  25  27
HETATM   27  O4  UNL     1      -1.827   3.195   0.311  1.00  0.00    -0.395 OA
ATOM     28  H4  UNL     1      -2.317   3.856   0.785  1.00  0.00     0.210 HD
ENDBRANCH  25  27
ENDBRANCH  18  25
BRANCH   1  29
HETATM   29  O1  UNL     1      -2.024  -0.187   2.076  1.00  0.00    -0.359 OA
HETATM   30  C1  UNL     1      -2.338  -1.356   2.743  1.00  0.00     0.205 C 
ENDBRANCH   1  29
TORSDOF 4
