REMARK  10 active torsions:
REMARK  status: ('A' for Active; 'I' for Inactive)
REMARK    1  A    between atoms: C2_2  and  O2_4 
REMARK    2  A    between atoms: O2_4  and  C3_5 
REMARK    3  A    between atoms: C3_5  and  C4_6 
REMARK    4  A    between atoms: C6_8  and  C7_9 
REMARK    5  A    between atoms: C7_9  and  C8_10 
REMARK    6  A    between atoms: C8_10  and  C9_11 
REMARK    7  A    between atoms: C13_15  and  C14_16 
REMARK    8  A    between atoms: C20_26  and  O5_27 
REMARK    9  A    between atoms: O5_27  and  C21_28 
REMARK   10  A    between atoms: C21_28  and  C22_30 
ROOT
HETATM    1  C9  UNL     1       0.650  -1.086  -0.349  1.00  0.00    -0.038 C 
HETATM    2  C10 UNL     1       1.044  -2.528  -0.149  1.00  0.00     0.015 C 
HETATM    3  C11 UNL     1       0.774  -0.237   0.885  1.00  0.00     0.010 C 
HETATM    4  C12 UNL     1      -0.395   0.749   0.998  1.00  0.00     0.011 C 
HETATM    5  C13 UNL     1      -1.579  -0.094   1.472  1.00  0.00     0.060 C 
HETATM    6  C20 UNL     1      -1.553  -1.346   0.695  1.00  0.00     0.144 C 
HETATM    7  C26 UNL     1      -0.869  -1.141  -0.639  1.00  0.00     0.020 C 
HETATM    8  C27 UNL     1      -1.152  -2.247  -1.625  1.00  0.00     0.013 C 
ENDROOT
BRANCH   1   9
HETATM    9  C8  UNL     1       1.376  -0.438  -1.478  1.00  0.00     0.013 C 
BRANCH   9  10
HETATM   10  C7  UNL     1       2.884  -0.494  -1.223  1.00  0.00     0.028 C 
BRANCH  10  11
HETATM   11  C6  UNL     1       3.631   0.138  -2.333  1.00  0.00    -0.022 C 
HETATM   12  C4  UNL     1       4.418   1.159  -2.290  1.00  0.00    -0.064 C 
HETATM   13  C5  UNL     1       5.083   1.636  -3.568  1.00  0.00     0.045 C 
BRANCH  12  14
HETATM   14  C3  UNL     1       4.744   1.931  -1.088  1.00  0.00     0.212 C 
BRANCH  14  15
HETATM   15  O2  UNL     1       6.141   1.912  -0.808  1.00  0.00    -0.318 OA
BRANCH  15  16
HETATM   16  C2  UNL     1       6.643   2.586   0.289  1.00  0.00     0.255 C 
HETATM   17  C1  UNL     1       8.102   2.589   0.616  1.00  0.00     0.126 C 
HETATM   18  O1  UNL     1       5.806   3.208   1.015  1.00  0.00    -0.266 OA
ENDBRANCH  15  16
ENDBRANCH  14  15
ENDBRANCH  12  14
ENDBRANCH  10  11
ENDBRANCH   9  10
ENDBRANCH   1   9
BRANCH   6  19
HETATM   19  O5  UNL     1      -2.767  -2.046   0.574  1.00  0.00    -0.310 OA
BRANCH  19  20
HETATM   20  C21 UNL     1      -2.991  -3.334   1.030  1.00  0.00     0.317 C 
HETATM   21  O6  UNL     1      -2.059  -3.952   1.601  1.00  0.00    -0.257 OA
BRANCH  20  22
HETATM   22  C22 UNL     1      -4.265  -4.022   0.884  1.00  0.00     0.149 A 
HETATM   23  C23 UNL     1      -5.369  -3.472   0.284  1.00  0.00     0.045 A 
HETATM   24  C24 UNL     1      -6.375  -4.396   0.325  1.00  0.00     0.027 A 
HETATM   25  C25 UNL     1      -5.859  -5.494   0.953  1.00  0.00     0.143 A 
HETATM   26  O7  UNL     1      -4.603  -5.226   1.267  1.00  0.00    -0.317 OA
ENDBRANCH  20  22
ENDBRANCH  19  20
ENDBRANCH   6  19
BRANCH   5  27
HETATM   27  C14 UNL     1      -2.816   0.707   1.527  1.00  0.00     0.155 C 
HETATM   28  C15 UNL     1      -3.982  -0.138   2.052  1.00  0.00     0.058 C 
HETATM   29  O3  UNL     1      -2.632   1.667   2.555  1.00  0.00    -0.261 OA
HETATM   30  N1  UNL     1      -2.229   2.851   2.126  1.00  0.00    -0.270 N 
HETATM   31  C16 UNL     1      -2.647   3.514   0.942  1.00  0.00     0.032 C 
ATOM     32  H1  UNL     1      -1.547   3.339   2.706  1.00  0.00     0.194 HD
HETATM   33  C17 UNL     1      -2.494   4.990   0.759  1.00  0.00     0.070 C 
HETATM   34  C18 UNL     1      -3.184   2.749  -0.000  1.00  0.00     0.080 C 
HETATM   35  C19 UNL     1      -3.283   1.324   0.289  1.00  0.00     0.188 C 
HETATM   36  O4  UNL     1      -3.807   0.612  -0.602  1.00  0.00    -0.290 OA
ENDBRANCH   5  27
TORSDOF 10
