REMARK  11 active torsions:
REMARK  status: ('A' for Active; 'I' for Inactive)
REMARK    1  A    between atoms: C2_2  and  N1_5 
REMARK    2  A    between atoms: C4_6  and  C5_7 
REMARK    3  A    between atoms: C5_7  and  C6_8 
REMARK    4  A    between atoms: C8_11  and  C9_12 
REMARK    5  A    between atoms: C17_27  and  S1_28 
REMARK    6  A    between atoms: S1_28  and  C18_29 
REMARK    7  A    between atoms: C18_29  and  C19_30 
REMARK    8  A    between atoms: C19_30  and  O3_31 
REMARK    9  A    between atoms: C19_30  and  N5_33 
REMARK   10  A    between atoms: N5_33  and  C20_35 
REMARK   11  A    between atoms: C20_35  and  C21_36 
ROOT
HETATM    1  N1  UNL     1       1.046  -1.198  -0.250  1.00  0.00    -0.274 N 
HETATM    2  C4  UNL     1       0.174  -0.408   0.407  1.00  0.00     0.129 A 
HETATM    3  N3  UNL     1       0.786   0.824   0.432  1.00  0.00    -0.283 N 
ATOM      4  H3  UNL     1       0.389   1.662   0.856  1.00  0.00     0.188 HD
HETATM    5  N4  UNL     1       1.958   0.769  -0.169  1.00  0.00    -0.278 N 
ATOM      6  H4  UNL     1       2.605   1.549  -0.282  1.00  0.00     0.189 HD
HETATM    7  C17 UNL     1       2.153  -0.443  -0.593  1.00  0.00     0.166 A 
ENDROOT
BRANCH   2   8
HETATM    8  C5  UNL     1      -1.072  -0.709   1.084  1.00  0.00     0.081 C 
BRANCH   8   9
HETATM    9  C6  UNL     1      -2.335  -0.345   0.498  1.00  0.00     0.060 A 
HETATM   10  C7  UNL     1      -2.741   0.741  -0.220  1.00  0.00     0.173 A 
HETATM   11  O1  UNL     1      -4.047   0.660  -0.399  1.00  0.00    -0.304 OA
HETATM   12  C8  UNL     1      -4.532  -0.418   0.158  1.00  0.00     0.161 A 
HETATM   13  N2  UNL     1      -3.526  -1.043   0.701  1.00  0.00    -0.336 N 
ATOM     14  H2  UNL     1      -3.599  -1.925   1.207  1.00  0.00     0.168 HD
BRANCH  12  15
HETATM   15  C9  UNL     1      -6.000  -0.767   0.119  1.00  0.00     0.152 A 
HETATM   16  C10 UNL     1      -6.686  -0.607  -1.123  1.00  0.00     0.050 C 
HETATM   17  C11 UNL     1      -8.078  -0.193  -1.374  1.00  0.00     0.015 C 
HETATM   18  C12 UNL     1      -8.451   1.293  -1.148  1.00  0.00     0.080 C 
HETATM   19  C13 UNL     1      -7.911   1.678   0.085  1.00  0.00    -0.183 C 
HETATM   20  C14 UNL     1      -7.347   2.126   1.294  1.00  0.00     0.082 C 
HETATM   21  C15 UNL     1      -6.446   0.974   1.869  1.00  0.00     0.046 C 
HETATM   22  C16 UNL     1      -6.803  -0.352   1.359  1.00  0.00     0.167 A 
HETATM   23  O2  UNL     1      -6.148  -1.505   1.227  1.00  0.00    -0.360 OA
ENDBRANCH  12  15
ENDBRANCH   8   9
ENDBRANCH   2   8
BRANCH   1  24
HETATM   24  C2  UNL     1       0.893  -2.586  -0.556  1.00  0.00     0.177 C 
HETATM   25  C1  UNL     1      -0.430  -2.925  -1.237  1.00  0.00     0.076 C 
HETATM   26  C3  UNL     1       1.176  -3.503   0.615  1.00  0.00     0.076 C 
HETATM   27  F1  UNL     1       1.862  -2.926  -1.518  1.00  0.00    -0.220 F 
ENDBRANCH   1  24
BRANCH   7  28
HETATM   28  S1  UNL     1       3.595  -1.165  -1.427  1.00  0.00    -0.084 SA
BRANCH  28  29
HETATM   29  C18 UNL     1       4.717  -1.782  -0.181  1.00  0.00     0.166 C 
BRANCH  29  30
HETATM   30  C19 UNL     1       5.633  -0.878   0.499  1.00  0.00     0.121 C 
BRANCH  30  31
HETATM   31  O3  UNL     1       5.406  -0.502   1.724  1.00  0.00    -0.349 OA
ATOM     32  H3  UNL     1       6.004   0.088   2.168  1.00  0.00     0.219 HD
ENDBRANCH  30  31
BRANCH  30  33
HETATM   33  N5  UNL     1       6.832  -0.319  -0.033  1.00  0.00    -0.371 N 
ATOM     34  H5  UNL     1       7.084  -0.518  -1.001  1.00  0.00     0.161 HD
BRANCH  33  35
HETATM   35  C20 UNL     1       7.710   0.531   0.768  1.00  0.00     0.153 C 
BRANCH  35  36
HETATM   36  C21 UNL     1       8.889   1.049   0.001  1.00  0.00     0.139 C 
HETATM   37  C22 UNL     1       8.510   2.043  -1.080  1.00  0.00     0.035 C 
HETATM   38  C23 UNL     1       8.697   3.390  -0.421  1.00  0.00     0.029 C 
HETATM   39  C24 UNL     1       9.354   3.054   0.873  1.00  0.00     0.168 C 
HETATM   40  O4  UNL     1       9.704   1.740   0.885  1.00  0.00    -0.384 OA
ENDBRANCH  35  36
ENDBRANCH  33  35
ENDBRANCH  30  33
ENDBRANCH  29  30
ENDBRANCH  28  29
ENDBRANCH   7  28
TORSDOF 11
