REMARK  10 active torsions:
REMARK  status: ('A' for Active; 'I' for Inactive)
REMARK    1  A    between atoms: O1_2  and  C2_3 
REMARK    2  A    between atoms: C2_3  and  C3_4 
REMARK    3  A    between atoms: C3_4  and  O2_5 
REMARK    4  A    between atoms: O2_5  and  C4_6 
REMARK    5  A    between atoms: C4_6  and  C5_8 
REMARK    6  A    between atoms: C5_8  and  C6_9 
REMARK    7  A    between atoms: C7_10  and  C8_11 
REMARK    8  A    between atoms: N1_28  and  C22_29 
REMARK    9  A    between atoms: C22_29  and  C23_30 
REMARK   10  A    between atoms: C23_30  and  C24_31 
ROOT
HETATM    1  C8  UNL     1       0.760  -0.734   1.262  1.00  0.00     0.007 C 
HETATM    2  C9  UNL     1      -0.113  -1.716   1.545  1.00  0.00    -0.046 C 
HETATM    3  C10 UNL     1       0.185  -2.665   2.633  1.00  0.00     0.040 C 
HETATM    4  C11 UNL     1      -0.670  -3.889   2.515  1.00  0.00     0.010 C 
HETATM    5  C12 UNL     1      -0.792  -4.264   1.046  1.00  0.00     0.047 C 
HETATM    6  C13 UNL     1      -1.701  -3.190   0.482  1.00  0.00    -0.005 A 
HETATM    7  S1  UNL     1      -3.099  -3.089  -0.419  1.00  0.00    -0.093 SA
HETATM    8  C14 UNL     1      -3.302  -1.382  -0.445  1.00  0.00     0.018 A 
HETATM    9  C15 UNL     1      -4.279  -0.559  -1.016  1.00  0.00     0.052 A 
HETATM   10  C16 UNL     1      -4.214   0.806  -0.875  1.00  0.00     0.075 A 
HETATM   11  C17 UNL     1      -3.144   1.277  -0.150  1.00  0.00     0.071 A 
HETATM   12  C18 UNL     1      -2.176   0.483   0.416  1.00  0.00     0.033 A 
HETATM   13  C19 UNL     1      -2.233  -0.929   0.275  1.00  0.00    -0.006 A 
HETATM   14  C20 UNL     1      -1.378  -1.862   0.769  1.00  0.00    -0.005 A 
HETATM   15  C21 UNL     1      -3.310   2.654  -0.157  1.00  0.00     0.317 A 
HETATM   16  O4  UNL     1      -2.539   3.482   0.400  1.00  0.00    -0.257 OA
HETATM   17  O5  UNL     1      -4.400   2.923  -0.842  1.00  0.00    -0.192 OA
HETATM   18  N1  UNL     1      -4.960   1.849  -1.281  1.00  0.00    -0.248 N 
ENDROOT
BRANCH   1  19
HETATM   19  C7  UNL     1       1.985  -0.557   1.981  1.00  0.00    -0.003 C 
HETATM   20  C6  UNL     1       2.826   0.401   1.694  1.00  0.00    -0.017 C 
BRANCH  20  21
HETATM   21  C5  UNL     1       2.692   1.425   0.644  1.00  0.00     0.138 C 
BRANCH  21  22
HETATM   22  C4  UNL     1       3.870   1.250  -0.277  1.00  0.00     0.262 C 
HETATM   23  O3  UNL     1       3.981   2.025  -1.275  1.00  0.00    -0.265 OA
BRANCH  22  24
HETATM   24  O2  UNL     1       4.827   0.293  -0.086  1.00  0.00    -0.316 OA
BRANCH  24  25
HETATM   25  C3  UNL     1       5.961   0.058  -0.869  1.00  0.00     0.249 C 
BRANCH  25  26
HETATM   26  C2  UNL     1       6.921   1.197  -0.780  1.00  0.00     0.208 A 
HETATM   27  C25 UNL     1       6.793   2.429  -0.078  1.00  0.00     0.242 A 
HETATM   28  O8  UNL     1       7.419   1.335   0.574  1.00  0.00    -0.346 OA
BRANCH  26  29
HETATM   29  O1  UNL     1       8.036   1.039  -1.643  1.00  0.00    -0.356 OA
HETATM   30  C1  UNL     1       8.786  -0.080  -1.321  1.00  0.00     0.205 C 
ENDBRANCH  26  29
ENDBRANCH  25  26
ENDBRANCH  24  25
ENDBRANCH  22  24
ENDBRANCH  21  22
ENDBRANCH  20  21
ENDBRANCH   1  19
BRANCH  18  31
HETATM   31  C22 UNL     1      -6.186   1.711  -2.082  1.00  0.00     0.167 C 
BRANCH  31  32
HETATM   32  C23 UNL     1      -7.397   1.575  -1.223  1.00  0.00     0.135 C 
BRANCH  32  33
HETATM   33  C24 UNL     1      -8.593   1.441  -2.084  1.00  0.00     0.174 C 
HETATM   34  O6  UNL     1      -8.449   1.457  -3.327  1.00  0.00    -0.648 OA
HETATM   35  O7  UNL     1      -9.876   1.297  -1.577  1.00  0.00    -0.648 OA
ENDBRANCH  32  33
ENDBRANCH  31  32
ENDBRANCH  18  31
TORSDOF 10
