REMARK  7 active torsions:
REMARK  status: ('A' for Active; 'I' for Inactive)
REMARK    1  A    between atoms: O1_2  and  C2_3 
REMARK    2  A    between atoms: C6_7  and  N1_9 
REMARK       I    between atoms: N2_12  and  C10_13 
REMARK    3  A    between atoms: C10_13  and  C11_15 
REMARK    4  A    between atoms: C11_15  and  C12_16 
REMARK    5  A    between atoms: C12_16  and  C13_17 
REMARK    6  A    between atoms: C18_22  and  C19_23 
REMARK    7  A    between atoms: N5_29  and  C21_31 
ROOT
HETATM    1  C11 UNL     1       2.292  -0.992   0.294  1.00  0.00     0.078 C 
HETATM    2  N5  UNL     1       3.225  -1.894  -0.121  1.00  0.00    -0.380 N 
ATOM      3  H5  UNL     1       3.573  -1.695  -1.059  1.00  0.00     0.160 HD
ENDROOT
BRANCH   1   4
HETATM    4  C10 UNL     1       0.972  -1.355   0.823  1.00  0.00     0.266 C 
HETATM    5  N2  UNL     1      -0.248  -0.686   0.579  1.00  0.00    -0.344 N 
HETATM    6  C9  UNL     1      -1.443  -1.266   1.254  1.00  0.00     0.145 C 
HETATM    7  C25 UNL     1      -0.400   0.465  -0.233  1.00  0.00     0.145 C 
HETATM    8  C8  UNL     1      -2.580  -0.250   1.128  1.00  0.00     0.137 C 
HETATM    9  N1  UNL     1      -2.806  -0.082  -0.262  1.00  0.00    -0.401 N 
HETATM   10  C26 UNL     1      -1.713   0.522  -0.974  1.00  0.00     0.137 C 
HETATM   11  O2  UNL     1       0.875  -2.356   1.577  1.00  0.00    -0.266 OA
BRANCH   9  12
HETATM   12  C6  UNL     1      -4.084   0.360  -0.684  1.00  0.00     0.024 C 
HETATM   13  C5  UNL     1      -4.460   1.732  -0.196  1.00  0.00     0.033 C 
HETATM   14  C4  UNL     1      -5.487   1.653   0.901  1.00  0.00     0.040 C 
HETATM   15  C2  UNL     1      -6.843   1.216   0.326  1.00  0.00     0.057 C 
HETATM   16  C3  UNL     1      -7.329   2.369  -0.508  1.00  0.00     0.046 C 
HETATM   17  C28 UNL     1      -6.581   0.026  -0.568  1.00  0.00     0.040 C 
HETATM   18  C27 UNL     1      -5.210  -0.572  -0.299  1.00  0.00     0.033 C 
HETATM   19  C7  UNL     1      -4.052   0.367  -2.221  1.00  0.00     0.038 C 
BRANCH  15  20
HETATM   20  O1  UNL     1      -7.627   0.913   1.407  1.00  0.00    -0.385 OA
HETATM   21  C1  UNL     1      -8.923   0.552   1.159  1.00  0.00     0.202 C 
ENDBRANCH  15  20
ENDBRANCH   9  12
ENDBRANCH   1   4
BRANCH   1  22
HETATM   22  C12 UNL     1       2.788   0.303   0.895  1.00  0.00     0.101 C 
BRANCH  22  23
HETATM   23  C13 UNL     1       4.082   0.750   0.344  1.00  0.00    -0.051 A 
HETATM   24  C14 UNL     1       5.312   0.581   0.925  1.00  0.00     0.014 A 
HETATM   25  C15 UNL     1       6.494   1.007   0.369  1.00  0.00    -0.061 A 
HETATM   26  C16 UNL     1       7.803   0.787   1.061  1.00  0.00     0.048 C 
HETATM   27  C17 UNL     1       6.493   1.653  -0.850  1.00  0.00     0.021 A 
HETATM   28  C18 UNL     1       5.272   1.854  -1.488  1.00  0.00     0.005 A 
HETATM   29  C20 UNL     1       4.116   1.413  -0.900  1.00  0.00     0.022 A 
BRANCH  28  30
HETATM   30  C19 UNL     1       5.287   2.543  -2.771  1.00  0.00     0.120 C 
HETATM   31  N3  UNL     1       4.211   2.763  -3.444  1.00  0.00    -0.387 N 
ATOM     32  H32 UNL     1       3.338   2.427  -3.036  1.00  0.00     0.157 HD
ATOM     33  H31 UNL     1       4.222   3.246  -4.343  1.00  0.00     0.157 HD
HETATM   34  N4  UNL     1       6.499   3.009  -3.337  1.00  0.00    -0.082 NA
ENDBRANCH  28  30
ENDBRANCH  22  23
ENDBRANCH   1  22
BRANCH   2  35
HETATM   35  C21 UNL     1       3.803  -3.006   0.431  1.00  0.00     0.019 C 
HETATM   36  C22 UNL     1       2.890  -4.254   0.501  1.00  0.00     0.037 C 
HETATM   37  C23 UNL     1       4.449  -2.899   1.809  1.00  0.00     0.037 C 
HETATM   38  C24 UNL     1       4.961  -3.447  -0.472  1.00  0.00     0.037 C 
ENDBRANCH   2  35
TORSDOF 7
