REMARK  8 active torsions:
REMARK  status: ('A' for Active; 'I' for Inactive)
REMARK    1  A    between atoms: C5_5  and  C6_6 
REMARK    2  A    between atoms: C6_6  and  N1_7 
REMARK       I    between atoms: N1_7  and  C7_9 
REMARK    3  A    between atoms: C7_9  and  C8_11 
REMARK    4  A    between atoms: C8_11  and  C9_12 
REMARK    5  A    between atoms: C12_15  and  O2_16 
REMARK    6  A    between atoms: O2_16  and  C13_17 
REMARK       I    between atoms: C13_17  and  N2_19 
REMARK    7  A    between atoms: C17_28  and  N5_29 
REMARK       I    between atoms: N5_29  and  C18_31 
REMARK    8  A    between atoms: C18_31  and  C19_33 
ROOT
HETATM    1  C13 UNL     1       0.845  -1.169   1.197  1.00  0.00     0.366 C 
HETATM    2  O3  UNL     1      -0.055  -0.825   2.035  1.00  0.00    -0.238 OA
HETATM    3  N2  UNL     1       2.203  -1.215   1.551  1.00  0.00    -0.278 N 
HETATM    4  C14 UNL     1       3.308  -1.602   0.670  1.00  0.00     0.317 C 
HETATM    5  F1  UNL     1       3.643  -2.914   0.880  1.00  0.00    -0.221 F 
HETATM    6  C15 UNL     1       4.383  -0.674   1.098  1.00  0.00     0.067 A 
HETATM    7  C16 UNL     1       4.093  -0.248   2.364  1.00  0.00     0.068 A 
HETATM    8  N3  UNL     1       5.065   0.590   2.729  1.00  0.00    -0.300 N 
ATOM      9  H3  UNL     1       5.126   1.072   3.626  1.00  0.00     0.186 HD
HETATM   10  N4  UNL     1       5.950   0.696   1.726  1.00  0.00    -0.285 N 
ATOM     11  H4  UNL     1       6.789   1.276   1.751  1.00  0.00     0.188 HD
HETATM   12  C17 UNL     1       5.580  -0.066   0.687  1.00  0.00     0.135 A 
HETATM   13  C23 UNL     1       2.796  -0.903   2.805  1.00  0.00     0.078 C 
HETATM   14  C24 UNL     1       1.986   0.112   3.538  1.00  0.00     0.045 C 
HETATM   15  C25 UNL     1       3.128  -2.116   3.634  1.00  0.00     0.045 C 
ENDROOT
BRANCH   1  16
HETATM   16  O2  UNL     1       0.333  -1.477  -0.058  1.00  0.00    -0.298 OA
BRANCH  16  17
HETATM   17  C12 UNL     1      -1.015  -1.425  -0.407  1.00  0.00     0.134 C 
HETATM   18  C11 UNL     1      -1.658  -2.690  -0.826  1.00  0.00     0.033 C 
HETATM   19  C10 UNL     1      -3.054  -2.135  -1.202  1.00  0.00     0.007 C 
HETATM   20  C9  UNL     1      -2.636  -0.949  -2.063  1.00  0.00    -0.003 C 
HETATM   21  C26 UNL     1      -1.363  -0.439  -1.455  1.00  0.00     0.037 C 
BRANCH  20  22
HETATM   22  C8  UNL     1      -3.700   0.051  -2.283  1.00  0.00     0.107 C 
BRANCH  22  23
HETATM   23  C7  UNL     1      -4.261   0.729  -1.135  1.00  0.00     0.217 C 
HETATM   24  N1  UNL     1      -5.352   1.624  -1.306  1.00  0.00    -0.361 N 
ATOM     25  H1  UNL     1      -5.722   1.765  -2.246  1.00  0.00     0.162 HD
HETATM   26  O1  UNL     1      -3.835   0.575   0.028  1.00  0.00    -0.274 OA
BRANCH  24  27
HETATM   27  C6  UNL     1      -5.959   2.340  -0.215  1.00  0.00     0.128 C 
BRANCH  27  28
HETATM   28  C5  UNL     1      -6.534   1.485   0.860  1.00  0.00     0.012 A 
HETATM   29  C2  UNL     1      -7.607   0.504   0.623  1.00  0.00    -0.042 A 
HETATM   30  C1  UNL     1      -8.345   0.401  -0.676  1.00  0.00     0.015 C 
HETATM   31  C3  UNL     1      -7.554  -0.776   1.456  1.00  0.00     0.015 C 
HETATM   32  C4  UNL     1      -7.926   1.792   1.385  1.00  0.00     0.016 A 
ENDBRANCH  27  28
ENDBRANCH  24  27
ENDBRANCH  22  23
ENDBRANCH  20  22
ENDBRANCH  16  17
ENDBRANCH   1  16
BRANCH  12  33
HETATM   33  N5  UNL     1       6.133  -0.260  -0.461  1.00  0.00    -0.311 N 
HETATM   34  C18 UNL     1       7.322   0.348  -0.865  1.00  0.00     0.227 C 
HETATM   35  O4  UNL     1       8.170   0.795  -0.064  1.00  0.00    -0.273 OA
ATOM     36  H5  UNL     1       5.674  -0.896  -1.113  1.00  0.00     0.170 HD
BRANCH  34  37
HETATM   37  C19 UNL     1       7.679   0.514  -2.319  1.00  0.00     0.078 A 
HETATM   38  C20 UNL     1       8.959   1.222  -2.599  1.00  0.00     0.014 A 
HETATM   39  C21 UNL     1       8.228   2.305  -3.363  1.00  0.00     0.002 A 
HETATM   40  C22 UNL     1       6.932   1.617  -3.023  1.00  0.00     0.014 A 
ENDBRANCH  34  37
ENDBRANCH  12  33
TORSDOF 8
