REMARK  3 active torsions:
REMARK  status: ('A' for Active; 'I' for Inactive)
REMARK    1  A    between atoms: C3_3  and  N1_4 
REMARK    2  A    between atoms: N1_4  and  C4_6 
REMARK    3  A    between atoms: C4_6  and  C5_7 
ROOT
HETATM    1  C1  UNL     1       1.914  -3.104  -1.751  1.00  0.00     0.015 C 
HETATM    2  C2  UNL     1       1.963  -2.034  -1.184  1.00  0.00    -0.086 C 
HETATM    3  C3  UNL     1       1.995  -0.713  -0.484  1.00  0.00     0.090 C 
HETATM    4  C7  UNL     1       1.481   0.301  -1.430  1.00  0.00     0.044 C 
HETATM    5  C8  UNL     1       0.203   0.987  -1.060  1.00  0.00     0.009 C 
HETATM    6  C9  UNL     1      -0.643  -0.003  -0.295  1.00  0.00     0.002 C 
HETATM    7  C10 UNL     1       0.006  -0.205   1.032  1.00  0.00    -0.036 C 
HETATM    8  C11 UNL     1       0.188   0.997   1.878  1.00  0.00     0.015 C 
HETATM    9  C12 UNL     1      -0.910  -1.171   1.798  1.00  0.00     0.010 C 
HETATM   10  C13 UNL     1      -2.254  -0.603   2.045  1.00  0.00     0.006 C 
HETATM   11  C14 UNL     1      -2.738   0.390   1.039  1.00  0.00    -0.006 C 
HETATM   12  C15 UNL     1      -4.220   0.462   1.012  1.00  0.00     0.005 C 
HETATM   13  C16 UNL     1      -4.913  -0.204  -0.112  1.00  0.00     0.000 C 
HETATM   14  C17 UNL     1      -4.043  -1.309  -0.644  1.00  0.00     0.001 C 
HETATM   15  C18 UNL     1      -2.822  -0.714  -1.227  1.00  0.00     0.010 C 
HETATM   16  C19 UNL     1      -2.095   0.262  -0.320  1.00  0.00    -0.036 C 
HETATM   17  C20 UNL     1      -2.293   1.638  -0.984  1.00  0.00     0.016 C 
HETATM   18  C21 UNL     1       1.342  -0.857   0.818  1.00  0.00     0.053 C 
ENDROOT
BRANCH   3  19
HETATM   19  N1  UNL     1       3.421  -0.481  -0.321  1.00  0.00    -0.403 N 
ATOM     20  H1  UNL     1       4.114  -1.155  -0.647  1.00  0.00     0.154 HD
BRANCH  19  21
HETATM   21  C4  UNL     1       3.797   0.721   0.310  1.00  0.00     0.115 C 
BRANCH  21  22
HETATM   22  C5  UNL     1       5.334   0.751   0.370  1.00  0.00     0.015 C 
HETATM   23  C6  UNL     1       5.917   0.694  -1.028  1.00  0.00     0.006 C 
ENDBRANCH  21  22
ENDBRANCH  19  21
ENDBRANCH   3  19
TORSDOF 3
