REMARK  4 active torsions:
REMARK  status: ('A' for Active; 'I' for Inactive)
REMARK    1  A    between atoms: C2_2  and  C3_3 
REMARK    2  A    between atoms: C2_2  and  C10_12 
REMARK    3  A    between atoms: C3_3  and  C4_4 
REMARK    4  A    between atoms: C4_4  and  C5_5 
ROOT
HETATM    1  C10 UNL     1      -0.842  -0.622  -0.828  1.00  0.00    -0.002 C 
HETATM    2  C11 UNL     1      -1.653  -0.142  -2.014  1.00  0.00     0.006 C 
HETATM    3  C12 UNL     1      -2.641   0.810  -1.452  1.00  0.00     0.006 C 
HETATM    4  C13 UNL     1      -2.619   0.738   0.033  1.00  0.00     0.002 C 
HETATM    5  C14 UNL     1      -3.945   0.769   0.689  1.00  0.00    -0.043 C 
HETATM    6  C15 UNL     1      -4.976   1.342  -0.302  1.00  0.00     0.015 C 
HETATM    7  C16 UNL     1      -3.998   1.730   1.886  1.00  0.00     0.015 C 
HETATM    8  C17 UNL     1      -4.499  -0.531   1.150  1.00  0.00     0.009 C 
HETATM    9  C18 UNL     1      -3.937  -1.606   0.251  1.00  0.00     0.002 C 
HETATM   10  C19 UNL     1      -2.482  -1.717   0.577  1.00  0.00     0.010 C 
HETATM   11  C20 UNL     1      -1.707  -0.416   0.317  1.00  0.00    -0.036 C 
HETATM   12  C21 UNL     1      -1.036  -0.109   1.650  1.00  0.00     0.016 C 
ENDROOT
BRANCH   1  13
HETATM   13  C2  UNL     1       0.537  -0.105  -0.946  1.00  0.00    -0.014 C 
HETATM   14  C1  UNL     1       0.794   1.321  -0.974  1.00  0.00     0.010 C 
BRANCH  13  15
HETATM   15  C3  UNL     1       1.509  -0.929  -0.185  1.00  0.00     0.005 C 
BRANCH  15  16
HETATM   16  C4  UNL     1       2.921  -0.993  -0.571  1.00  0.00     0.006 C 
BRANCH  16  17
HETATM   17  C5  UNL     1       3.817   0.175  -0.512  1.00  0.00     0.003 C 
HETATM   18  C6  UNL     1       5.183  -0.301  -1.019  1.00  0.00     0.008 C 
HETATM   19  C7  UNL     1       5.962  -1.024   0.019  1.00  0.00     0.020 C 
HETATM   20  C8  UNL     1       6.176  -0.040   1.178  1.00  0.00     0.113 C 
HETATM   21  N1  UNL     1       4.876   0.202   1.720  1.00  0.00    -0.421 N 
HETATM   22  C9  UNL     1       3.940   0.806   0.850  1.00  0.00     0.118 C 
ATOM     23  H1  UNL     1       4.637  -0.047   2.680  1.00  0.00     0.153 HD
ENDBRANCH  16  17
ENDBRANCH  15  16
ENDBRANCH  13  15
ENDBRANCH   1  13
TORSDOF 4
