REMARK  8 active torsions:
REMARK  status: ('A' for Active; 'I' for Inactive)
REMARK    1  A    between atoms: C2_2  and  C3_3 
REMARK    2  A    between atoms: C3_3  and  C4_4 
REMARK    3  A    between atoms: C4_4  and  C5_5 
REMARK    4  A    between atoms: C5_5  and  C6_6 
REMARK    5  A    between atoms: C7_7  and  C8_8 
REMARK    6  A    between atoms: C8_8  and  N1_9 
REMARK    7  A    between atoms: C8_8  and  C9_13 
REMARK    8  A    between atoms: C10_14  and  C11_15 
ROOT
HETATM    1  C9  UNL     1       0.269  -1.378   0.219  1.00  0.00     0.015 C 
HETATM    2  C10 UNL     1      -1.049  -1.465   0.233  1.00  0.00    -0.018 C 
ENDROOT
BRANCH   1   3
HETATM    3  C8  UNL     1       1.146  -2.561   0.157  1.00  0.00     0.284 C 
BRANCH   3   4
HETATM    4  C7  UNL     1       2.431  -2.177  -0.423  1.00  0.00    -0.070 C 
HETATM    5  C6  UNL     1       3.503  -1.867  -0.885  1.00  0.00    -0.104 C 
BRANCH   5   6
HETATM    6  C5  UNL     1       4.812  -1.495  -1.420  1.00  0.00     0.094 C 
BRANCH   6   7
HETATM    7  C4  UNL     1       5.506  -0.518  -0.463  1.00  0.00     0.012 C 
BRANCH   7   8
HETATM    8  C3  UNL     1       6.863  -0.123  -1.004  1.00  0.00     0.000 C 
BRANCH   8   9
HETATM    9  C2  UNL     1       7.455   0.847   0.029  1.00  0.00    -0.005 C 
HETATM   10  C1  UNL     1       6.503   2.009   0.112  1.00  0.00     0.005 C 
ENDBRANCH   8   9
ENDBRANCH   7   8
ENDBRANCH   6   7
ENDBRANCH   5   6
ENDBRANCH   3   4
BRANCH   3  11
HETATM   11  N1  UNL     1       0.604  -3.615  -0.677  1.00  0.00    -0.061 N 
ATOM     12  H13 UNL     1       0.538  -3.354  -1.661  1.00  0.00     0.276 HD
ATOM     13  H12 UNL     1       1.242  -4.402  -0.794  1.00  0.00     0.276 HD
ATOM     14  H11 UNL     1      -0.293  -3.883  -0.272  1.00  0.00     0.276 HD
ENDBRANCH   3  11
ENDBRANCH   1   3
BRANCH   2  15
HETATM   15  C11 UNL     1      -1.899  -0.253   0.296  1.00  0.00    -0.022 C 
HETATM   16  C12 UNL     1      -1.049   0.995   0.207  1.00  0.00     0.014 C 
HETATM   17  C13 UNL     1      -2.003   2.174   0.190  1.00  0.00     0.007 C 
HETATM   18  C14 UNL     1      -3.445   1.738   0.367  1.00  0.00    -0.002 C 
HETATM   19  C15 UNL     1      -3.551   0.995   1.666  1.00  0.00    -0.009 C 
HETATM   20  C19 UNL     1      -3.853   0.798  -0.749  1.00  0.00    -0.039 C 
HETATM   21  C16 UNL     1      -4.960   0.529   1.947  1.00  0.00     0.005 C 
HETATM   22  C22 UNL     1      -2.628  -0.191   1.624  1.00  0.00     0.018 C 
HETATM   23  C17 UNL     1      -5.403  -0.366   0.815  1.00  0.00     0.001 C 
HETATM   24  C18 UNL     1      -5.263   0.343  -0.494  1.00  0.00     0.010 C 
HETATM   25  C20 UNL     1      -3.852   1.524  -2.089  1.00  0.00     0.015 C 
HETATM   26  C21 UNL     1      -2.878  -0.335  -0.860  1.00  0.00     0.023 C 
ENDBRANCH   2  15
TORSDOF 8
