REMARK  6 active torsions:
REMARK  status: ('A' for Active; 'I' for Inactive)
REMARK    1  A    between atoms: C2_2  and  C3_3 
REMARK    2  A    between atoms: C3_3  and  C4_4 
REMARK    3  A    between atoms: C4_4  and  C5_5 
REMARK    4  A    between atoms: C5_5  and  C6_6 
REMARK    5  A    between atoms: C12_12  and  N1_13 
REMARK    6  A    between atoms: C18_19  and  O1_20 
ROOT
HETATM    1  C6  UNL     1       0.959  -0.634   0.105  1.00  0.00    -0.030 C 
HETATM    2  C7  UNL     1       1.643  -1.863   0.769  1.00  0.00     0.015 C 
HETATM    3  C8  UNL     1       0.283  -2.565   0.986  1.00  0.00    -0.006 C 
HETATM    4  C9  UNL     1      -0.211  -1.482   1.954  1.00  0.00     0.017 C 
HETATM    5  C10 UNL     1      -0.219  -0.307   0.942  1.00  0.00    -0.003 C 
HETATM    6  C11 UNL     1      -0.066   1.004   1.668  1.00  0.00     0.018 C 
HETATM    7  C12 UNL     1      -1.584  -0.457   0.331  1.00  0.00     0.260 C 
HETATM    8  C18 UNL     1      -1.683  -1.768  -0.389  1.00  0.00     0.156 C 
HETATM    9  C19 UNL     1      -0.307  -2.456  -0.380  1.00  0.00     0.021 C 
HETATM   10  C20 UNL     1       0.551  -1.420  -1.145  1.00  0.00     0.018 C 
ENDROOT
BRANCH   7  11
HETATM   11  N1  UNL     1      -2.119   0.660  -0.363  1.00  0.00     0.096 N 
HETATM   12  C13 UNL     1      -2.949   0.259  -1.517  1.00  0.00     0.273 C 
HETATM   13  C14 UNL     1      -3.943   1.344  -1.860  1.00  0.00     0.030 C 
HETATM   14  C15 UNL     1      -5.084   1.218  -0.846  1.00  0.00     0.003 C 
HETATM   15  C16 UNL     1      -4.436   0.835   0.457  1.00  0.00     0.030 C 
HETATM   16  C17 UNL     1      -3.036   1.472   0.435  1.00  0.00     0.273 C 
ENDBRANCH   7  11
BRANCH   8  17
HETATM   17  O1  UNL     1      -2.652  -2.623   0.122  1.00  0.00    -0.393 OA
ATOM     18  H1  UNL     1      -2.715  -3.454  -0.334  1.00  0.00     0.210 HD
ENDBRANCH   8  17
BRANCH   1  19
HETATM   19  C5  UNL     1       1.993   0.394  -0.095  1.00  0.00     0.010 C 
BRANCH  19  20
HETATM   20  C4  UNL     1       3.077  -0.147  -0.987  1.00  0.00     0.001 C 
BRANCH  20  21
HETATM   21  C3  UNL     1       4.174   0.861  -1.243  1.00  0.00    -0.000 C 
BRANCH  21  22
HETATM   22  C2  UNL     1       4.822   1.256   0.072  1.00  0.00    -0.005 C 
HETATM   23  C1  UNL     1       5.924   2.251  -0.127  1.00  0.00     0.005 C 
ENDBRANCH  21  22
ENDBRANCH  20  21
ENDBRANCH  19  20
ENDBRANCH   1  19
TORSDOF 6
