REMARK  3 active torsions:
REMARK  status: ('A' for Active; 'I' for Inactive)
REMARK    1  A    between atoms: C2_3  and  C3_4 
REMARK    2  A    between atoms: C3_4  and  C15_16 
REMARK    3  A    between atoms: C4_5  and  C5_6 
ROOT
HETATM    1  C3  UNL     1      -1.037   0.127  -0.499  1.00  0.00    -0.056 C 
HETATM    2  C4  UNL     1       0.030   0.129   0.455  1.00  0.00    -0.010 C 
ENDROOT
BRANCH   1   3
HETATM    3  C2  UNL     1      -1.549   1.018  -1.474  1.00  0.00     0.022 C 
HETATM    4  C1  UNL     1      -1.074   1.684  -2.659  1.00  0.00     0.100 C 
HETATM    5  N1  UNL     1      -0.071   2.689  -2.647  1.00  0.00    -0.115 NA
ENDBRANCH   1   3
BRANCH   1   6
HETATM    6  C15 UNL     1      -2.283  -0.484   0.230  1.00  0.00     0.023 C 
HETATM    7  C16 UNL     1      -3.163   0.478   0.912  1.00  0.00     0.014 C 
HETATM    8  C17 UNL     1      -4.445  -0.393   0.990  1.00  0.00    -0.013 C 
HETATM    9  C18 UNL     1      -4.118  -1.793   1.414  1.00  0.00     0.005 C 
HETATM   10  C21 UNL     1      -4.583  -0.611  -0.530  1.00  0.00     0.010 C 
HETATM   11  C19 UNL     1      -3.557  -2.516   0.175  1.00  0.00     0.005 C 
HETATM   12  C20 UNL     1      -3.182  -1.256  -0.650  1.00  0.00    -0.006 C 
ENDBRANCH   1   6
BRANCH   2  13
HETATM   13  C5  UNL     1       1.482   0.170   0.298  1.00  0.00    -0.021 C 
HETATM   14  C6  UNL     1       1.982   0.117   1.781  1.00  0.00     0.018 C 
HETATM   15  C7  UNL     1       3.440   0.002   1.914  1.00  0.00    -0.013 C 
HETATM   16  C8  UNL     1       4.056   1.256   1.321  1.00  0.00     0.009 C 
HETATM   17  C12 UNL     1       3.982  -1.247   1.246  1.00  0.00     0.009 C 
HETATM   18  C9  UNL     1       3.669   1.291  -0.111  1.00  0.00    -0.013 C 
HETATM   19  C10 UNL     1       4.237   0.049  -0.792  1.00  0.00     0.009 C 
HETATM   20  C14 UNL     1       2.177   1.297  -0.316  1.00  0.00     0.018 C 
HETATM   21  C11 UNL     1       3.528  -1.131  -0.212  1.00  0.00    -0.013 C 
HETATM   22  C13 UNL     1       2.050  -1.114  -0.309  1.00  0.00     0.018 C 
ENDBRANCH   2  13
TORSDOF 3
