REMARK  4 active torsions:
REMARK  status: ('A' for Active; 'I' for Inactive)
REMARK    1  A    between atoms: N1_2  and  C1_4 
REMARK    2  A    between atoms: C4_7  and  N2_8 
REMARK    3  A    between atoms: N2_8  and  N3_10 
REMARK    4  A    between atoms: N3_10  and  C5_12 
ROOT
HETATM    1  N2  UNL     1       0.729   1.792   0.627  1.00  0.00    -0.300 N 
ATOM      2  H2  UNL     1       0.844   2.798   0.506  1.00  0.00     0.187 HD
ENDROOT
BRANCH   1   3
HETATM    3  C4  UNL     1       1.835   0.971   0.353  1.00  0.00     0.048 A 
HETATM    4  C3  UNL     1       2.214   0.655  -0.926  1.00  0.00     0.033 A 
HETATM    5  C2  UNL     1       3.313  -0.162  -1.167  1.00  0.00     0.038 A 
HETATM    6  C1  UNL     1       4.058  -0.683  -0.134  1.00  0.00     0.103 A 
HETATM    7  C12 UNL     1       3.686  -0.371   1.154  1.00  0.00     0.038 A 
HETATM    8  C11 UNL     1       2.596   0.440   1.391  1.00  0.00     0.033 A 
BRANCH   6   9
HETATM    9  N1  UNL     1       5.192  -1.530  -0.376  1.00  0.00    -0.116 N 
HETATM   10  O1  UNL     1       5.557  -1.821  -1.527  1.00  0.00    -0.532 OA
HETATM   11  O2  UNL     1       5.895  -2.029   0.692  1.00  0.00    -0.532 OA
ENDBRANCH   6   9
ENDBRANCH   1   3
BRANCH   1  12
HETATM   12  N3  UNL     1      -0.480   1.343   1.041  1.00  0.00    -0.289 N 
ATOM     13  H3  UNL     1      -0.666   1.569   2.018  1.00  0.00     0.188 HD
BRANCH  12  14
HETATM   14  C5  UNL     1      -1.408   0.726   0.516  1.00  0.00     0.094 C 
HETATM   15  C6  UNL     1      -1.465   0.211  -0.993  1.00  0.00     0.084 C 
HETATM   16  C7  UNL     1      -2.764  -0.629  -1.006  1.00  0.00     0.012 C 
HETATM   17  C8  UNL     1      -4.052   0.166  -0.821  1.00  0.00     0.026 C 
HETATM   18  C10 UNL     1      -2.649  -1.150   0.505  1.00  0.00     0.129 C 
HETATM   19  C9  UNL     1      -4.018   0.564   0.782  1.00  0.00     0.124 C 
HETATM   20  N4  UNL     1      -2.659   0.274   0.767  1.00  0.00    -0.369 N 
ENDBRANCH  12  14
ENDBRANCH   1  12
TORSDOF 4
