REMARK  5 active torsions:
REMARK  status: ('A' for Active; 'I' for Inactive)
REMARK    1  A    between atoms: O1_1  and  C1_3 
REMARK    2  A    between atoms: C3_5  and  C4_6 
REMARK    3  A    between atoms: C8_10  and  O2_11 
REMARK    4  A    between atoms: N1_13  and  C9_14 
REMARK    5  A    between atoms: C9_14  and  N2_15 
ROOT
HETATM    1  C1  UNL     1       0.885   1.562  -0.256  1.00  0.00     0.146 A 
HETATM    2  C2  UNL     1       2.019   0.839  -0.533  1.00  0.00     0.068 A 
HETATM    3  C3  UNL     1       1.871  -0.447  -0.068  1.00  0.00     0.001 A 
HETATM    4  C8  UNL     1       0.603  -0.472   0.501  1.00  0.00     0.152 A 
HETATM    5  N1  UNL     1       0.023   0.727   0.384  1.00  0.00    -0.280 N 
ENDROOT
BRANCH   5   6
HETATM    6  C9  UNL     1      -1.280   1.125   0.865  1.00  0.00     0.406 C 
BRANCH   6   7
HETATM    7  N2  UNL     1      -2.303   1.028  -0.104  1.00  0.00     0.110 N 
HETATM    8  C10 UNL     1      -2.579  -0.235  -0.678  1.00  0.00     0.300 C 
HETATM    9  C11 UNL     1      -3.405  -1.125   0.218  1.00  0.00     0.198 C 
HETATM   10  O3  UNL     1      -4.449  -0.415   0.813  1.00  0.00    -0.388 OA
HETATM   11  C12 UNL     1      -4.683   0.797   0.176  1.00  0.00     0.198 C 
HETATM   12  C13 UNL     1      -3.500   1.751   0.300  1.00  0.00     0.300 C 
ENDBRANCH   6   7
ENDBRANCH   5   6
BRANCH   1  13
HETATM   13  O1  UNL     1       0.639   2.886  -0.558  1.00  0.00    -0.346 OA
ATOM     14  H1  UNL     1      -0.146   3.386  -0.366  1.00  0.00     0.219 HD
ENDBRANCH   1  13
BRANCH   4  15
HETATM   15  O2  UNL     1       0.119  -1.632   1.079  1.00  0.00    -0.345 OA
ATOM     16  H2  UNL     1      -0.748  -1.649   1.468  1.00  0.00     0.219 HD
ENDBRANCH   4  15
BRANCH   3  17
HETATM   17  C4  UNL     1       2.856  -1.524  -0.167  1.00  0.00     0.023 C 
HETATM   18  C5  UNL     1       4.076  -1.086  -0.939  1.00  0.00     0.009 C 
HETATM   19  C6  UNL     1       4.657  -0.624   0.381  1.00  0.00     0.001 C 
HETATM   20  C7  UNL     1       3.778  -1.667   1.038  1.00  0.00     0.009 C 
ENDBRANCH   3  17
TORSDOF 5
