REMARK  4 active torsions:
REMARK  status: ('A' for Active; 'I' for Inactive)
REMARK    1  A    between atoms: C2_3  and  C7_13 
REMARK    2  A    between atoms: N2_4  and  N3_6 
REMARK    3  A    between atoms: C6_10  and  O1_11 
REMARK       I    between atoms: C7_13  and  N4_15 
REMARK    4  A    between atoms: N4_15  and  C8_17 
ROOT
HETATM    1  N1  UNL     1       2.636   1.911  -2.949  1.00  0.00    -0.190 NA
HETATM    2  C1  UNL     1       1.632   1.550  -2.503  1.00  0.00     0.125 C 
HETATM    3  C2  UNL     1       0.372   1.114  -1.930  1.00  0.00     0.197 C 
HETATM    4  N2  UNL     1      -0.661   1.332  -2.588  1.00  0.00    -0.278 N 
ATOM      5  H2  UNL     1      -0.544   1.803  -3.485  1.00  0.00     0.188 HD
ENDROOT
BRANCH   3   6
HETATM    6  C7  UNL     1       0.402   0.462  -0.647  1.00  0.00     0.284 C 
HETATM    7  O2  UNL     1      -0.672   0.087  -0.155  1.00  0.00    -0.265 OA
HETATM    8  N4  UNL     1       1.613   0.248   0.046  1.00  0.00    -0.321 N 
ATOM      9  H4  UNL     1       2.451   0.589  -0.426  1.00  0.00     0.169 HD
BRANCH   8  10
HETATM   10  C8  UNL     1       1.831  -0.361   1.281  1.00  0.00     0.035 A 
HETATM   11  C9  UNL     1       0.915  -1.061   2.003  1.00  0.00     0.029 A 
HETATM   12  C10 UNL     1       1.223  -1.630   3.253  1.00  0.00     0.002 A 
HETATM   13  C11 UNL     1       2.466  -1.504   3.802  1.00  0.00     0.000 A 
HETATM   14  C12 UNL     1       3.412  -0.801   3.092  1.00  0.00     0.002 A 
HETATM   15  C13 UNL     1       3.099  -0.250   1.871  1.00  0.00     0.029 A 
ENDBRANCH   8  10
ENDBRANCH   3   6
BRANCH   4  16
HETATM   16  N3  UNL     1      -1.942   1.001  -2.225  1.00  0.00    -0.244 N 
HETATM   17  C3  UNL     1      -2.799   1.785  -1.520  1.00  0.00     0.119 A 
HETATM   18  C4  UNL     1      -4.000   1.159  -1.344  1.00  0.00     0.024 A 
HETATM   19  C5  UNL     1      -3.868  -0.053  -1.966  1.00  0.00     0.059 A 
HETATM   20  C6  UNL     1      -2.606  -0.135  -2.500  1.00  0.00     0.161 A 
BRANCH  20  21
HETATM   21  O1  UNL     1      -2.103  -1.235  -3.216  1.00  0.00    -0.345 OA
ATOM     22  H1  UNL     1      -2.572  -2.038  -3.410  1.00  0.00     0.219 HD
ENDBRANCH  20  21
ENDBRANCH   4  16
TORSDOF 4
