REMARK  3 active torsions:
REMARK  status: ('A' for Active; 'I' for Inactive)
REMARK    1  A    between atoms: O1_1  and  C1_3 
REMARK    2  A    between atoms: C9_18  and  O2_19 
REMARK    3  A    between atoms: C10_23  and  O3_24 
ROOT
HETATM    1  C1  UNL     1       0.117   1.743   1.097  1.00  0.00     0.122 C 
HETATM    2  C2  UNL     1      -0.664   1.756  -0.154  1.00  0.00     0.124 C 
HETATM    3  C3  UNL     1      -1.577   0.605  -0.341  1.00  0.00    -0.024 A 
HETATM    4  C4  UNL     1      -2.583   0.638  -1.250  1.00  0.00     0.041 A 
HETATM    5  C5  UNL     1      -3.285  -0.647  -1.175  1.00  0.00     0.294 A 
HETATM    6  F1  UNL     1      -4.640  -0.520  -0.985  1.00  0.00    -0.223 F 
HETATM    7  N1  UNL     1      -2.593  -1.339  -0.181  1.00  0.00    -0.356 N 
ATOM      8  H1  UNL     1      -2.846  -2.283   0.112  1.00  0.00     0.162 HD
HETATM    9  C6  UNL     1      -1.579  -0.670   0.352  1.00  0.00     0.038 A 
HETATM   10  C7  UNL     1      -0.746  -1.199   1.404  1.00  0.00     0.048 C 
HETATM   11  C8  UNL     1       0.416  -1.840   1.375  1.00  0.00     0.109 C 
HETATM   12  N2  UNL     1       1.215  -2.214   0.281  1.00  0.00    -0.309 N 
ATOM     13  H2  UNL     1       1.706  -3.098   0.418  1.00  0.00     0.186 HD
HETATM   14  N3  UNL     1       1.468  -1.627  -0.937  1.00  0.00    -0.266 N 
ATOM     15  H3  UNL     1       1.211  -2.208  -1.735  1.00  0.00     0.190 HD
HETATM   16  C9  UNL     1       2.011  -0.383  -1.294  1.00  0.00     0.239 C 
HETATM   17  N4  UNL     1       2.739   0.563  -0.578  1.00  0.00    -0.287 N 
ATOM     18  H4  UNL     1       3.555   0.912  -1.081  1.00  0.00     0.173 HD
HETATM   19  C10 UNL     1       2.580   1.139   0.702  1.00  0.00     0.226 C 
HETATM   20  N5  UNL     1       1.480   1.717   1.345  1.00  0.00    -0.306 N 
ATOM     21  H5  UNL     1       1.740   2.235   2.184  1.00  0.00     0.171 HD
ENDROOT
BRANCH   1  22
HETATM   22  O1  UNL     1      -0.669   1.761   2.135  1.00  0.00    -0.349 OA
ATOM     23  H1  UNL     1      -0.166   1.753   2.941  1.00  0.00     0.219 HD
ENDBRANCH   1  22
BRANCH  19  24
HETATM   24  O3  UNL     1       3.678   1.121   1.401  1.00  0.00    -0.332 OA
ATOM     25  H3  UNL     1       3.571   1.508   2.262  1.00  0.00     0.221 HD
ENDBRANCH  19  24
BRANCH  16  26
HETATM   26  O2  UNL     1       1.785  -0.055  -2.534  1.00  0.00    -0.331 OA
ATOM     27  H2  UNL     1       2.153   0.787  -2.776  1.00  0.00     0.221 HD
ENDBRANCH  16  26
TORSDOF 3
