REMARK  9 active torsions:
REMARK  status: ('A' for Active; 'I' for Inactive)
REMARK    1  A    between atoms: C5_7  and  C6_8 
REMARK    2  A    between atoms: C6_8  and  C7_9 
REMARK    3  A    between atoms: C7_9  and  C8_10 
REMARK    4  A    between atoms: C8_10  and  C9_11 
REMARK    5  A    between atoms: C9_11  and  C10_12 
REMARK    6  A    between atoms: C10_12  and  N3_13 
REMARK    7  A    between atoms: C14_20  and  C15_21 
REMARK    8  A    between atoms: C16_22  and  C17_23 
REMARK    9  A    between atoms: C17_23  and  C18_24 
ROOT
HETATM    1  C6  UNL     1      -0.311  -1.191  -0.035  1.00  0.00     0.029 C 
HETATM    2  C14 UNL     1       0.932  -0.791  -0.229  1.00  0.00     0.021 C 
ENDROOT
BRANCH   1   3
HETATM    3  C5  UNL     1      -0.619  -2.507   0.447  1.00  0.00     0.009 A 
HETATM    4  C4  UNL     1      -1.888  -2.974   0.665  1.00  0.00     0.058 A 
HETATM    5  C3  UNL     1      -2.067  -4.276   1.137  1.00  0.00     0.029 A 
HETATM    6  N2  UNL     1      -3.020  -2.167   0.424  1.00  0.00    -0.102 NA
HETATM    7  C2  UNL     1      -1.007  -5.114   1.393  1.00  0.00     0.028 A 
HETATM    8  C1  UNL     1       0.261  -4.648   1.174  1.00  0.00     0.047 A 
HETATM    9  N1  UNL     1       1.388  -5.487   1.428  1.00  0.00    -0.102 NA
HETATM   10  C23 UNL     1       0.446  -3.375   0.713  1.00  0.00     0.041 A 
ENDBRANCH   1   3
BRANCH   1  11
HETATM   11  C7  UNL     1      -1.326  -0.231  -0.337  1.00  0.00    -0.065 C 
BRANCH  11  12
HETATM   12  C8  UNL     1      -2.174   0.631  -0.610  1.00  0.00    -0.089 C 
BRANCH  12  13
HETATM   13  C9  UNL     1      -3.151   1.659  -0.936  1.00  0.00     0.047 C 
HETATM   14  C11 UNL     1      -3.136   1.967  -2.439  1.00  0.00     0.024 C 
HETATM   15  C12 UNL     1      -4.119   0.798  -2.580  1.00  0.00     0.004 C 
HETATM   16  C13 UNL     1      -4.516   1.089  -1.125  1.00  0.00     0.024 C 
BRANCH  13  17
HETATM   17  C10 UNL     1      -3.020   2.862  -0.062  1.00  0.00     0.252 C 
BRANCH  17  18
HETATM   18  N3  UNL     1      -3.960   3.899  -0.347  1.00  0.00    -0.078 N 
ATOM     19  H33 UNL     1      -3.910   4.165  -1.330  1.00  0.00     0.274 HD
ATOM     20  H32 UNL     1      -4.913   3.536  -0.314  1.00  0.00     0.274 HD
ATOM     21  H31 UNL     1      -3.870   4.721   0.250  1.00  0.00     0.274 HD
ENDBRANCH  17  18
ENDBRANCH  13  17
ENDBRANCH  12  13
ENDBRANCH  11  12
ENDBRANCH   1  11
BRANCH   2  22
HETATM   22  C15 UNL     1       1.216   0.555  -0.721  1.00  0.00    -0.002 C 
HETATM   23  C16 UNL     1       2.380   1.076  -0.954  1.00  0.00    -0.022 C 
BRANCH  23  24
HETATM   24  C17 UNL     1       3.656   0.383  -0.759  1.00  0.00     0.067 C 
BRANCH  24  25
HETATM   25  C18 UNL     1       4.533   1.076   0.226  1.00  0.00    -0.039 A 
HETATM   26  C19 UNL     1       4.400   0.717   1.551  1.00  0.00     0.014 A 
HETATM   27  C20 UNL     1       5.189   1.329   2.504  1.00  0.00     0.075 A 
HETATM   28  C21 UNL     1       6.080   2.280   2.070  1.00  0.00     0.245 A 
HETATM   29  O1  UNL     1       6.803   2.844   2.924  1.00  0.00    -0.268 OA
HETATM   30  N4  UNL     1       6.198   2.618   0.781  1.00  0.00    -0.333 N 
HETATM   31  C22 UNL     1       5.449   2.043  -0.157  1.00  0.00     0.098 A 
ATOM     32  H4  UNL     1       6.876   3.331   0.512  1.00  0.00     0.168 HD
ENDBRANCH  24  25
ENDBRANCH  23  24
ENDBRANCH   2  22
TORSDOF 9
