REMARK  2 active torsions:
REMARK  status: ('A' for Active; 'I' for Inactive)
REMARK    1  A    between atoms: C4_7  and  O2_8 
REMARK    2  A    between atoms: C10_20  and  O3_21 
ROOT
HETATM    1  O1  UNL     1       1.441   0.860   2.551  1.00  0.00    -0.246 OA
HETATM    2  C1  UNL     1       1.741   0.822   1.291  1.00  0.00     0.334 C 
HETATM    3  N1  UNL     1       2.074  -0.443   0.795  1.00  0.00    -0.342 N 
ATOM      4  H1  UNL     1       2.232  -1.160   1.503  1.00  0.00     0.164 HD
HETATM    5  C2  UNL     1       2.226  -0.881  -0.565  1.00  0.00     0.127 C 
HETATM    6  C3  UNL     1       1.268  -1.887  -1.057  1.00  0.00     0.051 C 
HETATM    7  C4  UNL     1      -0.082  -1.953  -0.475  1.00  0.00     0.124 C 
HETATM    8  C5  UNL     1      -1.121  -1.024  -1.040  1.00  0.00     0.074 C 
HETATM    9  C6  UNL     1      -1.722  -0.162   0.034  1.00  0.00    -0.011 A 
HETATM   10  C7  UNL     1      -2.336  -0.613   1.117  1.00  0.00     0.042 A 
HETATM   11  C8  UNL     1      -2.786   0.545   1.930  1.00  0.00     0.295 A 
HETATM   12  F1  UNL     1      -4.166   0.602   1.955  1.00  0.00    -0.222 F 
HETATM   13  N2  UNL     1      -2.324   1.637   1.130  1.00  0.00    -0.342 N 
ATOM     14  H2  UNL     1      -2.461   2.614   1.389  1.00  0.00     0.164 HD
HETATM   15  C9  UNL     1      -1.718   1.271   0.050  1.00  0.00     0.112 A 
HETATM   16  N3  UNL     1      -1.161   2.133  -0.935  1.00  0.00    -0.307 N 
ATOM     17  H3  UNL     1      -1.804   2.822  -1.325  1.00  0.00     0.171 HD
HETATM   18  C10 UNL     1       0.152   2.173  -1.451  1.00  0.00     0.237 C 
HETATM   19  N4  UNL     1       1.388   2.285  -0.760  1.00  0.00    -0.261 N 
ATOM     20  H4  UNL     1       2.169   2.602  -1.334  1.00  0.00     0.190 HD
HETATM   21  N5  UNL     1       1.704   2.037   0.551  1.00  0.00    -0.249 N 
ATOM     22  H5  UNL     1       1.956   2.866   1.089  1.00  0.00     0.192 HD
ENDROOT
BRANCH   7  23
HETATM   23  O2  UNL     1      -0.067  -1.763   0.929  1.00  0.00    -0.395 OA
ATOM     24  H2  UNL     1      -0.939  -1.806   1.305  1.00  0.00     0.210 HD
ENDBRANCH   7  23
BRANCH  18  25
HETATM   25  O3  UNL     1       0.272   2.096  -2.745  1.00  0.00    -0.331 OA
ATOM     26  H3  UNL     1       1.156   2.123  -3.092  1.00  0.00     0.221 HD
ENDBRANCH  18  25
TORSDOF 2
