REMARK  4 active torsions:
REMARK  status: ('A' for Active; 'I' for Inactive)
REMARK    1  A    between atoms: N1_1  and  C1_5 
REMARK    2  A    between atoms: C3_7  and  C4_8 
REMARK       I    between atoms: C4_8  and  N2_10 
REMARK    3  A    between atoms: N2_10  and  C5_12 
REMARK    4  A    between atoms: C10_24  and  O3_25 
ROOT
HETATM    1  C1  UNL     1      -2.219   0.993   0.753  1.00  0.00     0.272 C 
HETATM    2  C2  UNL     1      -1.360   0.545  -0.381  1.00  0.00     0.020 A 
HETATM    3  C3  UNL     1      -0.257   0.114  -0.921  1.00  0.00     0.056 A 
HETATM    4  C8  UNL     1      -0.463  -0.087  -2.345  1.00  0.00     0.103 A 
HETATM    5  N5  UNL     1      -1.665   0.232  -2.636  1.00  0.00    -0.369 N 
ATOM      6  H5  UNL     1      -2.062   0.170  -3.573  1.00  0.00     0.161 HD
HETATM    7  C9  UNL     1      -2.365   0.673  -1.521  1.00  0.00     0.257 A 
HETATM    8  O2  UNL     1      -3.390  -0.040  -0.962  1.00  0.00    -0.331 OA
HETATM    9  C10 UNL     1      -3.604   0.702   0.224  1.00  0.00     0.294 C 
ENDROOT
BRANCH   3  10
HETATM   10  C4  UNL     1       0.964  -0.139  -0.142  1.00  0.00     0.258 C 
HETATM   11  O1  UNL     1       1.001   0.051   1.095  1.00  0.00    -0.267 OA
HETATM   12  N2  UNL     1       2.130  -0.607  -0.784  1.00  0.00    -0.320 N 
ATOM     13  H2  UNL     1       2.091  -0.759  -1.792  1.00  0.00     0.169 HD
BRANCH  12  14
HETATM   14  C5  UNL     1       3.348  -0.879  -0.123  1.00  0.00     0.069 A 
HETATM   15  C6  UNL     1       4.493  -1.343  -0.778  1.00  0.00     0.138 A 
HETATM   16  N3  UNL     1       5.466  -1.500   0.119  1.00  0.00    -0.310 N 
HETATM   17  N4  UNL     1       5.027  -1.168   1.313  1.00  0.00    -0.310 N 
ATOM     18  H3  UNL     1       6.409  -1.828  -0.089  1.00  0.00     0.186 HD
HETATM   19  C7  UNL     1       3.737  -0.787   1.186  1.00  0.00     0.138 A 
ATOM     20  H4  UNL     1       5.564  -1.193   2.180  1.00  0.00     0.186 HD
ENDBRANCH  12  14
ENDBRANCH   3  10
BRANCH   1  21
HETATM   21  N1  UNL     1      -2.061   0.159   1.934  1.00  0.00    -0.066 N 
ATOM     22  H13 UNL     1      -2.226  -0.823   1.714  1.00  0.00     0.275 HD
ATOM     23  H12 UNL     1      -1.082   0.102   2.215  1.00  0.00     0.275 HD
ATOM     24  H11 UNL     1      -2.648   0.465   2.710  1.00  0.00     0.275 HD
ENDBRANCH   1  21
BRANCH   9  25
HETATM   25  O3  UNL     1      -4.248   1.907  -0.083  1.00  0.00    -0.369 OA
ATOM     26  H3  UNL     1      -5.119   1.724  -0.416  1.00  0.00     0.212 HD
ENDBRANCH   9  25
TORSDOF 4
