REMARK  3 active torsions:
REMARK  status: ('A' for Active; 'I' for Inactive)
REMARK    1  A    between atoms: C1_2  and  O2_4 
REMARK    2  A    between atoms: O2_4  and  C2_5 
REMARK    3  A    between atoms: N4_13  and  C6_14 
ROOT
HETATM    1  C2  UNL     1       1.665   0.001   0.107  1.00  0.00     0.151 C 
HETATM    2  C3  UNL     1       2.017  -1.267  -0.132  1.00  0.00     0.088 C 
HETATM    3  C4  UNL     1       1.188  -2.401  -0.471  1.00  0.00     0.118 C 
HETATM    4  N2  UNL     1       1.829  -3.662  -0.691  1.00  0.00    -0.083 NA
HETATM    5  N3  UNL     1      -0.069  -2.423  -0.601  1.00  0.00    -0.332 N 
ATOM      6  H3  UNL     1      -0.384  -3.363  -0.843  1.00  0.00     0.165 HD
HETATM    7  C5  UNL     1      -1.169  -1.546  -0.514  1.00  0.00     0.387 C 
HETATM    8  F1  UNL     1      -1.877  -1.441  -1.713  1.00  0.00    -0.202 F 
HETATM    9  N4  UNL     1      -0.899  -0.206  -0.044  1.00  0.00    -0.249 N 
HETATM   10  C10 UNL     1       0.315   0.532   0.076  1.00  0.00     0.287 C 
HETATM   11  O3  UNL     1       0.212   1.786   0.166  1.00  0.00    -0.265 OA
ENDROOT
BRANCH   9  12
HETATM   12  C6  UNL     1      -2.074   0.501   0.376  1.00  0.00     0.110 A 
HETATM   13  C7  UNL     1      -3.318   0.057   0.366  1.00  0.00     0.027 A 
HETATM   14  C8  UNL     1      -4.237   1.130   0.892  1.00  0.00     0.075 A 
HETATM   15  C9  UNL     1      -3.258   2.213   1.177  1.00  0.00     0.066 A 
HETATM   16  N5  UNL     1      -2.083   1.822   0.878  1.00  0.00    -0.356 N 
ATOM     17  H5  UNL     1      -1.247   2.395   0.988  1.00  0.00     0.166 HD
ENDBRANCH   9  12
BRANCH   1  18
HETATM   18  O2  UNL     1       2.698   0.869   0.410  1.00  0.00    -0.258 OA
BRANCH  18  19
HETATM   19  C1  UNL     1       3.396   1.599  -0.544  1.00  0.00     0.378 C 
HETATM   20  N1  UNL     1       4.446   2.469  -0.133  1.00  0.00    -0.032 NA
HETATM   21  O1  UNL     1       3.070   1.459  -1.734  1.00  0.00    -0.242 OA
ENDBRANCH  18  19
ENDBRANCH   1  18
TORSDOF 3
