REMARK  5 active torsions:
REMARK  status: ('A' for Active; 'I' for Inactive)
REMARK       I    between atoms: C1_2  and  N1_3 
REMARK    1  A    between atoms: C1_2  and  C7_13 
REMARK    2  A    between atoms: N1_3  and  N2_4 
REMARK       I    between atoms: N2_4  and  C2_6 
REMARK    3  A    between atoms: C2_6  and  C3_8 
REMARK    4  A    between atoms: C5_10  and  C6_11 
REMARK       I    between atoms: C7_13  and  N3_15 
REMARK    5  A    between atoms: N3_15  and  C8_17 
ROOT
HETATM    1  O1  UNL     1       1.273   2.376  -0.773  1.00  0.00    -0.244 OA
HETATM    2  C1  UNL     1       1.186   1.626  -0.556  1.00  0.00     0.403 C 
HETATM    3  N1  UNL     1       0.011   0.802  -0.188  1.00  0.00    -0.274 NA
ENDROOT
BRANCH   2   4
HETATM    4  C7  UNL     1       2.376   0.644  -0.436  1.00  0.00     0.330 C 
HETATM    5  O3  UNL     1       2.138  -0.496  -0.051  1.00  0.00    -0.261 OA
HETATM    6  N3  UNL     1       3.626   1.108  -0.773  1.00  0.00    -0.315 N 
ATOM      7  H3  UNL     1       3.741   2.078  -1.068  1.00  0.00     0.169 HD
BRANCH   6   8
HETATM    8  C8  UNL     1       4.738   0.268  -0.716  1.00  0.00     0.069 A 
HETATM    9  C9  UNL     1       5.489  -0.264  -1.806  1.00  0.00     0.138 A 
HETATM   10  N4  UNL     1       6.502  -1.021  -1.331  1.00  0.00    -0.310 N 
HETATM   11  N5  UNL     1       6.406  -0.978   0.008  1.00  0.00    -0.310 N 
ATOM     12  H4  UNL     1       7.200  -1.524  -1.879  1.00  0.00     0.186 HD
HETATM   13  C10 UNL     1       5.420  -0.262   0.384  1.00  0.00     0.138 A 
ATOM     14  H5  UNL     1       7.042  -1.458   0.645  1.00  0.00     0.186 HD
ENDBRANCH   6   8
ENDBRANCH   2   4
BRANCH   3  15
HETATM   15  N2  UNL     1      -0.968   0.129   0.116  1.00  0.00    -0.199 N 
HETATM   16  C2  UNL     1      -2.339   0.494   0.405  1.00  0.00     0.251 C 
HETATM   17  O2  UNL     1      -2.609   1.752   0.339  1.00  0.00    -0.271 OA
ATOM     18  H2  UNL     1      -0.782  -0.872   0.176  1.00  0.00     0.205 HD
BRANCH  16  19
HETATM   19  C3  UNL     1      -3.348  -0.504   0.740  1.00  0.00     0.087 A 
HETATM   20  C4  UNL     1      -4.465  -0.572  -0.347  1.00  0.00     0.022 A 
HETATM   21  C5  UNL     1      -4.709  -0.091   1.103  1.00  0.00     0.028 A 
BRANCH  21  22
HETATM   22  C6  UNL     1      -5.583  -0.954   1.959  1.00  0.00     0.227 C 
HETATM   23  F1  UNL     1      -6.835  -0.392   2.188  1.00  0.00    -0.255 F 
ENDBRANCH  21  22
ENDBRANCH  16  19
ENDBRANCH   3  15
TORSDOF 5
