REMARK  0 active torsions:
REMARK  status: ('A' for Active; 'I' for Inactive)
ROOT
HETATM    1  N1  UNL     1       3.407   0.203  -0.384  1.00  0.00    -0.063 NA
HETATM    2  C1  UNL     1       1.989   0.155  -0.301  1.00  0.00     0.195 A 
HETATM    3  N2  UNL     1       1.092   0.586  -1.219  1.00  0.00    -0.313 N 
ATOM      4  H2  UNL     1       1.343   1.011  -2.111  1.00  0.00     0.170 HD
HETATM    5  C2  UNL     1      -0.166   0.384  -0.809  1.00  0.00     0.152 A 
HETATM    6  N3  UNL     1      -1.410   0.602  -1.282  1.00  0.00    -0.348 N 
ATOM      7  H3  UNL     1      -1.529   1.037  -2.197  1.00  0.00     0.167 HD
HETATM    8  C3  UNL     1      -2.506   0.253  -0.562  1.00  0.00     0.107 A 
HETATM    9  C4  UNL     1      -2.411  -0.334   0.674  1.00  0.00     0.107 A 
HETATM   10  N4  UNL     1      -1.180  -0.560   1.165  1.00  0.00    -0.348 N 
ATOM     11  H4  UNL     1      -1.093  -0.995   2.083  1.00  0.00     0.167 HD
HETATM   12  C5  UNL     1      -0.056  -0.236   0.496  1.00  0.00     0.152 A 
HETATM   13  N5  UNL     1       1.260  -0.341   0.734  1.00  0.00    -0.313 N 
ATOM     14  H5  UNL     1       1.662  -0.741   1.582  1.00  0.00     0.170 HD
ENDROOT
TORSDOF 0
