REMARK  14 active torsions:
REMARK  status: ('A' for Active; 'I' for Inactive)
REMARK    1  A    between atoms: N1_1  and  C1_5 
REMARK    2  A    between atoms: C1_5  and  C2_6 
REMARK    3  A    between atoms: C2_6  and  O1_7 
REMARK    4  A    between atoms: C4_10  and  O2_11 
REMARK    5  A    between atoms: C4_10  and  C5_13 
REMARK    6  A    between atoms: C5_13  and  O3_14 
REMARK    7  A    between atoms: O3_14  and  C6_15 
REMARK    8  A    between atoms: C6_15  and  O4_16 
REMARK    9  A    between atoms: O4_16  and  C7_17 
REMARK   10  A    between atoms: C7_17  and  C8_18 
REMARK   11  A    between atoms: C8_18  and  O5_19 
REMARK   12  A    between atoms: C9_21  and  C10_22 
REMARK   13  A    between atoms: C9_21  and  C11_25 
REMARK   14  A    between atoms: C10_22  and  O6_23 
ROOT
HETATM    1  C1  UNL     1      -2.569   0.687  -0.471  1.00  0.00     0.170 C 
HETATM    2  C3  UNL     1      -1.374   1.607  -0.415  1.00  0.00     0.084 C 
HETATM    3  C4  UNL     1      -0.738   0.627   0.546  1.00  0.00     0.104 C 
HETATM    4  C9  UNL     1      -1.675  -0.416   0.049  1.00  0.00     0.137 C 
ENDROOT
BRANCH   3   5
HETATM    5  O2  UNL     1      -0.954   0.902   1.903  1.00  0.00    -0.386 OA
ATOM      6  H2  UNL     1      -0.555   0.287   2.507  1.00  0.00     0.210 HD
ENDBRANCH   3   5
BRANCH   3   7
HETATM    7  C5  UNL     1       0.733   0.417   0.304  1.00  0.00     0.209 C 
BRANCH   7   8
HETATM    8  O3  UNL     1       1.235  -0.628   1.038  1.00  0.00    -0.364 OA
BRANCH   8   9
HETATM    9  C6  UNL     1       2.607  -0.779   0.783  1.00  0.00     0.337 C 
BRANCH   9  10
HETATM   10  O4  UNL     1       2.866  -1.034  -0.531  1.00  0.00    -0.365 OA
BRANCH  10  11
HETATM   11  C7  UNL     1       4.201  -1.195  -0.789  1.00  0.00     0.196 C 
BRANCH  11  12
HETATM   12  C8  UNL     1       5.014   0.024  -0.464  1.00  0.00     0.190 C 
BRANCH  12  13
HETATM   13  O5  UNL     1       4.560   1.115  -1.218  1.00  0.00    -0.399 OA
ATOM     14  H5  UNL     1       5.075   1.887  -1.012  1.00  0.00     0.209 HD
ENDBRANCH  12  13
ENDBRANCH  11  12
ENDBRANCH  10  11
ENDBRANCH   9  10
ENDBRANCH   8   9
ENDBRANCH   7   8
ENDBRANCH   3   7
BRANCH   4  15
HETATM   15  C10 UNL     1      -1.174  -1.219  -1.145  1.00  0.00     0.190 C 
BRANCH  15  16
HETATM   16  O6  UNL     1      -0.339  -2.265  -0.756  1.00  0.00    -0.399 OA
ATOM     17  H6  UNL     1      -0.027  -2.766  -1.500  1.00  0.00     0.209 HD
ENDBRANCH  15  16
ENDBRANCH   4  15
BRANCH   4  18
HETATM   18  C11 UNL     1      -2.325  -1.258   1.060  1.00  0.00     0.190 C 
HETATM   19  O7  UNL     1      -2.470  -2.498   0.814  1.00  0.00    -0.647 OA
HETATM   20  O8  UNL     1      -2.787  -0.783   2.264  1.00  0.00    -0.647 OA
ENDBRANCH   4  18
BRANCH   1  21
HETATM   21  N1  UNL     1      -3.095   0.447  -1.746  1.00  0.00    -0.067 N 
ATOM     22  H13 UNL     1      -3.886  -0.197  -1.716  1.00  0.00     0.275 HD
ATOM     23  H12 UNL     1      -3.579   1.264  -2.118  1.00  0.00     0.275 HD
ATOM     24  H11 UNL     1      -2.362   0.120  -2.376  1.00  0.00     0.275 HD
ENDBRANCH   1  21
BRANCH   1  25
HETATM   25  C2  UNL     1      -3.650   1.169   0.458  1.00  0.00     0.204 C 
BRANCH  25  26
HETATM   26  O1  UNL     1      -4.179   2.364  -0.089  1.00  0.00    -0.398 OA
ATOM     27  H1  UNL     1      -4.862   2.668   0.498  1.00  0.00     0.209 HD
ENDBRANCH  25  26
ENDBRANCH   1  25
TORSDOF 14
