REMARK  0 active torsions:
REMARK  status: ('A' for Active; 'I' for Inactive)
ROOT
HETATM    1  N1  UNL     1       2.599  -0.110  -0.144  1.00  0.00    -0.080 NA
HETATM    2  C1  UNL     1       1.291   0.440  -0.053  1.00  0.00     0.144 A 
HETATM    3  N2  UNL     1       0.907   1.727   0.015  1.00  0.00    -0.287 N 
ATOM      4  H2  UNL     1       1.545   2.523   0.010  1.00  0.00     0.188 HD
HETATM    5  N3  UNL     1      -0.409   1.820   0.089  1.00  0.00    -0.297 N 
ATOM      6  H3  UNL     1      -0.929   2.695   0.149  1.00  0.00     0.187 HD
HETATM    7  C2  UNL     1      -0.969   0.583   0.073  1.00  0.00     0.080 A 
HETATM    8  C3  UNL     1      -2.276   0.140   0.127  1.00  0.00     0.139 A 
HETATM    9  N4  UNL     1      -2.456  -1.194   0.088  1.00  0.00    -0.310 N 
ATOM     10  H4  UNL     1      -3.404  -1.568   0.125  1.00  0.00     0.186 HD
HETATM   11  N5  UNL     1      -1.428  -2.041   0.002  1.00  0.00    -0.311 N 
ATOM     12  H5  UNL     1      -1.625  -3.041  -0.024  1.00  0.00     0.186 HD
HETATM   13  C4  UNL     1      -0.158  -1.645  -0.052  1.00  0.00     0.124 A 
HETATM   14  C5  UNL     1       0.110  -0.286  -0.017  1.00  0.00     0.053 A 
ENDROOT
TORSDOF 0
