REMARK  0 active torsions:
REMARK  status: ('A' for Active; 'I' for Inactive)
ROOT
HETATM    1  N1  UNL     1       2.499  -0.195  -0.286  1.00  0.00    -0.079 NA
HETATM    2  C1  UNL     1       1.241   0.431  -0.187  1.00  0.00     0.160 A 
HETATM    3  N2  UNL     1       1.065   1.763  -0.279  1.00  0.00    -0.286 N 
ATOM      4  H2  UNL     1       1.882   2.356  -0.427  1.00  0.00     0.188 HD
HETATM    5  N3  UNL     1      -0.125   2.334  -0.185  1.00  0.00    -0.310 N 
ATOM      6  H3  UNL     1      -0.181   3.349  -0.266  1.00  0.00     0.186 HD
HETATM    7  C2  UNL     1      -1.265   1.648   0.011  1.00  0.00     0.122 A 
HETATM    8  C3  UNL     1      -1.164   0.272   0.116  1.00  0.00     0.029 A 
HETATM    9  C4  UNL     1      -2.084  -0.737   0.312  1.00  0.00     0.122 A 
HETATM   10  N4  UNL     1      -1.406  -1.898   0.329  1.00  0.00    -0.310 N 
ATOM     11  H4  UNL     1      -1.821  -2.821   0.457  1.00  0.00     0.186 HD
HETATM   12  N5  UNL     1      -0.112  -1.656   0.153  1.00  0.00    -0.297 N 
ATOM     13  H5  UNL     1       0.617  -2.369   0.126  1.00  0.00     0.187 HD
HETATM   14  C5  UNL     1       0.098  -0.325   0.014  1.00  0.00     0.103 A 
ENDROOT
TORSDOF 0
