REMARK  0 active torsions:
REMARK  status: ('A' for Active; 'I' for Inactive)
ROOT
HETATM    1  N1  UNL     1      -2.037  -0.918  -0.296  1.00  0.00    -0.100 NA
HETATM    2  C1  UNL     1      -1.038   0.069  -0.121  1.00  0.00     0.078 A 
HETATM    3  C2  UNL     1      -1.344   1.418  -0.081  1.00  0.00     0.134 A 
HETATM    4  N2  UNL     1      -0.369   2.329   0.087  1.00  0.00    -0.308 N 
ATOM      5  H2  UNL     1      -0.615   3.319   0.113  1.00  0.00     0.186 HD
HETATM    6  N3  UNL     1       0.908   1.977   0.220  1.00  0.00    -0.284 N 
ATOM      7  H3  UNL     1       1.614   2.702   0.346  1.00  0.00     0.188 HD
HETATM    8  C3  UNL     1       1.288   0.693   0.192  1.00  0.00     0.148 A 
HETATM    9  N4  UNL     1       2.485   0.064   0.300  1.00  0.00    -0.284 N 
ATOM     10  H4  UNL     1       3.394   0.507   0.434  1.00  0.00     0.188 HD
HETATM   11  N5  UNL     1       2.250  -1.225   0.199  1.00  0.00    -0.309 N 
ATOM     12  H5  UNL     1       2.971  -1.945   0.245  1.00  0.00     0.186 HD
HETATM   13  C4  UNL     1       0.949  -1.473   0.029  1.00  0.00     0.124 A 
HETATM   14  C5  UNL     1       0.303  -0.257   0.021  1.00  0.00     0.053 A 
ENDROOT
TORSDOF 0
