REMARK  0 active torsions:
REMARK  status: ('A' for Active; 'I' for Inactive)
ROOT
HETATM    1  N1  UNL     1      -2.037  -0.932  -0.269  1.00  0.00    -0.098 NA
HETATM    2  C1  UNL     1      -1.048   0.063  -0.094  1.00  0.00     0.093 A 
HETATM    3  C2  UNL     1      -1.367   1.415  -0.012  1.00  0.00     0.136 A 
HETATM    4  N2  UNL     1      -0.388   2.323   0.154  1.00  0.00    -0.309 N 
ATOM      5  H2  UNL     1      -0.637   3.311   0.212  1.00  0.00     0.186 HD
HETATM    6  N3  UNL     1       0.887   1.978   0.245  1.00  0.00    -0.297 N 
ATOM      7  H3  UNL     1       1.589   2.707   0.371  1.00  0.00     0.187 HD
HETATM    8  C3  UNL     1       1.283   0.697   0.176  1.00  0.00     0.095 A 
HETATM    9  C4  UNL     1       2.515   0.065   0.239  1.00  0.00     0.140 A 
HETATM   10  N4  UNL     1       2.252  -1.241   0.107  1.00  0.00    -0.309 N 
ATOM     11  H4  UNL     1       2.955  -1.980   0.112  1.00  0.00     0.186 HD
HETATM   12  N5  UNL     1       0.953  -1.437  -0.031  1.00  0.00    -0.297 N 
ATOM     13  H5  UNL     1       0.509  -2.348  -0.148  1.00  0.00     0.187 HD
HETATM   14  C5  UNL     1       0.296  -0.254   0.005  1.00  0.00     0.103 A 
ENDROOT
TORSDOF 0
