REMARK  3 active torsions:
REMARK  status: ('A' for Active; 'I' for Inactive)
REMARK    1  A    between atoms: C6_7  and  C7_8 
REMARK    2  A    between atoms: N1_11  and  C10_12 
REMARK    3  A    between atoms: C10_12  and  C11_13 
ROOT
HETATM    1  C7  UNL     1       1.829  -0.712   0.254  1.00  0.00    -0.045 C 
HETATM    2  C8  UNL     1       1.042   0.314   0.493  1.00  0.00     0.025 C 
HETATM    3  C9  UNL     1      -0.405   0.026   0.673  1.00  0.00     0.091 C 
HETATM    4  N1  UNL     1      -0.864  -0.775  -0.385  1.00  0.00    -0.365 N 
HETATM    5  C17 UNL     1      -0.032  -1.825  -0.814  1.00  0.00     0.132 C 
HETATM    6  C18 UNL     1       1.110  -2.043   0.194  1.00  0.00     0.060 C 
ENDROOT
BRANCH   4   7
HETATM    7  C10 UNL     1      -1.805  -0.259  -1.295  1.00  0.00     0.103 C 
BRANCH   7   8
HETATM    8  C11 UNL     1      -3.080   0.127  -0.639  1.00  0.00    -0.005 A 
HETATM    9  C12 UNL     1      -4.070  -0.823  -0.352  1.00  0.00     0.016 A 
HETATM   10  C13 UNL     1      -5.264  -0.480   0.252  1.00  0.00     0.025 A 
HETATM   11  C14 UNL     1      -5.518   0.832   0.596  1.00  0.00     0.005 A 
HETATM   12  C15 UNL     1      -6.798   1.242   1.252  1.00  0.00     0.068 C 
HETATM   13  N2  UNL     1      -4.561   1.736   0.316  1.00  0.00    -0.369 N 
HETATM   14  C16 UNL     1      -3.391   1.421  -0.272  1.00  0.00     0.100 A 
ATOM     15  H2  UNL     1      -4.731   2.711   0.562  1.00  0.00     0.165 HD
ENDBRANCH   7   8
ENDBRANCH   4   7
BRANCH   1  16
HETATM   16  C6  UNL     1       3.247  -0.564   0.063  1.00  0.00    -0.028 A 
HETATM   17  C5  UNL     1       4.071  -1.659  -0.166  1.00  0.00     0.035 A 
HETATM   18  C4  UNL     1       5.441  -1.465  -0.351  1.00  0.00     0.035 A 
HETATM   19  C3  UNL     1       5.996  -0.209  -0.313  1.00  0.00     0.030 A 
HETATM   20 CL1  UNL     1       6.466  -2.857  -0.638  1.00  0.00    -0.084 Cl
HETATM   21  C2  UNL     1       5.187   0.874  -0.088  1.00  0.00    -0.060 A 
HETATM   22  C1  UNL     1       5.787   2.211  -0.049  1.00  0.00     0.048 C 
HETATM   23  C19 UNL     1       3.827   0.674   0.095  1.00  0.00     0.018 A 
ENDBRANCH   1  16
TORSDOF 3
