REMARK  4 active torsions:
REMARK  status: ('A' for Active; 'I' for Inactive)
REMARK    1  A    between atoms: C2_2  and  C3_3 
REMARK    2  A    between atoms: C3_3  and  C4_4 
REMARK    3  A    between atoms: C7_7  and  C8_8 
REMARK    4  A    between atoms: C8_8  and  N1_9 
ROOT
HETATM    1  N1  UNL     1       1.016  -1.523   0.689  1.00  0.00    -0.404 N 
HETATM    2  C9  UNL     1       0.938  -1.603  -0.722  1.00  0.00     0.123 C 
HETATM    3  C10 UNL     1       1.190  -0.171  -1.221  1.00  0.00     0.077 C 
HETATM    4  C11 UNL     1       2.573   0.164  -0.717  1.00  0.00     0.020 A 
HETATM    5  N2  UNL     1       3.298   1.089  -1.396  1.00  0.00    -0.363 N 
ATOM      6  H2  UNL     1       2.888   1.527  -2.221  1.00  0.00     0.165 HD
HETATM    7  C12 UNL     1       4.533   1.447  -1.020  1.00  0.00     0.007 A 
HETATM    8  C13 UNL     1       5.323   2.465  -1.772  1.00  0.00     0.068 C 
HETATM    9  C14 UNL     1       5.061   0.840   0.098  1.00  0.00     0.049 A 
HETATM   10  C15 UNL     1       4.378  -0.102   0.826  1.00  0.00     0.045 A 
HETATM   11 CL1  UNL     1       5.061  -0.864   2.243  1.00  0.00    -0.084 Cl
HETATM   12  C16 UNL     1       3.091  -0.448   0.400  1.00  0.00     0.004 A 
HETATM   13  C17 UNL     1       2.336  -1.483   1.196  1.00  0.00     0.159 C 
ENDROOT
BRANCH   1  14
HETATM   14  C8  UNL     1       0.023  -2.174   1.453  1.00  0.00     0.155 C 
BRANCH  14  15
HETATM   15  C7  UNL     1      -1.298  -1.579   1.111  1.00  0.00    -0.041 A 
HETATM   16  C6  UNL     1      -1.678  -0.372   1.702  1.00  0.00     0.009 A 
HETATM   17  C5  UNL     1      -2.897   0.205   1.413  1.00  0.00     0.007 A 
HETATM   18  C4  UNL     1      -3.797  -0.368   0.538  1.00  0.00    -0.058 A 
HETATM   19  C19 UNL     1      -3.417  -1.562  -0.044  1.00  0.00     0.007 A 
HETATM   20  C18 UNL     1      -2.197  -2.146   0.241  1.00  0.00     0.009 A 
BRANCH  18  21
HETATM   21  C3  UNL     1      -5.115   0.238   0.214  1.00  0.00     0.038 C 
BRANCH  21  22
HETATM   22  C2  UNL     1      -5.047   1.169  -0.968  1.00  0.00     0.000 C 
HETATM   23  C1  UNL     1      -4.075   2.289  -0.654  1.00  0.00     0.005 C 
ENDBRANCH  21  22
ENDBRANCH  18  21
ENDBRANCH  14  15
ENDBRANCH   1  14
TORSDOF 4
