REMARK  4 active torsions:
REMARK  status: ('A' for Active; 'I' for Inactive)
REMARK    1  A    between atoms: C2_2  and  C3_3 
REMARK    2  A    between atoms: N1_12  and  N2_14 
REMARK    3  A    between atoms: N2_14  and  C13_16 
REMARK    4  A    between atoms: C13_16  and  C14_17 
ROOT
HETATM    1  C3  UNL     1      -1.780   0.576   0.162  1.00  0.00    -0.027 A 
HETATM    2  C4  UNL     1      -2.965  -0.010   0.155  1.00  0.00    -0.044 A 
HETATM    3  C5  UNL     1      -4.256   0.369   0.787  1.00  0.00     0.040 C 
HETATM    4  C6  UNL     1      -4.902  -0.978   1.014  1.00  0.00     0.009 C 
HETATM    5  C7  UNL     1      -4.655  -1.634  -0.349  1.00  0.00     0.039 C 
HETATM    6  C8  UNL     1      -3.215  -1.259  -0.558  1.00  0.00    -0.055 A 
HETATM    7  C9  UNL     1      -2.251  -1.861  -1.234  1.00  0.00    -0.013 A 
HETATM    8  C10 UNL     1      -0.876  -1.348  -1.332  1.00  0.00     0.086 A 
HETATM    9  C11 UNL     1      -0.697  -0.066  -0.571  1.00  0.00     0.036 A 
HETATM   10  N1  UNL     1       0.442   0.526  -0.538  1.00  0.00    -0.303 N 
ATOM     11  H1  UNL     1       0.568   1.397  -0.023  1.00  0.00     0.186 HD
ENDROOT
BRANCH  10  12
HETATM   12  N2  UNL     1       1.501  -0.063  -1.230  1.00  0.00    -0.307 N 
HETATM   13  C12 UNL     1       1.767   0.295  -2.624  1.00  0.00     0.177 C 
BRANCH  12  14
HETATM   14  C13 UNL     1       2.301  -1.006  -0.551  1.00  0.00     0.117 C 
BRANCH  14  15
HETATM   15  C14 UNL     1       3.273  -0.548   0.262  1.00  0.00    -0.038 A 
HETATM   16  C15 UNL     1       3.442   0.883   0.393  1.00  0.00     0.010 A 
HETATM   17  C16 UNL     1       4.350   1.427   1.151  1.00  0.00     0.024 A 
HETATM   18  C17 UNL     1       5.222   0.522   1.891  1.00  0.00     0.030 A 
HETATM   19 CL1  UNL     1       6.468   1.202   2.932  1.00  0.00    -0.085 Cl
HETATM   20  C18 UNL     1       5.120  -0.781   1.815  1.00  0.00     0.002 A 
HETATM   21  C19 UNL     1       4.135  -1.488   0.994  1.00  0.00     0.068 A 
ENDBRANCH  14  15
ENDBRANCH  12  14
ENDBRANCH  10  12
BRANCH   1  22
HETATM   22  C2  UNL     1      -1.554   1.845   0.891  1.00  0.00     0.036 C 
HETATM   23  C1  UNL     1      -1.101   2.954  -0.033  1.00  0.00     0.010 C 
ENDBRANCH   1  22
TORSDOF 4
