REMARK  4 active torsions:
REMARK  status: ('A' for Active; 'I' for Inactive)
REMARK    1  A    between atoms: C1_2  and  C2_3 
REMARK    2  A    between atoms: C2_3  and  N1_4 
REMARK    3  A    between atoms: C6_8  and  C7_9 
REMARK    4  A    between atoms: C8_10  and  C9_11 
ROOT
HETATM    1  C7  UNL     1      -0.891   0.833  -1.330  1.00  0.00     0.002 C 
HETATM    2  C8  UNL     1      -2.147   0.933  -1.641  1.00  0.00     0.030 C 
ENDROOT
BRANCH   2   3
HETATM    3  C9  UNL     1      -3.285   0.216  -1.117  1.00  0.00     0.043 A 
HETATM    4  N2  UNL     1      -4.035  -0.549  -1.964  1.00  0.00    -0.365 N 
HETATM    5  C10 UNL     1      -5.127  -1.217  -1.592  1.00  0.00     0.089 A 
ATOM      6  H2  UNL     1      -3.742  -0.613  -2.939  1.00  0.00     0.165 HD
HETATM    7  C11 UNL     1      -5.575  -1.173  -0.293  1.00  0.00     0.029 A 
HETATM    8  C12 UNL     1      -4.840  -0.404   0.593  1.00  0.00    -0.022 A 
HETATM    9  C13 UNL     1      -5.267  -0.277   1.903  1.00  0.00     0.012 A 
HETATM   10  C17 UNL     1      -3.693   0.296   0.187  1.00  0.00     0.001 A 
HETATM   11  C14 UNL     1      -4.624   0.507   2.828  1.00  0.00     0.001 A 
HETATM   12  C15 UNL     1      -3.507   1.187   2.404  1.00  0.00     0.001 A 
HETATM   13  C16 UNL     1      -3.031   1.100   1.111  1.00  0.00     0.014 A 
ENDBRANCH   2   3
BRANCH   1  14
HETATM   14  C6  UNL     1      -0.239  -0.026  -0.380  1.00  0.00     0.003 C 
HETATM   15  C5  UNL     1       1.070   0.034  -0.204  1.00  0.00    -0.077 C 
HETATM   16  C4  UNL     1       1.696  -0.877   0.791  1.00  0.00     0.064 C 
HETATM   17  C18 UNL     1       1.834   1.013  -1.019  1.00  0.00     0.064 C 
HETATM   18  C3  UNL     1       3.196  -0.725   0.828  1.00  0.00     0.276 C 
HETATM   19  N1  UNL     1       3.661  -0.407  -0.487  1.00  0.00     0.090 N 
HETATM   20  C19 UNL     1       3.316   0.979  -0.739  1.00  0.00     0.276 C 
BRANCH  19  21
HETATM   21  C2  UNL     1       5.033  -0.713  -0.734  1.00  0.00     0.287 C 
BRANCH  21  22
HETATM   22  C1  UNL     1       5.914  -0.621   0.482  1.00  0.00     0.144 C 
HETATM   23 CL1  UNL     1       5.910   1.004   1.186  1.00  0.00    -0.129 Cl
ENDBRANCH  21  22
ENDBRANCH  19  21
ENDBRANCH   1  14
TORSDOF 4
