REMARK  7 active torsions:
REMARK  status: ('A' for Active; 'I' for Inactive)
REMARK    1  A    between atoms: C2_2  and  C3_3 
REMARK    2  A    between atoms: C2_2  and  C17_19 
REMARK    3  A    between atoms: C3_3  and  N1_4 
REMARK    4  A    between atoms: N1_4  and  C4_5 
REMARK    5  A    between atoms: N1_4  and  C11_13 
REMARK    6  A    between atoms: C4_5  and  C5_6 
REMARK    7  A    between atoms: C5_6  and  N2_7 
ROOT
HETATM    1  N1  UNL     1      -0.145   0.374  -0.178  1.00  0.00    -0.362 N 
ENDROOT
BRANCH   1   2
HETATM    2  C3  UNL     1      -1.173  -0.524  -0.054  1.00  0.00     0.102 C 
BRANCH   2   3
HETATM    3  C2  UNL     1      -1.699  -1.288  -1.194  1.00  0.00    -0.009 C 
HETATM    4  C1  UNL     1      -1.250  -1.181  -2.416  1.00  0.00     0.026 C 
BRANCH   3   5
HETATM    5  C17 UNL     1      -2.792  -2.216  -0.965  1.00  0.00     0.040 C 
HETATM    6 CL1  UNL     1      -3.453  -3.150  -2.285  1.00  0.00    -0.084 Cl
HETATM    7  C18 UNL     1      -3.299  -2.369   0.232  1.00  0.00    -0.006 C 
HETATM    8  C19 UNL     1      -4.435  -3.337   0.455  1.00  0.00     0.038 C 
ENDBRANCH   3   5
ENDBRANCH   2   3
ENDBRANCH   1   2
BRANCH   1   9
HETATM    9  C4  UNL     1       1.176   0.109  -0.471  1.00  0.00     0.105 C 
BRANCH   9  10
HETATM   10  C5  UNL     1       2.061  -0.630   0.495  1.00  0.00     0.190 A 
HETATM   11  C8  UNL     1       1.686  -2.062   0.818  1.00  0.00     0.047 A 
HETATM   12  C9  UNL     1       1.650  -1.697   2.269  1.00  0.00     0.006 A 
HETATM   13  C10 UNL     1       1.936  -0.233   1.905  1.00  0.00     0.047 A 
BRANCH  10  14
HETATM   14  N2  UNL     1       3.407  -0.695  -0.089  1.00  0.00     0.094 N 
HETATM   15  C6  UNL     1       3.309  -1.557  -1.247  1.00  0.00     0.310 C 
HETATM   16  C7  UNL     1       4.401  -1.194   0.789  1.00  0.00     0.310 C 
ENDBRANCH  10  14
ENDBRANCH   9  10
ENDBRANCH   1   9
BRANCH   1  17
HETATM   17  C11 UNL     1      -0.500   1.777  -0.191  1.00  0.00     0.088 C 
HETATM   18  C12 UNL     1      -1.183   2.252   1.029  1.00  0.00     0.026 C 
HETATM   19  C13 UNL     1      -1.206   3.773   1.055  1.00  0.00     0.002 C 
HETATM   20  C14 UNL     1      -1.729   4.342  -0.234  1.00  0.00     0.000 C 
HETATM   21  C15 UNL     1      -1.039   3.794  -1.435  1.00  0.00     0.002 C 
HETATM   22  C16 UNL     1      -1.196   2.263  -1.420  1.00  0.00     0.026 C 
ENDBRANCH   1  17
TORSDOF 7
