REMARK  4 active torsions:
REMARK  status: ('A' for Active; 'I' for Inactive)
REMARK    1  A    between atoms: C1_2  and  C2_3 
REMARK       I    between atoms: C1_2  and  N1_14 
REMARK    2  A    between atoms: C2_3  and  C3_4 
REMARK    3  A    between atoms: N1_14  and  C13_16 
REMARK    4  A    between atoms: C13_16  and  C14_17 
ROOT
HETATM    1  O1  UNL     1       0.225   0.818   0.743  1.00  0.00    -0.274 OA
HETATM    2  C1  UNL     1      -0.035  -0.334   1.123  1.00  0.00     0.218 C 
HETATM    3  N1  UNL     1       1.016  -1.092   1.768  1.00  0.00    -0.361 N 
ATOM      4  H1  UNL     1       0.829  -2.040   2.096  1.00  0.00     0.162 HD
ENDROOT
BRANCH   2   5
HETATM    5  C2  UNL     1      -1.318  -1.009   0.979  1.00  0.00     0.112 C 
BRANCH   5   6
HETATM    6  C3  UNL     1      -2.380  -0.184   0.319  1.00  0.00    -0.031 C 
HETATM    7  C4  UNL     1      -3.616  -1.128   0.292  1.00  0.00     0.014 C 
HETATM    8  C5  UNL     1      -4.742  -0.417  -0.368  1.00  0.00    -0.013 C 
HETATM    9  C6  UNL     1      -5.055   0.850   0.389  1.00  0.00     0.009 C 
HETATM   10  C10 UNL     1      -4.338  -0.136  -1.810  1.00  0.00     0.009 C 
HETATM   11  C7  UNL     1      -3.876   1.766   0.386  1.00  0.00    -0.013 C 
HETATM   12  C8  UNL     1      -3.493   2.094  -1.026  1.00  0.00     0.009 C 
HETATM   13  C12 UNL     1      -2.731   1.055   1.081  1.00  0.00     0.014 C 
HETATM   14  C9  UNL     1      -3.190   0.826  -1.797  1.00  0.00    -0.013 C 
HETATM   15  C11 UNL     1      -2.010   0.172  -1.084  1.00  0.00     0.014 C 
ENDBRANCH   5   6
ENDBRANCH   2   5
BRANCH   3  16
HETATM   16  C13 UNL     1       2.305  -0.527   1.948  1.00  0.00     0.127 C 
BRANCH  16  17
HETATM   17  C14 UNL     1       2.940  -0.228   0.611  1.00  0.00     0.003 C 
HETATM   18  C15 UNL     1       3.034  -1.537  -0.130  1.00  0.00     0.006 C 
HETATM   19  C16 UNL     1       4.155  -1.613  -1.098  1.00  0.00     0.000 C 
HETATM   20  C17 UNL     1       4.399  -0.378  -1.895  1.00  0.00     0.000 C 
HETATM   21  C18 UNL     1       5.491   0.435  -1.190  1.00  0.00     0.000 C 
HETATM   22  C19 UNL     1       4.771   1.291  -0.169  1.00  0.00     0.000 C 
HETATM   23  C20 UNL     1       4.320   0.330   0.934  1.00  0.00     0.006 C 
ENDBRANCH  16  17
ENDBRANCH   3  16
TORSDOF 4
