REMARK  4 active torsions:
REMARK  status: ('A' for Active; 'I' for Inactive)
REMARK    1  A    between atoms: C14_14  and  C15_15 
REMARK    2  A    between atoms: C15_15  and  C16_16 
REMARK    3  A    between atoms: C16_16  and  C17_17 
REMARK    4  A    between atoms: C17_17  and  O1_18 
ROOT
HETATM    1  C1  UNL     1      -3.645   2.424  -0.528  1.00  0.00     0.015 C 
HETATM    2  C2  UNL     1      -3.463   0.903  -0.421  1.00  0.00    -0.044 C 
HETATM    3  C3  UNL     1      -4.047   0.319  -1.679  1.00  0.00     0.015 C 
HETATM    4  C4  UNL     1      -4.250   0.474   0.795  1.00  0.00     0.009 C 
HETATM    5  C5  UNL     1      -4.158  -1.006   1.012  1.00  0.00     0.001 C 
HETATM    6  C6  UNL     1      -2.876  -1.611   0.553  1.00  0.00     0.005 C 
HETATM    7  C7  UNL     1      -1.716  -0.602   0.578  1.00  0.00    -0.005 C 
HETATM    8  C8  UNL     1      -2.016   0.611  -0.229  1.00  0.00    -0.002 C 
HETATM    9  C9  UNL     1      -1.262   0.561  -1.566  1.00  0.00     0.006 C 
HETATM   10  C10 UNL     1       0.206   0.687  -1.136  1.00  0.00     0.011 C 
HETATM   11  C11 UNL     1       0.582  -0.602  -0.480  1.00  0.00    -0.032 C 
HETATM   12  C12 UNL     1       1.209  -1.480  -1.573  1.00  0.00     0.011 C 
HETATM   13  C13 UNL     1       2.678  -1.107  -1.545  1.00  0.00     0.006 C 
HETATM   14  C14 UNL     1       2.941  -0.990  -0.070  1.00  0.00    -0.010 C 
HETATM   15  C18 UNL     1       1.722  -0.326   0.475  1.00  0.00    -0.002 C 
HETATM   16  C19 UNL     1       1.323  -0.918   1.806  1.00  0.00     0.006 C 
HETATM   17  C20 UNL     1       0.186  -1.837   1.516  1.00  0.00     0.006 C 
HETATM   18  C21 UNL     1      -0.473  -1.321   0.230  1.00  0.00    -0.001 C 
ENDROOT
BRANCH  14  19
HETATM   19  C15 UNL     1       4.225  -0.298   0.251  1.00  0.00     0.007 C 
BRANCH  19  20
HETATM   20  C16 UNL     1       4.311   1.102  -0.264  1.00  0.00     0.026 C 
BRANCH  20  21
HETATM   21  C17 UNL     1       5.684   1.646   0.156  1.00  0.00     0.164 C 
BRANCH  21  22
HETATM   22  O1  UNL     1       5.802   2.937  -0.301  1.00  0.00    -0.401 OA
ATOM     23  H1  UNL     1       6.652   3.274  -0.041  1.00  0.00     0.209 HD
ENDBRANCH  21  22
ENDBRANCH  20  21
ENDBRANCH  19  20
ENDBRANCH  14  19
TORSDOF 4
