REMARK  4 active torsions:
REMARK  status: ('A' for Active; 'I' for Inactive)
REMARK    1  A    between atoms: C2_2  and  C3_3 
REMARK    2  A    between atoms: C2_2  and  C14_17 
REMARK    3  A    between atoms: C3_3  and  C4_4 
REMARK    4  A    between atoms: C4_4  and  C5_5 
ROOT
HETATM    1  C5  UNL     1       1.605   0.726  -0.372  1.00  0.00    -0.014 C 
HETATM    2  C6  UNL     1       1.808  -0.719   0.025  1.00  0.00     0.007 C 
HETATM    3  C7  UNL     1       3.200  -1.232  -0.244  1.00  0.00     0.039 C 
HETATM    4  C8  UNL     1       4.267  -0.380   0.395  1.00  0.00     0.126 C 
HETATM    5  C9  UNL     1       5.339  -0.134  -0.628  1.00  0.00     0.040 C 
HETATM    6  C10 UNL     1       6.623  -0.655  -0.026  1.00  0.00     0.030 C 
HETATM    7  C11 UNL     1       6.281  -1.005   1.382  1.00  0.00     0.233 C 
HETATM    8  N1  UNL     1       4.861  -1.003   1.533  1.00  0.00    -0.066 N 
ATOM      9  H11 UNL     1       4.489  -1.938   1.700  1.00  0.00     0.278 HD
ATOM     10  H12 UNL     1       4.566  -0.571   2.408  1.00  0.00     0.278 HD
HETATM   11  C12 UNL     1       3.715   0.973   0.818  1.00  0.00     0.039 C 
HETATM   12  C13 UNL     1       2.933   1.499  -0.361  1.00  0.00     0.007 C 
ENDROOT
BRANCH   1  13
HETATM   13  C4  UNL     1       0.709   1.426   0.599  1.00  0.00     0.005 C 
BRANCH  13  14
HETATM   14  C3  UNL     1      -0.680   0.972   0.770  1.00  0.00     0.005 C 
BRANCH  14  15
HETATM   15  C2  UNL     1      -1.652   1.138  -0.347  1.00  0.00    -0.014 C 
HETATM   16  C1  UNL     1      -1.360   0.461  -1.605  1.00  0.00     0.010 C 
BRANCH  15  17
HETATM   17  C14 UNL     1      -3.054   0.881   0.193  1.00  0.00    -0.010 C 
HETATM   18  C15 UNL     1      -4.152   1.323  -0.705  1.00  0.00     0.010 C 
HETATM   19  C16 UNL     1      -5.320   0.444  -0.258  1.00  0.00    -0.006 C 
HETATM   20  C17 UNL     1      -5.998  -0.279  -1.402  1.00  0.00     0.006 C 
HETATM   21  C19 UNL     1      -4.702  -0.851   0.153  1.00  0.00    -0.040 C 
HETATM   22  C18 UNL     1      -4.992  -1.396  -1.215  1.00  0.00     0.010 C 
HETATM   23  C20 UNL     1      -5.469  -1.635   1.197  1.00  0.00     0.015 C 
HETATM   24  C21 UNL     1      -3.267  -0.590   0.479  1.00  0.00     0.014 C 
ENDBRANCH  15  17
ENDBRANCH  14  15
ENDBRANCH  13  14
ENDBRANCH   1  13
TORSDOF 4
