REMARK  4 active torsions:
REMARK  status: ('A' for Active; 'I' for Inactive)
REMARK    1  A    between atoms: N1_1  and  N2_4 
REMARK    2  A    between atoms: C1_6  and  O1_7 
REMARK    3  A    between atoms: O1_7  and  N3_8 
REMARK    4  A    between atoms: C2_10  and  C3_11 
ROOT
HETATM    1  C3  UNL     1      -0.187   0.012   0.138  1.00  0.00    -0.008 A 
HETATM    2  C4  UNL     1       0.175   1.284  -0.242  1.00  0.00     0.014 A 
HETATM    3  C5  UNL     1      -0.780   2.233  -0.561  1.00  0.00     0.002 A 
HETATM    4  C6  UNL     1      -2.109   1.909  -0.501  1.00  0.00     0.012 A 
HETATM    5  C7  UNL     1      -2.482   0.642  -0.123  1.00  0.00    -0.025 A 
HETATM    6  C8  UNL     1      -3.816   0.355  -0.074  1.00  0.00     0.012 A 
HETATM    7  C9  UNL     1      -4.228  -0.883   0.294  1.00  0.00     0.001 A 
HETATM    8  C10 UNL     1      -3.309  -1.830   0.612  1.00  0.00     0.001 A 
HETATM    9  C11 UNL     1      -1.941  -1.566   0.571  1.00  0.00     0.013 A 
HETATM   10  C12 UNL     1      -1.521  -0.315   0.200  1.00  0.00    -0.014 A 
ENDROOT
BRANCH   1  11
HETATM   11  C2  UNL     1       0.837  -0.940   0.460  1.00  0.00     0.126 C 
HETATM   12  N3  UNL     1       2.092  -0.536   0.373  1.00  0.00    -0.271 N 
ATOM     13  H3  UNL     1       2.300   0.420   0.085  1.00  0.00     0.194 HD
BRANCH  12  14
HETATM   14  O1  UNL     1       3.118  -1.400   0.669  1.00  0.00    -0.232 OA
BRANCH  14  15
HETATM   15  C1  UNL     1       4.405  -0.995   0.357  1.00  0.00     0.274 C 
HETATM   16  N2  UNL     1       4.683   0.252   0.309  1.00  0.00    -0.295 N 
ATOM     17  H2  UNL     1       3.956   0.942   0.500  1.00  0.00     0.187 HD
BRANCH  16  18
HETATM   18  N1  UNL     1       5.982   0.676  -0.005  1.00  0.00    -0.344 N 
ATOM     19  H12 UNL     1       6.697  -0.027  -0.193  1.00  0.00     0.176 HD
ATOM     20  H11 UNL     1       6.204   1.671  -0.043  1.00  0.00     0.176 HD
ENDBRANCH  16  18
ENDBRANCH  14  15
ENDBRANCH  12  14
ENDBRANCH   1  11
TORSDOF 4
