REMARK  4 active torsions:
REMARK  status: ('A' for Active; 'I' for Inactive)
REMARK    1  A    between atoms: C2_2  and  C3_3 
REMARK    2  A    between atoms: C3_3  and  N1_4 
REMARK    3  A    between atoms: N1_4  and  C4_6 
REMARK    4  A    between atoms: C6_8  and  C7_9 
ROOT
HETATM    1  C4  UNL     1       1.304   0.778  -0.446  1.00  0.00     0.107 A 
HETATM    2  C5  UNL     1       0.152   0.039  -0.177  1.00  0.00     0.078 A 
HETATM    3  C6  UNL     1      -1.096   0.655  -0.231  1.00  0.00     0.050 A 
HETATM    4  N3  UNL     1      -1.184   1.952  -0.542  1.00  0.00    -0.308 N 
ATOM      5  H3  UNL     1      -2.096   2.406  -0.584  1.00  0.00     0.170 HD
HETATM    6  C12 UNL     1      -0.049   2.669  -0.804  1.00  0.00     0.326 A 
HETATM    7  O1  UNL     1      -0.191   3.888  -1.091  1.00  0.00    -0.247 OA
HETATM    8  N4  UNL     1       1.142   2.076  -0.750  1.00  0.00    -0.295 N 
ATOM      9  H4  UNL     1       1.972   2.635  -0.949  1.00  0.00     0.172 HD
ENDROOT
BRANCH   3  10
HETATM   10  C7  UNL     1      -2.302  -0.127   0.052  1.00  0.00    -0.007 A 
HETATM   11  C8  UNL     1      -2.266  -1.472   0.378  1.00  0.00     0.030 A 
HETATM   12  C9  UNL     1      -3.453  -2.168   0.639  1.00  0.00     0.088 A 
HETATM   13  N2  UNL     1      -4.642  -1.574   0.585  1.00  0.00    -0.375 N 
HETATM   14  C10 UNL     1      -4.719  -0.287   0.277  1.00  0.00     0.088 A 
ATOM     15  H2  UNL     1      -5.490  -2.106   0.780  1.00  0.00     0.164 HD
HETATM   16  C11 UNL     1      -3.561   0.429   0.013  1.00  0.00     0.030 A 
ENDBRANCH   3  10
BRANCH   1  17
HETATM   17  N1  UNL     1       2.473   0.290  -0.416  1.00  0.00    -0.373 N 
ATOM     18  H1  UNL     1       3.248   0.918  -0.629  1.00  0.00     0.161 HD
BRANCH  17  19
HETATM   19  C3  UNL     1       2.797  -1.080  -0.106  1.00  0.00     0.147 C 
BRANCH  19  20
HETATM   20  C2  UNL     1       4.221  -1.248   0.280  1.00  0.00    -0.018 C 
HETATM   21  C1  UNL     1       5.089  -0.263   0.334  1.00  0.00     0.008 C 
ENDBRANCH  19  20
ENDBRANCH  17  19
ENDBRANCH   1  17
TORSDOF 4
