REMARK  4 active torsions:
REMARK  status: ('A' for Active; 'I' for Inactive)
REMARK    1  A    between atoms: C2_3  and  C3_4 
REMARK    2  A    between atoms: C3_4  and  C4_5 
REMARK    3  A    between atoms: C11_16  and  N3_17 
REMARK    4  A    between atoms: N3_17  and  C12_19 
ROOT
HETATM    1  O1  UNL     1       1.952   0.288  -0.437  1.00  0.00    -0.263 OA
HETATM    2  C1  UNL     1       1.658  -0.537   0.466  1.00  0.00     0.310 A 
HETATM    3  C2  UNL     1       2.491  -1.357   1.211  1.00  0.00     0.120 A 
HETATM    4  N1  UNL     1       1.764  -2.081   2.069  1.00  0.00    -0.184 N 
ATOM      5  H1  UNL     1       2.111  -2.766   2.740  1.00  0.00     0.184 HD
HETATM    6  C10 UNL     1       0.474  -1.721   1.868  1.00  0.00     0.722 A 
HETATM    7  N2  UNL     1      -0.799  -1.923   2.253  1.00  0.00    -0.019 N 
ATOM      8  H2  UNL     1      -1.085  -2.579   2.980  1.00  0.00     0.203 HD
HETATM    9  C11 UNL     1      -1.645  -1.146   1.554  1.00  0.00     0.713 A 
HETATM   10  N6  UNL     1      -0.873  -0.440   0.709  1.00  0.00    -0.107 N 
ATOM     11  H6  UNL     1      -1.207   0.248   0.034  1.00  0.00     0.207 HD
HETATM   12  N7  UNL     1       0.410  -0.789   0.900  1.00  0.00    -0.031 N 
ENDROOT
BRANCH   9  13
HETATM   13  N3  UNL     1      -2.948  -1.095   1.678  1.00  0.00    -0.190 N 
ATOM     14  H3  UNL     1      -3.421  -1.686   2.361  1.00  0.00     0.184 HD
BRANCH  13  15
HETATM   15  C12 UNL     1      -3.689  -0.225   0.868  1.00  0.00     0.050 A 
HETATM   16  C13 UNL     1      -3.518   1.136   1.018  1.00  0.00     0.032 A 
HETATM   17  C14 UNL     1      -4.237   1.981   0.232  1.00  0.00     0.034 A 
HETATM   18  C15 UNL     1      -5.128   1.502  -0.705  1.00  0.00     0.059 A 
HETATM   19  N4  UNL     1      -5.942   2.116  -1.586  1.00  0.00    -0.300 N 
HETATM   20  C17 UNL     1      -5.285   0.141  -0.839  1.00  0.00     0.011 A 
HETATM   21  N5  UNL     1      -6.581   1.178  -2.243  1.00  0.00    -0.311 N 
ATOM     22  H4  UNL     1      -6.042   3.123  -1.717  1.00  0.00     0.187 HD
HETATM   23  C16 UNL     1      -6.230  -0.040  -1.840  1.00  0.00     0.120 A 
ATOM     24  H5  UNL     1      -7.266   1.361  -2.976  1.00  0.00     0.186 HD
HETATM   25  C18 UNL     1      -4.571  -0.764  -0.057  1.00  0.00     0.045 A 
ENDBRANCH  13  15
ENDBRANCH   9  13
BRANCH   3  26
HETATM   26  C3  UNL     1       3.796  -1.381   1.058  1.00  0.00     0.047 C 
BRANCH  26  27
HETATM   27  C4  UNL     1       4.488  -0.537   0.080  1.00  0.00    -0.034 A 
HETATM   28  C5  UNL     1       4.892   0.716   0.453  1.00  0.00     0.011 A 
HETATM   29  C6  UNL     1       5.557   1.571  -0.431  1.00  0.00     0.001 A 
HETATM   30  C7  UNL     1       5.801   1.120  -1.703  1.00  0.00     0.000 A 
HETATM   31  C8  UNL     1       5.414  -0.135  -2.127  1.00  0.00     0.001 A 
HETATM   32  C9  UNL     1       4.753  -0.951  -1.208  1.00  0.00     0.011 A 
ENDBRANCH  26  27
ENDBRANCH   3  26
TORSDOF 4
