REMARK  8 active torsions:
REMARK  status: ('A' for Active; 'I' for Inactive)
REMARK    1  A    between atoms: C2_2  and  C3_6 
REMARK    2  A    between atoms: C3_6  and  C4_7 
REMARK    3  A    between atoms: C4_7  and  C5_8 
REMARK    4  A    between atoms: C7_10  and  N2_11 
REMARK    5  A    between atoms: N2_11  and  N3_13 
REMARK    6  A    between atoms: C8_18  and  O1_19 
REMARK    7  A    between atoms: C9_21  and  O2_22 
REMARK    8  A    between atoms: C10_24  and  O3_25 
ROOT
HETATM    1  C5  UNL     1       0.008   0.183   0.688  1.00  0.00     0.099 C 
HETATM    2  C6  UNL     1      -0.500  -1.199   0.467  1.00  0.00     0.049 C 
HETATM    3  C7  UNL     1      -2.029  -1.199   0.578  1.00  0.00     0.133 C 
HETATM    4  C8  UNL     1      -2.641  -0.322  -0.495  1.00  0.00     0.173 C 
HETATM    5  C9  UNL     1      -1.641   0.584  -1.131  1.00  0.00     0.178 C 
HETATM    6  C10 UNL     1      -0.687   1.220  -0.159  1.00  0.00     0.165 C 
ENDROOT
BRANCH   1   7
HETATM    7  C4  UNL     1       1.457   0.168   0.451  1.00  0.00    -0.092 C 
BRANCH   7   8
HETATM    8  C3  UNL     1       2.659   0.172   0.243  1.00  0.00    -0.054 C 
BRANCH   8   9
HETATM    9  C2  UNL     1       4.073   0.198  -0.015  1.00  0.00     0.053 C 
HETATM   10  C1  UNL     1       4.889  -1.008   0.311  1.00  0.00     0.078 C 
HETATM   11  N1  UNL     1       4.683   1.218  -0.519  1.00  0.00    -0.396 N 
ATOM     12  H12 UNL     1       5.686   1.236  -0.702  1.00  0.00     0.156 HD
ATOM     13  H11 UNL     1       4.125   2.042  -0.742  1.00  0.00     0.156 HD
ENDBRANCH   8   9
ENDBRANCH   7   8
ENDBRANCH   1   7
BRANCH   6  14
HETATM   14  O3  UNL     1      -1.280   2.224   0.598  1.00  0.00    -0.392 OA
ATOM     15  H3  UNL     1      -1.718   2.877   0.065  1.00  0.00     0.210 HD
ENDBRANCH   6  14
BRANCH   3  16
HETATM   16  N2  UNL     1      -2.328  -0.703   1.916  1.00  0.00    -0.315 N 
ATOM     17  H2  UNL     1      -1.637  -0.821   2.657  1.00  0.00     0.182 HD
BRANCH  16  18
HETATM   18  N3  UNL     1      -3.410  -0.138   2.175  1.00  0.00    -0.253 N 
HETATM   19  N4  UNL     1      -4.096   0.876   2.404  1.00  0.00    -0.331 N 
ATOM     20  H42 UNL     1      -3.396   1.615   2.346  1.00  0.00     0.178 HD
ATOM     21  H41 UNL     1      -4.980   1.338   2.616  1.00  0.00     0.178 HD
ATOM     22  H3  UNL     1      -4.081  -0.905   2.225  1.00  0.00     0.207 HD
ENDBRANCH  16  18
ENDBRANCH   3  16
BRANCH   5  23
HETATM   23  O2  UNL     1      -2.277   1.592  -1.836  1.00  0.00    -0.390 OA
ATOM     24  H2  UNL     1      -1.640   2.169  -2.241  1.00  0.00     0.210 HD
ENDBRANCH   5  23
BRANCH   4  25
HETATM   25  O1  UNL     1      -3.123  -1.181  -1.511  1.00  0.00    -0.391 OA
ATOM     26  H1  UNL     1      -3.507  -0.631  -2.184  1.00  0.00     0.210 HD
ENDBRANCH   4  25
TORSDOF 8
