REMARK  5 active torsions:
REMARK  status: ('A' for Active; 'I' for Inactive)
REMARK    1  A    between atoms: C2_2  and  O1_3 
REMARK    2  A    between atoms: C5_7  and  C6_8 
REMARK    3  A    between atoms: C6_8  and  O2_9 
REMARK    4  A    between atoms: C7_11  and  O3_12 
REMARK    5  A    between atoms: C10_16  and  O4_17 
ROOT
HETATM    1  C1  UNL     1       3.399   0.601   0.133  1.00  0.00     0.045 C 
HETATM    2  C2  UNL     1       2.273  -0.096  -0.591  1.00  0.00     0.055 C 
HETATM    3  C3  UNL     1       1.798  -1.223   0.285  1.00  0.00     0.038 C 
HETATM    4  C4  UNL     1       0.452  -1.738  -0.109  1.00  0.00     0.017 C 
HETATM    5  C5  UNL     1      -0.581  -0.646   0.002  1.00  0.00     0.013 C 
HETATM    6  C7  UNL     1      -1.309  -0.783   1.349  1.00  0.00     0.129 C 
HETATM    7  C8  UNL     1      -2.408   0.210   1.381  1.00  0.00     0.035 C 
HETATM    8  C9  UNL     1      -2.106   1.584   0.964  1.00  0.00     0.034 C 
HETATM    9  C10 UNL     1      -0.916   1.823   0.121  1.00  0.00     0.123 C 
HETATM   10  C11 UNL     1       0.074   0.695   0.082  1.00  0.00     0.030 C 
HETATM   11  C12 UNL     1       1.141   0.874  -0.942  1.00  0.00     0.045 C 
ENDROOT
BRANCH   2  12
HETATM   12  O1  UNL     1       2.787  -0.583  -1.789  1.00  0.00    -0.390 OA
ATOM     13  H1  UNL     1       2.078  -1.022  -2.245  1.00  0.00     0.210 HD
ENDBRANCH   2  12
BRANCH   5  14
HETATM   14  C6  UNL     1      -1.571  -0.823  -1.098  1.00  0.00     0.176 C 
BRANCH  14  15
HETATM   15  O2  UNL     1      -1.039  -0.764  -2.367  1.00  0.00    -0.400 OA
ATOM     16  H2  UNL     1      -1.670  -0.877  -3.068  1.00  0.00     0.209 HD
ENDBRANCH  14  15
ENDBRANCH   5  14
BRANCH   9  17
HETATM   17  O4  UNL     1      -1.263   2.090  -1.222  1.00  0.00    -0.395 OA
ATOM     18  H4  UNL     1      -0.498   2.244  -1.764  1.00  0.00     0.210 HD
ENDBRANCH   9  17
BRANCH   6  19
HETATM   19  O3  UNL     1      -1.834  -2.083   1.365  1.00  0.00    -0.395 OA
ATOM     20  H3  UNL     1      -2.284  -2.168   2.197  1.00  0.00     0.210 HD
ENDBRANCH   6  19
TORSDOF 5
