REMARK  6 active torsions:
REMARK  status: ('A' for Active; 'I' for Inactive)
REMARK    1  A    between atoms: N1_1  and  C1_5 
REMARK    2  A    between atoms: C1_5  and  C2_6 
REMARK    3  A    between atoms: C1_5  and  C8_12 
REMARK    4  A    between atoms: C10_14  and  O1_15 
REMARK    5  A    between atoms: C11_17  and  O2_18 
REMARK    6  A    between atoms: C12_20  and  O3_21 
ROOT
HETATM    1  C8  UNL     1      -1.328  -0.932   0.222  1.00  0.00     0.050 C 
HETATM    2  C9  UNL     1      -1.654  -0.875  -1.229  1.00  0.00     0.043 C 
HETATM    3  C10 UNL     1      -2.868   0.040  -1.359  1.00  0.00     0.150 C 
HETATM    4  C11 UNL     1      -3.113   0.661  -0.016  1.00  0.00     0.176 C 
HETATM    5  C12 UNL     1      -1.949   0.285   0.876  1.00  0.00     0.155 C 
ENDROOT
BRANCH   1   6
HETATM    6  C1  UNL     1       0.012  -1.253   0.665  1.00  0.00     0.194 C 
BRANCH   6   7
HETATM    7  N1  UNL     1       0.322  -2.609   0.136  1.00  0.00    -0.074 N 
ATOM      8  H13 UNL     1       0.635  -2.606  -0.835  1.00  0.00     0.274 HD
ATOM      9  H12 UNL     1       1.166  -3.019   0.535  1.00  0.00     0.274 HD
ATOM     10  H11 UNL     1      -0.517  -3.168   0.293  1.00  0.00     0.274 HD
ENDBRANCH   6   7
BRANCH   6  11
HETATM   11  C2  UNL     1       1.205  -0.458   0.442  1.00  0.00     0.016 C 
HETATM   12  C3  UNL     1       1.638  -0.318  -1.012  1.00  0.00     0.007 C 
HETATM   13  C4  UNL     1       3.145  -0.022  -0.998  1.00  0.00     0.000 C 
HETATM   14  C5  UNL     1       3.448   1.200  -0.171  1.00  0.00     0.000 C 
HETATM   15  C6  UNL     1       2.855   1.175   1.194  1.00  0.00     0.000 C 
HETATM   16  C7  UNL     1       1.369   0.869   1.067  1.00  0.00     0.007 C 
ENDBRANCH   6  11
ENDBRANCH   1   6
BRANCH   5  17
HETATM   17  O3  UNL     1      -2.513  -0.045   2.132  1.00  0.00    -0.392 OA
ATOM     18  H3  UNL     1      -2.902   0.718   2.542  1.00  0.00     0.210 HD
ENDBRANCH   5  17
BRANCH   3  19
HETATM   19  O1  UNL     1      -2.653   1.033  -2.310  1.00  0.00    -0.393 OA
ATOM     20  H1  UNL     1      -3.409   1.603  -2.391  1.00  0.00     0.210 HD
ENDBRANCH   3  19
BRANCH   4  21
HETATM   21  O2  UNL     1      -3.153   2.057  -0.066  1.00  0.00    -0.390 OA
ATOM     22  H2  UNL     1      -3.308   2.450   0.785  1.00  0.00     0.210 HD
ENDBRANCH   4  21
TORSDOF 6
