REMARK  5 active torsions:
REMARK  status: ('A' for Active; 'I' for Inactive)
REMARK    1  A    between atoms: C3_3  and  C4_4 
REMARK    2  A    between atoms: C7_7  and  O1_8 
REMARK    3  A    between atoms: C8_10  and  O2_11 
REMARK    4  A    between atoms: C10_14  and  O3_15 
REMARK    5  A    between atoms: C11_17  and  O4_18 
ROOT
HETATM    1  C4  UNL     1       1.400  -1.295  -0.511  1.00  0.00     0.011 C 
HETATM    2  C5  UNL     1       0.620  -0.408  -1.412  1.00  0.00     0.018 C 
HETATM    3  C6  UNL     1      -0.355   0.223  -0.482  1.00  0.00     0.054 C 
HETATM    4  C7  UNL     1      -1.607   0.739  -1.074  1.00  0.00     0.154 C 
HETATM    5  C8  UNL     1      -2.334   1.440   0.055  1.00  0.00     0.149 C 
HETATM    6  C9  UNL     1      -2.115   0.877   1.393  1.00  0.00     0.069 C 
HETATM    7  C10 UNL     1      -1.618  -0.513   1.501  1.00  0.00     0.155 C 
HETATM    8  C11 UNL     1      -0.779  -0.989   0.354  1.00  0.00     0.090 C 
HETATM    9  C12 UNL     1       0.548  -1.532   0.738  1.00  0.00     0.049 C 
ENDROOT
BRANCH   1  10
HETATM   10  C3  UNL     1       2.696  -0.793  -0.046  1.00  0.00    -0.026 C 
HETATM   11  C2  UNL     1       3.272   0.348  -0.318  1.00  0.00    -0.035 C 
HETATM   12  C1  UNL     1       4.605   0.666   0.264  1.00  0.00     0.036 C 
ENDBRANCH   1  10
BRANCH   8  13
HETATM   13  O4  UNL     1      -1.477  -1.923  -0.354  1.00  0.00    -0.387 OA
ATOM     14  H4  UNL     1      -1.740  -2.674   0.164  1.00  0.00     0.210 HD
ENDBRANCH   8  13
BRANCH   4  15
HETATM   15  O1  UNL     1      -1.410   1.647  -2.110  1.00  0.00    -0.393 OA
ATOM     16  H1  UNL     1      -2.215   1.979  -2.491  1.00  0.00     0.210 HD
ENDBRANCH   4  15
BRANCH   7  17
HETATM   17  O3  UNL     1      -2.674  -1.404   1.707  1.00  0.00    -0.392 OA
ATOM     18  H3  UNL     1      -2.355  -2.296   1.776  1.00  0.00     0.210 HD
ENDBRANCH   7  17
BRANCH   5  19
HETATM   19  O2  UNL     1      -3.695   1.546  -0.296  1.00  0.00    -0.393 OA
ATOM     20  H2  UNL     1      -4.151   1.986   0.412  1.00  0.00     0.210 HD
ENDBRANCH   5  19
TORSDOF 5
