REMARK  0 active torsions:
REMARK  status: ('A' for Active; 'I' for Inactive)
ROOT
HETATM    1  C1  UNL     1       0.527   0.750   1.176  1.00  0.00     0.156 C 
HETATM    2  N1  UNL     1       1.604   0.283   0.391  1.00  0.00    -0.346 N 
HETATM    3  C2  UNL     1       2.983   0.548   0.787  1.00  0.00     0.062 A 
HETATM    4  C3  UNL     1       3.155   1.384   1.888  1.00  0.00     0.033 A 
HETATM    5  C4  UNL     1       4.432   1.696   2.304  1.00  0.00     0.014 A 
HETATM    6  C5  UNL     1       5.503   1.176   1.620  1.00  0.00    -0.024 A 
HETATM    7  C6  UNL     1       6.786   1.500   2.054  1.00  0.00     0.012 A 
HETATM    8  C7  UNL     1       7.884   1.006   1.404  1.00  0.00     0.001 A 
HETATM    9  C8  UNL     1       7.710   0.182   0.314  1.00  0.00     0.001 A 
HETATM   10  C9  UNL     1       6.453  -0.155  -0.137  1.00  0.00     0.014 A 
HETATM   11  C10 UNL     1       5.349   0.348   0.523  1.00  0.00     0.003 A 
HETATM   12  C11 UNL     1       4.070   0.044   0.118  1.00  0.00     0.071 A 
HETATM   13  N2  UNL     1       3.868  -0.765  -1.006  1.00  0.00    -0.352 N 
ATOM     14  H2  UNL     1       4.666  -1.149  -1.512  1.00  0.00     0.166 HD
HETATM   15  C12 UNL     1       2.551  -1.047  -1.435  1.00  0.00     0.063 A 
HETATM   16  C13 UNL     1       2.387  -1.820  -2.577  1.00  0.00     0.049 A 
HETATM   17  C14 UNL     1       1.106  -2.050  -3.000  1.00  0.00     0.093 A 
HETATM   18  N3  UNL     1       0.041  -1.582  -2.387  1.00  0.00    -0.358 N 
HETATM   19  C15 UNL     1      -1.242  -1.909  -2.957  1.00  0.00     0.156 C 
HETATM   20  C16 UNL     1       0.175  -0.818  -1.257  1.00  0.00     0.074 A 
HETATM   21  C17 UNL     1      -1.072  -0.368  -0.742  1.00  0.00     0.005 A 
HETATM   22  C18 UNL     1      -1.576   0.862  -1.062  1.00  0.00     0.022 A 
HETATM   23  C19 UNL     1      -2.842   1.244  -0.702  1.00  0.00    -0.050 A 
HETATM   24  C20 UNL     1      -3.661   0.400  -0.001  1.00  0.00    -0.041 A 
HETATM   25  C21 UNL     1      -3.188  -0.852   0.341  1.00  0.00    -0.018 A 
HETATM   26  C22 UNL     1      -3.996  -1.723   1.048  1.00  0.00     0.014 A 
HETATM   27  C23 UNL     1      -3.520  -2.989   1.391  1.00  0.00     0.027 A 
HETATM   28  C24 UNL     1      -2.263  -3.382   1.038  1.00  0.00     0.047 A 
HETATM   29  N4  UNL     1      -1.710  -4.645   1.347  1.00  0.00    -0.102 NA
HETATM   30  C25 UNL     1      -1.491  -2.489   0.338  1.00  0.00     0.039 A 
HETATM   31  C26 UNL     1      -1.909  -1.213  -0.033  1.00  0.00    -0.011 A 
HETATM   32  C27 UNL     1      -5.066   0.587   0.488  1.00  0.00     0.040 C 
HETATM   33  C28 UNL     1      -5.611   1.884  -0.058  1.00  0.00     0.005 C 
HETATM   34  C29 UNL     1      -4.989   3.111   0.517  1.00  0.00     0.001 C 
HETATM   35  C30 UNL     1      -3.624   3.437   0.023  1.00  0.00     0.005 C 
HETATM   36  C31 UNL     1      -3.168   2.636  -1.149  1.00  0.00     0.039 C 
HETATM   37  C32 UNL     1       1.405  -0.541  -0.764  1.00  0.00     0.089 A 
ENDROOT
TORSDOF 0
