REMARK  1 active torsions:
REMARK  status: ('A' for Active; 'I' for Inactive)
REMARK    1  A    between atoms: C10_14  and  C11_15 
ROOT
HETATM    1  C11 UNL     1       0.012  -1.586   1.020  1.00  0.00     0.010 A 
HETATM    2  C12 UNL     1      -0.183  -2.749   1.741  1.00  0.00     0.022 A 
HETATM    3  C13 UNL     1      -1.439  -3.243   2.013  1.00  0.00    -0.060 A 
HETATM    4  C14 UNL     1      -1.693  -4.487   2.783  1.00  0.00     0.048 C 
HETATM    5  C15 UNL     1      -2.509  -2.531   1.535  1.00  0.00     0.021 A 
HETATM    6  C16 UNL     1      -2.337  -1.350   0.802  1.00  0.00     0.008 A 
HETATM    7  C17 UNL     1      -3.427  -0.652   0.333  1.00  0.00    -0.010 A 
HETATM    8  C18 UNL     1      -3.196   0.512  -0.388  1.00  0.00     0.061 A 
HETATM    9  C19 UNL     1      -1.928   0.961  -0.631  1.00  0.00     0.300 A 
HETATM   10  O1  UNL     1      -1.639   1.990  -1.266  1.00  0.00    -0.259 OA
HETATM   11  O2  UNL     1      -0.919   0.232  -0.145  1.00  0.00    -0.273 OA
HETATM   12  C20 UNL     1      -1.072  -0.867   0.538  1.00  0.00     0.101 A 
HETATM   13  C21 UNL     1      -4.362   1.240  -0.880  1.00  0.00     0.007 A 
HETATM   14  C22 UNL     1      -4.218   2.395  -1.596  1.00  0.00     0.015 A 
HETATM   15  C23 UNL     1      -5.367   3.069  -2.052  1.00  0.00     0.001 A 
HETATM   16  C24 UNL     1      -6.607   2.563  -1.773  1.00  0.00     0.002 A 
HETATM   17  C25 UNL     1      -6.773   1.408  -1.057  1.00  0.00     0.030 A 
HETATM   18  C26 UNL     1      -5.652   0.741  -0.607  1.00  0.00     0.041 A 
HETATM   19  N3  UNL     1      -5.830  -0.463   0.138  1.00  0.00    -0.380 N 
HETATM   20  C27 UNL     1      -7.183  -0.939   0.386  1.00  0.00     0.150 C 
HETATM   21  C28 UNL     1      -4.743  -1.217   0.648  1.00  0.00     0.163 A 
ENDROOT
BRANCH   1  22
HETATM   22  C10 UNL     1       1.364  -1.064   0.736  1.00  0.00    -0.021 A 
HETATM   23  C9  UNL     1       1.689   0.247   0.895  1.00  0.00     0.042 A 
HETATM   24  C8  UNL     1       2.988   0.670   0.605  1.00  0.00     0.044 A 
HETATM   25  N2  UNL     1       3.599   1.872   0.662  1.00  0.00    -0.353 N 
HETATM   26  C31 UNL     1       3.948  -0.213   0.161  1.00  0.00     0.003 A 
HETATM   27  C7  UNL     1       4.881   1.775   0.277  1.00  0.00     0.070 A 
ATOM     28  H2  UNL     1       3.147   2.737   0.958  1.00  0.00     0.166 HD
HETATM   29  C2  UNL     1       5.964   2.750   0.155  1.00  0.00     0.050 A 
HETATM   30  C6  UNL     1       5.154   0.443  -0.057  1.00  0.00     0.007 A 
HETATM   31  C1  UNL     1       5.744   4.023   0.463  1.00  0.00     0.045 C 
HETATM   32  N1  UNL     1       7.236   2.311  -0.292  1.00  0.00    -0.359 N 
HETATM   33  C3  UNL     1       7.446   0.930  -0.618  1.00  0.00     0.006 A 
ATOM     34  H1  UNL     1       8.003   2.978  -0.382  1.00  0.00     0.166 HD
HETATM   35  C4  UNL     1       8.778   0.520  -1.077  1.00  0.00     0.068 C 
HETATM   36  C5  UNL     1       6.477   0.045  -0.511  1.00  0.00     0.039 A 
HETATM   37  C30 UNL     1       3.623  -1.553  -0.003  1.00  0.00     0.015 A 
HETATM   38  C29 UNL     1       2.335  -1.945   0.289  1.00  0.00     0.013 A 
ENDBRANCH   1  22
TORSDOF 1
