REMARK  10 active torsions:
REMARK  status: ('A' for Active; 'I' for Inactive)
REMARK    1  A    between atoms: O1_2  and  C2_3 
REMARK    2  A    between atoms: C2_3  and  N4_14 
REMARK    3  A    between atoms: N1_4  and  C3_6 
REMARK    4  A    between atoms: C3_6  and  C4_7 
REMARK    5  A    between atoms: C4_7  and  C5_8 
REMARK    6  A    between atoms: C5_8  and  C6_9 
REMARK    7  A    between atoms: N4_14  and  N5_16 
REMARK    8  A    between atoms: C7_18  and  C8_19 
REMARK    9  A    between atoms: C10_23  and  N7_24 
REMARK   10  A    between atoms: C13_36  and  C14_37 
ROOT
HETATM    1  C8  UNL     1      -2.712  -0.908   0.406  1.00  0.00     0.073 A 
HETATM    2  N6  UNL     1      -3.584  -0.215   1.263  1.00  0.00    -0.347 N 
ATOM      3  H6  UNL     1      -3.466  -0.304   2.272  1.00  0.00     0.166 HD
HETATM    4  C9  UNL     1      -4.561   0.555   0.787  1.00  0.00     0.121 A 
HETATM    5  C10 UNL     1      -5.337   1.312   1.692  1.00  0.00     0.132 A 
HETATM    6  N8  UNL     1      -6.255   2.160   1.163  1.00  0.00    -0.318 N 
ATOM      7  H8  UNL     1      -6.838   2.726   1.780  1.00  0.00     0.170 HD
HETATM    8  C11 UNL     1      -6.401   2.259  -0.169  1.00  0.00     0.179 A 
HETATM    9  S1  UNL     1      -7.503   3.338  -0.727  1.00  0.00    -0.040 SA
HETATM   10  N9  UNL     1      -5.649   1.517  -1.032  1.00  0.00    -0.317 N 
ATOM     11  H9  UNL     1      -5.795   1.610  -2.037  1.00  0.00     0.170 HD
HETATM   12  C12 UNL     1      -4.718   0.665  -0.572  1.00  0.00     0.139 A 
HETATM   13  N10 UNL     1      -3.901  -0.004  -1.444  1.00  0.00    -0.341 N 
ATOM     14  H10 UNL     1      -4.033   0.078  -2.452  1.00  0.00     0.167 HD
HETATM   15  C13 UNL     1      -2.900  -0.787  -0.926  1.00  0.00     0.049 A 
ENDROOT
BRANCH   1  16
HETATM   16  C7  UNL     1      -1.533  -1.415   1.045  1.00  0.00     0.138 C 
HETATM   17  N5  UNL     1      -0.394  -1.481   0.702  1.00  0.00    -0.307 N 
ATOM     18  H5  UNL     1       0.078  -1.938   1.482  1.00  0.00     0.186 HD
BRANCH  17  19
HETATM   19  N4  UNL     1       0.580  -1.258  -0.191  1.00  0.00    -0.265 N 
ATOM     20  H4  UNL     1       0.897  -1.989  -0.828  1.00  0.00     0.190 HD
BRANCH  19  21
HETATM   21  C2  UNL     1       1.168   0.083  -0.211  1.00  0.00     0.237 C 
HETATM   22  N1  UNL     1       2.261   0.360   0.128  1.00  0.00    -0.335 N 
ATOM     23  H1  UNL     1       2.269   1.367  -0.034  1.00  0.00     0.168 HD
BRANCH  21  24
HETATM   24  O1  UNL     1       0.324   1.153  -0.684  1.00  0.00    -0.326 OA
HETATM   25  C1  UNL     1       1.013   2.334  -1.116  1.00  0.00     0.213 C 
ENDBRANCH  21  24
BRANCH  22  26
HETATM   26  C3  UNL     1       3.527   0.159   0.606  1.00  0.00     0.065 C 
BRANCH  26  27
HETATM   27  C4  UNL     1       4.039  -1.240   0.377  1.00  0.00     0.052 C 
BRANCH  27  28
HETATM   28  C5  UNL     1       5.460  -1.364   0.915  1.00  0.00     0.077 C 
BRANCH  28  29
HETATM   29  C6  UNL     1       6.388  -0.450   0.282  1.00  0.00     0.086 C 
HETATM   30  N2  UNL     1       6.986   0.495   0.927  1.00  0.00    -0.391 N 
ATOM     31  H22 UNL     1       6.795   0.567   1.926  1.00  0.00     0.157 HD
ATOM     32  H21 UNL     1       7.640   1.139   0.481  1.00  0.00     0.157 HD
HETATM   33  N3  UNL     1       6.657  -0.552  -1.129  1.00  0.00    -0.088 NA
ENDBRANCH  28  29
ENDBRANCH  27  28
ENDBRANCH  26  27
ENDBRANCH  22  26
ENDBRANCH  19  21
ENDBRANCH  17  19
ENDBRANCH   1  16
BRANCH  15  34
HETATM   34  C14 UNL     1      -2.036  -1.570  -1.880  1.00  0.00     0.145 C 
HETATM   35  S2  UNL     1      -2.320  -3.355  -1.639  1.00  0.00    -0.091 SA
ENDBRANCH  15  34
BRANCH   5  36
HETATM   36  N7  UNL     1      -5.178   1.185   2.952  1.00  0.00    -0.383 N 
ATOM     37  H72 UNL     1      -4.488   0.548   3.350  1.00  0.00     0.157 HD
ATOM     38  H71 UNL     1      -5.738   1.732   3.606  1.00  0.00     0.157 HD
ENDBRANCH   5  36
TORSDOF 10
