REMARK  13 active torsions:
REMARK  status: ('A' for Active; 'I' for Inactive)
REMARK    1  A    between atoms: S1_2  and  C2_3 
REMARK    2  A    between atoms: C2_3  and  C3_4 
REMARK    3  A    between atoms: C3_4  and  C4_5 
REMARK    4  A    between atoms: C4_5  and  S2_6 
REMARK    5  A    between atoms: C4_5  and  C11_33 
REMARK    6  A    between atoms: S2_6  and  C5_7 
REMARK    7  A    between atoms: C7_13  and  N3_14 
REMARK    8  A    between atoms: C8_19  and  N5_20 
REMARK    9  A    between atoms: C10_26  and  N8_27 
REMARK   10  A    between atoms: N8_27  and  N9_29 
REMARK   11  A    between atoms: N9_29  and  N10_30 
REMARK   12  A    between atoms: C11_33  and  O1_34 
REMARK   13  A    between atoms: N11_36  and  O2_38 
ROOT
HETATM    1  C5  UNL     1      -0.521  -0.803   0.480  1.00  0.00     0.119 A 
HETATM    2  N1  UNL     1      -1.559  -1.349  -0.219  1.00  0.00    -0.182 N 
ATOM      3  H1  UNL     1      -1.430  -2.272  -0.633  1.00  0.00     0.185 HD
HETATM    4  C6  UNL     1      -2.741  -0.735  -0.391  1.00  0.00     0.720 A 
HETATM    5  N2  UNL     1      -3.746  -1.291  -1.084  1.00  0.00    -0.021 N 
ATOM      6  H2  UNL     1      -3.608  -2.216  -1.492  1.00  0.00     0.203 HD
HETATM    7  C7  UNL     1      -4.928  -0.675  -1.261  1.00  0.00     0.705 A 
HETATM    8  N4  UNL     1      -5.129   0.535  -0.734  1.00  0.00    -0.021 N 
ATOM      9  H4  UNL     1      -6.020   1.016  -0.860  1.00  0.00     0.203 HD
HETATM   10  C8  UNL     1      -4.145   1.102  -0.041  1.00  0.00     0.713 A 
HETATM   11  N6  UNL     1      -2.943   0.499   0.150  1.00  0.00     0.039 N 
HETATM   12  C9  UNL     1      -1.945   1.066   0.843  1.00  0.00     0.189 A 
HETATM   13  N7  UNL     1      -2.122   2.351   1.421  1.00  0.00    -0.078 NA
HETATM   14  C10 UNL     1      -0.707   0.433   1.029  1.00  0.00     0.139 A 
ENDROOT
BRANCH   1  15
HETATM   15  S2  UNL     1       0.994  -1.684   0.705  1.00  0.00    -0.096 SA
BRANCH  15  16
HETATM   16  C4  UNL     1       2.170  -1.549  -0.621  1.00  0.00     0.131 C 
BRANCH  16  17
HETATM   17  C3  UNL     1       2.846  -0.239  -0.826  1.00  0.00     0.034 C 
BRANCH  17  18
HETATM   18  C2  UNL     1       3.641   0.185   0.351  1.00  0.00     0.075 C 
BRANCH  18  19
HETATM   19  S1  UNL     1       4.459   1.790   0.086  1.00  0.00    -0.173 SA
HETATM   20  C1  UNL     1       3.313   3.152  -0.085  1.00  0.00     0.089 C 
ENDBRANCH  18  19
ENDBRANCH  17  18
ENDBRANCH  16  17
BRANCH  16  21
HETATM   21  C11 UNL     1       3.120  -2.716  -0.543  1.00  0.00     0.149 C 
HETATM   22  N11 UNL     1       4.351  -2.569  -0.866  1.00  0.00    -0.250 N 
ATOM     23  H11 UNL     1       4.662  -1.648  -1.174  1.00  0.00     0.196 HD
BRANCH  21  24
HETATM   24  O1  UNL     1       2.705  -3.971  -0.126  1.00  0.00    -0.347 OA
ATOM     25  H1  UNL     1       3.304  -4.707  -0.077  1.00  0.00     0.219 HD
ENDBRANCH  21  24
BRANCH  22  26
HETATM   26  O2  UNL     1       5.271  -3.579  -0.820  1.00  0.00    -0.288 OA
ATOM     27  H2  UNL     1       6.184  -3.470  -1.060  1.00  0.00     0.244 HD
ENDBRANCH  22  26
ENDBRANCH  16  21
ENDBRANCH  15  16
ENDBRANCH   1  15
BRANCH  14  28
HETATM   28  N8  UNL     1       0.262   1.128   1.816  1.00  0.00    -0.210 N 
ATOM     29  H8  UNL     1       0.775   1.936   1.462  1.00  0.00     0.204 HD
BRANCH  28  30
HETATM   30  N9  UNL     1       0.437   0.675   2.972  1.00  0.00    -0.243 NA
BRANCH  30  31
HETATM   31  N10 UNL     1       0.798  -0.000   3.955  1.00  0.00    -0.260 N 
ATOM     32 2H10 UNL     1       1.348  -0.647   3.390  1.00  0.00     0.193 HD
ATOM     33 1H10 UNL     1       0.940  -0.369   4.895  1.00  0.00     0.193 HD
ENDBRANCH  30  31
ENDBRANCH  28  30
ENDBRANCH  14  28
BRANCH   7  34
HETATM   34  N3  UNL     1      -5.883  -1.249  -1.950  1.00  0.00    -0.234 N 
ATOM     35  H32 UNL     1      -5.729  -2.173  -2.353  1.00  0.00     0.174 HD
ATOM     36  H31 UNL     1      -6.780  -0.782  -2.084  1.00  0.00     0.174 HD
ENDBRANCH   7  34
BRANCH  10  37
HETATM   37  N5  UNL     1      -4.260   2.277   0.510  1.00  0.00    -0.233 N 
ATOM     38  H52 UNL     1      -5.163   2.730   0.367  1.00  0.00     0.174 HD
ATOM     39  H51 UNL     1      -3.506   2.712   1.041  1.00  0.00     0.174 HD
ENDBRANCH  10  37
TORSDOF 13
