REMARK  11 active torsions:
REMARK  status: ('A' for Active; 'I' for Inactive)
REMARK    1  A    between atoms: C2_2  and  C3_3 
REMARK    2  A    between atoms: C3_3  and  N1_4 
REMARK    3  A    between atoms: C4_5  and  O1_6 
REMARK    4  A    between atoms: C5_8  and  N2_9 
REMARK    5  A    between atoms: N2_9  and  C6_11 
REMARK    6  A    between atoms: C6_11  and  C7_12 
REMARK    7  A    between atoms: C8_13  and  O2_14 
REMARK    8  A    between atoms: C9_18  and  O3_19 
REMARK    9  A    between atoms: C10_21  and  N4_22 
REMARK   10  A    between atoms: N4_22  and  N5_24 
REMARK       I    between atoms: N5_24  and  C11_26 
REMARK   11  A    between atoms: C11_26  and  C12_28 
ROOT
HETATM    1  C7  UNL     1       0.555   1.473   1.574  1.00  0.00     0.062 A 
HETATM    2  C8  UNL     1       0.352   2.077   2.802  1.00  0.00     0.156 A 
HETATM    3  N3  UNL     1       1.457   2.768   3.103  1.00  0.00    -0.315 N 
ATOM      4  H3  UNL     1       1.591   3.315   3.953  1.00  0.00     0.170 HD
HETATM    5  C9  UNL     1       2.359   2.636   2.126  1.00  0.00     0.172 A 
HETATM    6  C10 UNL     1       1.814   1.830   1.161  1.00  0.00     0.115 A 
ENDROOT
BRANCH   1   7
HETATM    7  C6  UNL     1      -0.418   0.628   0.869  1.00  0.00     0.107 C 
BRANCH   7   8
HETATM    8  N2  UNL     1      -1.559   0.390   1.374  1.00  0.00    -0.357 N 
ATOM      9  H2  UNL     1      -1.804   0.789   2.280  1.00  0.00     0.165 HD
BRANCH   8  10
HETATM   10  C5  UNL     1      -2.504  -0.434   0.681  1.00  0.00     0.152 A 
HETATM   11  C4  UNL     1      -3.593   0.109   0.043  1.00  0.00     0.179 A 
HETATM   12  N1  UNL     1      -4.485  -0.680  -0.625  1.00  0.00    -0.278 N 
HETATM   13  C17 UNL     1      -4.222  -1.986  -0.612  1.00  0.00     0.331 A 
HETATM   14  N6  UNL     1      -3.179  -2.550  -0.006  1.00  0.00    -0.273 N 
HETATM   15  O6  UNL     1      -5.018  -2.755  -1.220  1.00  0.00    -0.246 OA
HETATM   16  C16 UNL     1      -2.290  -1.786   0.659  1.00  0.00     0.280 A 
ATOM     17  H6  UNL     1      -3.053  -3.561  -0.045  1.00  0.00     0.173 HD
HETATM   18  O5  UNL     1      -1.291  -2.315   1.242  1.00  0.00    -0.265 OA
BRANCH  11  19
HETATM   19  O1  UNL     1      -3.788   1.461   0.078  1.00  0.00    -0.344 OA
ATOM     20  H1  UNL     1      -3.167   2.010   0.543  1.00  0.00     0.219 HD
ENDBRANCH  11  19
BRANCH  12  21
HETATM   21  C3  UNL     1      -5.590  -0.116  -1.299  1.00  0.00     0.135 C 
BRANCH  21  22
HETATM   22  C2  UNL     1      -6.832   0.133  -0.527  1.00  0.00     0.016 C 
HETATM   23  C1  UNL     1      -7.503  -1.028   0.105  1.00  0.00     0.006 C 
ENDBRANCH  21  22
ENDBRANCH  12  21
ENDBRANCH   8  10
ENDBRANCH   7   8
ENDBRANCH   1   7
BRANCH   2  24
HETATM   24  O2  UNL     1      -0.791   1.989   3.592  1.00  0.00    -0.345 OA
ATOM     25  H2  UNL     1      -0.930   2.404   4.435  1.00  0.00     0.219 HD
ENDBRANCH   2  24
BRANCH   6  26
HETATM   26  N4  UNL     1       2.402   1.400  -0.070  1.00  0.00    -0.293 N 
ATOM     27  H4  UNL     1       2.229   1.903  -0.941  1.00  0.00     0.187 HD
BRANCH  26  28
HETATM   28  N5  UNL     1       3.220   0.270  -0.040  1.00  0.00    -0.266 N 
HETATM   29  C11 UNL     1       4.453   0.180  -0.744  1.00  0.00     0.259 C 
HETATM   30  O4  UNL     1       4.772   1.213  -1.420  1.00  0.00    -0.267 OA
ATOM     31  H5  UNL     1       2.919  -0.532   0.514  1.00  0.00     0.190 HD
BRANCH  29  32
HETATM   32  C12 UNL     1       5.289  -1.005  -0.694  1.00  0.00     0.077 C 
HETATM   33  C13 UNL     1       6.425  -1.152  -1.322  1.00  0.00    -0.082 C 
HETATM   34  C14 UNL     1       7.178  -2.427  -1.175  1.00  0.00     0.043 C 
HETATM   35  C15 UNL     1       6.969  -0.092  -2.174  1.00  0.00     0.043 C 
ENDBRANCH  29  32
ENDBRANCH  26  28
ENDBRANCH   6  26
BRANCH   5  36
HETATM   36  O3  UNL     1       3.645   3.198   2.051  1.00  0.00    -0.344 OA
ATOM     37  H3  UNL     1       4.286   3.104   1.356  1.00  0.00     0.219 HD
ENDBRANCH   5  36
TORSDOF 11
