REMARK  10 active torsions:
REMARK  status: ('A' for Active; 'I' for Inactive)
REMARK    1  A    between atoms: C2_2  and  C3_3 
REMARK    2  A    between atoms: C3_3  and  N1_4 
REMARK    3  A    between atoms: C5_8  and  N3_9 
REMARK    4  A    between atoms: C9_21  and  C10_22 
REMARK    5  A    between atoms: C10_22  and  N6_23 
REMARK    6  A    between atoms: N6_23  and  C11_26 
REMARK    7  A    between atoms: C11_26  and  C12_27 
REMARK    8  A    between atoms: C12_27  and  S2_28 
REMARK    9  A    between atoms: S2_28  and  S3_29 
REMARK   10  A    between atoms: S3_29  and  C13_30 
ROOT
HETATM    1  N1  UNL     1      -2.232   0.833   0.020  1.00  0.00    -0.348 N 
HETATM    2  C4  UNL     1      -3.094  -0.293  -0.041  1.00  0.00     0.131 A 
HETATM    3  N2  UNL     1      -3.201  -1.056   1.090  1.00  0.00    -0.176 N 
ATOM      4  H2  UNL     1      -2.676  -0.795   1.924  1.00  0.00     0.186 HD
HETATM    5  C5  UNL     1      -3.986  -2.141   1.117  1.00  0.00     0.679 A 
HETATM    6  N4  UNL     1      -4.662  -2.456   0.005  1.00  0.00    -0.177 N 
ATOM      7  H4  UNL     1      -5.258  -3.283   0.029  1.00  0.00     0.186 HD
HETATM    8  C6  UNL     1      -4.609  -1.767  -1.123  1.00  0.00     0.125 A 
HETATM    9  N5  UNL     1      -5.289  -2.130  -2.156  1.00  0.00    -0.384 N 
ATOM     10  H51 UNL     1      -5.248  -1.599  -3.026  1.00  0.00     0.157 HD
ATOM     11  H52 UNL     1      -5.881  -2.960  -2.115  1.00  0.00     0.157 HD
HETATM   12  C7  UNL     1      -3.801  -0.635  -1.179  1.00  0.00     0.040 A 
HETATM   13  C8  UNL     1      -3.785   0.098  -2.455  1.00  0.00     0.122 C 
HETATM   14  S1  UNL     1      -2.620   1.477  -2.490  1.00  0.00    -0.137 SA
HETATM   15  C9  UNL     1      -1.422   1.193  -1.130  1.00  0.00     0.174 C 
ENDROOT
BRANCH  15  16
HETATM   16  C10 UNL     1      -0.514   0.077  -1.554  1.00  0.00     0.268 C 
BRANCH  16  17
HETATM   17  N6  UNL     1       0.406  -0.330  -0.539  1.00  0.00    -0.072 N 
ATOM     18  H62 UNL     1      -0.090  -0.608   0.308  1.00  0.00     0.277 HD
ATOM     19  H61 UNL     1       0.840  -1.221  -0.781  1.00  0.00     0.277 HD
BRANCH  17  20
HETATM   20  C11 UNL     1       1.415   0.669  -0.240  1.00  0.00     0.243 C 
BRANCH  20  21
HETATM   21  C12 UNL     1       2.338   0.140   0.864  1.00  0.00     0.114 C 
BRANCH  21  22
HETATM   22  S2  UNL     1       3.572   1.398   1.198  1.00  0.00    -0.088 SA
BRANCH  22  23
HETATM   23  S3  UNL     1       4.827   1.618  -0.500  1.00  0.00    -0.022 SA
BRANCH  23  24
HETATM   24  C13 UNL     1       6.196   0.500  -0.345  1.00  0.00     0.146 C 
HETATM   25  N7  UNL     1       7.145   0.398  -1.237  1.00  0.00    -0.369 N 
HETATM   26  C14 UNL     1       8.115  -0.578  -0.854  1.00  0.00     0.141 C 
ATOM     27  H7  UNL     1       7.188   0.945  -2.097  1.00  0.00     0.161 HD
HETATM   28  C15 UNL     1       7.579  -1.186   0.394  1.00  0.00     0.141 C 
HETATM   29  N8  UNL     1       6.429  -0.394   0.727  1.00  0.00    -0.369 N 
ATOM     30  H8  UNL     1       5.878  -0.463   1.583  1.00  0.00     0.161 HD
ENDBRANCH  23  24
ENDBRANCH  22  23
ENDBRANCH  21  22
ENDBRANCH  20  21
ENDBRANCH  17  20
ENDBRANCH  16  17
ENDBRANCH  15  16
BRANCH   1  31
HETATM   31  C3  UNL     1      -2.179   1.605   1.240  1.00  0.00     0.152 C 
BRANCH  31  32
HETATM   32  C2  UNL     1      -2.759   2.971   1.044  1.00  0.00    -0.017 C 
HETATM   33  C1  UNL     1      -3.801   3.403   1.737  1.00  0.00     0.008 C 
ENDBRANCH  31  32
ENDBRANCH   1  31
BRANCH   5  34
HETATM   34  N3  UNL     1      -4.061  -2.836   2.200  1.00  0.00    -0.234 N 
ATOM     35  H32 UNL     1      -3.546  -2.596   3.047  1.00  0.00     0.174 HD
ATOM     36  H31 UNL     1      -4.659  -3.662   2.221  1.00  0.00     0.174 HD
ENDBRANCH   5  34
TORSDOF 10
