REMARK  16 active torsions:
REMARK  status: ('A' for Active; 'I' for Inactive)
REMARK    1  A    between atoms: O1_2  and  C2_3 
REMARK    2  A    between atoms: C6_10  and  O3_11 
REMARK    3  A    between atoms: C7_13  and  O4_14 
REMARK    4  A    between atoms: O4_14  and  C8_15 
REMARK    5  A    between atoms: C9_16  and  O5_17 
REMARK    6  A    between atoms: C13_22  and  O6_23 
REMARK    7  A    between atoms: O6_23  and  C14_24 
REMARK    8  A    between atoms: C17_27  and  N2_28 
REMARK    9  A    between atoms: C18_32  and  O7_33 
REMARK   10  A    between atoms: O7_33  and  C19_34 
REMARK   11  A    between atoms: C21_36  and  O8_37 
REMARK   12  A    between atoms: C21_36  and  C22_39 
REMARK   13  A    between atoms: C25_43  and  O10_44 
REMARK   14  A    between atoms: C26_47  and  O12_48 
REMARK   15  A    between atoms: C27_50  and  C28_51 
REMARK   16  A    between atoms: C28_51  and  O13_52 
ROOT
HETATM    1  C8  UNL     1      -2.406  -0.969   1.371  1.00  0.00     0.182 C 
HETATM    2  C9  UNL     1      -2.083  -1.772   2.616  1.00  0.00     0.150 C 
HETATM    3  C10 UNL     1      -0.613  -2.097   2.574  1.00  0.00     0.041 C 
HETATM    4  C11 UNL     1       0.250  -0.867   2.532  1.00  0.00     0.016 C 
HETATM    5  C12 UNL     1       0.223  -0.164   3.843  1.00  0.00     0.012 C 
HETATM    6  C13 UNL     1      -0.191  -0.016   1.357  1.00  0.00     0.159 C 
HETATM    7  C26 UNL     1      -1.663   0.330   1.487  1.00  0.00     0.179 C 
ENDROOT
BRANCH   6   8
HETATM    8  O6  UNL     1       0.617   1.062   1.147  1.00  0.00    -0.353 OA
BRANCH   8   9
HETATM    9  C14 UNL     1       1.271   0.967  -0.077  1.00  0.00     0.263 C 
HETATM   10  C15 UNL     1       0.957   2.101  -0.995  1.00  0.00     0.063 C 
HETATM   11  C16 UNL     1       1.656   1.884  -2.306  1.00  0.00     0.042 C 
HETATM   12  C17 UNL     1       2.714   0.842  -2.225  1.00  0.00     0.238 C 
HETATM   13  C18 UNL     1       3.407   0.702  -0.915  1.00  0.00     0.293 C 
HETATM   14  O11 UNL     1       2.637   0.976   0.190  1.00  0.00    -0.329 OA
BRANCH  12  15
HETATM   15  N2  UNL     1       2.268  -0.456  -2.732  1.00  0.00    -0.070 N 
ATOM     16  H23 UNL     1       1.417  -0.761  -2.259  1.00  0.00     0.274 HD
ATOM     17  H22 UNL     1       1.908  -0.373  -3.683  1.00  0.00     0.274 HD
ATOM     18  H21 UNL     1       2.994  -1.171  -2.676  1.00  0.00     0.274 HD
ENDBRANCH  12  15
BRANCH  13  19
HETATM   19  O7  UNL     1       4.626   1.401  -0.876  1.00  0.00    -0.349 OA
BRANCH  19  20
HETATM   20  C19 UNL     1       5.714   0.569  -0.731  1.00  0.00     0.184 C 
HETATM   21  C20 UNL     1       6.486   0.866   0.551  1.00  0.00     0.105 C 
HETATM   22  C21 UNL     1       7.917   0.786   0.070  1.00  0.00     0.170 C 
HETATM   23  O9  UNL     1       7.846   1.385  -1.182  1.00  0.00    -0.323 OA
HETATM   24  C25 UNL     1       6.756   0.785  -1.783  1.00  0.00     0.289 C 
BRANCH  22  25
HETATM   25  O8  UNL     1       8.282  -0.535  -0.050  1.00  0.00    -0.365 OA
ATOM     26  H8  UNL     1       9.181  -0.585  -0.352  1.00  0.00     0.213 HD
ENDBRANCH  22  25
BRANCH  22  27
HETATM   27  C22 UNL     1       8.857   1.530   0.996  1.00  0.00     0.040 C 
HETATM   28  C23 UNL     1      10.276   1.433   0.495  1.00  0.00     0.015 C 
HETATM   29  C24 UNL     1       8.789   0.900   2.361  1.00  0.00     0.015 C 
ENDBRANCH  22  27
BRANCH  24  30
HETATM   30  O10 UNL     1       7.185  -0.441  -2.321  1.00  0.00    -0.368 OA
ATOM     31  H10 UNL     1       7.847  -0.304  -2.989  1.00  0.00     0.212 HD
ENDBRANCH  24  30
ENDBRANCH  19  20
ENDBRANCH  13  19
ENDBRANCH   8   9
ENDBRANCH   6   8
BRANCH   7  32
HETATM   32  O12 UNL     1      -1.808   0.943   2.731  1.00  0.00    -0.390 OA
ATOM     33  H12 UNL     1      -1.338   1.765   2.804  1.00  0.00     0.210 HD
ENDBRANCH   7  32
BRANCH   1  34
HETATM   34  O4  UNL     1      -3.746  -0.871   1.164  1.00  0.00    -0.368 OA
BRANCH  34  35
HETATM   35  C7  UNL     1      -4.246  -1.432   0.020  1.00  0.00     0.200 C 
HETATM   36  C3  UNL     1      -4.857  -0.311  -0.799  1.00  0.00     0.123 C 
HETATM   37  N1  UNL     1      -5.720   0.543  -0.056  1.00  0.00    -0.368 N 
HETATM   38  C4  UNL     1      -5.430  -0.813  -2.077  1.00  0.00     0.066 C 
HETATM   39  C2  UNL     1      -7.111   0.487  -0.299  1.00  0.00     0.366 C 
ATOM     40  H1  UNL     1      -5.341   1.185   0.640  1.00  0.00     0.158 HD
HETATM   41  O14 UNL     1      -7.478   0.352  -1.603  1.00  0.00    -0.336 OA
HETATM   42  C27 UNL     1      -6.504   0.150  -2.532  1.00  0.00     0.158 C 
HETATM   43  C5  UNL     1      -5.896  -2.217  -1.920  1.00  0.00     0.180 C 
HETATM   44  O2  UNL     1      -6.283  -2.569  -0.653  1.00  0.00    -0.358 OA
HETATM   45  C6  UNL     1      -5.301  -2.469   0.296  1.00  0.00     0.287 C 
BRANCH  39  46
HETATM   46  O1  UNL     1      -7.668   1.726   0.130  1.00  0.00    -0.349 OA
HETATM   47  C1  UNL     1      -8.592   1.580   1.132  1.00  0.00     0.206 C 
ENDBRANCH  39  46
BRANCH  42  48
HETATM   48  C28 UNL     1      -7.107  -0.222  -3.852  1.00  0.00     0.196 C 
BRANCH  48  49
HETATM   49  O13 UNL     1      -7.938   0.857  -4.234  1.00  0.00    -0.398 OA
ATOM     50  H13 UNL     1      -8.320   0.621  -5.071  1.00  0.00     0.209 HD
ENDBRANCH  48  49
ENDBRANCH  42  48
BRANCH  45  51
HETATM   51  O3  UNL     1      -5.934  -2.267   1.541  1.00  0.00    -0.369 OA
ATOM     52  H3  UNL     1      -5.253  -2.198   2.199  1.00  0.00     0.212 HD
ENDBRANCH  45  51
ENDBRANCH  34  35
ENDBRANCH   1  34
BRANCH   2  53
HETATM   53  O5  UNL     1      -2.773  -2.985   2.555  1.00  0.00    -0.393 OA
ATOM     54  H5  UNL     1      -2.571  -3.488   3.335  1.00  0.00     0.210 HD
ENDBRANCH   2  53
TORSDOF 16
