REMARK  16 active torsions:
REMARK  status: ('A' for Active; 'I' for Inactive)
REMARK    1  A    between atoms: C4_5  and  O2_6 
REMARK    2  A    between atoms: O2_6  and  C5_7 
REMARK    3  A    between atoms: C8_11  and  O4_12 
REMARK    4  A    between atoms: C9_14  and  O5_15 
REMARK    5  A    between atoms: O5_15  and  C10_16 
REMARK    6  A    between atoms: C13_20  and  O7_21 
REMARK    7  A    between atoms: C14_23  and  O8_24 
REMARK    8  A    between atoms: O8_24  and  C15_25 
REMARK    9  A    between atoms: C18_29  and  O10_30 
REMARK   10  A    between atoms: C19_32  and  O11_33 
REMARK   11  A    between atoms: C20_35  and  O12_36 
REMARK   12  A    between atoms: C21_38  and  O13_39 
REMARK   13  A    between atoms: O13_39  and  C22_40 
REMARK   14  A    between atoms: C25_44  and  O15_45 
REMARK   15  A    between atoms: C26_47  and  O16_48 
REMARK   16  A    between atoms: C27_50  and  O17_51 
ROOT
HETATM    1  C10 UNL     1       0.196  -0.394  -0.106  1.00  0.00     0.292 C 
HETATM    2  O6  UNL     1       0.500  -0.186   1.262  1.00  0.00    -0.351 OA
HETATM    3  C11 UNL     1      -0.233  -1.152   1.938  1.00  0.00     0.152 C 
HETATM    4  C12 UNL     1      -0.393  -0.676   3.374  1.00  0.00     0.042 C 
HETATM    5  C13 UNL     1      -1.601  -1.234   1.344  1.00  0.00     0.178 C 
HETATM    6  C14 UNL     1      -2.081   0.060   0.716  1.00  0.00     0.189 C 
HETATM    7  C21 UNL     1      -1.047   0.438  -0.342  1.00  0.00     0.211 C 
ENDROOT
BRANCH   1   8
HETATM    8  O5  UNL     1       1.298  -0.007  -0.820  1.00  0.00    -0.346 OA
BRANCH   8   9
HETATM    9  C9  UNL     1       1.837  -1.045  -1.525  1.00  0.00     0.211 C 
HETATM   10  C5  UNL     1       3.299  -1.273  -1.289  1.00  0.00     0.295 C 
HETATM   11  O3  UNL     1       3.586  -2.258  -2.237  1.00  0.00    -0.351 OA
HETATM   12  C6  UNL     1       2.930  -1.899  -3.400  1.00  0.00     0.152 C 
HETATM   13  C7  UNL     1       2.177  -3.107  -3.912  1.00  0.00     0.042 C 
HETATM   14  C8  UNL     1       1.882  -0.841  -3.031  1.00  0.00     0.180 C 
BRANCH  10  15
HETATM   15  O2  UNL     1       3.663  -1.591  -0.017  1.00  0.00    -0.326 OA
BRANCH  15  16
HETATM   16  C4  UNL     1       4.643  -0.758   0.514  1.00  0.00     0.294 C 
HETATM   17  O1  UNL     1       5.744  -1.568   0.790  1.00  0.00    -0.358 OA
HETATM   18  C3  UNL     1       5.573  -2.098   2.070  1.00  0.00     0.178 C 
HETATM   19  C2  UNL     1       5.953  -1.102   3.144  1.00  0.00     0.037 C 
HETATM   20  C1  UNL     1       7.423  -1.082   3.434  1.00  0.00     0.015 C 
HETATM   21  C27 UNL     1       5.472   0.260   2.641  1.00  0.00     0.157 C 
HETATM   22  C26 UNL     1       4.241  -0.065   1.781  1.00  0.00     0.202 C 
BRANCH  21  23
HETATM   23  O17 UNL     1       6.468   0.823   1.844  1.00  0.00    -0.392 OA
ATOM     24  H17 UNL     1       6.169   1.669   1.532  1.00  0.00     0.210 HD
ENDBRANCH  21  23
BRANCH  22  25
HETATM   25  O16 UNL     1       3.622   1.132   1.424  1.00  0.00    -0.388 OA
ATOM     26  H16 UNL     1       3.367   1.571   2.227  1.00  0.00     0.210 HD
ENDBRANCH  22  25
ENDBRANCH  15  16
ENDBRANCH  10  15
BRANCH  14  27
HETATM   27  O4  UNL     1       2.403   0.419  -3.317  1.00  0.00    -0.390 OA
ATOM     28  H4  UNL     1       1.754   1.074  -3.089  1.00  0.00     0.210 HD
ENDBRANCH  14  27
ENDBRANCH   8   9
ENDBRANCH   1   8
BRANCH   7  29
HETATM   29  O13 UNL     1      -0.638   1.755  -0.196  1.00  0.00    -0.345 OA
BRANCH  29  30
HETATM   30  C22 UNL     1      -0.845   2.593  -1.233  1.00  0.00     0.298 C 
HETATM   31  O14 UNL     1      -1.744   3.656  -0.956  1.00  0.00    -0.330 OA
HETATM   32  C23 UNL     1      -1.571   4.539  -2.040  1.00  0.00     0.137 C 
HETATM   33  C24 UNL     1      -0.363   4.392  -2.544  1.00  0.00     0.033 C 
HETATM   34  C25 UNL     1       0.329   3.342  -1.754  1.00  0.00     0.198 C 
BRANCH  34  35
HETATM   35  O15 UNL     1       1.038   4.016  -0.764  1.00  0.00    -0.387 OA
ATOM     36  H15 UNL     1       1.788   4.495  -1.097  1.00  0.00     0.210 HD
ENDBRANCH  34  35
ENDBRANCH  29  30
ENDBRANCH   7  29
BRANCH   6  37
HETATM   37  O8  UNL     1      -3.330  -0.202   0.195  1.00  0.00    -0.348 OA
BRANCH  37  38
HETATM   38  C15 UNL     1      -4.349   0.590   0.675  1.00  0.00     0.292 C 
HETATM   39  O9  UNL     1      -5.262  -0.038   1.463  1.00  0.00    -0.351 OA
HETATM   40  C16 UNL     1      -6.321  -0.661   0.875  1.00  0.00     0.152 C 
HETATM   41  C17 UNL     1      -5.814  -1.798   0.016  1.00  0.00     0.042 C 
HETATM   42  C18 UNL     1      -7.075   0.292  -0.018  1.00  0.00     0.178 C 
HETATM   43  C19 UNL     1      -6.138   0.893  -1.009  1.00  0.00     0.183 C 
HETATM   44  C20 UNL     1      -4.986   1.533  -0.269  1.00  0.00     0.204 C 
BRANCH  42  45
HETATM   45  O10 UNL     1      -8.148  -0.338  -0.644  1.00  0.00    -0.390 OA
ATOM     46  H10 UNL     1      -8.623   0.262  -1.207  1.00  0.00     0.210 HD
ENDBRANCH  42  45
BRANCH  43  47
HETATM   47  O11 UNL     1      -6.864   1.963  -1.613  1.00  0.00    -0.390 OA
ATOM     48  H11 UNL     1      -6.267   2.346  -2.245  1.00  0.00     0.210 HD
ENDBRANCH  43  47
BRANCH  44  49
HETATM   49  O12 UNL     1      -5.567   2.612   0.445  1.00  0.00    -0.388 OA
ATOM     50  H12 UNL     1      -5.976   3.218  -0.162  1.00  0.00     0.210 HD
ENDBRANCH  44  49
ENDBRANCH  37  38
ENDBRANCH   6  37
BRANCH   5  51
HETATM   51  O7  UNL     1      -2.450  -1.654   2.372  1.00  0.00    -0.390 OA
ATOM     52  H7  UNL     1      -3.320  -1.706   1.994  1.00  0.00     0.210 HD
ENDBRANCH   5  51
TORSDOF 16
