REMARK  17 active torsions:
REMARK  status: ('A' for Active; 'I' for Inactive)
REMARK    1  A    between atoms: O1_2  and  C2_3 
REMARK    2  A    between atoms: C3_4  and  O2_5 
REMARK    3  A    between atoms: O2_5  and  C4_6 
REMARK    4  A    between atoms: C5_7  and  O3_8 
REMARK    5  A    between atoms: O3_8  and  C6_9 
REMARK    6  A    between atoms: C13_17  and  O5_18 
REMARK    7  A    between atoms: O5_18  and  C14_19 
REMARK    8  A    between atoms: C15_20  and  O6_21 
REMARK    9  A    between atoms: C17_24  and  O7_25 
REMARK   10  A    between atoms: O7_25  and  C18_26 
REMARK   11  A    between atoms: C20_29  and  O9_30 
REMARK   12  A    between atoms: C21_32  and  O10_33 
REMARK   13  A    between atoms: C22_35  and  O11_36 
REMARK   14  A    between atoms: C23_38  and  O12_39 
REMARK   15  A    between atoms: C24_41  and  O13_42 
REMARK   16  A    between atoms: C27_47  and  O15_48 
REMARK   17  A    between atoms: C28_50  and  O16_51 
ROOT
HETATM    1  C4  UNL     1      -2.016   0.729  -0.324  1.00  0.00     0.235 C 
HETATM    2  C5  UNL     1      -2.612   1.693  -1.337  1.00  0.00     0.303 C 
HETATM    3  O4  UNL     1      -1.304   1.810  -1.893  1.00  0.00    -0.326 OA
HETATM    4  C13 UNL     1      -0.700   1.372  -0.700  1.00  0.00     0.297 C 
ENDROOT
BRANCH   4   5
HETATM    5  O5  UNL     1       0.238   0.406  -0.977  1.00  0.00    -0.348 OA
BRANCH   5   6
HETATM    6  C14 UNL     1       1.425   0.528  -0.329  1.00  0.00     0.184 C 
HETATM    7  C15 UNL     1       2.501   0.691  -1.372  1.00  0.00     0.152 C 
HETATM    8  C16 UNL     1       3.193  -0.581  -1.709  1.00  0.00     0.069 C 
HETATM    9  C17 UNL     1       3.950  -1.070  -0.506  1.00  0.00     0.158 C 
HETATM   10  C23 UNL     1       3.281  -0.721   0.744  1.00  0.00     0.178 C 
HETATM   11  C24 UNL     1       1.790  -0.631   0.557  1.00  0.00     0.180 C 
BRANCH   7  12
HETATM   12  O6  UNL     1       3.369   1.686  -0.924  1.00  0.00    -0.393 OA
ATOM     13  H6  UNL     1       4.047   1.789  -1.581  1.00  0.00     0.210 HD
ENDBRANCH   7  12
BRANCH   9  14
HETATM   14  O7  UNL     1       5.254  -0.676  -0.661  1.00  0.00    -0.351 OA
BRANCH  14  15
HETATM   15  C18 UNL     1       6.199  -1.629  -0.843  1.00  0.00     0.291 C 
HETATM   16  O8  UNL     1       6.857  -1.316  -2.054  1.00  0.00    -0.356 OA
HETATM   17  C19 UNL     1       7.664  -2.371  -2.464  1.00  0.00     0.205 C 
HETATM   18  C20 UNL     1       8.318  -3.080  -1.318  1.00  0.00     0.173 C 
HETATM   19  C21 UNL     1       8.539  -2.145  -0.168  1.00  0.00     0.182 C 
HETATM   20  C22 UNL     1       7.261  -1.484   0.227  1.00  0.00     0.204 C 
BRANCH  18  21
HETATM   21  O9  UNL     1       9.541  -3.597  -1.802  1.00  0.00    -0.391 OA
ATOM     22  H9  UNL     1       9.956  -4.047  -1.075  1.00  0.00     0.210 HD
ENDBRANCH  18  21
BRANCH  19  23
HETATM   23  O10 UNL     1       9.532  -1.229  -0.561  1.00  0.00    -0.390 OA
ATOM     24  H10 UNL     1       9.672  -0.636   0.168  1.00  0.00     0.210 HD
ENDBRANCH  19  23
BRANCH  20  25
HETATM   25  O11 UNL     1       6.812  -1.879   1.486  1.00  0.00    -0.388 OA
ATOM     26  H11 UNL     1       7.478  -1.788   2.157  1.00  0.00     0.210 HD
ENDBRANCH  20  25
ENDBRANCH  14  15
ENDBRANCH   9  14
BRANCH  10  27
HETATM   27  O12 UNL     1       3.440  -1.666   1.771  1.00  0.00    -0.390 OA
ATOM     28  H12 UNL     1       3.005  -1.439   2.584  1.00  0.00     0.210 HD
ENDBRANCH  10  27
BRANCH  11  29
HETATM   29  O13 UNL     1       1.353  -1.824  -0.004  1.00  0.00    -0.390 OA
ATOM     30  H13 UNL     1       1.584  -2.556   0.556  1.00  0.00     0.210 HD
ENDBRANCH  11  29
ENDBRANCH   5   6
ENDBRANCH   4   5
BRANCH   1  31
HETATM   31  O2  UNL     1      -2.413   0.871   0.979  1.00  0.00    -0.343 OA
BRANCH  31  32
HETATM   32  C3  UNL     1      -2.944  -0.296   1.452  1.00  0.00     0.292 C 
HETATM   33  C2  UNL     1      -4.396  -0.190   1.886  1.00  0.00     0.207 C 
HETATM   34  C28 UNL     1      -4.900  -1.615   1.915  1.00  0.00     0.183 C 
HETATM   35  C27 UNL     1      -4.095  -2.391   2.910  1.00  0.00     0.178 C 
HETATM   36  C25 UNL     1      -2.627  -2.156   2.800  1.00  0.00     0.152 C 
HETATM   37  O14 UNL     1      -2.244  -0.881   2.478  1.00  0.00    -0.351 OA
HETATM   38  C26 UNL     1      -2.011  -3.098   1.785  1.00  0.00     0.042 C 
BRANCH  33  39
HETATM   39  O1  UNL     1      -5.148   0.675   1.152  1.00  0.00    -0.383 OA
HETATM   40  C1  UNL     1      -5.738   1.692   1.890  1.00  0.00     0.202 C 
ENDBRANCH  33  39
BRANCH  34  41
HETATM   41  O16 UNL     1      -4.699  -2.175   0.642  1.00  0.00    -0.390 OA
ATOM     42  H16 UNL     1      -5.016  -3.070   0.660  1.00  0.00     0.210 HD
ENDBRANCH  34  41
BRANCH  35  43
HETATM   43  O15 UNL     1      -4.585  -2.094   4.189  1.00  0.00    -0.390 OA
ATOM     44  H15 UNL     1      -5.520  -2.244   4.259  1.00  0.00     0.210 HD
ENDBRANCH  35  43
ENDBRANCH  31  32
ENDBRANCH   1  31
BRANCH   2  45
HETATM   45  O3  UNL     1      -3.002   2.918  -0.858  1.00  0.00    -0.318 OA
BRANCH  45  46
HETATM   46  C6  UNL     1      -4.164   3.551  -1.159  1.00  0.00     0.072 A 
HETATM   47  C7  UNL     1      -5.097   3.012  -1.997  1.00  0.00     0.037 A 
HETATM   48  C8  UNL     1      -6.293   3.681  -2.296  1.00  0.00     0.009 A 
HETATM   49  C9  UNL     1      -6.530   4.915  -1.728  1.00  0.00    -0.062 A 
HETATM   50  C10 UNL     1      -7.790   5.657  -2.019  1.00  0.00     0.048 C 
HETATM   51  C11 UNL     1      -5.610   5.483  -0.881  1.00  0.00     0.009 A 
HETATM   52  C12 UNL     1      -4.458   4.805  -0.612  1.00  0.00     0.037 A 
ENDBRANCH  45  46
ENDBRANCH   2  45
TORSDOF 17
