REMARK  16 active torsions:
REMARK  status: ('A' for Active; 'I' for Inactive)
REMARK    1  A    between atoms: O1_1  and  C1_3 
REMARK    2  A    between atoms: C1_3  and  C2_4 
REMARK    3  A    between atoms: C3_6  and  O3_7 
REMARK    4  A    between atoms: O3_7  and  C4_8 
REMARK    5  A    between atoms: C5_10  and  O5_11 
REMARK    6  A    between atoms: O5_11  and  C6_12 
REMARK    7  A    between atoms: C10_17  and  O7_18 
REMARK    8  A    between atoms: C15_26  and  C16_27 
REMARK    9  A    between atoms: C15_26  and  O11_30 
REMARK   10  A    between atoms: C16_27  and  O10_28 
REMARK   11  A    between atoms: O11_30  and  C17_31 
REMARK   12  A    between atoms: C18_33  and  C19_34 
REMARK   13  A    between atoms: C19_34  and  O13_35 
REMARK   14  A    between atoms: C20_37  and  O14_38 
REMARK   15  A    between atoms: C22_41  and  O15_42 
REMARK   16  A    between atoms: C27_49  and  O17_50 
ROOT
HETATM    1  C4  UNL     1      -1.834  -0.139  -0.139  1.00  0.00     0.321 C 
HETATM    2  O4  UNL     1      -1.967   1.034  -0.803  1.00  0.00    -0.323 OA
HETATM    3  C5  UNL     1      -1.780   2.213  -0.179  1.00  0.00     0.302 C 
HETATM    4  C10 UNL     1      -0.352   2.433   0.347  1.00  0.00     0.150 C 
HETATM    5  C11 UNL     1      -0.190   1.853   1.716  1.00  0.00     0.216 C 
HETATM    6  O8  UNL     1      -1.307   0.995   1.891  1.00  0.00    -0.353 OA
HETATM    7  C12 UNL     1      -1.129  -0.171   1.149  1.00  0.00     0.315 C 
HETATM    8  O9  UNL     1       0.208  -0.435   1.140  1.00  0.00    -0.348 OA
HETATM    9  C13 UNL     1       0.740  -1.136   0.114  1.00  0.00     0.160 C 
HETATM   10  C14 UNL     1       2.188  -1.531   0.460  1.00  0.00     0.078 C 
HETATM   11  C15 UNL     1       2.575  -1.089  -0.902  1.00  0.00     0.116 C 
HETATM   12  C23 UNL     1       1.333  -0.216  -0.909  1.00  0.00     0.187 C 
HETATM   13  O16 UNL     1       1.514   1.024  -0.305  1.00  0.00    -0.377 OA
HETATM   14  C24 UNL     1       0.598   1.961  -0.687  1.00  0.00     0.213 C 
ENDROOT
BRANCH  11  15
HETATM   15  C16 UNL     1       2.453  -2.229  -1.918  1.00  0.00     0.205 C 
BRANCH  15  16
HETATM   16  O10 UNL     1       2.406  -1.636  -3.176  1.00  0.00    -0.398 OA
ATOM     17  H10 UNL     1       2.330  -2.343  -3.806  1.00  0.00     0.209 HD
ENDBRANCH  15  16
ENDBRANCH  11  15
BRANCH  11  18
HETATM   18  O11 UNL     1       3.685  -0.306  -1.054  1.00  0.00    -0.343 OA
BRANCH  18  19
HETATM   19  C17 UNL     1       4.865  -0.865  -0.620  1.00  0.00     0.290 C 
HETATM   20  O12 UNL     1       5.338  -0.023   0.413  1.00  0.00    -0.349 OA
HETATM   21  C18 UNL     1       6.274  -0.741   1.134  1.00  0.00     0.177 C 
HETATM   22  C20 UNL     1       7.515  -0.855   0.267  1.00  0.00     0.151 C 
HETATM   23  C21 UNL     1       7.191  -1.459  -1.069  1.00  0.00     0.071 C 
HETATM   24  C22 UNL     1       5.939  -0.870  -1.682  1.00  0.00     0.175 C 
BRANCH  21  25
HETATM   25  C19 UNL     1       6.644   0.042   2.378  1.00  0.00     0.198 C 
BRANCH  25  26
HETATM   26  O13 UNL     1       5.473   0.215   3.117  1.00  0.00    -0.398 OA
ATOM     27  H13 UNL     1       5.705   0.706   3.897  1.00  0.00     0.209 HD
ENDBRANCH  25  26
ENDBRANCH  21  25
BRANCH  22  28
HETATM   28  O14 UNL     1       8.456  -1.611   0.924  1.00  0.00    -0.393 OA
ATOM     29  H14 UNL     1       9.233  -1.682   0.381  1.00  0.00     0.210 HD
ENDBRANCH  22  28
BRANCH  24  30
HETATM   30  O15 UNL     1       6.139   0.451  -2.096  1.00  0.00    -0.391 OA
ATOM     31  H15 UNL     1       6.815   0.448  -2.764  1.00  0.00     0.210 HD
ENDBRANCH  24  30
ENDBRANCH  18  19
ENDBRANCH  11  18
BRANCH   4  32
HETATM   32  O7  UNL     1      -0.214   3.833   0.486  1.00  0.00    -0.380 OA
ATOM     33  H7  UNL     1       0.668   3.969   0.811  1.00  0.00     0.211 HD
ENDBRANCH   4  32
BRANCH   1  34
HETATM   34  O3  UNL     1      -3.098  -0.692   0.014  1.00  0.00    -0.326 OA
BRANCH  34  35
HETATM   35  C3  UNL     1      -3.338  -1.855  -0.692  1.00  0.00     0.264 C 
HETATM   36  O2  UNL     1      -4.268  -1.737  -1.678  1.00  0.00    -0.351 OA
HETATM   37  C2  UNL     1      -5.536  -1.937  -1.288  1.00  0.00     0.176 C 
HETATM   38  C27 UNL     1      -5.820  -3.344  -0.808  1.00  0.00     0.149 C 
HETATM   39  C26 UNL     1      -4.552  -4.016  -0.341  1.00  0.00     0.039 C 
HETATM   40  C25 UNL     1      -3.516  -3.063   0.126  1.00  0.00     0.063 C 
BRANCH  37  41
HETATM   41  C1  UNL     1      -5.956  -0.921  -0.254  1.00  0.00     0.198 C 
BRANCH  41  42
HETATM   42  O1  UNL     1      -5.851   0.366  -0.740  1.00  0.00    -0.398 OA
ATOM     43  H1  UNL     1      -6.115   1.006  -0.089  1.00  0.00     0.209 HD
ENDBRANCH  41  42
ENDBRANCH  37  41
BRANCH  38  44
HETATM   44  O17 UNL     1      -6.412  -4.030  -1.857  1.00  0.00    -0.393 OA
ATOM     45  H17 UNL     1      -6.590  -4.913  -1.556  1.00  0.00     0.210 HD
ENDBRANCH  38  44
ENDBRANCH  34  35
ENDBRANCH   1  34
BRANCH   3  46
HETATM   46  O5  UNL     1      -2.714   2.563   0.790  1.00  0.00    -0.350 OA
BRANCH  46  47
HETATM   47  C6  UNL     1      -3.412   3.723   0.493  1.00  0.00     0.150 C 
HETATM   48  C7  UNL     1      -3.102   4.760   1.563  1.00  0.00     0.060 C 
HETATM   49  C8  UNL     1      -4.442   5.320   1.956  1.00  0.00     0.170 C 
HETATM   50  O6  UNL     1      -5.382   4.817   1.093  1.00  0.00    -0.389 OA
HETATM   51  C9  UNL     1      -4.895   3.613   0.597  1.00  0.00     0.199 C 
ENDBRANCH  46  47
ENDBRANCH   3  46
TORSDOF 16
