REMARK  6 active torsions:
REMARK  status: ('A' for Active; 'I' for Inactive)
REMARK       I    between atoms: N1_2  and  C2_4 
REMARK    1  A    between atoms: C2_4  and  C3_6 
REMARK    2  A    between atoms: C6_9  and  C7_10 
REMARK    3  A    between atoms: C9_14  and  N3_15 
REMARK    4  A    between atoms: C10_20  and  O2_21 
REMARK    5  A    between atoms: O2_21  and  C11_22 
REMARK    6  A    between atoms: C11_22  and  C12_23 
ROOT
HETATM    1  C7  UNL     1       0.135   2.399   0.884  1.00  0.00     0.043 A 
HETATM    2  C8  UNL     1       0.457   3.558   1.602  1.00  0.00     0.122 A 
HETATM    3  N2  UNL     1      -0.412   4.507   1.912  1.00  0.00    -0.201 N 
ATOM      4  H2  UNL     1      -0.121   5.331   2.437  1.00  0.00     0.183 HD
HETATM    5  C9  UNL     1      -1.678   4.358   1.520  1.00  0.00     0.677 A 
HETATM    6  N4  UNL     1      -2.033   3.275   0.836  1.00  0.00    -0.170 N 
ATOM      7  H4  UNL     1      -3.008   3.189   0.550  1.00  0.00     0.186 HD
HETATM    8  C10 UNL     1      -1.174   2.271   0.493  1.00  0.00     0.174 A 
ENDROOT
BRANCH   1   9
HETATM    9  C6  UNL     1       1.120   1.401   0.574  1.00  0.00    -0.005 A 
HETATM   10  C5  UNL     1       1.943   0.925   1.564  1.00  0.00     0.016 A 
HETATM   11  C4  UNL     1       2.919  -0.037   1.304  1.00  0.00     0.036 A 
HETATM   12  C3  UNL     1       3.031  -0.499   0.004  1.00  0.00     0.100 A 
HETATM   13  N5  UNL     1       2.216  -0.016  -0.939  1.00  0.00    -0.361 N 
HETATM   14  C18 UNL     1       1.257   0.925  -0.699  1.00  0.00     0.101 A 
ATOM     15  H5  UNL     1       2.316  -0.370  -1.890  1.00  0.00     0.165 HD
BRANCH  12  16
HETATM   16  C2  UNL     1       4.041  -1.506  -0.308  1.00  0.00     0.267 C 
HETATM   17  N1  UNL     1       4.194  -2.014  -1.623  1.00  0.00    -0.360 N 
HETATM   18  C1  UNL     1       5.203  -3.020  -1.930  1.00  0.00     0.149 C 
ATOM     19  H1  UNL     1       3.587  -1.669  -2.367  1.00  0.00     0.162 HD
HETATM   20  O1  UNL     1       4.798  -1.943   0.599  1.00  0.00    -0.266 OA
ENDBRANCH  12  16
ENDBRANCH   1   9
BRANCH   8  21
HETATM   21  O2  UNL     1      -1.664   1.167  -0.235  1.00  0.00    -0.303 OA
BRANCH  21  22
HETATM   22  C11 UNL     1      -2.228   0.142   0.515  1.00  0.00     0.159 C 
BRANCH  22  23
HETATM   23  C12 UNL     1      -2.768  -0.995  -0.204  1.00  0.00     0.030 A 
HETATM   24  C13 UNL     1      -3.309  -2.035   0.550  1.00  0.00     0.047 A 
HETATM   25 CL1  UNL     1      -3.329  -1.985   2.309  1.00  0.00    -0.083 Cl
HETATM   26  C14 UNL     1      -3.852  -3.148  -0.057  1.00  0.00     0.025 A 
HETATM   27  C15 UNL     1      -3.872  -3.258  -1.432  1.00  0.00     0.003 A 
HETATM   28  C16 UNL     1      -3.342  -2.240  -2.196  1.00  0.00     0.025 A 
HETATM   29  C17 UNL     1      -2.793  -1.113  -1.566  1.00  0.00     0.047 A 
HETATM   30 CL2  UNL     1      -2.130   0.204  -2.504  1.00  0.00    -0.083 Cl
ENDBRANCH  22  23
ENDBRANCH  21  22
ENDBRANCH   8  21
BRANCH   5  31
HETATM   31  N3  UNL     1      -2.576   5.233   1.782  1.00  0.00    -0.234 N 
ATOM     32  H32 UNL     1      -2.304   6.064   2.307  1.00  0.00     0.174 HD
ATOM     33  H31 UNL     1      -3.544   5.119   1.482  1.00  0.00     0.174 HD
ENDBRANCH   5  31
TORSDOF 6
