REMARK  11 active torsions:
REMARK  status: ('A' for Active; 'I' for Inactive)
REMARK    1  A    between atoms: C3_3  and  C4_4 
REMARK    2  A    between atoms: C7_7  and  C8_8 
REMARK    3  A    between atoms: C8_8  and  O1_9 
REMARK    4  A    between atoms: C8_8  and  C9_11 
REMARK    5  A    between atoms: C8_8  and  C18_26 
REMARK    6  A    between atoms: C9_11  and  O2_12 
REMARK    7  A    between atoms: C9_11  and  C14_20 
REMARK    8  A    between atoms: O2_12  and  C10_13 
REMARK       I    between atoms: C10_13  and  N1_15 
REMARK    9  A    between atoms: N1_15  and  C11_17 
REMARK   10  A    between atoms: C14_20  and  O4_22 
REMARK   11  A    between atoms: C14_20  and  C16_24 
ROOT
HETATM    1  C1  UNL     1       8.267   1.904   1.815  1.00  0.00     0.112 C 
HETATM    2  C2  UNL     1       6.840   1.754   1.466  1.00  0.00    -0.105 C 
HETATM    3  C3  UNL     1       5.686   1.614   1.164  1.00  0.00    -0.067 C 
ENDROOT
BRANCH   3   4
HETATM    4  C4  UNL     1       4.303   1.412   0.781  1.00  0.00     0.017 A 
HETATM    5  C5  UNL     1       4.007   0.449  -0.194  1.00  0.00     0.021 A 
HETATM    6  C6  UNL     1       2.710   0.218  -0.579  1.00  0.00     0.012 A 
HETATM    7  C7  UNL     1       1.621   0.892  -0.059  1.00  0.00    -0.012 A 
HETATM    8  C19 UNL     1       1.949   1.844   0.910  1.00  0.00     0.012 A 
HETATM    9  C20 UNL     1       3.257   2.095   1.315  1.00  0.00     0.021 A 
BRANCH   7  10
HETATM   10  C8  UNL     1       0.257   0.659  -0.520  1.00  0.00     0.212 C 
BRANCH  10  11
HETATM   11  O1  UNL     1      -0.473   1.786   0.047  1.00  0.00    -0.374 OA
ATOM     12  H1  UNL     1      -1.361   1.634  -0.253  1.00  0.00     0.211 HD
ENDBRANCH  10  11
BRANCH  10  13
HETATM   13  C9  UNL     1      -0.552  -0.437  -0.010  1.00  0.00     0.215 C 
BRANCH  13  14
HETATM   14  O2  UNL     1      -1.883  -0.177  -0.556  1.00  0.00    -0.292 OA
BRANCH  14  15
HETATM   15  C10 UNL     1      -3.011  -0.016   0.234  1.00  0.00     0.361 C 
HETATM   16  O3  UNL     1      -2.858  -0.125   1.467  1.00  0.00    -0.238 OA
HETATM   17  N1  UNL     1      -4.269   0.260  -0.378  1.00  0.00    -0.333 N 
ATOM     18  H1  UNL     1      -4.275   0.335  -1.395  1.00  0.00     0.165 HD
BRANCH  17  19
HETATM   19  C11 UNL     1      -5.521   0.443   0.284  1.00  0.00     0.078 C 
HETATM   20  C12 UNL     1      -5.293   1.623   1.277  1.00  0.00     0.032 C 
HETATM   21  C13 UNL     1      -6.581   0.932  -0.673  1.00  0.00     0.032 C 
ENDBRANCH  17  19
ENDBRANCH  14  15
ENDBRANCH  13  14
BRANCH  13  22
HETATM   22  C14 UNL     1      -0.337  -1.874  -0.273  1.00  0.00     0.084 C 
HETATM   23  C15 UNL     1      -0.363  -2.397  -1.640  1.00  0.00     0.049 C 
BRANCH  22  24
HETATM   24  O4  UNL     1      -1.577  -2.420   0.311  1.00  0.00    -0.387 OA
ATOM     25  H4  UNL     1      -1.439  -3.345   0.142  1.00  0.00     0.210 HD
ENDBRANCH  22  24
BRANCH  22  26
HETATM   26  C16 UNL     1       0.663  -2.549   0.630  1.00  0.00     0.035 C 
HETATM   27  C17 UNL     1       0.813  -4.024   0.278  1.00  0.00     0.008 C 
ENDBRANCH  22  26
ENDBRANCH  13  22
ENDBRANCH  10  13
BRANCH  10  28
HETATM   28  C18 UNL     1       0.083   1.046  -1.979  1.00  0.00     0.425 C 
HETATM   29  F1  UNL     1      -1.169   0.868  -2.434  1.00  0.00    -0.167 F 
HETATM   30  F2  UNL     1       0.359   2.425  -2.087  1.00  0.00    -0.167 F 
HETATM   31  F3  UNL     1       0.981   0.489  -2.849  1.00  0.00    -0.167 F 
ENDBRANCH  10  28
ENDBRANCH   7  10
ENDBRANCH   3   4
TORSDOF 11
