REMARK  9 active torsions:
REMARK  status: ('A' for Active; 'I' for Inactive)
REMARK    1  A    between atoms: O1_2  and  C2_3 
REMARK    2  A    between atoms: C2_3  and  O2_4 
REMARK    3  A    between atoms: C2_3  and  C3_6 
REMARK    4  A    between atoms: C4_7  and  N1_8 
REMARK       I    between atoms: N1_8  and  C5_10 
REMARK    5  A    between atoms: C5_10  and  C6_12 
REMARK    6  A    between atoms: C6_12  and  C7_14 
REMARK    7  A    between atoms: C7_14  and  O5_15 
REMARK    8  A    between atoms: C7_14  and  C8_17 
REMARK    9  A    between atoms: C13_22  and  C14_23 
ROOT
HETATM    1  C3  UNL     1      -2.065  -0.289   0.367  1.00  0.00     0.045 A 
HETATM    2  C4  UNL     1      -0.922  -0.586  -0.373  1.00  0.00     0.048 A 
HETATM    3  C11 UNL     1      -1.076  -0.723  -1.732  1.00  0.00     0.031 A 
HETATM    4  C12 UNL     1      -2.315  -0.571  -2.333  1.00  0.00     0.014 A 
HETATM    5  C13 UNL     1      -3.431  -0.283  -1.617  1.00  0.00     0.002 A 
HETATM    6  C16 UNL     1      -3.312  -0.141  -0.268  1.00  0.00     0.056 A 
HETATM    7 CL3  UNL     1      -4.729   0.230   0.686  1.00  0.00    -0.083 Cl
ENDROOT
BRANCH   2   8
HETATM    8  N1  UNL     1       0.302  -0.751   0.258  1.00  0.00    -0.320 N 
HETATM    9  C5  UNL     1       1.582  -1.017  -0.256  1.00  0.00     0.294 C 
HETATM   10  O3  UNL     1       1.758  -1.146  -1.480  1.00  0.00    -0.264 OA
ATOM     11  H1  UNL     1       0.267  -0.664   1.274  1.00  0.00     0.169 HD
BRANCH   9  12
HETATM   12  C6  UNL     1       2.753  -1.153   0.630  1.00  0.00     0.245 C 
HETATM   13  O4  UNL     1       2.527  -1.057   1.862  1.00  0.00    -0.284 OA
BRANCH  12  14
HETATM   14  C7  UNL     1       4.106  -1.387   0.156  1.00  0.00     0.201 C 
BRANCH  14  15
HETATM   15  O5  UNL     1       4.890  -1.800   1.293  1.00  0.00    -0.387 OA
ATOM     16  H5  UNL     1       5.775  -1.953   0.983  1.00  0.00     0.210 HD
ENDBRANCH  14  15
BRANCH  14  17
HETATM   17  C8  UNL     1       4.852  -0.202  -0.363  1.00  0.00     0.014 C 
HETATM   18  C9  UNL     1       5.011   0.905   0.664  1.00  0.00     0.012 C 
HETATM   19  C10 UNL     1       4.460   0.351  -1.674  1.00  0.00     0.012 C 
ENDBRANCH  14  17
ENDBRANCH  12  14
ENDBRANCH   9  12
ENDBRANCH   2   8
BRANCH   1  20
HETATM   20  C2  UNL     1      -2.054  -0.096   1.823  1.00  0.00     0.294 C 
BRANCH  20  21
HETATM   21  O1  UNL     1      -2.852   1.040   2.101  1.00  0.00    -0.362 OA
HETATM   22  C1  UNL     1      -2.197   1.914   2.961  1.00  0.00     0.205 C 
ENDBRANCH  20  21
BRANCH  20  23
HETATM   23  O2  UNL     1      -2.765  -1.169   2.414  1.00  0.00    -0.367 OA
ATOM     24  H2  UNL     1      -2.230  -1.931   2.227  1.00  0.00     0.213 HD
ENDBRANCH  20  23
ENDBRANCH   1  20
BRANCH   5  25
HETATM   25  C14 UNL     1      -4.773  -0.115  -2.249  1.00  0.00     0.138 C 
HETATM   26  C15 UNL     1      -5.266   1.277  -1.959  1.00  0.00     0.056 C 
HETATM   27 CL1  UNL     1      -4.669  -0.321  -4.000  1.00  0.00    -0.097 Cl
HETATM   28 CL2  UNL     1      -5.879  -1.318  -1.540  1.00  0.00    -0.097 Cl
ENDBRANCH   5  25
TORSDOF 9
