REMARK  9 active torsions:
REMARK  status: ('A' for Active; 'I' for Inactive)
REMARK    1  A    between atoms: C2_2  and  O1_3 
REMARK    2  A    between atoms: O1_3  and  C3_4 
REMARK    3  A    between atoms: C4_5  and  C5_6 
REMARK    4  A    between atoms: C6_10  and  N1_11 
REMARK    5  A    between atoms: N1_11  and  C7_13 
REMARK    6  A    between atoms: C10_18  and  N3_19 
REMARK    7  A    between atoms: C13_23  and  C14_24 
REMARK    8  A    between atoms: C15_25  and  N4_26 
REMARK    9  A    between atoms: N8_37  and  O2_38 
ROOT
HETATM    1  C7  UNL     1      -1.376  -0.077  -2.128  1.00  0.00     0.684 A 
HETATM    2  N2  UNL     1      -2.213   0.905  -2.513  1.00  0.00    -0.202 N 
ATOM      3  H2  UNL     1      -3.205   0.843  -2.286  1.00  0.00     0.183 HD
HETATM    4  C8  UNL     1      -1.749   1.966  -3.195  1.00  0.00     0.110 A 
HETATM    5  C9  UNL     1      -0.405   2.016  -3.484  1.00  0.00     0.067 A 
HETATM    6  C10 UNL     1       0.473   1.017  -3.098  1.00  0.00     0.123 A 
HETATM    7  N7  UNL     1      -0.050  -0.015  -2.420  1.00  0.00    -0.176 N 
ATOM      8  H7  UNL     1       0.562  -0.772  -2.116  1.00  0.00     0.186 HD
ENDROOT
BRANCH   1   9
HETATM    9  N1  UNL     1      -1.814  -1.101  -1.468  1.00  0.00    -0.191 N 
ATOM     10  H1  UNL     1      -1.176  -1.842  -1.179  1.00  0.00     0.184 HD
BRANCH   9  11
HETATM   11  C6  UNL     1      -3.188  -1.176  -1.154  1.00  0.00     0.070 A 
HETATM   12  C4  UNL     1      -3.578  -1.264   0.156  1.00  0.00     0.128 A 
HETATM   13  C3  UNL     1      -4.913  -1.340   0.547  1.00  0.00     0.186 A 
HETATM   14  N8  UNL     1      -5.873  -1.327  -0.392  1.00  0.00    -0.212 N 
HETATM   15  C19 UNL     1      -5.511  -1.240  -1.697  1.00  0.00     0.128 A 
HETATM   16  C18 UNL     1      -4.187  -1.165  -2.099  1.00  0.00     0.051 A 
BRANCH  12  17
HETATM   17  C5  UNL     1      -2.553  -1.285   1.224  1.00  0.00     0.423 C 
HETATM   18  F1  UNL     1      -1.271  -1.209   0.770  1.00  0.00    -0.166 F 
HETATM   19  F2  UNL     1      -2.818  -0.352   2.213  1.00  0.00    -0.166 F 
HETATM   20  F3  UNL     1      -2.677  -2.531   1.850  1.00  0.00    -0.166 F 
ENDBRANCH  12  17
BRANCH  13  21
HETATM   21  O1  UNL     1      -5.213  -1.425   1.882  1.00  0.00    -0.334 OA
BRANCH  21  22
HETATM   22  C2  UNL     1      -6.476  -1.505   2.447  1.00  0.00     0.173 C 
HETATM   23  C1  UNL     1      -6.428  -1.587   3.964  1.00  0.00     0.034 C 
ENDBRANCH  21  22
ENDBRANCH  13  21
BRANCH  14  24
HETATM   24  O2  UNL     1      -7.219  -1.398  -0.105  1.00  0.00    -0.281 OA
ATOM     25  H2  UNL     1      -7.898  -1.389  -0.769  1.00  0.00     0.245 HD
ENDBRANCH  14  24
ENDBRANCH   9  11
ENDBRANCH   1   9
BRANCH   6  26
HETATM   26  N3  UNL     1       1.848   1.115  -3.420  1.00  0.00    -0.327 N 
HETATM   27  C11 UNL     1       2.790   1.062  -2.538  1.00  0.00     0.123 A 
HETATM   28  C12 UNL     1       2.592   0.907  -1.189  1.00  0.00     0.080 A 
HETATM   29  N6  UNL     1       4.109   1.136  -2.692  1.00  0.00    -0.285 N 
HETATM   30  C13 UNL     1       3.843   0.891  -0.545  1.00  0.00     0.053 A 
HETATM   31  N5  UNL     1       4.734   1.034  -1.505  1.00  0.00    -0.299 N 
ATOM     32  H5  UNL     1       5.744   1.063  -1.369  1.00  0.00     0.187 HD
ATOM     33  H6  UNL     1       4.582   1.254  -3.588  1.00  0.00     0.188 HD
ATOM     34  H3  UNL     1       2.108   1.234  -4.399  1.00  0.00     0.169 HD
BRANCH  30  35
HETATM   35  C14 UNL     1       4.049   0.746   0.878  1.00  0.00     0.048 C 
HETATM   36  C15 UNL     1       5.142   0.714   1.532  1.00  0.00     0.086 C 
BRANCH  36  37
HETATM   37  N4  UNL     1       6.460   0.805   1.118  1.00  0.00    -0.398 N 
HETATM   38  C16 UNL     1       7.218  -0.408   0.774  1.00  0.00     0.148 C 
HETATM   39  C17 UNL     1       7.203   2.072   1.035  1.00  0.00     0.148 C 
ENDBRANCH  36  37
ENDBRANCH  30  35
ENDBRANCH   6  26
TORSDOF 9
