REMARK  3 active torsions:
REMARK  status: ('A' for Active; 'I' for Inactive)
REMARK    1  A    between atoms: O1_2  and  C2_3 
REMARK    2  A    between atoms: C8_11  and  O2_12 
REMARK    3  A    between atoms: C9_14  and  C10_15 
ROOT
HETATM    1  C2  UNL     1       4.743   0.606   0.083  1.00  0.00     0.070 A 
HETATM    2  C3  UNL     1       5.337  -0.615  -0.246  1.00  0.00     0.038 A 
HETATM    3  C4  UNL     1       4.527  -1.665  -0.631  1.00  0.00     0.016 A 
HETATM    4  C5  UNL     1       3.154  -1.553  -0.703  1.00  0.00    -0.007 A 
HETATM    5  C6  UNL     1       2.339  -2.603  -1.089  1.00  0.00     0.045 A 
HETATM    6  C7  UNL     1       0.967  -2.418  -1.139  1.00  0.00     0.063 A 
HETATM    7  N1  UNL     1      -0.037  -3.230  -1.466  1.00  0.00    -0.334 N 
ATOM      8  H1  UNL     1       0.070  -4.202  -1.756  1.00  0.00     0.168 HD
HETATM    9  C8  UNL     1      -1.215  -2.584  -1.359  1.00  0.00     0.155 A 
HETATM   10  C9  UNL     1      -0.976  -1.271  -0.938  1.00  0.00     0.071 A 
HETATM   11  C18 UNL     1       0.393  -1.198  -0.809  1.00  0.00     0.076 A 
HETATM   12  N4  UNL     1       1.212  -0.214  -0.443  1.00  0.00    -0.353 N 
ATOM     13  H4  UNL     1       0.805   0.688  -0.197  1.00  0.00     0.166 HD
HETATM   14  C19 UNL     1       2.561  -0.350  -0.380  1.00  0.00     0.045 A 
HETATM   15  C20 UNL     1       3.374   0.719   0.011  1.00  0.00     0.067 A 
ENDROOT
BRANCH  10  16
HETATM   16  C10 UNL     1      -1.978  -0.235  -0.697  1.00  0.00     0.064 A 
HETATM   17  C11 UNL     1      -2.747   0.119   0.322  1.00  0.00     0.043 A 
HETATM   18  C12 UNL     1      -3.101  -0.158   1.626  1.00  0.00     0.061 A 
HETATM   19  C17 UNL     1      -3.316   1.160  -0.400  1.00  0.00     0.053 A 
HETATM   20  N2  UNL     1      -2.501  -1.239   2.354  1.00  0.00    -0.101 NA
HETATM   21  C13 UNL     1      -4.060   0.649   2.203  1.00  0.00     0.028 A 
HETATM   22  C14 UNL     1      -4.631   1.690   1.486  1.00  0.00     0.011 A 
HETATM   23  C15 UNL     1      -4.273   1.962   0.183  1.00  0.00    -0.034 A 
HETATM   24  C16 UNL     1      -4.867   3.067  -0.605  1.00  0.00     0.050 C 
HETATM   25  N3  UNL     1      -2.581   0.838  -1.407  1.00  0.00    -0.353 N 
ATOM     26  H3  UNL     1      -2.473   1.210  -2.351  1.00  0.00     0.166 HD
ENDBRANCH  10  16
BRANCH   9  27
HETATM   27  O2  UNL     1      -2.496  -3.072  -1.608  1.00  0.00    -0.345 OA
ATOM     28  H2  UNL     1      -3.326  -2.617  -1.533  1.00  0.00     0.219 HD
ENDBRANCH   9  27
BRANCH   1  29
HETATM   29  O1  UNL     1       5.586   1.637   0.464  1.00  0.00    -0.356 OA
HETATM   30  C1  UNL     1       5.052   2.877   0.804  1.00  0.00     0.210 C 
ENDBRANCH   1  29
TORSDOF 3
