REMARK  2 active torsions:
REMARK  status: ('A' for Active; 'I' for Inactive)
REMARK    1  A    between atoms: N1_1  and  S1_4 
REMARK    2  A    between atoms: S1_4  and  C1_7 
ROOT
HETATM    1  C1  UNL     1      -0.472  -1.570  -0.384  1.00  0.00     0.092 A 
HETATM    2  C2  UNL     1       0.479  -2.627  -0.575  1.00  0.00     0.028 A 
HETATM    3  C3  UNL     1       1.830  -2.437  -0.607  1.00  0.00     0.029 A 
HETATM    4  C4  UNL     1       2.349  -1.195  -0.454  1.00  0.00     0.112 A 
HETATM    5  C5  UNL     1       1.513  -0.146  -0.274  1.00  0.00     0.111 A 
HETATM    6  C6  UNL     1       0.106  -0.332  -0.245  1.00  0.00     0.032 A 
HETATM    7  C7  UNL     1      -0.727   0.856  -0.052  1.00  0.00     0.006 A 
HETATM    8  C8  UNL     1      -2.076   0.760  -0.096  1.00  0.00     0.014 A 
HETATM    9  C9  UNL     1      -2.839   1.923   0.044  1.00  0.00     0.001 A 
HETATM   10  C10 UNL     1      -2.248   3.141   0.218  1.00  0.00     0.002 A 
HETATM   11  C11 UNL     1      -0.879   3.214   0.252  1.00  0.00     0.032 A 
HETATM   12  C12 UNL     1      -0.088   2.083   0.118  1.00  0.00     0.061 A 
HETATM   13  N2  UNL     1       1.322   2.208   0.091  1.00  0.00    -0.278 N 
ATOM     14  H2  UNL     1       1.760   3.120   0.218  1.00  0.00     0.189 HD
HETATM   15  N3  UNL     1       2.106   1.074  -0.111  1.00  0.00    -0.184 N 
HETATM   16  N4  UNL     1       3.514   1.103  -0.158  1.00  0.00    -0.201 N 
ATOM     17  H4  UNL     1       4.125   1.913  -0.055  1.00  0.00     0.202 HD
HETATM   18  S2  UNL     1       3.971  -0.526  -0.426  1.00  0.00     0.280 S 
HETATM   19  O3  UNL     1       4.769  -1.044   0.725  1.00  0.00    -0.199 OA
HETATM   20  O4  UNL     1       4.666  -0.720  -1.738  1.00  0.00    -0.199 OA
ENDROOT
BRANCH   1  21
HETATM   21  S1  UNL     1      -2.093  -1.955  -0.130  1.00  0.00     0.257 S 
HETATM   22  O1  UNL     1      -2.015  -3.524   0.072  1.00  0.00    -0.201 OA
HETATM   23  O2  UNL     1      -3.074  -2.110  -1.243  1.00  0.00    -0.201 OA
BRANCH  21  24
HETATM   24  N1  UNL     1      -2.775  -1.755   1.470  1.00  0.00    -0.324 N 
ATOM     25  H12 UNL     1      -3.019  -2.400   2.221  1.00  0.00     0.169 HD
ATOM     26  H11 UNL     1      -2.825  -0.745   1.340  1.00  0.00     0.169 HD
ENDBRANCH  21  24
ENDBRANCH   1  21
TORSDOF 2
