REMARK  10 active torsions:
REMARK  status: ('A' for Active; 'I' for Inactive)
REMARK    1  A    between atoms: O1_2  and  C2_3 
REMARK    2  A    between atoms: C5_8  and  N2_9 
REMARK    3  A    between atoms: N2_9  and  C6_11 
REMARK    4  A    between atoms: C6_11  and  C7_12 
REMARK    5  A    between atoms: C6_11  and  C18_25 
REMARK    6  A    between atoms: C7_12  and  C8_13 
REMARK    7  A    between atoms: C18_25  and  O4_26 
REMARK    8  A    between atoms: N3_28  and  O5_30 
REMARK    9  A    between atoms: C19_32  and  N4_33 
REMARK   10  A    between atoms: N4_33  and  O6_35 
ROOT
HETATM    1  C6  UNL     1       0.697   0.060  -1.054  1.00  0.00     0.161 C 
ENDROOT
BRANCH   1   2
HETATM    2  N2  UNL     1       2.043   0.599  -1.153  1.00  0.00    -0.376 N 
ATOM      3  H2  UNL     1       2.179   1.321  -1.860  1.00  0.00     0.160 HD
BRANCH   2   4
HETATM    4  C5  UNL     1       3.176   0.259  -0.407  1.00  0.00     0.063 A 
HETATM    5  C4  UNL     1       3.240  -0.749   0.507  1.00  0.00     0.049 A 
HETATM    6  C3  UNL     1       4.391  -1.087   1.233  1.00  0.00     0.092 A 
HETATM    7  N1  UNL     1       5.505  -0.373   1.016  1.00  0.00    -0.345 N 
HETATM    8  C2  UNL     1       5.503   0.633   0.126  1.00  0.00     0.173 A 
ATOM      9  H1  UNL     1       6.358  -0.595   1.529  1.00  0.00     0.167 HD
HETATM   10  C19 UNL     1       4.377   0.967  -0.587  1.00  0.00     0.131 A 
BRANCH   8  11
HETATM   11  O1  UNL     1       6.656   1.354  -0.083  1.00  0.00    -0.339 OA
HETATM   12  C1  UNL     1       7.864   1.107   0.585  1.00  0.00     0.211 C 
ENDBRANCH   8  11
BRANCH  10  13
HETATM   13  N4  UNL     1       4.368   2.030  -1.528  1.00  0.00    -0.263 N 
ATOM     14  H4  UNL     1       4.637   1.871  -2.499  1.00  0.00     0.194 HD
BRANCH  13  15
HETATM   15  O6  UNL     1       4.024   3.161  -1.139  1.00  0.00    -0.289 OA
ATOM     16  H6  UNL     1       4.018   3.872  -1.769  1.00  0.00     0.244 HD
ENDBRANCH  13  15
ENDBRANCH  10  13
ENDBRANCH   2   4
ENDBRANCH   1   2
BRANCH   1  17
HETATM   17  C7  UNL     1       0.112   0.436   0.225  1.00  0.00     0.066 C 
BRANCH  17  18
HETATM   18  C8  UNL     1      -1.235   0.043   0.639  1.00  0.00     0.134 C 
HETATM   19  O2  UNL     1      -1.508  -1.279   0.757  1.00  0.00    -0.350 OA
HETATM   20  C9  UNL     1      -2.702  -1.599   1.318  1.00  0.00     0.157 C 
HETATM   21  C10 UNL     1      -3.215  -2.905   0.694  1.00  0.00     0.078 C 
HETATM   22  C11 UNL     1      -2.426  -1.962   2.789  1.00  0.00     0.078 C 
HETATM   23  O3  UNL     1      -3.695  -0.704   1.293  1.00  0.00    -0.350 OA
HETATM   24  C12 UNL     1      -3.604   0.435   0.579  1.00  0.00     0.131 C 
HETATM   25  C13 UNL     1      -4.780   0.664  -0.364  1.00  0.00     0.032 C 
HETATM   26  C17 UNL     1      -2.347   0.648  -0.208  1.00  0.00     0.044 C 
HETATM   27  C14 UNL     1      -4.514   1.909  -1.141  1.00  0.00     0.002 C 
HETATM   28  C15 UNL     1      -3.495   2.820  -0.504  1.00  0.00     0.001 C 
HETATM   29  C16 UNL     1      -2.147   2.152  -0.358  1.00  0.00     0.010 C 
ENDBRANCH  17  18
ENDBRANCH   1  17
BRANCH   1  30
HETATM   30  C18 UNL     1       0.615  -1.292  -1.594  1.00  0.00     0.158 C 
HETATM   31  N3  UNL     1       1.694  -1.891  -2.076  1.00  0.00    -0.249 N 
ATOM     32  H3  UNL     1       2.599  -1.421  -2.079  1.00  0.00     0.196 HD
BRANCH  30  33
HETATM   33  O4  UNL     1      -0.559  -2.014  -1.641  1.00  0.00    -0.347 OA
ATOM     34  H4  UNL     1      -0.612  -2.895  -1.993  1.00  0.00     0.219 HD
ENDBRANCH  30  33
BRANCH  31  35
HETATM   35  O5  UNL     1       1.558  -3.155  -2.568  1.00  0.00    -0.288 OA
ATOM     36  H5  UNL     1       2.332  -3.585  -2.914  1.00  0.00     0.244 HD
ENDBRANCH  31  35
ENDBRANCH   1  30
TORSDOF 10
