REMARK  9 active torsions:
REMARK  status: ('A' for Active; 'I' for Inactive)
REMARK    1  A    between atoms: C2_2  and  C3_3 
REMARK    2  A    between atoms: C3_3  and  N1_4 
REMARK    3  A    between atoms: C4_5  and  O1_6 
REMARK    4  A    between atoms: C5_8  and  N2_9 
REMARK    5  A    between atoms: N3_11  and  C6_13 
REMARK    6  A    between atoms: C11_18  and  O2_19 
REMARK    7  A    between atoms: C14_24  and  S1_25 
REMARK    8  A    between atoms: S1_25  and  C15_26 
REMARK    9  A    between atoms: C15_26  and  C17_28 
ROOT
HETATM    1  N1  UNL     1       0.445   2.082  -0.458  1.00  0.00    -0.308 N 
HETATM    2  C4  UNL     1       1.661   1.538  -0.317  1.00  0.00     0.174 A 
HETATM    3  C5  UNL     1       1.508   0.168  -0.525  1.00  0.00     0.115 A 
HETATM    4  C10 UNL     1       0.179  -0.110  -0.795  1.00  0.00     0.075 A 
HETATM    5  C11 UNL     1      -0.542  -1.251  -1.071  1.00  0.00     0.105 A 
HETATM    6  C12 UNL     1      -1.929  -1.191  -1.303  1.00  0.00     0.112 A 
HETATM    7  C13 UNL     1      -2.675  -2.374  -1.596  1.00  0.00     0.105 C 
HETATM    8  N4  UNL     1      -3.251  -3.333  -1.836  1.00  0.00    -0.191 NA
HETATM    9  C14 UNL     1      -2.518   0.040  -1.242  1.00  0.00     0.096 A 
HETATM   10  N5  UNL     1      -1.792   1.164  -0.969  1.00  0.00    -0.335 N 
ATOM     11  H5  UNL     1      -2.266   2.066  -0.933  1.00  0.00     0.168 HD
HETATM   12  C18 UNL     1      -0.468   1.110  -0.747  1.00  0.00     0.126 A 
ENDROOT
BRANCH   5  13
HETATM   13  O2  UNL     1       0.027  -2.482  -1.135  1.00  0.00    -0.358 OA
ATOM     14  H2  UNL     1      -0.470  -3.269  -1.325  1.00  0.00     0.217 HD
ENDBRANCH   5  13
BRANCH   9  15
HETATM   15  S1  UNL     1      -4.290   0.160  -1.516  1.00  0.00    -0.095 SA
BRANCH  15  16
HETATM   16  C15 UNL     1      -5.198  -0.009   0.035  1.00  0.00     0.150 C 
HETATM   17  C16 UNL     1      -4.302   0.034   1.247  1.00  0.00     0.033 C 
BRANCH  16  18
HETATM   18  C17 UNL     1      -6.143  -1.123   0.067  1.00  0.00     0.187 C 
HETATM   19  O3  UNL     1      -6.299  -1.806  -0.995  1.00  0.00    -0.647 OA
HETATM   20  O4  UNL     1      -6.882  -1.493   1.166  1.00  0.00    -0.647 OA
ENDBRANCH  16  18
ENDBRANCH  15  16
ENDBRANCH   9  15
BRANCH   3  21
HETATM   21  N2  UNL     1       2.543  -0.765  -0.461  1.00  0.00    -0.300 N 
HETATM   22  N3  UNL     1       3.636  -0.764  -1.071  1.00  0.00    -0.331 N 
ATOM     23  H3  UNL     1       3.890  -0.022  -1.723  1.00  0.00     0.180 HD
ATOM     24  H2  UNL     1       2.388  -1.554   0.167  1.00  0.00     0.186 HD
BRANCH  22  25
HETATM   25  C6  UNL     1       4.529  -1.893  -0.792  1.00  0.00     0.099 C 
HETATM   26  C7  UNL     1       5.962  -1.503  -0.596  1.00  0.00     0.027 C 
HETATM   27  C8  UNL     1       5.952  -2.270   0.724  1.00  0.00     0.004 C 
HETATM   28  C9  UNL     1       4.460  -2.174   0.716  1.00  0.00     0.027 C 
ENDBRANCH  22  25
ENDBRANCH   3  21
BRANCH   2  29
HETATM   29  O1  UNL     1       2.829   2.224  -0.021  1.00  0.00    -0.344 OA
ATOM     30  H1  UNL     1       3.691   1.838   0.079  1.00  0.00     0.219 HD
ENDBRANCH   2  29
BRANCH   1  31
HETATM   31  C3  UNL     1       0.098   3.471  -0.333  1.00  0.00     0.159 C 
BRANCH  31  32
HETATM   32  C2  UNL     1      -0.278   3.865   1.028  1.00  0.00    -0.017 C 
HETATM   33  C1  UNL     1      -1.482   4.363   1.256  1.00  0.00     0.008 C 
ENDBRANCH  31  32
ENDBRANCH   1  31
TORSDOF 9
