REMARK  10 active torsions:
REMARK  status: ('A' for Active; 'I' for Inactive)
REMARK    1  A    between atoms: N2_3  and  C2_5 
REMARK    2  A    between atoms: C7_13  and  C8_14 
REMARK    3  A    between atoms: C8_14  and  N4_15 
REMARK    4  A    between atoms: N4_15  and  O1_16 
REMARK       I    between atoms: N4_15  and  C9_20 
REMARK    5  A    between atoms: O1_16  and  N5_17 
REMARK    6  A    between atoms: C10_23  and  O3_24 
REMARK    7  A    between atoms: C10_23  and  C13_29 
REMARK    8  A    between atoms: O3_24  and  C11_25 
REMARK    9  A    between atoms: C11_25  and  C12_26 
REMARK   10  A    between atoms: C12_26  and  O4_27 
ROOT
HETATM    1  N1  UNL     1      -1.426  -0.591   3.909  1.00  0.00    -0.171 NA
HETATM    2  C1  UNL     1      -1.824  -0.102   2.941  1.00  0.00     0.196 C 
HETATM    3  N2  UNL     1      -2.305   0.497   1.783  1.00  0.00    -0.126 N 
ATOM      4  H2  UNL     1      -2.504   1.497   1.761  1.00  0.00     0.197 HD
ENDROOT
BRANCH   3   5
HETATM    5  C2  UNL     1      -2.515  -0.307   0.631  1.00  0.00     0.689 C 
HETATM    6  N3  UNL     1      -3.768  -0.559   0.331  1.00  0.00    -0.225 N 
HETATM    7  C3  UNL     1      -4.286  -1.335  -0.765  1.00  0.00     0.138 C 
ATOM      8  H3  UNL     1      -4.465  -0.152   0.955  1.00  0.00     0.177 HD
HETATM    9  C4  UNL     1      -3.530  -2.635  -0.920  1.00  0.00     0.023 C 
HETATM   10  C5  UNL     1      -2.201  -2.421  -1.633  1.00  0.00     0.039 C 
HETATM   11  C6  UNL     1      -1.192  -2.025  -0.605  1.00  0.00     0.169 C 
HETATM   12  S1  UNL     1       0.508  -2.113  -1.107  1.00  0.00    -0.127 SA
HETATM   13  N7  UNL     1      -1.319  -0.730  -0.033  1.00  0.00    -0.159 N 
HETATM   14  C7  UNL     1       1.016  -0.706   0.078  1.00  0.00     0.158 C 
HETATM   15  C10 UNL     1      -0.112   0.147  -0.191  1.00  0.00     0.260 C 
BRANCH  14  16
HETATM   16  C8  UNL     1       2.403  -0.694  -0.219  1.00  0.00     0.124 C 
BRANCH  16  17
HETATM   17  N4  UNL     1       3.422   0.107   0.281  1.00  0.00    -0.162 N 
HETATM   18  C9  UNL     1       3.872   1.285  -0.319  1.00  0.00     0.360 C 
HETATM   19  N6  UNL     1       3.331   1.730  -1.544  1.00  0.00    -0.037 NA
HETATM   20  O2  UNL     1       4.769   1.969   0.221  1.00  0.00    -0.248 OA
BRANCH  17  21
HETATM   21  O1  UNL     1       4.039  -0.274   1.456  1.00  0.00    -0.154 OA
BRANCH  21  22
HETATM   22  N5  UNL     1       4.534  -1.507   1.210  1.00  0.00    -0.285 N 
ATOM     23  H52 UNL     1       4.460  -2.031   0.338  1.00  0.00     0.186 HD
ATOM     24  H51 UNL     1       4.990  -1.788   2.078  1.00  0.00     0.186 HD
ENDBRANCH  21  22
ENDBRANCH  17  21
ENDBRANCH  16  17
ENDBRANCH  14  16
BRANCH  15  25
HETATM   25  O3  UNL     1      -0.385   1.233   0.587  1.00  0.00    -0.348 OA
BRANCH  25  26
HETATM   26  C11 UNL     1       0.416   2.260   0.749  1.00  0.00     0.197 C 
BRANCH  26  27
HETATM   27  C12 UNL     1      -0.054   3.422   1.627  1.00  0.00     0.190 C 
BRANCH  27  28
HETATM   28  O4  UNL     1      -1.199   4.009   1.169  1.00  0.00    -0.399 OA
ATOM     29  H4  UNL     1      -1.491   4.730   1.714  1.00  0.00     0.209 HD
ENDBRANCH  27  28
ENDBRANCH  26  27
ENDBRANCH  25  26
ENDBRANCH  15  25
BRANCH  15  30
HETATM   30  C13 UNL     1      -0.247   0.577  -1.618  1.00  0.00     0.234 C 
HETATM   31  O5  UNL     1      -0.635   1.751  -1.829  1.00  0.00    -0.644 OA
HETATM   32  O6  UNL     1       0.009  -0.174  -2.725  1.00  0.00    -0.644 OA
ENDBRANCH  15  30
ENDBRANCH   3   5
TORSDOF 10
