REMARK  8 active torsions:
REMARK  status: ('A' for Active; 'I' for Inactive)
REMARK    1  A    between atoms: S1_2  and  C2_3 
REMARK    2  A    between atoms: C2_3  and  C3_4 
REMARK       I    between atoms: C3_4  and  N1_6 
REMARK    3  A    between atoms: N1_6  and  N2_8 
REMARK       I    between atoms: N2_8  and  C4_10 
REMARK    4  A    between atoms: C4_10  and  C5_12 
REMARK    5  A    between atoms: C7_19  and  N5_20 
REMARK    6  A    between atoms: N5_20  and  N6_22 
REMARK    7  A    between atoms: C10_27  and  C11_28 
REMARK    8  A    between atoms: C11_28  and  C12_29 
ROOT
HETATM    1  C5  UNL     1      -1.883   1.173  -1.356  1.00  0.00     0.394 C 
HETATM    2  N3  UNL     1      -1.751   0.851  -2.749  1.00  0.00    -0.029 N 
ATOM      3  H31 UNL     1      -1.060   1.445  -3.208  1.00  0.00     0.282 HD
ATOM      4  H32 UNL     1      -2.575   1.132  -3.280  1.00  0.00     0.282 HD
HETATM    5  C6  UNL     1      -1.454  -0.548  -2.931  1.00  0.00     0.374 C 
HETATM    6  N4  UNL     1      -0.256  -0.889  -2.200  1.00  0.00    -0.201 N 
ATOM      7  H4  UNL     1       0.360  -1.594  -2.605  1.00  0.00     0.179 HD
HETATM    8  C7  UNL     1       0.091  -0.372  -1.080  1.00  0.00     0.693 C 
HETATM    9  N11 UNL     1      -0.820   0.606  -0.541  1.00  0.00    -0.187 N 
ATOM     10  H11 UNL     1      -0.718   0.906   0.429  1.00  0.00     0.180 HD
ENDROOT
BRANCH   8  11
HETATM   11  N5  UNL     1       1.271  -0.743  -0.410  1.00  0.00    -0.112 N 
ATOM     12  H5  UNL     1       1.203  -0.992   0.577  1.00  0.00     0.207 HD
BRANCH  11  13
HETATM   13  N6  UNL     1       2.511  -0.791  -1.003  1.00  0.00    -0.191 N 
HETATM   14  C8  UNL     1       2.801  -0.486  -2.270  1.00  0.00     0.154 A 
HETATM   15  C9  UNL     1       4.092  -0.584  -2.799  1.00  0.00     0.110 A 
HETATM   16  N7  UNL     1       5.051  -1.007  -1.961  1.00  0.00    -0.353 N 
HETATM   17  C10 UNL     1       4.792  -1.324  -0.675  1.00  0.00     0.103 A 
ATOM     18  H7  UNL     1       6.007  -1.092  -2.307  1.00  0.00     0.166 HD
HETATM   19  N10 UNL     1       3.530  -1.204  -0.241  1.00  0.00    -0.267 N 
ATOM     20  H10 UNL     1       3.334  -1.442   0.731  1.00  0.00     0.190 HD
BRANCH  17  21
HETATM   21  C11 UNL     1       5.869  -1.797   0.231  1.00  0.00     0.136 C 
BRANCH  21  22
HETATM   22  C12 UNL     1       6.613  -0.708   0.870  1.00  0.00     0.032 A 
HETATM   23  C13 UNL     1       6.311  -0.084   2.056  1.00  0.00     0.114 A 
HETATM   24  N8  UNL     1       7.224   0.868   2.319  1.00  0.00    -0.360 N 
HETATM   25  C14 UNL     1       8.106   0.853   1.307  1.00  0.00     0.180 A 
ATOM     26  H8  UNL     1       7.243   1.484   3.132  1.00  0.00     0.166 HD
HETATM   27  N9  UNL     1       7.724  -0.120   0.418  1.00  0.00    -0.354 N 
ATOM     28  H9  UNL     1       8.210  -0.356  -0.447  1.00  0.00     0.166 HD
ENDBRANCH  21  22
ENDBRANCH  17  21
ENDBRANCH  11  13
ENDBRANCH   8  11
BRANCH   1  29
HETATM   29  C4  UNL     1      -3.239   0.795  -0.886  1.00  0.00     0.287 C 
HETATM   30  N2  UNL     1      -3.634   0.991   0.471  1.00  0.00    -0.264 N 
ATOM     31  H2  UNL     1      -2.995   1.401   1.153  1.00  0.00     0.190 HD
HETATM   32  O2  UNL     1      -4.044   0.292  -1.711  1.00  0.00    -0.267 OA
BRANCH  30  33
HETATM   33  N1  UNL     1      -4.924   0.603   0.833  1.00  0.00    -0.267 N 
HETATM   34  C3  UNL     1      -5.134  -0.476   1.737  1.00  0.00     0.245 C 
HETATM   35  O1  UNL     1      -4.089  -1.060   2.196  1.00  0.00    -0.271 OA
ATOM     36  H1  UNL     1      -5.727   1.099   0.445  1.00  0.00     0.190 HD
BRANCH  34  37
HETATM   37  C2  UNL     1      -6.452  -0.957   2.169  1.00  0.00     0.177 C 
BRANCH  37  38
HETATM   38  S1  UNL     1      -7.775   0.020   1.437  1.00  0.00    -0.164 SA
HETATM   39  C1  UNL     1      -7.761   1.709   2.065  1.00  0.00     0.090 C 
ENDBRANCH  37  38
ENDBRANCH  34  37
ENDBRANCH  30  33
ENDBRANCH   1  29
TORSDOF 8
