REMARK  8 active torsions:
REMARK  status: ('A' for Active; 'I' for Inactive)
REMARK    1  A    between atoms: C4_11  and  C5_12 
REMARK    2  A    between atoms: C4_11  and  C7_16 
REMARK    3  A    between atoms: C5_12  and  C6_13 
REMARK    4  A    between atoms: C9_18  and  N6_19 
REMARK    5  A    between atoms: N6_19  and  C10_21 
REMARK    6  A    between atoms: C10_21  and  C11_22 
REMARK    7  A    between atoms: C11_22  and  N7_23 
REMARK    8  A    between atoms: C16_31  and  N9_32 
ROOT
HETATM    1  C7  UNL     1      -1.838   0.404   0.683  1.00  0.00     0.079 A 
HETATM    2  C8  UNL     1      -0.859  -0.465   0.261  1.00  0.00     0.079 A 
HETATM    3  C9  UNL     1       0.462  -0.101   0.420  1.00  0.00     0.118 A 
HETATM    4  N8  UNL     1       0.786   1.058   0.966  1.00  0.00    -0.177 N 
ATOM      5  H8  UNL     1       1.768   1.312   1.076  1.00  0.00     0.185 HD
HETATM    6  C16 UNL     1      -0.176   1.902   1.377  1.00  0.00     0.677 A 
HETATM    7  N10 UNL     1      -1.477   1.553   1.225  1.00  0.00    -0.191 N 
ATOM      8  H10 UNL     1      -2.201   2.199   1.540  1.00  0.00     0.184 HD
ENDROOT
BRANCH   1   9
HETATM    9  C4  UNL     1      -3.294   0.014   0.511  1.00  0.00     0.164 A 
HETATM   10  N1  UNL     1      -3.517  -0.367  -0.863  1.00  0.00    -0.327 N 
HETATM   11  C1  UNL     1      -3.477   0.601  -1.947  1.00  0.00     0.155 C 
HETATM   12  C2  UNL     1      -3.793  -1.724  -1.240  1.00  0.00     0.194 A 
HETATM   13  N2  UNL     1      -3.981  -2.084  -2.601  1.00  0.00    -0.063 NA
HETATM   14  N3  UNL     1      -3.876  -2.643  -0.349  1.00  0.00    -0.305 N 
HETATM   15  C3  UNL     1      -3.692  -2.333   1.019  1.00  0.00     0.192 A 
ATOM     16  H3  UNL     1      -4.076  -3.603  -0.629  1.00  0.00     0.171 HD
HETATM   17  N4  UNL     1      -3.790  -3.343   2.015  1.00  0.00    -0.063 NA
HETATM   18  N5  UNL     1      -3.437  -1.142   1.360  1.00  0.00    -0.332 N 
ATOM     19  H5  UNL     1      -3.318  -0.979   2.360  1.00  0.00     0.165 HD
BRANCH   9  20
HETATM   20  C5  UNL     1      -4.183   1.097   0.991  1.00  0.00     0.174 C 
BRANCH  20  21
HETATM   21  C6  UNL     1      -5.623   0.833   0.941  1.00  0.00     0.177 C 
HETATM   22  O1  UNL     1      -6.130  -0.220   0.515  1.00  0.00    -0.648 OA
HETATM   23  O2  UNL     1      -6.561   1.793   1.390  1.00  0.00    -0.648 OA
ENDBRANCH  20  21
ENDBRANCH   9  20
ENDBRANCH   1   9
BRANCH   3  24
HETATM   24  N6  UNL     1       1.357  -0.933   0.014  1.00  0.00    -0.374 N 
ATOM     25  H6  UNL     1       1.035  -1.808  -0.399  1.00  0.00     0.161 HD
BRANCH  24  26
HETATM   26  C10 UNL     1       2.777  -0.720   0.100  1.00  0.00     0.140 C 
BRANCH  26  27
HETATM   27  C11 UNL     1       3.243   0.080  -1.093  1.00  0.00     0.136 C 
BRANCH  27  28
HETATM   28  N7  UNL     1       4.631   0.358  -1.109  1.00  0.00    -0.407 N 
HETATM   29  C12 UNL     1       5.522  -0.728  -1.298  1.00  0.00     0.143 C 
HETATM   30  C13 UNL     1       6.277  -1.126  -0.053  1.00  0.00     0.187 C 
HETATM   31  O3  UNL     1       6.838  -0.046   0.601  1.00  0.00    -0.388 OA
HETATM   32  C14 UNL     1       6.550   1.173   0.037  1.00  0.00     0.187 C 
HETATM   33  C15 UNL     1       5.066   1.379  -0.220  1.00  0.00     0.143 C 
ENDBRANCH  27  28
ENDBRANCH  26  27
ENDBRANCH  24  26
ENDBRANCH   3  24
BRANCH   6  34
HETATM   34  N9  UNL     1       0.098   3.045   1.914  1.00  0.00    -0.234 N 
ATOM     35  H92 UNL     1       1.077   3.308   2.028  1.00  0.00     0.174 HD
ATOM     36  H91 UNL     1      -0.632   3.685   2.226  1.00  0.00     0.174 HD
ENDBRANCH   6  34
TORSDOF 8
