REMARK  11 active torsions:
REMARK  status: ('A' for Active; 'I' for Inactive)
REMARK    1  A    between atoms: O1_2  and  C2_3 
REMARK    2  A    between atoms: C3_4  and  N1_5 
REMARK    3  A    between atoms: N1_5  and  C4_7 
REMARK    4  A    between atoms: C6_10  and  N2_11 
REMARK    5  A    between atoms: C11_21  and  O5_22 
REMARK    6  A    between atoms: C13_25  and  N3_26 
REMARK    7  A    between atoms: C14_30  and  O6_31 
REMARK    8  A    between atoms: O6_31  and  C15_32 
REMARK    9  A    between atoms: C15_32  and  C16_33 
REMARK   10  A    between atoms: C16_33  and  N4_34 
REMARK   11  A    between atoms: C17_38  and  N5_39 
ROOT
HETATM    1  C2  UNL     1       1.650  -0.930   1.058  1.00  0.00     0.176 C 
HETATM    2  C3  UNL     1       0.953   0.033   0.127  1.00  0.00     0.112 C 
HETATM    3  C12 UNL     1       1.746   0.432  -1.058  1.00  0.00     0.063 C 
HETATM    4  C13 UNL     1       3.202   0.130  -1.031  1.00  0.00     0.216 C 
HETATM    5  C14 UNL     1       3.836   0.140   0.336  1.00  0.00     0.184 C 
HETATM    6  C17 UNL     1       3.036  -0.558   1.401  1.00  0.00     0.245 C 
ENDROOT
BRANCH   2   7
HETATM    7  N1  UNL     1      -0.290  -0.520  -0.247  1.00  0.00    -0.388 N 
ATOM      8  H1  UNL     1      -0.387  -1.528  -0.370  1.00  0.00     0.156 HD
BRANCH   7   9
HETATM    9  C4  UNL     1      -1.396   0.329  -0.450  1.00  0.00     0.249 C 
HETATM   10  O2  UNL     1      -2.459  -0.464  -0.890  1.00  0.00    -0.354 OA
HETATM   11  C5  UNL     1      -3.515  -0.262   0.003  1.00  0.00     0.189 C 
HETATM   12  C6  UNL     1      -4.780  -0.632  -0.644  1.00  0.00     0.217 C 
HETATM   13  C10 UNL     1      -3.364   1.146   0.491  1.00  0.00     0.224 C 
HETATM   14  C7  UNL     1      -5.980   0.208  -0.393  1.00  0.00     0.070 C 
HETATM   15  C8  UNL     1      -5.851   1.176   0.743  1.00  0.00     0.158 C 
HETATM   16  C9  UNL     1      -7.238   1.477   1.269  1.00  0.00     0.042 C 
HETATM   17  O3  UNL     1      -5.065   0.705   1.771  1.00  0.00    -0.235 OA
HETATM   18  O4  UNL     1      -3.938   1.382   1.719  1.00  0.00    -0.230 OA
HETATM   19  C11 UNL     1      -1.840   1.122   0.729  1.00  0.00     0.201 C 
BRANCH  12  20
HETATM   20  N2  UNL     1      -4.577  -0.716  -2.103  1.00  0.00    -0.072 N 
ATOM     21  H23 UNL     1      -4.183   0.142  -2.488  1.00  0.00     0.274 HD
ATOM     22  H22 UNL     1      -3.817  -1.349  -2.351  1.00  0.00     0.274 HD
ATOM     23  H21 UNL     1      -5.456  -0.973  -2.552  1.00  0.00     0.274 HD
ENDBRANCH  12  20
BRANCH  19  24
HETATM   24  O5  UNL     1      -1.669   0.473   1.950  1.00  0.00    -0.388 OA
ATOM     25  H5  UNL     1      -1.952   0.979   2.702  1.00  0.00     0.210 HD
ENDBRANCH  19  24
ENDBRANCH   7   9
ENDBRANCH   2   7
BRANCH   1  26
HETATM   26  O1  UNL     1       1.536  -2.260   0.645  1.00  0.00    -0.386 OA
HETATM   27  C1  UNL     1       0.799  -3.049   1.537  1.00  0.00     0.202 C 
ENDBRANCH   1  26
BRANCH   6  28
HETATM   28  N5  UNL     1       3.756  -1.792   1.738  1.00  0.00    -0.070 N 
ATOM     29  H53 UNL     1       3.297  -2.332   2.471  1.00  0.00     0.274 HD
ATOM     30  H52 UNL     1       3.704  -2.496   1.001  1.00  0.00     0.274 HD
ATOM     31  H51 UNL     1       4.714  -1.535   1.975  1.00  0.00     0.274 HD
ENDBRANCH   6  28
BRANCH   4  32
HETATM   32  N3  UNL     1       3.550  -1.070  -1.771  1.00  0.00    -0.072 N 
ATOM     33  H33 UNL     1       3.007  -1.869  -1.443  1.00  0.00     0.274 HD
ATOM     34  H32 UNL     1       3.208  -1.017  -2.730  1.00  0.00     0.274 HD
ATOM     35  H31 UNL     1       4.549  -1.277  -1.752  1.00  0.00     0.274 HD
ENDBRANCH   4  32
BRANCH   5  36
HETATM   36  O6  UNL     1       5.084  -0.426   0.208  1.00  0.00    -0.380 OA
BRANCH  36  37
HETATM   37  C15 UNL     1       6.178   0.275   0.509  1.00  0.00     0.195 C 
BRANCH  37  38
HETATM   38  C16 UNL     1       6.499   1.533  -0.209  1.00  0.00     0.255 C 
BRANCH  38  39
HETATM   39  N4  UNL     1       6.687   1.411  -1.625  1.00  0.00    -0.077 N 
ATOM     40  H43 UNL     1       7.398   0.707  -1.822  1.00  0.00     0.274 HD
ATOM     41  H42 UNL     1       5.871   0.968  -2.047  1.00  0.00     0.274 HD
ATOM     42  H41 UNL     1       6.908   2.276  -2.119  1.00  0.00     0.274 HD
ENDBRANCH  38  39
ENDBRANCH  37  38
ENDBRANCH  36  37
ENDBRANCH   5  36
TORSDOF 11
