REMARK  14 active torsions:
REMARK  status: ('A' for Active; 'I' for Inactive)
REMARK    1  A    between atoms: C2_2  and  N1_3 
REMARK    2  A    between atoms: N1_3  and  C4_5 
REMARK    3  A    between atoms: N1_3  and  C25_42 
REMARK    4  A    between atoms: C4_5  and  C5_6 
REMARK    5  A    between atoms: C5_6  and  N2_7 
REMARK    6  A    between atoms: N2_7  and  C6_8 
REMARK    7  A    between atoms: C7_11  and  S1_12 
REMARK    8  A    between atoms: C9_16  and  N5_17 
REMARK    9  A    between atoms: N5_17  and  C10_19 
REMARK   10  A    between atoms: C10_19  and  C11_20 
REMARK   11  A    between atoms: C11_20  and  N6_21 
REMARK   12  A    between atoms: N6_21  and  C12_22 
REMARK   13  A    between atoms: C19_35  and  O1_36 
REMARK   14  A    between atoms: C25_42  and  C26_43 
ROOT
HETATM    1  C6  UNL     1      -1.400  -0.709   0.093  1.00  0.00     0.191 C 
HETATM    2  N3  UNL     1      -0.850  -1.364   1.169  1.00  0.00    -0.311 N 
ATOM      3  H3  UNL     1      -1.516  -1.553   1.918  1.00  0.00     0.170 HD
HETATM    4  C7  UNL     1       0.378  -1.799   1.425  1.00  0.00     0.147 C 
HETATM    5  N4  UNL     1       1.507  -1.499   0.735  1.00  0.00    -0.322 N 
ATOM      6  H4  UNL     1       2.381  -1.566   1.256  1.00  0.00     0.169 HD
HETATM    7  C9  UNL     1       1.615  -1.120  -0.565  1.00  0.00     0.117 C 
HETATM    8  C18 UNL     1       0.563  -0.969  -1.477  1.00  0.00     0.056 A 
HETATM    9  C19 UNL     1       1.013  -1.022  -2.780  1.00  0.00     0.083 A 
HETATM   10  C21 UNL     1       0.084  -0.888  -3.789  1.00  0.00     0.038 A 
HETATM   11  C22 UNL     1      -1.257  -0.705  -3.486  1.00  0.00     0.004 A 
HETATM   12  C23 UNL     1      -1.694  -0.654  -2.181  1.00  0.00     0.017 A 
HETATM   13  C24 UNL     1      -0.767  -0.789  -1.158  1.00  0.00     0.039 A 
ENDROOT
BRANCH   7  14
HETATM   14  N5  UNL     1       2.754  -0.849  -1.067  1.00  0.00    -0.370 N 
ATOM     15  H5  UNL     1       2.773  -0.569  -2.048  1.00  0.00     0.161 HD
BRANCH  14  16
HETATM   16  C10 UNL     1       4.017  -0.901  -0.378  1.00  0.00     0.180 C 
BRANCH  16  17
HETATM   17  C11 UNL     1       4.725   0.477  -0.483  1.00  0.00     0.175 C 
BRANCH  17  18
HETATM   18  N6  UNL     1       5.897   0.579   0.106  1.00  0.00    -0.419 NA
BRANCH  18  19
HETATM   19  C12 UNL     1       6.974   0.661   0.642  1.00  0.00     0.122 A 
HETATM   20  C13 UNL     1       7.914  -0.391   0.557  1.00  0.00     0.062 A 
HETATM   21  C14 UNL     1       9.125  -0.296   1.159  1.00  0.00     0.093 A 
HETATM   22  N7  UNL     1       9.476   0.793   1.853  1.00  0.00    -0.350 N 
HETATM   23  C15 UNL     1       8.616   1.807   1.955  1.00  0.00     0.135 A 
ATOM     24  H7  UNL     1      10.392   0.847   2.299  1.00  0.00     0.166 HD
HETATM   25  N8  UNL     1       8.725   3.008   2.592  1.00  0.00    -0.285 N 
HETATM   26  C17 UNL     1       7.381   1.783   1.377  1.00  0.00     0.067 A 
HETATM   27  N9  UNL     1       7.589   3.677   2.399  1.00  0.00    -0.309 N 
ATOM     28  H8  UNL     1       9.533   3.336   3.122  1.00  0.00     0.188 HD
HETATM   29  C16 UNL     1       6.742   2.960   1.660  1.00  0.00     0.126 A 
ATOM     30  H9  UNL     1       7.394   4.609   2.766  1.00  0.00     0.186 HD
ENDBRANCH  18  19
ENDBRANCH  17  18
ENDBRANCH  16  17
ENDBRANCH  14  16
ENDBRANCH   7  14
BRANCH   4  31
HETATM   31  S1  UNL     1       0.598  -2.910   2.834  1.00  0.00    -0.098 SA
HETATM   32  C8  UNL     1       0.403  -4.605   2.207  1.00  0.00     0.099 C 
ENDBRANCH   4  31
BRANCH   9  33
HETATM   33  O1  UNL     1       2.374  -1.207  -3.035  1.00  0.00    -0.355 OA
HETATM   34  C20 UNL     1       2.776  -1.254  -4.396  1.00  0.00     0.210 C 
ENDBRANCH   9  33
BRANCH   1  35
HETATM   35  N2  UNL     1      -2.379  -0.091   0.217  1.00  0.00    -0.401 NA
BRANCH  35  36
HETATM   36  C5  UNL     1      -3.527   0.648   0.309  1.00  0.00     0.185 C 
BRANCH  36  37
HETATM   37  C4  UNL     1      -4.696  -0.249   0.519  1.00  0.00     0.296 C 
BRANCH  37  38
HETATM   38  N1  UNL     1      -5.998   0.337   0.627  1.00  0.00    -0.059 N 
HETATM   39  C3  UNL     1      -6.860  -0.904   0.462  1.00  0.00     0.273 C 
BRANCH  38  40
HETATM   40  C2  UNL     1      -6.385   0.813   1.908  1.00  0.00     0.233 C 
HETATM   41  C1  UNL     1      -5.327   1.029   2.926  1.00  0.00     0.035 C 
ENDBRANCH  38  40
BRANCH  38  42
HETATM   42  C25 UNL     1      -6.399   1.100  -0.511  1.00  0.00     0.314 C 
BRANCH  42  43
HETATM   43  C26 UNL     1      -6.116   2.525  -0.546  1.00  0.00     0.148 C 
HETATM   44  C27 UNL     1      -6.427   3.375  -1.737  1.00  0.00     0.092 C 
HETATM   45  O2  UNL     1      -5.614   3.099   0.385  1.00  0.00    -0.297 OA
ENDBRANCH  42  43
ENDBRANCH  38  42
ENDBRANCH  37  38
ENDBRANCH  36  37
ENDBRANCH  35  36
ENDBRANCH   1  35
TORSDOF 14
