REMARK  14 active torsions:
REMARK  status: ('A' for Active; 'I' for Inactive)
REMARK    1  A    between atoms: N1_2  and  C2_4 
REMARK    2  A    between atoms: C3_7  and  C4_8 
REMARK    3  A    between atoms: C4_8  and  C5_9 
REMARK    4  A    between atoms: N3_12  and  C8_13 
REMARK    5  A    between atoms: C8_13  and  C9_14 
REMARK    6  A    between atoms: C9_14  and  C10_15 
REMARK    7  A    between atoms: C10_15  and  O1_16 
REMARK    8  A    between atoms: O1_16  and  C11_17 
REMARK    9  A    between atoms: C11_17  and  C12_19 
REMARK   10  A    between atoms: C20_30  and  C21_31 
REMARK   11  A    between atoms: C21_31  and  N5_32 
REMARK   12  A    between atoms: N5_32  and  O3_33 
REMARK   13  A    between atoms: O3_33  and  C22_34 
REMARK   14  A    between atoms: C22_34  and  C23_35 
ROOT
HETATM    1  C5  UNL     1      -1.035   0.630  -1.195  1.00  0.00     0.040 A 
HETATM    2  C6  UNL     1       0.155   0.491  -0.468  1.00  0.00     0.031 A 
HETATM    3  C7  UNL     1       1.054  -0.624  -0.795  1.00  0.00     0.070 C 
HETATM    4  N3  UNL     1       0.482   1.338   0.538  1.00  0.00    -0.350 N 
HETATM    5  C18 UNL     1      -0.389   2.336   0.827  1.00  0.00     0.037 A 
HETATM    6  C19 UNL     1      -0.081   3.238   1.948  1.00  0.00     0.071 C 
HETATM    7  C20 UNL     1      -1.592   2.522   0.130  1.00  0.00     0.088 A 
HETATM    8  N6  UNL     1      -1.875   1.659  -0.859  1.00  0.00    -0.349 N 
HETATM    9  C24 UNL     1      -3.108   1.838  -1.556  1.00  0.00     0.156 C 
ENDROOT
BRANCH   4  10
HETATM   10  C8  UNL     1       1.739   1.203   1.242  1.00  0.00     0.131 C 
BRANCH  10  11
HETATM   11  C9  UNL     1       1.692   0.276   2.417  1.00  0.00     0.047 C 
BRANCH  11  12
HETATM   12  C10 UNL     1       3.028   0.195   3.093  1.00  0.00     0.180 C 
BRANCH  12  13
HETATM   13  O1  UNL     1       4.075  -0.273   2.311  1.00  0.00    -0.316 OA
BRANCH  13  14
HETATM   14  C11 UNL     1       4.188  -1.508   1.710  1.00  0.00     0.310 C 
HETATM   15  O2  UNL     1       3.238  -2.311   1.887  1.00  0.00    -0.258 OA
BRANCH  14  16
HETATM   16  C12 UNL     1       5.362  -1.877   0.900  1.00  0.00     0.110 A 
HETATM   17  C13 UNL     1       6.464  -1.118   0.614  1.00  0.00     0.057 A 
HETATM   18  C14 UNL     1       7.287  -1.911  -0.188  1.00  0.00     0.034 A 
HETATM   19  S1  UNL     1       8.746  -2.051  -1.061  1.00  0.00    -0.100 SA
HETATM   20  C17 UNL     1       6.696  -3.121  -0.381  1.00  0.00     0.050 A 
HETATM   21  C15 UNL     1       8.571  -3.639  -1.650  1.00  0.00     0.053 A 
HETATM   22  C16 UNL     1       7.360  -4.027  -1.142  1.00  0.00     0.038 A 
HETATM   23  N4  UNL     1       5.504  -3.075   0.304  1.00  0.00    -0.350 N 
ATOM     24  H4  UNL     1       4.827  -3.837   0.353  1.00  0.00     0.166 HD
ENDBRANCH  14  16
ENDBRANCH  13  14
ENDBRANCH  12  13
ENDBRANCH  11  12
ENDBRANCH  10  11
ENDBRANCH   4  10
BRANCH   1  25
HETATM   25  C4  UNL     1      -1.339  -0.297  -2.291  1.00  0.00     0.116 C 
BRANCH  25  26
HETATM   26  C3  UNL     1      -1.808  -1.670  -1.827  1.00  0.00     0.023 A 
HETATM   27  N2  UNL     1      -2.814  -1.846  -1.002  1.00  0.00    -0.340 N 
HETATM   28  C2  UNL     1      -3.179  -3.088  -0.693  1.00  0.00     0.144 A 
ATOM     29  H2  UNL     1      -3.307  -1.046  -0.605  1.00  0.00     0.168 HD
HETATM   30  S2  UNL     1      -2.097  -4.051  -1.571  1.00  0.00    -0.064 SA
HETATM   31  C25 UNL     1      -1.201  -2.807  -2.314  1.00  0.00     0.078 A 
BRANCH  28  32
HETATM   32  N1  UNL     1      -4.164  -3.415   0.116  1.00  0.00    -0.375 N 
HETATM   33  C1  UNL     1      -4.395  -4.832   0.319  1.00  0.00     0.148 C 
ATOM     34  H1  UNL     1      -4.736  -2.707   0.577  1.00  0.00     0.161 HD
ENDBRANCH  28  32
ENDBRANCH  25  26
ENDBRANCH   1  25
BRANCH   7  35
HETATM   35  C21 UNL     1      -2.443   3.653   0.490  1.00  0.00     0.249 C 
BRANCH  35  36
HETATM   36  N5  UNL     1      -3.493   4.089   0.113  1.00  0.00    -0.291 NA
BRANCH  36  37
HETATM   37  O3  UNL     1      -4.595   4.514  -0.313  1.00  0.00    -0.199 OA
BRANCH  37  38
HETATM   38  C22 UNL     1      -5.907   4.090  -0.113  1.00  0.00     0.330 C 
BRANCH  38  39
HETATM   39  C23 UNL     1      -6.903   4.901  -0.819  1.00  0.00     0.201 C 
HETATM   40  O4  UNL     1      -6.571   5.877  -1.531  1.00  0.00    -0.646 OA
HETATM   41  O5  UNL     1      -8.240   4.583  -0.697  1.00  0.00    -0.646 OA
ENDBRANCH  38  39
ENDBRANCH  37  38
ENDBRANCH  36  37
ENDBRANCH  35  36
ENDBRANCH   7  35
TORSDOF 14
