REMARK  13 active torsions:
REMARK  status: ('A' for Active; 'I' for Inactive)
REMARK    1  A    between atoms: C2_3  and  N2_4 
REMARK       I    between atoms: N2_4  and  C3_6 
REMARK    2  A    between atoms: C3_6  and  C4_8 
REMARK    3  A    between atoms: C4_8  and  O2_9 
REMARK    4  A    between atoms: O2_9  and  C5_10 
REMARK    5  A    between atoms: C5_10  and  C6_12 
REMARK    6  A    between atoms: C6_12  and  C7_13 
REMARK    7  A    between atoms: C7_13  and  C8_14 
REMARK    8  A    between atoms: C8_14  and  C9_15 
REMARK       I    between atoms: C9_15  and  N3_17 
REMARK    9  A    between atoms: N3_17  and  C10_19 
REMARK       I    between atoms: N5_26  and  C15_28 
REMARK   10  A    between atoms: C15_28  and  C16_30 
REMARK   11  A    between atoms: C16_30  and  C17_31 
REMARK   12  A    between atoms: C17_31  and  C18_32 
REMARK   13  A    between atoms: C18_32  and  N6_33 
ROOT
HETATM    1  N1  UNL     1      13.033  -0.929  -1.540  1.00  0.00    -0.196 NA
HETATM    2  C1  UNL     1      12.571  -0.650  -2.577  1.00  0.00     0.078 C 
HETATM    3  C2  UNL     1      11.971  -0.308  -3.862  1.00  0.00     0.247 C 
ENDROOT
BRANCH   3   4
HETATM    4  N2  UNL     1      10.519  -0.463  -3.832  1.00  0.00    -0.347 N 
HETATM    5  C3  UNL     1       9.765  -0.168  -4.983  1.00  0.00     0.242 C 
HETATM    6  O1  UNL     1      10.357   0.223  -6.042  1.00  0.00    -0.271 OA
ATOM      7  H2  UNL     1      10.054  -0.783  -2.982  1.00  0.00     0.163 HD
BRANCH   5   8
HETATM    8  C4  UNL     1       8.306  -0.295  -5.010  1.00  0.00     0.281 C 
BRANCH   8   9
HETATM    9  O2  UNL     1       7.686  -0.575  -3.787  1.00  0.00    -0.312 OA
BRANCH   9  10
HETATM   10  C5  UNL     1       7.666   0.237  -2.675  1.00  0.00     0.259 C 
HETATM   11  O3  UNL     1       8.236   1.342  -2.706  1.00  0.00    -0.265 OA
BRANCH  10  12
HETATM   12  C6  UNL     1       6.966  -0.202  -1.442  1.00  0.00     0.111 C 
BRANCH  12  13
HETATM   13  C7  UNL     1       7.092   0.900  -0.417  1.00  0.00     0.019 C 
BRANCH  13  14
HETATM   14  C8  UNL     1       6.440   0.617   0.885  1.00  0.00     0.103 C 
BRANCH  14  15
HETATM   15  C9  UNL     1       4.973   0.463   0.733  1.00  0.00     0.222 C 
HETATM   16  O4  UNL     1       4.455   0.812  -0.327  1.00  0.00    -0.273 OA
HETATM   17  N3  UNL     1       4.184  -0.073   1.784  1.00  0.00    -0.327 N 
ATOM     18  H3  UNL     1       4.641  -0.365   2.648  1.00  0.00     0.169 HD
BRANCH  17  19
HETATM   19  C10 UNL     1       2.804  -0.211   1.668  1.00  0.00     0.036 A 
HETATM   20  C11 UNL     1       2.142  -1.241   2.305  1.00  0.00     0.032 A 
HETATM   21  C12 UNL     1       0.795  -1.436   2.268  1.00  0.00     0.033 A 
HETATM   22  C13 UNL     1      -0.037  -0.553   1.543  1.00  0.00     0.051 A 
HETATM   23  N4  UNL     1      -1.336  -0.614   1.420  1.00  0.00    -0.335 N 
HETATM   24  C25 UNL     1       0.611   0.475   0.907  1.00  0.00     0.037 A 
HETATM   25  C14 UNL     1      -1.979   0.298   0.702  1.00  0.00     0.152 A 
ATOM     26  H4  UNL     1      -1.856  -1.363   1.876  1.00  0.00     0.168 HD
HETATM   27  N5  UNL     1      -3.221   0.458   0.423  1.00  0.00    -0.307 N 
HETATM   28  S1  UNL     1      -0.678   1.309   0.161  1.00  0.00    -0.052 SA
HETATM   29  C15 UNL     1      -4.255  -0.351   0.842  1.00  0.00     0.223 C 
ATOM     30  H5  UNL     1      -3.465   1.257  -0.162  1.00  0.00     0.171 HD
HETATM   31  O5  UNL     1      -4.843  -1.049  -0.075  1.00  0.00    -0.273 OA
HETATM   32  C26 UNL     1       2.011   0.656   0.959  1.00  0.00     0.051 A 
BRANCH  29  33
HETATM   33  C16 UNL     1      -4.791  -0.538   2.205  1.00  0.00     0.105 C 
BRANCH  33  34
HETATM   34  C17 UNL     1      -6.185  -1.144   2.211  1.00  0.00     0.029 C 
BRANCH  34  35
HETATM   35  C18 UNL     1      -7.186  -0.259   1.525  1.00  0.00     0.120 C 
BRANCH  35  36
HETATM   36  N6  UNL     1      -8.484  -0.933   1.577  1.00  0.00    -0.390 N 
HETATM   37  C19 UNL     1      -9.532  -0.231   1.393  1.00  0.00     0.051 C 
HETATM   38  C20 UNL     1      -9.449   1.225   1.134  1.00  0.00     0.061 C 
HETATM   39  C24 UNL     1     -10.881  -0.804   1.420  1.00  0.00     0.171 C 
HETATM   40  C21 UNL     1     -10.612   1.710   0.304  1.00  0.00     0.006 C 
HETATM   41  C22 UNL     1     -11.954   1.259   0.744  1.00  0.00     0.008 C 
HETATM   42  C23 UNL     1     -11.963   0.168   1.791  1.00  0.00     0.085 C 
HETATM   43  O6  UNL     1     -11.058  -1.998   1.146  1.00  0.00    -0.291 OA
ATOM     44  H6  UNL     1      -8.548  -1.935   1.755  1.00  0.00     0.159 HD
ENDBRANCH  35  36
ENDBRANCH  34  35
ENDBRANCH  33  34
ENDBRANCH  29  33
ENDBRANCH  17  19
ENDBRANCH  14  15
ENDBRANCH  13  14
ENDBRANCH  12  13
ENDBRANCH  10  12
ENDBRANCH   9  10
ENDBRANCH   8   9
ENDBRANCH   5   8
ENDBRANCH   3   4
TORSDOF 13
