REMARK  14 active torsions:
REMARK  status: ('A' for Active; 'I' for Inactive)
REMARK    1  A    between atoms: C2_2  and  C3_3 
REMARK    2  A    between atoms: C3_3  and  N1_4 
REMARK    3  A    between atoms: C4_5  and  C5_6 
REMARK    4  A    between atoms: C6_7  and  C7_8 
REMARK    5  A    between atoms: C7_8  and  N2_9 
REMARK       I    between atoms: N2_9  and  C8_11 
REMARK    6  A    between atoms: C8_11  and  C9_13 
REMARK    7  A    between atoms: C9_13  and  C12_16 
REMARK       I    between atoms: C12_16  and  N3_18 
REMARK    8  A    between atoms: N3_18  and  C13_20 
REMARK    9  A    between atoms: C13_20  and  C14_21 
REMARK   10  A    between atoms: C14_21  and  C15_22 
REMARK   11  A    between atoms: C15_22  and  O3_23 
REMARK   12  A    between atoms: O3_23  and  C16_24 
REMARK   13  A    between atoms: C20_30  and  C21_31 
REMARK   14  A    between atoms: C24_37  and  N6_38 
REMARK       I    between atoms: N6_38  and  C25_40 
ROOT
HETATM    1  N1  UNL     1       2.227   0.527  -1.138  1.00  0.00    -0.338 N 
HETATM    2  C4  UNL     1       1.588  -0.638  -0.833  1.00  0.00     0.091 A 
HETATM    3  C18 UNL     1       2.435  -1.463  -0.122  1.00  0.00     0.071 A 
HETATM    4  C19 UNL     1       3.620  -0.768   0.002  1.00  0.00     0.062 A 
HETATM    5  N4  UNL     1       4.758  -1.148   0.616  1.00  0.00    -0.353 N 
ATOM      6  H4  UNL     1       4.803  -2.063   1.064  1.00  0.00     0.166 HD
HETATM    7  C20 UNL     1       5.836  -0.343   0.649  1.00  0.00     0.049 A 
HETATM    8  C27 UNL     1       5.708   0.895   0.018  1.00  0.00     0.033 A 
HETATM    9  C28 UNL     1       4.549   1.295  -0.613  1.00  0.00     0.034 A 
HETATM   10  C29 UNL     1       3.464   0.432  -0.622  1.00  0.00     0.062 A 
ENDROOT
BRANCH   2  11
HETATM   11  C5  UNL     1       0.246  -1.003  -1.172  1.00  0.00    -0.047 C 
HETATM   12  C6  UNL     1      -0.876  -1.293  -1.469  1.00  0.00    -0.080 C 
BRANCH  12  13
HETATM   13  C7  UNL     1      -2.268  -1.632  -1.852  1.00  0.00     0.217 C 
BRANCH  13  14
HETATM   14  N2  UNL     1      -3.125  -0.524  -1.532  1.00  0.00    -0.350 N 
HETATM   15  C8  UNL     1      -3.232  -0.077  -0.200  1.00  0.00     0.235 C 
HETATM   16  O1  UNL     1      -2.607  -0.598   0.761  1.00  0.00    -0.272 OA
ATOM     17  H2  UNL     1      -3.656  -0.061  -2.269  1.00  0.00     0.163 HD
BRANCH  15  18
HETATM   18  C9  UNL     1      -4.129   1.081   0.130  1.00  0.00     0.114 C 
HETATM   19  C10 UNL     1      -3.587   2.248  -0.694  1.00  0.00     0.035 C 
HETATM   20  C11 UNL     1      -4.016   1.473   1.569  1.00  0.00     0.035 C 
BRANCH  18  21
HETATM   21  C12 UNL     1      -5.482   0.745  -0.321  1.00  0.00     0.234 C 
HETATM   22  O2  UNL     1      -5.706  -0.345  -0.933  1.00  0.00    -0.272 OA
HETATM   23  N3  UNL     1      -6.601   1.616  -0.102  1.00  0.00    -0.360 N 
ATOM     24  H3  UNL     1      -6.444   2.496   0.390  1.00  0.00     0.162 HD
BRANCH  23  25
HETATM   25  C13 UNL     1      -7.914   1.310  -0.538  1.00  0.00     0.125 C 
BRANCH  25  26
HETATM   26  C14 UNL     1      -8.626   0.146   0.013  1.00  0.00     0.046 C 
BRANCH  26  27
HETATM   27  C15 UNL     1      -8.947   0.138   1.457  1.00  0.00     0.169 C 
BRANCH  27  28
HETATM   28  O3  UNL     1      -7.979   0.105   2.394  1.00  0.00    -0.391 OA
BRANCH  28  29
HETATM   29  C16 UNL     1      -7.249  -1.081   2.443  1.00  0.00     0.163 C 
HETATM   30  C17 UNL     1      -6.192  -1.077   3.505  1.00  0.00     0.033 C 
ENDBRANCH  28  29
ENDBRANCH  27  28
ENDBRANCH  26  27
ENDBRANCH  25  26
ENDBRANCH  23  25
ENDBRANCH  18  21
ENDBRANCH  15  18
ENDBRANCH  13  14
ENDBRANCH  12  13
ENDBRANCH   2  11
BRANCH   1  31
HETATM   31  C3  UNL     1       1.644   1.612  -1.867  1.00  0.00     0.130 C 
BRANCH  31  32
HETATM   32  C2  UNL     1       1.803   1.546  -3.345  1.00  0.00     0.016 C 
HETATM   33  C1  UNL     1       3.202   1.530  -3.854  1.00  0.00     0.006 C 
ENDBRANCH  31  32
ENDBRANCH   1  31
BRANCH   7  34
HETATM   34  C21 UNL     1       7.064  -0.745   1.307  1.00  0.00     0.068 A 
HETATM   35  C22 UNL     1       7.392  -0.528   2.619  1.00  0.00     0.088 A 
HETATM   36  C23 UNL     1       6.560   0.170   3.659  1.00  0.00     0.080 C 
HETATM   37  O4  UNL     1       8.580  -1.045   2.809  1.00  0.00    -0.240 OA
HETATM   38  N5  UNL     1       9.040  -1.578   1.721  1.00  0.00    -0.244 N 
HETATM   39  C24 UNL     1       8.118  -1.415   0.739  1.00  0.00     0.143 A 
ATOM     40  H5  UNL     1       9.943  -2.042   1.620  1.00  0.00     0.196 HD
BRANCH  39  41
HETATM   41  N6  UNL     1       8.256  -1.827  -0.470  1.00  0.00    -0.311 N 
HETATM   42  C25 UNL     1       9.419  -2.509  -0.898  1.00  0.00     0.219 C 
HETATM   43  C26 UNL     1       9.358  -3.883  -1.439  1.00  0.00     0.117 C 
HETATM   44  O5  UNL     1      10.519  -1.907  -0.805  1.00  0.00    -0.274 OA
ATOM     45  H6  UNL     1       7.506  -1.658  -1.140  1.00  0.00     0.170 HD
ENDBRANCH  39  41
ENDBRANCH   7  34
TORSDOF 14
