REMARK  15 active torsions:
REMARK  status: ('A' for Active; 'I' for Inactive)
REMARK    1  A    between atoms: C2_2  and  O1_3 
REMARK    2  A    between atoms: O1_3  and  C3_4 
REMARK    3  A    between atoms: C9_12  and  N2_13 
REMARK    4  A    between atoms: N2_13  and  C10_15 
REMARK    5  A    between atoms: N4_19  and  C12_21 
REMARK    6  A    between atoms: C12_21  and  C13_22 
REMARK    7  A    between atoms: C13_22  and  C14_23 
REMARK    8  A    between atoms: C14_23  and  O2_24 
REMARK    9  A    between atoms: C14_23  and  C15_26 
REMARK   10  A    between atoms: C15_26  and  N5_27 
REMARK   11  A    between atoms: N6_30  and  C18_31 
REMARK   12  A    between atoms: C18_31  and  C19_32 
REMARK   13  A    between atoms: C19_32  and  O3_33 
REMARK   14  A    between atoms: C25_41  and  C26_42 
REMARK   15  A    between atoms: C27_43  and  C28_44 
ROOT
HETATM    1  C10 UNL     1      -2.895   0.495   0.819  1.00  0.00     0.141 A 
HETATM    2  N3  UNL     1      -1.559   0.319   1.068  1.00  0.00    -0.175 N 
ATOM      3  H3  UNL     1      -1.273  -0.443   1.683  1.00  0.00     0.186 HD
HETATM    4  C11 UNL     1      -0.621   1.098   0.542  1.00  0.00     0.679 A 
HETATM    5  N4  UNL     1       0.626   0.972   0.754  1.00  0.00    -0.226 N 
ATOM      6  H4  UNL     1       1.218   1.650   0.274  1.00  0.00     0.177 HD
HETATM    7  N7  UNL     1      -0.957   2.132  -0.290  1.00  0.00    -0.200 N 
ATOM      8  H7  UNL     1      -0.231   2.726  -0.691  1.00  0.00     0.183 HD
HETATM    9  C24 UNL     1      -2.233   2.356  -0.571  1.00  0.00     0.130 A 
HETATM   10  C25 UNL     1      -3.212   1.531  -0.012  1.00  0.00     0.078 A 
ENDROOT
BRANCH   5  11
HETATM   11  C12 UNL     1       1.318   0.028   1.559  1.00  0.00     0.140 C 
BRANCH  11  12
HETATM   12  C13 UNL     1       2.814   0.355   1.436  1.00  0.00     0.053 C 
BRANCH  12  13
HETATM   13  C14 UNL     1       3.187   0.208  -0.052  1.00  0.00     0.148 C 
BRANCH  13  14
HETATM   14  O2  UNL     1       2.925  -1.111  -0.367  1.00  0.00    -0.394 OA
ATOM     15  H2  UNL     1       3.155  -1.202  -1.284  1.00  0.00     0.210 HD
ENDBRANCH  13  14
BRANCH  13  16
HETATM   16  C15 UNL     1       4.589   0.669  -0.223  1.00  0.00     0.304 C 
BRANCH  16  17
HETATM   17  N5  UNL     1       5.127   0.590  -1.535  1.00  0.00     0.098 N 
HETATM   18  C16 UNL     1       6.431   1.256  -1.495  1.00  0.00     0.303 C 
HETATM   19  C17 UNL     1       7.523   0.456  -0.900  1.00  0.00     0.302 C 
HETATM   20  N6  UNL     1       7.271  -0.899  -0.592  1.00  0.00     0.094 N 
HETATM   21  C21 UNL     1       6.199  -1.565  -1.232  1.00  0.00     0.307 C 
HETATM   22  C22 UNL     1       5.297  -0.733  -2.083  1.00  0.00     0.247 C 
HETATM   23  C23 UNL     1       5.964  -0.561  -3.445  1.00  0.00     0.045 C 
BRANCH  20  24
HETATM   24  C18 UNL     1       8.480  -1.679  -0.740  1.00  0.00     0.298 C 
BRANCH  24  25
HETATM   25  C19 UNL     1       9.535  -1.399   0.273  1.00  0.00     0.197 C 
BRANCH  25  26
HETATM   26  O3  UNL     1      10.000  -0.107   0.309  1.00  0.00    -0.394 OA
HETATM   27  C20 UNL     1      10.976  -0.003   1.296  1.00  0.00     0.201 C 
ENDBRANCH  25  26
ENDBRANCH  24  25
ENDBRANCH  20  24
ENDBRANCH  16  17
ENDBRANCH  13  16
ENDBRANCH  12  13
ENDBRANCH  11  12
ENDBRANCH   5  11
BRANCH   1  28
HETATM   28  N2  UNL     1      -3.683  -0.264   1.338  1.00  0.00    -0.337 N 
ATOM     29  H2  UNL     1      -3.148  -0.928   1.897  1.00  0.00     0.167 HD
BRANCH  28  30
HETATM   30  C9  UNL     1      -5.007  -0.583   1.471  1.00  0.00     0.091 A 
HETATM   31  C3  UNL     1      -5.607  -1.503   0.620  1.00  0.00     0.170 A 
HETATM   32  N1  UNL     1      -6.888  -1.819   0.747  1.00  0.00    -0.339 N 
HETATM   33  C4  UNL     1      -7.659  -1.265   1.702  1.00  0.00     0.008 A 
ATOM     34  H1  UNL     1      -7.299  -2.498   0.106  1.00  0.00     0.168 HD
HETATM   35  C5  UNL     1      -9.103  -1.588   1.873  1.00  0.00     0.068 C 
HETATM   36  C6  UNL     1      -7.104  -0.344   2.575  1.00  0.00     0.033 A 
HETATM   37  C7  UNL     1      -5.785  -0.001   2.465  1.00  0.00    -0.029 A 
HETATM   38  C8  UNL     1      -5.159   1.000   3.411  1.00  0.00     0.050 C 
BRANCH  31  39
HETATM   39  O1  UNL     1      -4.826  -2.081  -0.363  1.00  0.00    -0.334 OA
BRANCH  39  40
HETATM   40  C2  UNL     1      -5.281  -3.017  -1.283  1.00  0.00     0.173 C 
HETATM   41  C1  UNL     1      -6.386  -2.523  -2.159  1.00  0.00     0.034 C 
ENDBRANCH  39  40
ENDBRANCH  31  39
ENDBRANCH  28  30
ENDBRANCH   1  28
BRANCH  10  42
HETATM   42  C26 UNL     1      -4.570   1.843  -0.352  1.00  0.00    -0.061 C 
HETATM   43  C27 UNL     1      -5.700   2.139  -0.640  1.00  0.00    -0.097 C 
BRANCH  43  44
HETATM   44  C28 UNL     1      -7.086   2.528  -0.969  1.00  0.00     0.057 C 
HETATM   45  C29 UNL     1      -7.761   3.110   0.278  1.00  0.00     0.023 C 
HETATM   46  C30 UNL     1      -7.818   1.298  -1.387  1.00  0.00     0.023 C 
ENDBRANCH  43  44
ENDBRANCH  10  42
TORSDOF 15
