REMARK  13 active torsions:
REMARK  status: ('A' for Active; 'I' for Inactive)
REMARK    1  A    between atoms: C1_2  and  C2_3 
REMARK       I    between atoms: C1_2  and  N1_13 
REMARK    2  A    between atoms: C2_3  and  C3_4 
REMARK    3  A    between atoms: N1_13  and  C10_15 
REMARK    4  A    between atoms: C11_20  and  C12_21 
REMARK    5  A    between atoms: C12_21  and  C13_22 
REMARK    6  A    between atoms: C13_22  and  C14_23 
REMARK    7  A    between atoms: C14_23  and  C15_24 
REMARK    8  A    between atoms: C15_24  and  C16_25 
REMARK    9  A    between atoms: C18_29  and  N5_30 
REMARK   10  A    between atoms: N5_30  and  C19_32 
REMARK   11  A    between atoms: C19_32  and  C20_33 
REMARK   12  A    between atoms: C20_33  and  C21_34 
REMARK   13  A    between atoms: C21_34  and  N6_35 
ROOT
HETATM    1  C12 UNL     1      -0.324  -0.833   1.313  1.00  0.00     0.066 C 
ENDROOT
BRANCH   1   2
HETATM    2  C11 UNL     1      -1.784  -0.524   1.164  1.00  0.00     0.069 A 
HETATM    3  N3  UNL     1      -2.432   0.513   1.707  1.00  0.00    -0.296 N 
HETATM    4  N2  UNL     1      -3.655   0.687   1.520  1.00  0.00    -0.279 N 
ATOM      5  H3  UNL     1      -1.916   1.176   2.286  1.00  0.00     0.187 HD
HETATM    6  C10 UNL     1      -4.328  -0.208   0.743  1.00  0.00     0.167 A 
ATOM      7  H2  UNL     1      -4.139   1.481   1.939  1.00  0.00     0.189 HD
HETATM    8  S2  UNL     1      -3.061  -1.283   0.328  1.00  0.00    -0.038 SA
BRANCH   6   9
HETATM    9  N1  UNL     1      -5.583  -0.149   0.472  1.00  0.00    -0.306 N 
HETATM   10  C1  UNL     1      -6.233  -1.085  -0.330  1.00  0.00     0.227 C 
HETATM   11  O1  UNL     1      -5.912  -1.233  -1.529  1.00  0.00    -0.273 OA
ATOM     12  H1  UNL     1      -6.129   0.619   0.862  1.00  0.00     0.171 HD
BRANCH  10  13
HETATM   13  C2  UNL     1      -7.337  -1.914   0.281  1.00  0.00     0.141 C 
BRANCH  13  14
HETATM   14  C3  UNL     1      -8.628  -1.417  -0.285  1.00  0.00    -0.047 A 
HETATM   15  C4  UNL     1      -9.187  -1.907  -1.435  1.00  0.00     0.010 A 
HETATM   16  C5  UNL     1     -10.401  -1.380  -1.898  1.00  0.00     0.040 A 
HETATM   17  C6  UNL     1     -11.072  -0.373  -1.238  1.00  0.00     0.105 A 
HETATM   18  C7  UNL     1     -10.501   0.127  -0.063  1.00  0.00     0.105 A 
HETATM   19  O3  UNL     1     -12.268   0.329  -1.460  1.00  0.00    -0.323 OA
HETATM   20  C8  UNL     1      -9.313  -0.394   0.382  1.00  0.00     0.047 A 
HETATM   21  O2  UNL     1     -11.383   1.114   0.372  1.00  0.00    -0.323 OA
HETATM   22  C9  UNL     1     -12.095   1.587  -0.784  1.00  0.00     0.352 C 
ENDBRANCH  13  14
ENDBRANCH  10  13
ENDBRANCH   6   9
ENDBRANCH   1   2
BRANCH   1  23
HETATM   23  C13 UNL     1       0.428  -0.230   0.157  1.00  0.00     0.007 C 
BRANCH  23  24
HETATM   24  C14 UNL     1       0.137   1.245   0.089  1.00  0.00     0.006 C 
BRANCH  24  25
HETATM   25  C15 UNL     1       0.910   1.990  -0.954  1.00  0.00     0.048 C 
BRANCH  25  26
HETATM   26  C16 UNL     1       2.353   2.023  -0.575  1.00  0.00     0.001 A 
HETATM   27  C17 UNL     1       2.985   1.649   0.576  1.00  0.00     0.104 A 
HETATM   28  N4  UNL     1       4.272   1.803   0.659  1.00  0.00    -0.346 N 
HETATM   29  C18 UNL     1       4.928   2.321  -0.382  1.00  0.00     0.144 A 
ATOM     30  H4  UNL     1       4.773   1.533   1.505  1.00  0.00     0.167 HD
HETATM   31  S1  UNL     1       3.691   2.596  -1.514  1.00  0.00    -0.058 SA
BRANCH  29  32
HETATM   32  N5  UNL     1       6.216   2.581  -0.469  1.00  0.00    -0.370 N 
ATOM     33  H5  UNL     1       6.567   2.976  -1.342  1.00  0.00     0.161 HD
BRANCH  32  34
HETATM   34  C19 UNL     1       7.143   2.347   0.573  1.00  0.00     0.123 C 
BRANCH  34  35
HETATM   35  C20 UNL     1       8.038   1.182   0.341  1.00  0.00     0.039 C 
BRANCH  35  36
HETATM   36  C21 UNL     1       7.290  -0.110   0.178  1.00  0.00     0.129 C 
BRANCH  36  37
HETATM   37  N6  UNL     1       8.287  -1.148   0.001  1.00  0.00    -0.333 N 
HETATM   38  C22 UNL     1       8.871  -1.596  -1.228  1.00  0.00     0.147 C 
HETATM   39  C23 UNL     1      10.254  -2.139  -0.860  1.00  0.00     0.144 C 
HETATM   40  N7  UNL     1      10.072  -2.511   0.535  1.00  0.00    -0.341 N 
HETATM   41  C24 UNL     1       8.893  -1.925   1.055  1.00  0.00     0.318 C 
ATOM     42  H7  UNL     1      10.705  -3.110   1.064  1.00  0.00     0.164 HD
HETATM   43  O4  UNL     1       8.396  -2.012   2.197  1.00  0.00    -0.247 OA
ENDBRANCH  36  37
ENDBRANCH  35  36
ENDBRANCH  34  35
ENDBRANCH  32  34
ENDBRANCH  29  32
ENDBRANCH  25  26
ENDBRANCH  24  25
ENDBRANCH  23  24
ENDBRANCH   1  23
TORSDOF 13
