REMARK  7 active torsions:
REMARK  status: ('A' for Active; 'I' for Inactive)
REMARK    1  A    between atoms: N1_1  and  C1_4 
REMARK    2  A    between atoms: C1_4  and  C2_5 
REMARK    3  A    between atoms: C1_4  and  N5_12 
REMARK    4  A    between atoms: C2_5  and  N2_6 
REMARK    5  A    between atoms: N5_12  and  C4_14 
REMARK    6  A    between atoms: C4_14  and  N6_15 
REMARK    7  A    between atoms: N6_15  and  O1_16 
ROOT
HETATM    1  C1  UNL     1       0.353  -1.226  -0.113  1.00  0.00     0.091 C 
ENDROOT
BRANCH   1   2
HETATM    2  N1  UNL     1       0.526  -2.449  -0.453  1.00  0.00    -0.388 N 
ATOM      3  H12 UNL     1      -0.007  -3.173   0.030  1.00  0.00     0.157 HD
ATOM      4  H11 UNL     1       1.184  -2.694  -1.193  1.00  0.00     0.157 HD
ENDBRANCH   1   2
BRANCH   1   5
HETATM    5  C2  UNL     1      -0.586  -0.876   0.943  1.00  0.00     0.226 C 
BRANCH   5   6
HETATM    6  N2  UNL     1      -1.639   0.005   0.472  1.00  0.00    -0.265 N 
HETATM    7  C3  UNL     1      -2.845  -0.229  -0.052  1.00  0.00     0.220 A 
HETATM    8  N3  UNL     1      -3.037   1.091  -0.152  1.00  0.00    -0.280 N 
HETATM    9  N4  UNL     1      -1.846   1.300   0.365  1.00  0.00    -0.238 N 
ATOM     10  H3  UNL     1      -3.793   1.687  -0.489  1.00  0.00     0.189 HD
ATOM     11  H4  UNL     1      -1.301   2.132   0.592  1.00  0.00     0.208 HD
ENDBRANCH   5   6
ENDBRANCH   1   5
BRANCH   1  12
HETATM   12  N5  UNL     1       1.091  -0.223  -0.782  1.00  0.00    -0.363 N 
ATOM     13  H5  UNL     1       0.872   0.055  -1.738  1.00  0.00     0.162 HD
BRANCH  12  14
HETATM   14  C4  UNL     1       2.185   0.396  -0.034  1.00  0.00     0.264 C 
BRANCH  14  15
HETATM   15  N6  UNL     1       2.847   1.399  -0.843  1.00  0.00    -0.084 NA
BRANCH  15  16
HETATM   16  O1  UNL     1       3.845   1.916  -0.063  1.00  0.00    -0.295 OA
ATOM     17  H1  UNL     1       4.279   2.574  -0.594  1.00  0.00     0.238 HD
ENDBRANCH  15  16
ENDBRANCH  14  15
ENDBRANCH  12  14
ENDBRANCH   1  12
TORSDOF 7
