REMARK  7 active torsions:
REMARK  status: ('A' for Active; 'I' for Inactive)
REMARK    1  A    between atoms: O1_2  and  C2_3 
REMARK    2  A    between atoms: C2_3  and  C3_4 
REMARK    3  A    between atoms: C3_4  and  N1_5 
REMARK    4  A    between atoms: N1_5  and  N2_6 
REMARK    5  A    between atoms: N1_5  and  N4_12 
REMARK    6  A    between atoms: N2_6  and  C4_8 
REMARK    7  A    between atoms: C4_8  and  N3_9 
ROOT
HETATM    1  N1  UNL     1       0.645   0.136  -0.075  1.00  0.00    -0.114 NA
ENDROOT
BRANCH   1   2
HETATM    2  C3  UNL     1      -0.785  -0.002  -0.336  1.00  0.00     0.167 C 
BRANCH   2   3
HETATM    3  C2  UNL     1      -1.127  -1.480  -0.521  1.00  0.00     0.185 C 
BRANCH   3   4
HETATM    4  O1  UNL     1      -2.474  -1.674  -0.774  1.00  0.00    -0.395 OA
HETATM    5  C1  UNL     1      -3.299  -1.221   0.236  1.00  0.00     0.201 C 
ENDBRANCH   3   4
ENDBRANCH   2   3
ENDBRANCH   1   2
BRANCH   1   6
HETATM    6  N2  UNL     1       0.911  -0.635   1.046  1.00  0.00    -0.296 N 
ATOM      7  H2  UNL     1       0.396  -0.522   1.919  1.00  0.00     0.183 HD
BRANCH   6   8
HETATM    8  C4  UNL     1       1.927  -1.573   0.900  1.00  0.00     0.187 C 
BRANCH   8   9
HETATM    9  N3  UNL     1       3.165  -1.295   0.690  1.00  0.00    -0.395 N 
ATOM     10  H32 UNL     1       3.403  -0.305   0.628  1.00  0.00     0.156 HD
ATOM     11  H31 UNL     1       3.910  -1.983   0.583  1.00  0.00     0.156 HD
ENDBRANCH   8   9
ENDBRANCH   6   8
ENDBRANCH   1   6
BRANCH   1  12
HETATM   12  N4  UNL     1       0.870   1.506   0.162  1.00  0.00    -0.178 N 
HETATM   13  C5  UNL     1       1.975   2.251   0.456  1.00  0.00     0.242 A 
HETATM   14  N5  UNL     1       1.234   3.372   0.494  1.00  0.00    -0.277 N 
HETATM   15  N6  UNL     1       0.179   2.629   0.208  1.00  0.00    -0.222 N 
ATOM     16  H5  UNL     1       1.409   4.362   0.667  1.00  0.00     0.189 HD
ATOM     17  H6  UNL     1      -0.809   2.845   0.072  1.00  0.00     0.210 HD
ENDBRANCH   1  12
TORSDOF 7
