REMARK  4 active torsions:
REMARK  status: ('A' for Active; 'I' for Inactive)
REMARK    1  A    between atoms: O1_2  and  C2_3 
REMARK    2  A    between atoms: C6_8  and  O3_9 
REMARK    3  A    between atoms: C7_11  and  O4_12 
REMARK    4  A    between atoms: C7_11  and  O5_14 
ROOT
HETATM    1  C2  UNL     1       0.608   0.066  -0.045  1.00  0.00     0.136 C 
HETATM    2  C3  UNL     1       0.393   1.459   0.565  1.00  0.00     0.054 C 
HETATM    3  C4  UNL     1       0.350   0.166  -1.495  1.00  0.00     0.211 C 
HETATM    4  O2  UNL     1      -0.739  -0.627  -1.919  1.00  0.00    -0.385 OA
HETATM    5  C5  UNL     1      -1.923  -0.150  -1.312  1.00  0.00     0.205 C 
HETATM    6  C6  UNL     1      -1.829  -0.526   0.138  1.00  0.00     0.207 C 
HETATM    7  C7  UNL     1      -0.450  -0.819   0.588  1.00  0.00     0.222 C 
ENDROOT
BRANCH   7   8
HETATM    8  O4  UNL     1      -0.117  -2.144   0.261  1.00  0.00    -0.361 OA
ATOM      9  H4  UNL     1      -0.779  -2.698   0.657  1.00  0.00     0.213 HD
ENDBRANCH   7   8
BRANCH   7  10
HETATM   10  O5  UNL     1      -0.329  -0.716   1.976  1.00  0.00    -0.361 OA
ATOM     11  H5  UNL     1      -0.991  -1.270   2.372  1.00  0.00     0.213 HD
ENDBRANCH   7  10
BRANCH   1  12
HETATM   12  O1  UNL     1       1.794  -0.366   0.395  1.00  0.00    -0.378 OA
HETATM   13  C1  UNL     1       2.941   0.264   0.163  1.00  0.00     0.202 C 
ENDBRANCH   1  12
BRANCH   6  14
HETATM   14  O3  UNL     1      -2.498   0.421   0.909  1.00  0.00    -0.388 OA
ATOM     15  H3  UNL     1      -2.439   0.183   1.827  1.00  0.00     0.210 HD
ENDBRANCH   6  14
TORSDOF 4
