REMARK  6 active torsions:
REMARK  status: ('A' for Active; 'I' for Inactive)
REMARK    1  A    between atoms: C4_5  and  O2_6 
REMARK    2  A    between atoms: O2_6  and  C5_7 
REMARK    3  A    between atoms: C5_7  and  O3_8 
REMARK    4  A    between atoms: C5_7  and  C6_10 
REMARK    5  A    between atoms: C6_10  and  O4_11 
REMARK    6  A    between atoms: C7_13  and  O5_14 
ROOT
HETATM    1  C1  UNL     1      -3.543   0.006  -0.950  1.00  0.00     0.042 C 
HETATM    2  C2  UNL     1      -2.248  -0.462  -0.394  1.00  0.00     0.148 C 
HETATM    3  O1  UNL     1      -2.262  -0.780   0.938  1.00  0.00    -0.381 OA
HETATM    4  C3  UNL     1      -0.986  -0.669   1.443  1.00  0.00     0.203 C 
HETATM    5  C4  UNL     1      -0.095  -0.162   0.326  1.00  0.00     0.179 C 
HETATM    6  C7  UNL     1      -1.154   0.613  -0.470  1.00  0.00     0.177 C 
ENDROOT
BRANCH   5   7
HETATM    7  O2  UNL     1       0.909   0.646   0.735  1.00  0.00    -0.349 OA
BRANCH   7   8
HETATM    8  C5  UNL     1       2.164   0.295   0.298  1.00  0.00     0.280 C 
BRANCH   8   9
HETATM    9  O3  UNL     1       2.735   1.242  -0.549  1.00  0.00    -0.369 OA
ATOM     10  H3  UNL     1       3.602   0.999  -0.851  1.00  0.00     0.212 HD
ENDBRANCH   8   9
BRANCH   8  11
HETATM   11  C6  UNL     1       3.118  -0.061   1.402  1.00  0.00     0.224 C 
BRANCH  11  12
HETATM   12  O4  UNL     1       4.342  -0.391   0.789  1.00  0.00    -0.396 OA
ATOM     13  H4  UNL     1       4.945  -0.616   1.487  1.00  0.00     0.209 HD
ENDBRANCH  11  12
ENDBRANCH   8  11
ENDBRANCH   7   8
ENDBRANCH   5   7
BRANCH   6  14
HETATM   14  O5  UNL     1      -0.762   0.871  -1.753  1.00  0.00    -0.390 OA
ATOM     15  H5  UNL     1      -0.085   1.536  -1.800  1.00  0.00     0.210 HD
ENDBRANCH   6  14
TORSDOF 6
