REMARK  5 active torsions:
REMARK  status: ('A' for Active; 'I' for Inactive)
REMARK    1  A    between atoms: C2_2  and  C3_3 
REMARK    2  A    between atoms: C3_3  and  O1_4 
REMARK    3  A    between atoms: C6_10  and  O4_11 
REMARK    4  A    between atoms: C6_10  and  C7_13 
REMARK    5  A    between atoms: C7_13  and  O5_14 
ROOT
HETATM    1  C1  UNL     1      -0.339   0.020  -1.707  1.00  0.00     0.052 C 
HETATM    2  C2  UNL     1      -0.542   0.352  -0.261  1.00  0.00     0.116 C 
HETATM    3  O2  UNL     1      -1.701  -0.300   0.165  1.00  0.00    -0.351 OA
HETATM    4  C4  UNL     1      -1.609  -1.674  -0.034  1.00  0.00     0.339 C 
HETATM    5  O3  UNL     1      -0.361  -2.185   0.292  1.00  0.00    -0.364 OA
HETATM    6  C5  UNL     1       0.324  -1.389   1.207  1.00  0.00     0.213 C 
HETATM    7  C6  UNL     1       0.607  -0.026   0.615  1.00  0.00     0.133 C 
ENDROOT
BRANCH   7   8
HETATM    8  O4  UNL     1       0.706   0.866   1.686  1.00  0.00    -0.382 OA
ATOM      9  H4  UNL     1       1.437   0.626   2.243  1.00  0.00     0.210 HD
ENDBRANCH   7   8
BRANCH   7  10
HETATM   10  C7  UNL     1       1.919  -0.016  -0.146  1.00  0.00     0.207 C 
BRANCH  10  11
HETATM   11  O5  UNL     1       2.960  -0.402   0.683  1.00  0.00    -0.398 OA
ATOM     12  H5  UNL     1       3.782  -0.396   0.206  1.00  0.00     0.209 HD
ENDBRANCH  10  11
ENDBRANCH   7  10
BRANCH   2  13
HETATM   13  C3  UNL     1      -0.792   1.841  -0.150  1.00  0.00     0.205 C 
BRANCH  13  14
HETATM   14  O1  UNL     1      -1.866   2.242  -0.941  1.00  0.00    -0.398 OA
ATOM     15  H1  UNL     1      -2.023   3.176  -0.871  1.00  0.00     0.209 HD
ENDBRANCH  13  14
ENDBRANCH   2  13
TORSDOF 5
