REMARK  5 active torsions:
REMARK  status: ('A' for Active; 'I' for Inactive)
REMARK    1  A    between atoms: C1_2  and  C2_3 
REMARK    2  A    between atoms: C2_3  and  O2_4 
REMARK    3  A    between atoms: C2_3  and  O3_6 
REMARK    4  A    between atoms: O3_6  and  C3_7 
REMARK    5  A    between atoms: C6_11  and  O5_12 
ROOT
HETATM    1  C3  UNL     1      -0.042  -0.429  -0.056  1.00  0.00     0.151 C 
HETATM    2  C4  UNL     1      -0.938  -1.594   0.278  1.00  0.00     0.199 C 
HETATM    3  O4  UNL     1      -2.067  -1.233   0.983  1.00  0.00    -0.386 OA
HETATM    4  C5  UNL     1      -2.969  -0.493   0.256  1.00  0.00     0.199 C 
HETATM    5  C6  UNL     1      -2.237   0.320  -0.786  1.00  0.00     0.144 C 
HETATM    6  C7  UNL     1      -0.947   0.806  -0.153  1.00  0.00     0.068 C 
ENDROOT
BRANCH   1   7
HETATM    7  O3  UNL     1       0.983  -0.241   0.836  1.00  0.00    -0.347 OA
BRANCH   7   8
HETATM    8  C2  UNL     1       2.214  -0.279   0.175  1.00  0.00     0.320 C 
BRANCH   8   9
HETATM    9  C1  UNL     1       2.878   1.057   0.416  1.00  0.00     0.291 C 
HETATM   10  O1  UNL     1       4.067   1.155  -0.060  1.00  0.00    -0.302 OA
ENDBRANCH   8   9
BRANCH   8  11
HETATM   11  O2  UNL     1       2.937  -1.324   0.751  1.00  0.00    -0.365 OA
ATOM     12  H2  UNL     1       2.520  -2.164   0.600  1.00  0.00     0.213 HD
ENDBRANCH   8  11
ENDBRANCH   7   8
ENDBRANCH   1   7
BRANCH   5  13
HETATM   13  O5  UNL     1      -3.011   1.375  -1.254  1.00  0.00    -0.393 OA
ATOM     14  H5  UNL     1      -2.551   1.886  -1.909  1.00  0.00     0.210 HD
ENDBRANCH   5  13
TORSDOF 5
