REMARK  5 active torsions:
REMARK  status: ('A' for Active; 'I' for Inactive)
REMARK    1  A    between atoms: C1_2  and  C2_3 
REMARK    2  A    between atoms: C2_3  and  O2_4 
REMARK    3  A    between atoms: C2_3  and  O3_6 
REMARK    4  A    between atoms: O3_6  and  C3_7 
REMARK    5  A    between atoms: C7_12  and  O5_13 
ROOT
HETATM    1  C3  UNL     1       0.649  -0.237   0.250  1.00  0.00     0.105 A 
HETATM    2  C4  UNL     1       1.428  -0.941  -0.536  1.00  0.00     0.039 A 
HETATM    3  C5  UNL     1       2.885  -0.722  -0.697  1.00  0.00     0.205 A 
HETATM    4  O4  UNL     1       3.323   0.326   0.092  1.00  0.00    -0.356 OA
HETATM    5  C6  UNL     1       2.518   1.067   0.916  1.00  0.00     0.174 A 
HETATM    6  C7  UNL     1       1.219   0.841   1.034  1.00  0.00     0.121 A 
ENDROOT
BRANCH   1   7
HETATM    7  O3  UNL     1      -0.671  -0.488   0.351  1.00  0.00    -0.311 OA
BRANCH   7   8
HETATM    8  C2  UNL     1      -1.715   0.270  -0.251  1.00  0.00     0.326 C 
BRANCH   8   9
HETATM    9  C1  UNL     1      -3.046  -0.208   0.010  1.00  0.00     0.291 C 
HETATM   10  O1  UNL     1      -2.817  -1.218  -0.452  1.00  0.00    -0.302 OA
ENDBRANCH   8   9
BRANCH   8  11
HETATM   11  O2  UNL     1      -1.461   0.250  -1.648  1.00  0.00    -0.365 OA
ATOM     12  H2  UNL     1      -0.582   0.566  -1.820  1.00  0.00     0.213 HD
ENDBRANCH   8  11
ENDBRANCH   7   8
ENDBRANCH   1   7
BRANCH   6  13
HETATM   13  O5  UNL     1       0.424   1.620   1.887  1.00  0.00    -0.356 OA
ATOM     14  H5  UNL     1       0.798   2.326   2.401  1.00  0.00     0.218 HD
ENDBRANCH   6  13
TORSDOF 5
