REMARK  6 active torsions:
REMARK  status: ('A' for Active; 'I' for Inactive)
REMARK    1  A    between atoms: C2_2  and  C3_3 
REMARK    2  A    between atoms: C3_3  and  O1_4 
REMARK    3  A    between atoms: O1_4  and  C4_5 
REMARK    4  A    between atoms: C4_5  and  O2_6 
REMARK    5  A    between atoms: C6_10  and  O4_11 
REMARK    6  A    between atoms: C7_13  and  O5_14 
ROOT
HETATM    1  C1  UNL     1       0.219  -0.701   1.770  1.00  0.00     0.051 C 
HETATM    2  C2  UNL     1      -0.080  -0.296   0.331  1.00  0.00     0.107 C 
HETATM    3  O3  UNL     1       0.166   1.031   0.150  1.00  0.00    -0.373 OA
HETATM    4  C5  UNL     1      -0.868   1.554  -0.625  1.00  0.00     0.203 C 
HETATM    5  C6  UNL     1      -2.064   0.926   0.105  1.00  0.00     0.173 C 
HETATM    6  C7  UNL     1      -1.579  -0.508   0.165  1.00  0.00     0.185 C 
ENDROOT
BRANCH   2   7
HETATM    7  C3  UNL     1       0.726  -1.168  -0.547  1.00  0.00     0.210 C 
BRANCH   7   8
HETATM    8  O1  UNL     1       2.050  -1.084  -0.352  1.00  0.00    -0.364 OA
BRANCH   8   9
HETATM    9  C4  UNL     1       2.743   0.057  -0.518  1.00  0.00     0.334 C 
BRANCH   9  10
HETATM   10  O2  UNL     1       4.112  -0.222  -0.243  1.00  0.00    -0.377 OA
ATOM     11  H2  UNL     1       4.601   0.584  -0.360  1.00  0.00     0.212 HD
ENDBRANCH   9  10
ENDBRANCH   8   9
ENDBRANCH   7   8
ENDBRANCH   2   7
BRANCH   6  12
HETATM   12  O5  UNL     1      -1.867  -1.164  -1.031  1.00  0.00    -0.390 OA
ATOM     13  H5  UNL     1      -2.802  -1.296  -1.135  1.00  0.00     0.210 HD
ENDBRANCH   6  12
BRANCH   5  14
HETATM   14  O4  UNL     1      -3.233   1.064  -0.618  1.00  0.00    -0.391 OA
ATOM     15  H4  UNL     1      -3.973   0.675  -0.166  1.00  0.00     0.210 HD
ENDBRANCH   5  14
TORSDOF 6
