REMARK  13 active torsions:
REMARK  status: ('A' for Active; 'I' for Inactive)
REMARK    1  A    between atoms: C2_2  and  O1_3 
REMARK    2  A    between atoms: C2_2  and  C3_5 
REMARK    3  A    between atoms: C5_10  and  O2_11 
REMARK    4  A    between atoms: C5_10  and  C6_13 
REMARK    5  A    between atoms: C6_13  and  C7_14 
REMARK    6  A    between atoms: C7_14  and  O3_15 
REMARK    7  A    between atoms: C7_14  and  C8_17 
REMARK       I    between atoms: C8_17  and  N2_19 
REMARK    8  A    between atoms: N2_19  and  C9_21 
REMARK    9  A    between atoms: C9_21  and  C10_22 
REMARK   10  A    between atoms: C11_25  and  C12_26 
REMARK   11  A    between atoms: C12_26  and  O6_31 
REMARK   12  A    between atoms: N4_27  and  O5_29 
REMARK   13  A    between atoms: O6_31  and  C13_32 
ROOT
HETATM    1  C8  UNL     1      -0.164   0.516   0.375  1.00  0.00     0.247 C 
HETATM    2  O4  UNL     1      -0.453  -0.598   0.859  1.00  0.00    -0.271 OA
HETATM    3  N2  UNL     1       1.231   0.737   0.091  1.00  0.00    -0.351 N 
ATOM      4  H2  UNL     1       1.516   1.633  -0.306  1.00  0.00     0.163 HD
ENDROOT
BRANCH   1   5
HETATM    5  C7  UNL     1      -1.202   1.518   0.122  1.00  0.00     0.216 C 
BRANCH   5   6
HETATM    6  C6  UNL     1      -2.119   1.276  -1.019  1.00  0.00     0.135 C 
BRANCH   6   7
HETATM    7  C5  UNL     1      -3.020   0.077  -0.934  1.00  0.00     0.317 C 
HETATM    8  N1  UNL     1      -3.825   0.207   0.230  1.00  0.00     0.004 N 
HETATM    9  C3  UNL     1      -4.950  -0.662   0.199  1.00  0.00     0.272 C 
ATOM     10  H12 UNL     1      -4.109   1.175   0.377  1.00  0.00     0.285 HD
ATOM     11  H11 UNL     1      -3.275   0.070   1.078  1.00  0.00     0.285 HD
HETATM   12  C4  UNL     1      -4.625  -2.080   0.620  1.00  0.00     0.069 C 
HETATM   13  S1  UNL     1      -5.303  -0.725  -1.541  1.00  0.00     0.268 S 
HETATM   14  N8  UNL     1      -3.963   0.271  -2.080  1.00  0.00    -0.260 N 
HETATM   15  O8  UNL     1      -5.162  -2.115  -2.097  1.00  0.00    -0.203 OA
HETATM   16  O9  UNL     1      -6.603  -0.106  -1.901  1.00  0.00    -0.203 OA
ATOM     17  H8  UNL     1      -3.857   0.824  -2.931  1.00  0.00     0.177 HD
BRANCH   9  18
HETATM   18  C2  UNL     1      -6.104  -0.133   1.016  1.00  0.00     0.167 C 
HETATM   19  C1  UNL     1      -6.554   1.237   0.665  1.00  0.00     0.043 C 
BRANCH  18  20
HETATM   20  O1  UNL     1      -7.169  -1.018   0.945  1.00  0.00    -0.392 OA
ATOM     21  H1  UNL     1      -6.881  -1.895   1.170  1.00  0.00     0.210 HD
ENDBRANCH  18  20
ENDBRANCH   9  18
BRANCH   7  22
HETATM   22  O2  UNL     1      -2.335  -1.093  -1.094  1.00  0.00    -0.348 OA
ATOM     23  H2  UNL     1      -1.797  -1.180  -1.872  1.00  0.00     0.214 HD
ENDBRANCH   7  22
ENDBRANCH   6   7
ENDBRANCH   5   6
BRANCH   5  24
HETATM   24  O3  UNL     1      -0.486   2.711  -0.231  1.00  0.00    -0.386 OA
ATOM     25  H3  UNL     1       0.101   2.866   0.500  1.00  0.00     0.210 HD
ENDBRANCH   5  24
ENDBRANCH   1   5
BRANCH   3  26
HETATM   26  C9  UNL     1       2.242  -0.263   0.347  1.00  0.00     0.209 C 
BRANCH  26  27
HETATM   27  C10 UNL     1       3.549   0.284  -0.055  1.00  0.00     0.166 A 
HETATM   28  N3  UNL     1       4.710  -0.404   0.057  1.00  0.00    -0.318 N 
HETATM   29  C11 UNL     1       5.717   0.364  -0.391  1.00  0.00     0.181 A 
ATOM     30  H3  UNL     1       4.805  -1.352   0.422  1.00  0.00     0.169 HD
HETATM   31  N7  UNL     1       5.142   1.515  -0.769  1.00  0.00    -0.239 N 
HETATM   32  O7  UNL     1       3.860   1.446  -0.561  1.00  0.00    -0.221 OA
ATOM     33  H7  UNL     1       5.633   2.319  -1.159  1.00  0.00     0.196 HD
BRANCH  29  34
HETATM   34  C12 UNL     1       7.132   0.020  -0.452  1.00  0.00     0.216 C 
HETATM   35  N4  UNL     1       7.994   0.863  -0.909  1.00  0.00    -0.244 N 
ATOM     36  H4  UNL     1       8.983   0.616  -0.949  1.00  0.00     0.196 HD
BRANCH  35  37
HETATM   37  O5  UNL     1       7.574   2.082  -1.336  1.00  0.00    -0.288 OA
ATOM     38  H5  UNL     1       8.209   2.703  -1.673  1.00  0.00     0.244 HD
ENDBRANCH  35  37
BRANCH  34  39
HETATM   39  O6  UNL     1       7.622  -1.204  -0.033  1.00  0.00    -0.259 OA
BRANCH  39  40
HETATM   40  C13 UNL     1       8.995  -1.495  -0.052  1.00  0.00     0.231 C 
HETATM   41  N5  UNL     1       9.734  -0.668  -0.714  1.00  0.00    -0.367 N 
ATOM     42  H52 UNL     1       9.339   0.143  -1.190  1.00  0.00     0.159 HD
ATOM     43  H51 UNL     1      10.732  -0.879  -0.728  1.00  0.00     0.159 HD
HETATM   44  N6  UNL     1       9.542  -2.619   0.608  1.00  0.00    -0.056 NA
ENDBRANCH  39  40
ENDBRANCH  34  39
ENDBRANCH  29  34
ENDBRANCH  26  27
ENDBRANCH   3  26
TORSDOF 13
