REMARK  11 active torsions:
REMARK  status: ('A' for Active; 'I' for Inactive)
REMARK    1  A    between atoms: C1_4  and  C2_6 
REMARK    2  A    between atoms: C4_8  and  C5_9 
REMARK    3  A    between atoms: C6_10  and  C7_11 
REMARK    4  A    between atoms: C7_11  and  O1_12 
REMARK       I    between atoms: N3_14  and  C8_15 
REMARK    5  A    between atoms: C8_15  and  C9_17 
REMARK    6  A    between atoms: C9_17  and  O3_18 
REMARK    7  A    between atoms: C9_17  and  N4_20 
REMARK    8  A    between atoms: N4_20  and  O4_21 
REMARK    9  A    between atoms: O4_21  and  C10_22 
REMARK       I    between atoms: C10_22  and  N5_24 
REMARK   10  A    between atoms: N5_24  and  C11_26 
REMARK   11  A    between atoms: C13_33  and  N9_34 
ROOT
HETATM    1  C5  UNL     1      -3.862  -0.559  -0.165  1.00  0.00     0.122 C 
HETATM    2  C6  UNL     1      -2.940   0.123  -0.803  1.00  0.00     0.074 C 
HETATM    3  N3  UNL     1      -1.609  -0.377  -0.946  1.00  0.00    -0.311 N 
HETATM    4  C8  UNL     1      -0.492   0.365  -1.280  1.00  0.00     0.271 C 
HETATM    5  O2  UNL     1      -0.561   1.597  -1.517  1.00  0.00    -0.268 OA
HETATM    6  C14 UNL     1      -1.507  -1.828  -0.716  1.00  0.00     0.159 C 
HETATM    7  C15 UNL     1      -2.195  -2.111   0.625  1.00  0.00     0.196 C 
HETATM    8  O6  UNL     1      -3.547  -1.780   0.423  1.00  0.00    -0.345 OA
ENDROOT
BRANCH   4   9
HETATM    9  C9  UNL     1       0.884  -0.201  -1.394  1.00  0.00     0.332 C 
BRANCH   9  10
HETATM   10  O3  UNL     1       1.739   0.765  -1.911  1.00  0.00    -0.369 OA
ATOM     11  H3  UNL     1       2.615   0.405  -1.984  1.00  0.00     0.212 HD
ENDBRANCH   9  10
BRANCH   9  12
HETATM   12  N4  UNL     1       1.384  -0.665  -0.112  1.00  0.00    -0.048 NA
BRANCH  12  13
HETATM   13  O4  UNL     1       2.634  -1.179  -0.197  1.00  0.00    -0.186 OA
BRANCH  13  14
HETATM   14  C10 UNL     1       3.738  -0.394   0.147  1.00  0.00     0.380 C 
HETATM   15  O5  UNL     1       3.493   0.780   0.529  1.00  0.00    -0.237 OA
HETATM   16  N5  UNL     1       5.061  -0.857   0.081  1.00  0.00    -0.311 N 
ATOM     17  H5  UNL     1       5.257  -1.809  -0.229  1.00  0.00     0.167 HD
BRANCH  16  18
HETATM   18  C11 UNL     1       6.143   0.024   0.456  1.00  0.00     0.238 C 
HETATM   19  N6  UNL     1       7.008   0.212  -0.715  1.00  0.00    -0.340 N 
HETATM   20  C12 UNL     1       8.349   0.282  -0.235  1.00  0.00     0.187 C 
ATOM     21  H6  UNL     1       6.707   0.280  -1.687  1.00  0.00     0.164 HD
HETATM   22  N7  UNL     1       9.407   0.806  -1.048  1.00  0.00    -0.064 NA
HETATM   23  N8  UNL     1       8.388  -0.176   0.948  1.00  0.00    -0.334 N 
HETATM   24  C13 UNL     1       7.106  -0.615   1.436  1.00  0.00     0.326 C 
ATOM     25  H8  UNL     1       9.244  -0.228   1.500  1.00  0.00     0.164 HD
BRANCH  24  26
HETATM   26  N9  UNL     1       6.793  -0.127   2.758  1.00  0.00    -0.054 N 
ATOM     27  H93 UNL     1       6.795   0.892   2.812  1.00  0.00     0.276 HD
ATOM     28  H92 UNL     1       5.816  -0.277   3.012  1.00  0.00     0.276 HD
ATOM     29  H91 UNL     1       7.441  -0.557   3.418  1.00  0.00     0.276 HD
ENDBRANCH  24  26
ENDBRANCH  16  18
ENDBRANCH  13  14
ENDBRANCH  12  13
ENDBRANCH   9  12
ENDBRANCH   4   9
BRANCH   2  30
HETATM   30  C7  UNL     1      -3.280   1.405  -1.410  1.00  0.00     0.224 C 
BRANCH  30  31
HETATM   31  O1  UNL     1      -3.097   1.493  -2.767  1.00  0.00    -0.395 OA
ATOM     32  H1  UNL     1      -3.318   2.328  -3.162  1.00  0.00     0.209 HD
ENDBRANCH  30  31
ENDBRANCH   2  30
BRANCH   1  33
HETATM   33  C4  UNL     1      -5.245  -0.144  -0.005  1.00  0.00     0.093 A 
HETATM   34  C3  UNL     1      -6.002  -0.112   1.155  1.00  0.00     0.077 A 
HETATM   35  C2  UNL     1      -7.269   0.291   0.809  1.00  0.00     0.141 A 
HETATM   36  O7  UNL     1      -7.264   0.487  -0.487  1.00  0.00    -0.234 OA
HETATM   37  N10 UNL     1      -6.091   0.237  -0.977  1.00  0.00    -0.258 N 
ATOM     38  H10 UNL     1      -5.844   0.318  -1.963  1.00  0.00     0.195 HD
BRANCH  35  39
HETATM   39  C1  UNL     1      -8.436   0.482   1.668  1.00  0.00     0.146 C 
HETATM   40  N1  UNL     1      -8.327   0.264   2.925  1.00  0.00    -0.385 N 
ATOM     41  H12 UNL     1      -9.141   0.397   3.524  1.00  0.00     0.157 HD
ATOM     42  H11 UNL     1      -7.433  -0.039   3.311  1.00  0.00     0.157 HD
HETATM   43  N2  UNL     1      -9.680   0.904   1.131  1.00  0.00    -0.080 NA
ENDBRANCH  35  39
ENDBRANCH   1  33
TORSDOF 11
