REMARK  11 active torsions:
REMARK  status: ('A' for Active; 'I' for Inactive)
REMARK    1  A    between atoms: N1_1  and  C1_5 
REMARK    2  A    between atoms: C1_5  and  C2_6 
REMARK    3  A    between atoms: C2_6  and  N2_7 
REMARK    4  A    between atoms: N2_7  and  C3_9 
REMARK    5  A    between atoms: C4_12  and  N4_13 
REMARK    6  A    between atoms: N4_13  and  N5_15 
REMARK       I    between atoms: N5_15  and  C5_17 
REMARK    7  A    between atoms: C8_22  and  O1_23 
REMARK    8  A    between atoms: C9_25  and  C10_26 
REMARK    9  A    between atoms: C10_26  and  N8_27 
REMARK   10  A    between atoms: N8_27  and  O2_29 
REMARK   11  A    between atoms: C11_31  and  C12_32 
REMARK       I    between atoms: N11_39  and  C14_41 
REMARK       I    between atoms: C14_41  and  N12_42 
REMARK       I    between atoms: C14_41  and  N13_46 
ROOT
HETATM    1  C3  UNL     1      -1.151   1.627  -0.819  1.00  0.00     0.226 A 
HETATM    2  N3  UNL     1      -2.202   0.961  -0.392  1.00  0.00    -0.306 N 
ATOM      3  H3  UNL     1      -3.070   1.483  -0.269  1.00  0.00     0.171 HD
HETATM    4  C4  UNL     1      -2.226  -0.389  -0.096  1.00  0.00     0.136 A 
HETATM    5  C6  UNL     1      -1.012  -1.030  -0.287  1.00  0.00     0.047 A 
HETATM    6  C7  UNL     1      -0.887  -2.377  -0.032  1.00  0.00     0.055 A 
HETATM    7  C8  UNL     1       0.341  -2.965  -0.238  1.00  0.00     0.079 A 
HETATM    8  C9  UNL     1       1.427  -2.219  -0.691  1.00  0.00     0.030 A 
HETATM    9  C11 UNL     1       1.313  -0.874  -0.948  1.00  0.00     0.046 A 
HETATM   10  C15 UNL     1       0.068  -0.280  -0.739  1.00  0.00     0.107 A 
HETATM   11  O4  UNL     1      -0.014   1.009  -0.993  1.00  0.00    -0.278 OA
ENDROOT
BRANCH   9  12
HETATM   12  C12 UNL     1       2.456  -0.106  -1.422  1.00  0.00     0.116 A 
HETATM   13  N9  UNL     1       2.746   0.054  -2.720  1.00  0.00    -0.237 N 
HETATM   14  O3  UNL     1       3.823   0.788  -2.804  1.00  0.00    -0.155 OA
ATOM     15  H9  UNL     1       2.219  -0.330  -3.504  1.00  0.00     0.197 HD
HETATM   16  N10 UNL     1       4.237   1.106  -1.615  1.00  0.00    -0.223 N 
HETATM   17  C13 UNL     1       3.417   0.573  -0.697  1.00  0.00     0.156 A 
ATOM     18  H10 UNL     1       5.059   1.674  -1.411  1.00  0.00     0.198 HD
HETATM   19  N11 UNL     1       3.418   0.611   0.585  1.00  0.00    -0.324 N 
HETATM   20  C14 UNL     1       4.453   1.339   1.271  1.00  0.00     0.481 C 
ATOM     21  H11 UNL     1       2.691   0.129   1.114  1.00  0.00     0.165 HD
HETATM   22  N12 UNL     1       4.485   2.728   0.912  1.00  0.00    -0.033 N 
HETATM   23  N13 UNL     1       5.758   0.765   0.938  1.00  0.00    -0.033 N 
ATOM     24 3H12 UNL     1       4.565   2.843  -0.098  1.00  0.00     0.278 HD
ATOM     25 2H12 UNL     1       3.574   3.164   1.056  1.00  0.00     0.278 HD
ATOM     26 1H12 UNL     1       5.218   3.244   1.398  1.00  0.00     0.278 HD
ATOM     27 3H13 UNL     1       5.799  -0.236   1.130  1.00  0.00     0.278 HD
ATOM     28 2H13 UNL     1       5.916   0.727  -0.069  1.00  0.00     0.278 HD
ATOM     29 1H13 UNL     1       6.491   1.281   1.424  1.00  0.00     0.278 HD
ENDBRANCH   9  12
BRANCH   8  30
HETATM   30  C10 UNL     1       2.687  -2.876  -0.891  1.00  0.00     0.129 C 
BRANCH  30  31
HETATM   31  N8  UNL     1       2.829  -4.131  -0.660  1.00  0.00    -0.280 N 
ATOM     32  H8  UNL     1       2.024  -4.663  -0.329  1.00  0.00     0.193 HD
BRANCH  31  33
HETATM   33  O2  UNL     1       4.009  -4.777  -0.840  1.00  0.00    -0.290 OA
ATOM     34  H2  UNL     1       4.114  -5.706  -0.669  1.00  0.00     0.244 HD
ENDBRANCH  31  33
ENDBRANCH  30  31
ENDBRANCH   8  30
BRANCH   7  35
HETATM   35  O1  UNL     1       0.482  -4.313   0.013  1.00  0.00    -0.360 OA
ATOM     36  H1  UNL     1       1.329  -4.719  -0.129  1.00  0.00     0.217 HD
ENDBRANCH   7  35
BRANCH   4  37
HETATM   37  N4  UNL     1      -3.288  -0.901   0.301  1.00  0.00    -0.283 N 
ATOM     38  H4  UNL     1      -3.997  -0.169   0.336  1.00  0.00     0.188 HD
BRANCH  37  39
HETATM   39  N5  UNL     1      -3.846  -2.027   0.693  1.00  0.00    -0.274 N 
HETATM   40  C5  UNL     1      -4.845  -2.580   0.057  1.00  0.00     0.215 C 
HETATM   41  N6  UNL     1      -5.355  -3.789   0.581  1.00  0.00    -0.065 NA
HETATM   42  N7  UNL     1      -5.391  -1.999  -1.099  1.00  0.00    -0.065 NA
ATOM     43  H5  UNL     1      -3.484  -2.487   1.528  1.00  0.00     0.189 HD
ENDBRANCH  37  39
ENDBRANCH   4  37
BRANCH   1  44
HETATM   44  N2  UNL     1      -1.286   2.893  -1.054  1.00  0.00    -0.354 N 
ATOM     45  H2  UNL     1      -0.463   3.397  -1.385  1.00  0.00     0.163 HD
BRANCH  44  46
HETATM   46  C2  UNL     1      -2.490   3.642  -0.889  1.00  0.00     0.150 C 
BRANCH  46  47
HETATM   47  C1  UNL     1      -2.707   4.100   0.538  1.00  0.00     0.249 C 
BRANCH  47  48
HETATM   48  N1  UNL     1      -3.950   4.846   0.588  1.00  0.00    -0.078 N 
ATOM     49  H13 UNL     1      -3.975   5.616  -0.081  1.00  0.00     0.274 HD
ATOM     50  H12 UNL     1      -4.741   4.318   0.219  1.00  0.00     0.274 HD
ATOM     51  H11 UNL     1      -4.096   5.154   1.549  1.00  0.00     0.274 HD
ENDBRANCH  47  48
ENDBRANCH  46  47
ENDBRANCH  44  46
ENDBRANCH   1  44
TORSDOF 11
