REMARK  15 active torsions:
REMARK  status: ('A' for Active; 'I' for Inactive)
REMARK    1  A    between atoms: O1_2  and  C2_3 
REMARK    2  A    between atoms: C2_3  and  O3_5 
REMARK    3  A    between atoms: O3_5  and  C3_6 
REMARK    4  A    between atoms: C4_7  and  O4_8 
REMARK    5  A    between atoms: C5_12  and  O5_13 
REMARK    6  A    between atoms: O5_13  and  C6_14 
REMARK    7  A    between atoms: C6_14  and  C7_16 
REMARK    8  A    between atoms: C7_16  and  C8_17 
REMARK    9  A    between atoms: C8_17  and  O7_18 
REMARK   10  A    between atoms: C8_17  and  O8_20 
REMARK   11  A    between atoms: O8_20  and  C9_21 
REMARK   12  A    between atoms: C12_27  and  O9_28 
REMARK   13  A    between atoms: C13_30  and  O10_31 
REMARK   14  A    between atoms: C15_34  and  O11_35 
REMARK   15  A    between atoms: C15_34  and  C16_37 
ROOT
HETATM    1  O5  UNL     1       0.499  -1.263  -0.772  1.00  0.00    -0.295 OA
ENDROOT
BRANCH   1   2
HETATM    2  C5  UNL     1       1.873  -1.011  -0.705  1.00  0.00     0.231 C 
HETATM    3  N1  UNL     1       2.565  -1.536  -1.844  1.00  0.00    -0.369 N 
HETATM    4  C4  UNL     1       3.965  -1.275  -1.886  1.00  0.00     0.248 C 
ATOM      5  H1  UNL     1       2.087  -2.062  -2.576  1.00  0.00     0.158 HD
HETATM    6  C3  UNL     1       4.426  -0.736  -0.550  1.00  0.00     0.227 C 
HETATM    7  C15 UNL     1       3.918  -1.729   0.506  1.00  0.00     0.180 C 
HETATM    8  C14 UNL     1       2.419  -1.547   0.600  1.00  0.00     0.106 C 
BRANCH   4   9
HETATM    9  O4  UNL     1       4.301  -0.405  -2.923  1.00  0.00    -0.374 OA
ATOM     10  H4  UNL     1       4.011  -0.744  -3.762  1.00  0.00     0.212 HD
ENDBRANCH   4   9
BRANCH   6  11
HETATM   11  O3  UNL     1       5.830  -0.640  -0.489  1.00  0.00    -0.285 OA
BRANCH  11  12
HETATM   12  C2  UNL     1       6.436   0.567  -0.178  1.00  0.00     0.406 C 
HETATM   13  O2  UNL     1       5.784   1.618   0.061  1.00  0.00    -0.229 OA
BRANCH  12  14
HETATM   14  O1  UNL     1       7.833   0.683  -0.111  1.00  0.00    -0.303 OA
HETATM   15  C1  UNL     1       8.429   1.939   0.212  1.00  0.00     0.215 C 
ENDBRANCH  12  14
ENDBRANCH  11  12
ENDBRANCH   6  11
BRANCH   7  16
HETATM   16  O11 UNL     1       4.154  -2.997  -0.033  1.00  0.00    -0.376 OA
ATOM     17  H11 UNL     1       3.840  -3.611   0.620  1.00  0.00     0.211 HD
ENDBRANCH   7  16
BRANCH   7  18
HETATM   18  C16 UNL     1       4.607  -1.569   1.789  1.00  0.00     0.212 C 
HETATM   19  O12 UNL     1       5.294  -2.520   2.244  1.00  0.00    -0.646 OA
HETATM   20  O13 UNL     1       4.504  -0.384   2.493  1.00  0.00    -0.646 OA
ENDBRANCH   7  18
ENDBRANCH   1   2
BRANCH   1  21
HETATM   21  C6  UNL     1      -0.485  -0.320  -0.810  1.00  0.00     0.265 C 
HETATM   22  O6  UNL     1      -0.164   0.896  -0.784  1.00  0.00    -0.265 OA
BRANCH  21  23
HETATM   23  C7  UNL     1      -1.937  -0.630  -0.880  1.00  0.00     0.171 C 
BRANCH  23  24
HETATM   24  C8  UNL     1      -2.793   0.591  -0.910  1.00  0.00     0.266 C 
BRANCH  24  25
HETATM   25  O7  UNL     1      -2.544   1.420  -1.988  1.00  0.00    -0.371 OA
ATOM     26  H7  UNL     1      -3.089   2.198  -2.007  1.00  0.00     0.212 HD
ENDBRANCH  24  25
BRANCH  24  27
HETATM   27  O8  UNL     1      -4.122   0.195  -0.822  1.00  0.00    -0.351 OA
BRANCH  27  28
HETATM   28  C9  UNL     1      -4.757   0.661   0.314  1.00  0.00     0.181 C 
HETATM   29  C10 UNL     1      -5.188  -0.544   1.125  1.00  0.00     0.266 C 
HETATM   30  N2  UNL     1      -6.582  -0.854   0.955  1.00  0.00    -0.070 N 
HETATM   31  C11 UNL     1      -7.338   0.170   1.674  1.00  0.00     0.266 C 
ATOM     32  H22 UNL     1      -6.857  -0.942  -0.023  1.00  0.00     0.277 HD
ATOM     33  H21 UNL     1      -6.819  -1.803   1.243  1.00  0.00     0.277 HD
HETATM   34  C12 UNL     1      -6.955   1.516   1.155  1.00  0.00     0.175 C 
HETATM   35  C13 UNL     1      -6.002   1.449  -0.019  1.00  0.00     0.179 C 
BRANCH  34  36
HETATM   36  O9  UNL     1      -6.479   2.376   2.153  1.00  0.00    -0.391 OA
ATOM     37  H9  UNL     1      -6.235   3.233   1.823  1.00  0.00     0.210 HD
ENDBRANCH  34  36
BRANCH  35  38
HETATM   38  O10 UNL     1      -5.683   2.786  -0.339  1.00  0.00    -0.390 OA
ATOM     39  H10 UNL     1      -6.466   3.282  -0.548  1.00  0.00     0.210 HD
ENDBRANCH  35  38
ENDBRANCH  27  28
ENDBRANCH  24  27
ENDBRANCH  23  24
ENDBRANCH  21  23
ENDBRANCH   1  21
TORSDOF 15
