REMARK  8 active torsions:
REMARK  status: ('A' for Active; 'I' for Inactive)
REMARK    1  A    between atoms: N1_2  and  C2_4 
REMARK    2  A    between atoms: C2_4  and  C8_13 
REMARK       I    between atoms: N2_5  and  C3_7 
REMARK    3  A    between atoms: C3_7  and  C4_9 
REMARK    4  A    between atoms: C8_13  and  N3_15 
REMARK       I    between atoms: N3_15  and  C10_17 
REMARK    5  A    between atoms: C10_17  and  C11_19 
REMARK    6  A    between atoms: C13_21  and  O3_22 
REMARK    7  A    between atoms: C14_24  and  O4_25 
REMARK    8  A    between atoms: C15_27  and  O5_28 
ROOT
HETATM    1  N3  UNL     1      -1.060  -1.095   1.003  1.00  0.00    -0.350 N 
ATOM      2  H3  UNL     1      -0.944  -0.523   1.840  1.00  0.00     0.163 HD
HETATM    3  C10 UNL     1      -2.184  -0.914   0.174  1.00  0.00     0.225 C 
HETATM    4  O2  UNL     1      -2.315  -1.621  -0.848  1.00  0.00    -0.273 OA
ENDROOT
BRANCH   1   5
HETATM    5  C8  UNL     1      -0.064  -2.101   0.662  1.00  0.00     0.148 C 
HETATM    6  C9  UNL     1      -0.016  -3.069   1.837  1.00  0.00     0.040 C 
BRANCH   5   7
HETATM    7  C2  UNL     1       1.269  -1.465   0.547  1.00  0.00     0.102 C 
HETATM    8  N2  UNL     1       1.378  -0.183   0.653  1.00  0.00    -0.312 N 
HETATM    9  C3  UNL     1       2.641   0.457   0.548  1.00  0.00     0.246 C 
ATOM     10  H2  UNL     1       0.543   0.380   0.815  1.00  0.00     0.170 HD
HETATM   11  O1  UNL     1       3.269   0.645   1.618  1.00  0.00    -0.268 OA
BRANCH   7  12
HETATM   12  N1  UNL     1       2.429  -2.241   0.321  1.00  0.00    -0.382 N 
HETATM   13  C1  UNL     1       2.874  -2.639  -1.001  1.00  0.00     0.147 C 
ATOM     14  H1  UNL     1       2.980  -2.535   1.127  1.00  0.00     0.160 HD
ENDBRANCH   7  12
BRANCH   9  15
HETATM   15  C4  UNL     1       3.194   0.881  -0.727  1.00  0.00     0.076 C 
HETATM   16  C5  UNL     1       4.343   1.470  -0.889  1.00  0.00    -0.082 C 
HETATM   17  C6  UNL     1       5.247   1.790   0.233  1.00  0.00     0.043 C 
HETATM   18  C7  UNL     1       4.803   1.859  -2.260  1.00  0.00     0.043 C 
ENDBRANCH   9  15
ENDBRANCH   5   7
ENDBRANCH   1   5
BRANCH   3  19
HETATM   19  C11 UNL     1      -3.190   0.089   0.500  1.00  0.00     0.111 C 
HETATM   20  C12 UNL     1      -2.650   1.494   0.561  1.00  0.00     0.051 C 
HETATM   21  C13 UNL     1      -3.729   2.406   0.015  1.00  0.00     0.150 C 
HETATM   22  C14 UNL     1      -4.966   1.505  -0.079  1.00  0.00     0.176 C 
HETATM   23  C15 UNL     1      -4.297   0.193  -0.509  1.00  0.00     0.162 C 
BRANCH  21  24
HETATM   24  O3  UNL     1      -3.368   2.709  -1.301  1.00  0.00    -0.393 OA
ATOM     25  H3  UNL     1      -4.045   3.281  -1.643  1.00  0.00     0.210 HD
ENDBRANCH  21  24
BRANCH  22  26
HETATM   26  O4  UNL     1      -5.476   1.294   1.189  1.00  0.00    -0.390 OA
ATOM     27  H4  UNL     1      -6.242   0.736   1.131  1.00  0.00     0.210 HD
ENDBRANCH  22  26
BRANCH  23  28
HETATM   28  O5  UNL     1      -5.178  -0.866  -0.460  1.00  0.00    -0.392 OA
ATOM     29  H5  UNL     1      -5.878  -0.800  -1.098  1.00  0.00     0.210 HD
ENDBRANCH  23  28
ENDBRANCH   3  19
TORSDOF 8
