REMARK  6 active torsions:
REMARK  status: ('A' for Active; 'I' for Inactive)
REMARK    1  A    between atoms: S1_2  and  N1_5 
REMARK    2  A    between atoms: N1_5  and  C2_7 
REMARK    3  A    between atoms: C3_8  and  O3_9 
REMARK    4  A    between atoms: C6_13  and  N2_14 
REMARK       I    between atoms: N2_14  and  C7_16 
REMARK       I    between atoms: C7_16  and  N3_18 
REMARK    5  A    between atoms: N3_18  and  C8_20 
REMARK    6  A    between atoms: C13_25  and  O5_26 
ROOT
HETATM    1  N2  UNL     1      -0.481  -0.896  -0.533  1.00  0.00    -0.336 N 
ATOM      2  H2  UNL     1      -0.155  -1.804  -0.201  1.00  0.00     0.164 HD
HETATM    3  C7  UNL     1       0.428   0.186  -0.653  1.00  0.00     0.316 C 
HETATM    4  O4  UNL     1       0.002   1.286  -1.062  1.00  0.00    -0.247 OA
HETATM    5  N3  UNL     1       1.798   0.059  -0.325  1.00  0.00    -0.336 N 
ATOM      6  H3  UNL     1       2.164  -0.832   0.011  1.00  0.00     0.164 HD
ENDROOT
BRANCH   1   7
HETATM    7  C6  UNL     1      -1.855  -0.709  -0.879  1.00  0.00     0.112 C 
HETATM    8  C2  UNL     1      -2.812  -1.039   0.242  1.00  0.00     0.144 C 
HETATM    9  C3  UNL     1      -3.115  -2.510   0.102  1.00  0.00     0.143 C 
HETATM   10  C4  UNL     1      -2.673  -2.918  -1.273  1.00  0.00     0.036 C 
HETATM   11  C5  UNL     1      -2.258  -1.659  -1.962  1.00  0.00     0.030 C 
BRANCH   8  12
HETATM   12  N1  UNL     1      -3.998  -0.251   0.053  1.00  0.00    -0.310 N 
ATOM     13  H1  UNL     1      -4.575  -0.296  -0.787  1.00  0.00     0.172 HD
BRANCH  12  14
HETATM   14  S1  UNL     1      -4.346   0.777   1.390  1.00  0.00     0.223 S 
HETATM   15  C1  UNL     1      -3.051   1.935   1.656  1.00  0.00     0.185 C 
HETATM   16  O1  UNL     1      -4.599   0.002   2.644  1.00  0.00    -0.206 OA
HETATM   17  O2  UNL     1      -5.606   1.526   1.062  1.00  0.00    -0.206 OA
ENDBRANCH  12  14
ENDBRANCH   8  12
BRANCH   9  18
HETATM   18  O3  UNL     1      -2.413  -3.209   1.101  1.00  0.00    -0.393 OA
ATOM     19  H3  UNL     1      -2.604  -4.135   1.013  1.00  0.00     0.210 HD
ENDBRANCH   9  18
ENDBRANCH   1   7
BRANCH   5  20
HETATM   20  C8  UNL     1       2.663   1.181  -0.466  1.00  0.00     0.115 C 
HETATM   21  C9  UNL     1       3.830   0.891  -1.437  1.00  0.00     0.033 C 
HETATM   22  C10 UNL     1       4.867   1.708  -0.774  1.00  0.00    -0.006 A 
HETATM   23  C11 UNL     1       5.909   1.452   0.127  1.00  0.00     0.012 A 
HETATM   24  C12 UNL     1       4.686   0.965   0.614  1.00  0.00     0.021 A 
HETATM   25  C13 UNL     1       3.354   1.548   0.865  1.00  0.00     0.145 C 
BRANCH  25  26
HETATM   26  O5  UNL     1       2.712   0.827   1.876  1.00  0.00    -0.393 OA
ATOM     27  H5  UNL     1       3.137   1.053   2.695  1.00  0.00     0.210 HD
ENDBRANCH  25  26
ENDBRANCH   5  20
TORSDOF 6
