REMARK  5 active torsions:
REMARK  status: ('A' for Active; 'I' for Inactive)
REMARK    1  A    between atoms: C2_2  and  C4_4 
REMARK    2  A    between atoms: C4_4  and  C5_5 
REMARK    3  A    between atoms: C5_5  and  N1_6 
REMARK    4  A    between atoms: C5_5  and  C13_17 
REMARK       I    between atoms: N1_6  and  C6_8 
REMARK       I    between atoms: C6_8  and  N2_10 
REMARK       I    between atoms: C13_17  and  N3_19 
REMARK    5  A    between atoms: N3_19  and  N4_21 
REMARK       I    between atoms: N4_21  and  C14_23 
ROOT
HETATM    1  C5  UNL     1      -1.510   0.243  -0.215  1.00  0.00     0.180 C 
ENDROOT
BRANCH   1   2
HETATM    2  C4  UNL     1      -1.826   1.368   0.725  1.00  0.00     0.038 C 
BRANCH   2   3
HETATM    3  C2  UNL     1      -3.193   1.913   0.727  1.00  0.00    -0.020 C 
HETATM    4  C1  UNL     1      -3.196   3.039   1.789  1.00  0.00     0.009 C 
HETATM    5  C3  UNL     1      -3.575   2.613  -0.562  1.00  0.00     0.009 C 
ENDBRANCH   2   3
ENDBRANCH   1   2
BRANCH   1   6
HETATM    6  N1  UNL     1      -0.072  -0.034   0.037  1.00  0.00    -0.330 N 
HETATM    7  C6  UNL     1       0.887   0.177  -0.972  1.00  0.00     0.319 C 
HETATM    8  O1  UNL     1       0.476   0.612  -2.097  1.00  0.00    -0.247 OA
HETATM    9  N2  UNL     1       2.265  -0.078  -0.764  1.00  0.00    -0.334 N 
HETATM   10  C7  UNL     1       3.248   0.141  -1.798  1.00  0.00     0.128 C 
HETATM   11  C12 UNL     1       2.698  -0.569   0.513  1.00  0.00     0.128 C 
HETATM   12  C8  UNL     1       4.455   0.895  -1.282  1.00  0.00     0.024 C 
HETATM   13  C9  UNL     1       4.980   0.333   0.018  1.00  0.00    -0.015 C 
HETATM   14  C10 UNL     1       6.419  -0.102  -0.168  1.00  0.00     0.010 C 
HETATM   15  C11 UNL     1       4.189  -0.864   0.495  1.00  0.00     0.024 C 
ATOM     16  H1  UNL     1       0.223  -0.380   0.950  1.00  0.00     0.165 HD
ENDBRANCH   1   6
BRANCH   1  17
HETATM   17  C13 UNL     1      -2.198  -1.018   0.036  1.00  0.00     0.259 C 
HETATM   18  O2  UNL     1      -1.573  -2.009   0.472  1.00  0.00    -0.269 OA
HETATM   19  N3  UNL     1      -3.582  -1.162  -0.204  1.00  0.00    -0.265 N 
ATOM     20  H3  UNL     1      -4.113  -0.368  -0.563  1.00  0.00     0.190 HD
BRANCH  19  21
HETATM   21  N4  UNL     1      -4.250  -2.392   0.045  1.00  0.00    -0.251 N 
HETATM   22  C14 UNL     1      -3.941  -3.571  -0.641  1.00  0.00     0.347 C 
HETATM   23  N5  UNL     1      -4.634  -4.779  -0.360  1.00  0.00    -0.038 NA
HETATM   24  O3  UNL     1      -3.044  -3.636  -1.537  1.00  0.00    -0.249 OA
ATOM     25  H4  UNL     1      -4.984  -2.416   0.753  1.00  0.00     0.191 HD
ENDBRANCH  19  21
ENDBRANCH   1  17
TORSDOF 5
