REMARK  7 active torsions:
REMARK  status: ('A' for Active; 'I' for Inactive)
REMARK    1  A    between atoms: C2_2  and  C4_4 
REMARK    2  A    between atoms: C4_4  and  C5_6 
REMARK       I    between atoms: C5_6  and  N1_8 
REMARK    3  A    between atoms: N1_8  and  N2_10 
REMARK    4  A    between atoms: N2_10  and  C6_12 
REMARK    5  A    between atoms: C6_12  and  N3_14 
REMARK    6  A    between atoms: N3_14  and  N4_16 
REMARK       I    between atoms: N4_16  and  C7_18 
REMARK    7  A    between atoms: C7_18  and  C8_20 
ROOT
HETATM    1  C6  UNL     1       0.372  -1.502   0.092  1.00  0.00     0.205 C 
HETATM    2  S1  UNL     1       1.455  -2.627   0.633  1.00  0.00    -0.038 SA
ENDROOT
BRANCH   1   3
HETATM    3  N2  UNL     1      -0.944  -1.862  -0.263  1.00  0.00    -0.272 N 
ATOM      4  H2  UNL     1      -1.237  -2.837  -0.195  1.00  0.00     0.189 HD
BRANCH   3   5
HETATM    5  N1  UNL     1      -1.842  -0.904  -0.703  1.00  0.00    -0.261 N 
HETATM    6  C5  UNL     1      -3.115  -0.749  -0.039  1.00  0.00     0.306 C 
HETATM    7  O2  UNL     1      -3.382  -1.503   0.945  1.00  0.00    -0.263 OA
ATOM      8  H1  UNL     1      -1.604  -0.308  -1.496  1.00  0.00     0.190 HD
BRANCH   6   9
HETATM    9  C4  UNL     1      -4.062   0.243  -0.482  1.00  0.00     0.221 C 
HETATM   10  O1  UNL     1      -3.833   0.989  -1.445  1.00  0.00    -0.287 OA
BRANCH   9  11
HETATM   11  C2  UNL     1      -5.366   0.390   0.230  1.00  0.00     0.057 C 
HETATM   12  C1  UNL     1      -6.217   1.479  -0.386  1.00  0.00     0.018 C 
HETATM   13  C3  UNL     1      -6.091  -0.944   0.293  1.00  0.00     0.018 C 
ENDBRANCH   9  11
ENDBRANCH   6   9
ENDBRANCH   3   5
ENDBRANCH   1   3
BRANCH   1  14
HETATM   14  N3  UNL     1       0.837  -0.158   0.011  1.00  0.00    -0.272 N 
ATOM     15  H3  UNL     1       0.185   0.554  -0.318  1.00  0.00     0.189 HD
BRANCH  14  16
HETATM   16  N4  UNL     1       2.126   0.246   0.352  1.00  0.00    -0.264 N 
HETATM   17  C7  UNL     1       3.254  -0.182  -0.373  1.00  0.00     0.270 C 
HETATM   18  O3  UNL     1       3.144  -0.963  -1.378  1.00  0.00    -0.266 OA
ATOM     19  H4  UNL     1       2.256   0.869   1.149  1.00  0.00     0.190 HD
BRANCH  17  20
HETATM   20  C8  UNL     1       4.618   0.221  -0.047  1.00  0.00     0.033 A 
HETATM   21  C9  UNL     1       5.711  -0.558  -0.376  1.00  0.00     0.017 A 
HETATM   22  C10 UNL     1       7.013  -0.169  -0.082  1.00  0.00     0.001 A 
HETATM   23  C11 UNL     1       7.175   1.039   0.559  1.00  0.00     0.000 A 
HETATM   24  C12 UNL     1       6.115   1.854   0.909  1.00  0.00     0.001 A 
HETATM   25  C13 UNL     1       4.841   1.418   0.592  1.00  0.00     0.017 A 
ENDBRANCH  17  20
ENDBRANCH  14  16
ENDBRANCH   1  14
TORSDOF 7
