REMARK  5 active torsions:
REMARK  status: ('A' for Active; 'I' for Inactive)
REMARK    1  A    between atoms: C5_8  and  N2_9 
REMARK       I    between atoms: N2_9  and  C6_11 
REMARK       I    between atoms: C6_11  and  N3_13 
REMARK    2  A    between atoms: N3_13  and  N4_15 
REMARK       I    between atoms: N4_15  and  C7_17 
REMARK    3  A    between atoms: C7_17  and  O4_19 
REMARK    4  A    between atoms: O4_19  and  C8_20 
REMARK    5  A    between atoms: C8_20  and  C9_21 
ROOT
HETATM    1  N2  UNL     1       3.705  -0.499  -0.190  1.00  0.00    -0.303 N 
ATOM      2  H2  UNL     1       3.639  -1.516  -0.163  1.00  0.00     0.171 HD
HETATM    3  C6  UNL     1       2.586   0.256   0.220  1.00  0.00     0.339 C 
HETATM    4  O2  UNL     1       2.648   1.504   0.193  1.00  0.00    -0.245 OA
HETATM    5  N3  UNL     1       1.394  -0.361   0.660  1.00  0.00    -0.247 N 
ATOM      6  H3  UNL     1       1.343  -1.380   0.681  1.00  0.00     0.192 HD
ENDROOT
BRANCH   5   7
HETATM    7  N4  UNL     1       0.281   0.382   1.068  1.00  0.00    -0.241 N 
HETATM    8  C7  UNL     1      -1.010  -0.206   1.132  1.00  0.00     0.379 C 
HETATM    9  O3  UNL     1      -1.107  -1.414   0.807  1.00  0.00    -0.237 OA
ATOM     10  H4  UNL     1       0.399   1.362   1.324  1.00  0.00     0.192 HD
BRANCH   8  11
HETATM   11  O4  UNL     1      -2.145   0.446   1.517  1.00  0.00    -0.302 OA
BRANCH  11  12
HETATM   12  C8  UNL     1      -3.430  -0.070   1.599  1.00  0.00     0.185 C 
BRANCH  12  13
HETATM   13  C9  UNL     1      -3.977  -0.589   0.299  1.00  0.00     0.010 C 
HETATM   14  C10 UNL     1      -4.014   0.518  -0.697  1.00  0.00     0.007 C 
HETATM   15  C11 UNL     1      -5.484   0.754  -0.968  1.00  0.00     0.000 C 
HETATM   16  C12 UNL     1      -6.165  -0.567  -0.629  1.00  0.00     0.000 C 
HETATM   17  C13 UNL     1      -5.367  -1.088   0.524  1.00  0.00     0.007 C 
ENDBRANCH  12  13
ENDBRANCH  11  12
ENDBRANCH   8  11
ENDBRANCH   5   7
BRANCH   1  18
HETATM   18  C5  UNL     1       4.919   0.086  -0.638  1.00  0.00     0.092 A 
HETATM   19  C2  UNL     1       5.972   0.411   0.192  1.00  0.00     0.058 A 
HETATM   20  C1  UNL     1       6.048   0.225   1.663  1.00  0.00     0.072 C 
HETATM   21  N1  UNL     1       6.914   0.935  -0.633  1.00  0.00    -0.263 N 
HETATM   22  O1  UNL     1       6.465   0.926  -1.863  1.00  0.00    -0.240 OA
ATOM     23  H1  UNL     1       7.828   1.281  -0.341  1.00  0.00     0.194 HD
HETATM   24  C3  UNL     1       5.268   0.424  -1.911  1.00  0.00     0.101 A 
HETATM   25  C4  UNL     1       4.407   0.240  -3.134  1.00  0.00     0.081 C 
ENDBRANCH   1  18
TORSDOF 5
