REMARK  7 active torsions:
REMARK  status: ('A' for Active; 'I' for Inactive)
REMARK    1  A    between atoms: C2_2  and  O1_4 
REMARK    2  A    between atoms: O1_4  and  C4_5 
REMARK    3  A    between atoms: C4_5  and  C5_7 
REMARK    4  A    between atoms: C6_8  and  C7_9 
REMARK    5  A    between atoms: C9_11  and  O3_12 
REMARK    6  A    between atoms: C12_16  and  O4_17 
REMARK    7  A    between atoms: C15_21  and  O5_22 
ROOT
HETATM    1  C7  UNL     1      -0.455  -0.106   0.195  1.00  0.00     0.000 A 
HETATM    2  C8  UNL     1      -0.768   0.993  -0.604  1.00  0.00     0.051 A 
HETATM    3  C9  UNL     1      -2.084   1.365  -0.878  1.00  0.00     0.073 A 
HETATM    4  C10 UNL     1      -3.109   0.644  -0.357  1.00  0.00    -0.013 A 
HETATM    5  C11 UNL     1      -2.816  -0.434   0.426  1.00  0.00    -0.015 A 
HETATM    6  C12 UNL     1      -1.504  -0.832   0.719  1.00  0.00     0.083 A 
HETATM    7  C13 UNL     1      -3.930  -1.215   0.991  1.00  0.00     0.044 C 
HETATM    8  C14 UNL     1      -5.076  -1.416   0.044  1.00  0.00     0.037 C 
HETATM    9  C15 UNL     1      -5.234  -0.328  -0.969  1.00  0.00     0.122 C 
HETATM   10  C16 UNL     1      -4.547   0.956  -0.586  1.00  0.00     0.073 C 
ENDROOT
BRANCH   1  11
HETATM   11  C6  UNL     1       0.935  -0.447   0.446  1.00  0.00     0.020 C 
HETATM   12  C5  UNL     1       1.982   0.190  -0.014  1.00  0.00     0.083 C 
BRANCH  12  13
HETATM   13  C4  UNL     1       3.353  -0.223   0.290  1.00  0.00     0.283 C 
HETATM   14  O2  UNL     1       3.547  -1.230   1.021  1.00  0.00    -0.260 OA
BRANCH  13  15
HETATM   15  O1  UNL     1       4.458   0.438  -0.187  1.00  0.00    -0.314 OA
BRANCH  15  16
HETATM   16  C2  UNL     1       5.758   0.014   0.124  1.00  0.00     0.124 C 
HETATM   17  C1  UNL     1       6.542   1.098   0.819  1.00  0.00     0.040 C 
HETATM   18  C3  UNL     1       6.456  -0.299  -1.200  1.00  0.00     0.040 C 
ENDBRANCH  15  16
ENDBRANCH  13  15
ENDBRANCH  12  13
ENDBRANCH   1  11
BRANCH   6  19
HETATM   19  O4  UNL     1      -1.266  -1.926   1.514  1.00  0.00    -0.359 OA
ATOM     20  H4  UNL     1      -1.989  -2.426   1.875  1.00  0.00     0.217 HD
ENDBRANCH   6  19
BRANCH   3  21
HETATM   21  O3  UNL     1      -2.379   2.463  -1.676  1.00  0.00    -0.360 OA
ATOM     22  H3  UNL     1      -3.275   2.716  -1.863  1.00  0.00     0.217 HD
ENDBRANCH   3  21
BRANCH   9  23
HETATM   23  O5  UNL     1      -6.595  -0.049  -1.141  1.00  0.00    -0.395 OA
ATOM     24  H5  UNL     1      -6.695   0.642  -1.785  1.00  0.00     0.210 HD
ENDBRANCH   9  23
TORSDOF 7
