REMARK  5 active torsions:
REMARK  status: ('A' for Active; 'I' for Inactive)
REMARK    1  A    between atoms: C1_2  and  C2_4 
REMARK    2  A    between atoms: C2_4  and  C3_5 
REMARK    3  A    between atoms: C3_5  and  N1_6 
REMARK    4  A    between atoms: C4_7  and  O3_8 
REMARK    5  A    between atoms: C7_12  and  O4_13 
ROOT
HETATM    1  N1  UNL     1       1.650   0.012   0.260  1.00  0.00    -0.307 N 
HETATM    2  C4  UNL     1       1.001   0.797  -0.608  1.00  0.00     0.153 A 
HETATM    3  C5  UNL     1      -0.123   0.147  -1.068  1.00  0.00     0.035 A 
HETATM    4  C6  UNL     1      -0.157  -1.091  -0.449  1.00  0.00     0.035 A 
HETATM    5  C7  UNL     1       0.952  -1.133   0.359  1.00  0.00     0.153 A 
HETATM    6  C8  UNL     1      -1.382  -1.744  -0.981  1.00  0.00     0.165 C 
HETATM    7  O5  UNL     1      -1.393  -1.213  -2.294  1.00  0.00    -0.370 OA
HETATM    8  C9  UNL     1      -1.339   0.156  -1.935  1.00  0.00     0.165 C 
HETATM    9  C10 UNL     1      -2.577   0.271  -1.096  1.00  0.00     0.026 C 
HETATM   10  C11 UNL     1      -2.419   1.391  -0.126  1.00  0.00     0.008 C 
HETATM   11  C12 UNL     1      -3.414   1.364   1.005  1.00  0.00     0.001 C 
HETATM   12  C13 UNL     1      -3.760  -0.039   1.452  1.00  0.00     0.001 C 
HETATM   13  C14 UNL     1      -2.557  -0.918   1.084  1.00  0.00     0.008 C 
HETATM   14  C15 UNL     1      -2.584  -1.093  -0.395  1.00  0.00     0.026 C 
ENDROOT
BRANCH   1  15
HETATM   15  C3  UNL     1       2.876   0.400   0.928  1.00  0.00     0.144 C 
BRANCH  15  16
HETATM   16  C2  UNL     1       4.098  -0.006   0.117  1.00  0.00     0.133 C 
BRANCH  16  17
HETATM   17  C1  UNL     1       5.349   0.382   0.784  1.00  0.00     0.174 C 
HETATM   18  O1  UNL     1       5.791   1.558   0.791  1.00  0.00    -0.648 OA
HETATM   19  O2  UNL     1       6.085  -0.587   1.441  1.00  0.00    -0.648 OA
ENDBRANCH  16  17
ENDBRANCH  15  16
ENDBRANCH   1  15
BRANCH   2  20
HETATM   20  O3  UNL     1       1.366   2.061  -1.007  1.00  0.00    -0.345 OA
ATOM     21  H3  UNL     1       0.905   2.618  -1.623  1.00  0.00     0.219 HD
ENDBRANCH   2  20
BRANCH   5  22
HETATM   22  O4  UNL     1       1.284  -2.218   1.158  1.00  0.00    -0.345 OA
ATOM     23  H4  UNL     1       0.791  -3.027   1.228  1.00  0.00     0.219 HD
ENDBRANCH   5  22
TORSDOF 5
