REMARK  7 active torsions:
REMARK  status: ('A' for Active; 'I' for Inactive)
REMARK    1  A    between atoms: C2_2  and  N1_3 
REMARK    2  A    between atoms: N1_3  and  C3_4 
REMARK    3  A    between atoms: N1_3  and  C11_17 
REMARK    4  A    between atoms: C5_6  and  O1_7 
REMARK    5  A    between atoms: N2_9  and  C6_10 
REMARK    6  A    between atoms: C10_14  and  O2_15 
REMARK    7  A    between atoms: C14_20  and  O3_21 
ROOT
HETATM    1  C3  UNL     1      -0.379   0.427   0.375  1.00  0.00     0.086 A 
HETATM    2  C4  UNL     1      -0.649   1.754   0.107  1.00  0.00     0.089 A 
HETATM    3  C5  UNL     1      -1.957   1.895  -0.308  1.00  0.00     0.147 A 
HETATM    4  N2  UNL     1      -2.493   0.661  -0.297  1.00  0.00    -0.298 N 
HETATM    5  C10 UNL     1      -1.552  -0.243   0.115  1.00  0.00     0.172 A 
ENDROOT
BRANCH   1   6
HETATM    6  N1  UNL     1       0.893  -0.080   0.831  1.00  0.00    -0.373 N 
BRANCH   6   7
HETATM    7  C2  UNL     1       0.963  -0.760   2.094  1.00  0.00     0.119 C 
HETATM    8  C1  UNL     1       1.265  -2.216   2.051  1.00  0.00     0.026 C 
ENDBRANCH   6   7
BRANCH   6   9
HETATM    9  C11 UNL     1       2.022   0.152  -0.050  1.00  0.00     0.085 C 
HETATM   10  C12 UNL     1       3.172   0.784   0.691  1.00  0.00     0.028 C 
HETATM   11  C13 UNL     1       4.493   0.710   0.036  1.00  0.00     0.034 C 
HETATM   12  C14 UNL     1       4.597  -0.121  -1.192  1.00  0.00     0.118 C 
HETATM   13  C15 UNL     1       3.780  -1.372  -0.985  1.00  0.00     0.034 C 
HETATM   14  C16 UNL     1       2.311  -1.062  -0.822  1.00  0.00     0.028 C 
BRANCH  12  15
HETATM   15  O3  UNL     1       4.236   0.555  -2.352  1.00  0.00    -0.396 OA
ATOM     16  H3  UNL     1       4.302   0.024  -3.137  1.00  0.00     0.210 HD
ENDBRANCH  12  15
ENDBRANCH   6   9
ENDBRANCH   1   6
BRANCH   5  17
HETATM   17  O2  UNL     1      -1.736  -1.599   0.250  1.00  0.00    -0.344 OA
ATOM     18  H2  UNL     1      -2.546  -2.062   0.070  1.00  0.00     0.219 HD
ENDBRANCH   5  17
BRANCH   3  19
HETATM   19  O1  UNL     1      -2.602   3.094  -0.671  1.00  0.00    -0.346 OA
ATOM     20  H1  UNL     1      -3.503   3.191  -0.957  1.00  0.00     0.219 HD
ENDBRANCH   3  19
BRANCH   4  21
HETATM   21  C6  UNL     1      -3.868   0.357  -0.668  1.00  0.00     0.030 C 
HETATM   22  C7  UNL     1      -4.056   0.346  -2.172  1.00  0.00     0.038 C 
HETATM   23  C8  UNL     1      -4.287  -1.008  -0.161  1.00  0.00     0.038 C 
HETATM   24  C9  UNL     1      -4.834   1.354  -0.048  1.00  0.00     0.038 C 
ENDBRANCH   4  21
TORSDOF 7
