REMARK  6 active torsions:
REMARK  status: ('A' for Active; 'I' for Inactive)
REMARK    1  A    between atoms: C4_4  and  C5_5 
REMARK    2  A    between atoms: C7_9  and  O3_10 
REMARK    3  A    between atoms: C8_12  and  O4_13 
REMARK    4  A    between atoms: C9_15  and  C11_17 
REMARK    5  A    between atoms: C11_17  and  N1_18 
REMARK    6  A    between atoms: N1_18  and  S1_20 
ROOT
HETATM    1  C1  UNL     1      -0.371  -2.058   0.253  1.00  0.00     0.016 C 
HETATM    2  C2  UNL     1      -0.978  -0.768  -0.285  1.00  0.00    -0.023 C 
HETATM    3  C3  UNL     1      -1.785  -1.107  -1.482  1.00  0.00     0.016 C 
HETATM    4  C4  UNL     1      -1.789  -0.186   0.851  1.00  0.00     0.098 C 
HETATM    5  C6  UNL     1      -2.417   1.126   0.496  1.00  0.00     0.050 C 
HETATM    6  C7  UNL     1      -1.710   1.825  -0.613  1.00  0.00     0.148 C 
HETATM    7  C8  UNL     1      -0.206   1.621  -0.419  1.00  0.00     0.157 C 
HETATM    8  C9  UNL     1       0.182   0.171  -0.542  1.00  0.00     0.009 C 
HETATM    9  C10 UNL     1       0.733  -0.024  -1.954  1.00  0.00     0.020 C 
ENDROOT
BRANCH   8  10
HETATM   10  C11 UNL     1       1.308  -0.103   0.426  1.00  0.00     0.144 C 
BRANCH  10  11
HETATM   11  N1  UNL     1       2.396   0.797   0.161  1.00  0.00    -0.319 N 
ATOM     12  H1  UNL     1       2.390   1.509  -0.570  1.00  0.00     0.172 HD
BRANCH  11  13
HETATM   13  S1  UNL     1       3.722   0.517   1.245  1.00  0.00     0.222 S 
HETATM   14  C12 UNL     1       4.354  -1.123   1.042  1.00  0.00     0.185 C 
HETATM   15  O5  UNL     1       3.209   0.650   2.651  1.00  0.00    -0.206 OA
HETATM   16  O6  UNL     1       4.830   1.483   1.020  1.00  0.00    -0.206 OA
ENDBRANCH  11  13
ENDBRANCH  10  11
ENDBRANCH   8  10
BRANCH   7  17
HETATM   17  O4  UNL     1       0.456   2.343  -1.422  1.00  0.00    -0.392 OA
ATOM     18  H4  UNL     1       1.390   2.216  -1.302  1.00  0.00     0.210 HD
ENDBRANCH   7  17
BRANCH   4  19
HETATM   19  C5  UNL     1      -2.762  -1.132   1.427  1.00  0.00     0.177 C 
HETATM   20  O1  UNL     1      -2.768  -1.512   2.626  1.00  0.00    -0.648 OA
HETATM   21  O2  UNL     1      -3.745  -1.645   0.595  1.00  0.00    -0.648 OA
ENDBRANCH   4  19
BRANCH   6  22
HETATM   22  O3  UNL     1      -1.898   3.225  -0.545  1.00  0.00    -0.393 OA
ATOM     23  H3  UNL     1      -1.447   3.671  -1.252  1.00  0.00     0.210 HD
ENDBRANCH   6  22
TORSDOF 6
