REMARK  6 active torsions:
REMARK  status: ('A' for Active; 'I' for Inactive)
REMARK    1  A    between atoms: C2_2  and  O2_4 
REMARK    2  A    between atoms: O2_4  and  C3_5 
REMARK    3  A    between atoms: C5_7  and  S1_8 
REMARK    4  A    between atoms: C7_11  and  N1_12 
REMARK       I    between atoms: N1_12  and  C8_14 
REMARK    5  A    between atoms: C9_19  and  N4_20 
REMARK    6  A    between atoms: C12_23  and  O4_24 
ROOT
HETATM    1  C3  UNL     1       2.085  -0.140   0.061  1.00  0.00     0.085 C 
HETATM    2  C4  UNL     1       1.708   1.102   0.150  1.00  0.00     0.028 C 
HETATM    3  C5  UNL     1       0.300   1.383   0.622  1.00  0.00     0.129 C 
HETATM    4  C7  UNL     1      -0.612   0.630  -0.290  1.00  0.00     0.140 C 
HETATM    5  C9  UNL     1      -0.223  -0.844  -0.292  1.00  0.00     0.280 C 
HETATM    6  C12 UNL     1       1.032  -1.148   0.456  1.00  0.00     0.210 C 
ENDROOT
BRANCH   4   7
HETATM    7  N1  UNL     1      -2.016   0.801  -0.064  1.00  0.00    -0.356 N 
HETATM    8  C8  UNL     1      -2.976   0.288  -0.994  1.00  0.00     0.182 C 
HETATM    9  N2  UNL     1      -2.632  -0.070  -2.179  1.00  0.00    -0.374 N 
HETATM   10  N3  UNL     1      -4.351   0.157  -0.645  1.00  0.00    -0.064 NA
ATOM     11  H22 UNL     1      -1.648   0.024  -2.429  1.00  0.00     0.158 HD
ATOM     12  H21 UNL     1      -3.316  -0.435  -2.842  1.00  0.00     0.158 HD
ATOM     13  H1  UNL     1      -2.336   1.294   0.770  1.00  0.00     0.162 HD
ENDBRANCH   4   7
BRANCH   3  14
HETATM   14  S1  UNL     1       0.082   3.144   0.575  1.00  0.00     0.021 S 
HETATM   15  C6  UNL     1      -1.484   3.706   1.092  1.00  0.00     0.128 C 
HETATM   16  O3  UNL     1       0.551   3.776  -0.907  1.00  0.00    -0.258 OA
ENDBRANCH   3  14
BRANCH   5  17
HETATM   17  N4  UNL     1      -1.314  -1.701   0.148  1.00  0.00     0.089 N 
HETATM   18  C10 UNL     1      -1.726  -1.525   1.496  1.00  0.00     0.310 C 
HETATM   19  C11 UNL     1      -0.939  -3.084  -0.057  1.00  0.00     0.310 C 
ENDBRANCH   5  17
BRANCH   6  20
HETATM   20  O4  UNL     1       0.904  -1.261   1.818  1.00  0.00    -0.387 OA
ATOM     21  H4  UNL     1       0.242  -1.895   2.066  1.00  0.00     0.210 HD
ENDBRANCH   6  20
BRANCH   1  22
HETATM   22  O2  UNL     1       3.310  -0.620  -0.343  1.00  0.00    -0.281 OA
BRANCH  22  23
HETATM   23  C2  UNL     1       4.411   0.029  -0.750  1.00  0.00     0.259 C 
HETATM   24  C1  UNL     1       5.630  -0.762  -1.139  1.00  0.00     0.126 C 
HETATM   25  O1  UNL     1       4.432   1.263  -0.809  1.00  0.00    -0.265 OA
ENDBRANCH  22  23
ENDBRANCH   1  22
TORSDOF 6
