REMARK  4 active torsions:
REMARK  status: ('A' for Active; 'I' for Inactive)
REMARK    1  A    between atoms: O1_1  and  N1_3 
REMARK    2  A    between atoms: C1_5  and  O2_6 
REMARK    3  A    between atoms: C1_5  and  C2_8 
REMARK    4  A    between atoms: C8_14  and  O3_15 
ROOT
HETATM    1  C2  UNL     1       1.598  -0.212  -0.918  1.00  0.00     0.307 C 
HETATM    2  C3  UNL     1       1.374   1.304  -1.017  1.00  0.00     0.116 C 
HETATM    3  C4  UNL     1       0.017   1.036  -0.438  1.00  0.00     0.264 C 
HETATM    4  C5  UNL     1      -1.161   1.482  -1.262  1.00  0.00     0.072 C 
HETATM    5  C6  UNL     1      -2.127   0.350  -1.391  1.00  0.00     0.008 C 
HETATM    6  C7  UNL     1      -2.584  -0.259  -0.130  1.00  0.00     0.042 C 
HETATM    7  C8  UNL     1      -1.520  -0.459   0.912  1.00  0.00     0.106 C 
HETATM    8  C9  UNL     1      -1.092   0.804   1.576  1.00  0.00     0.210 C 
HETATM    9  O4  UNL     1      -0.056   1.386   0.874  1.00  0.00    -0.349 OA
HETATM   10  C10 UNL     1      -0.316  -1.189   0.309  1.00  0.00     0.317 C 
HETATM   11  N2  UNL     1       0.220  -0.359  -0.692  1.00  0.00     0.139 N 
ENDROOT
BRANCH   1  12
HETATM   12  C1  UNL     1       2.577  -0.613   0.083  1.00  0.00     0.170 C 
HETATM   13  N1  UNL     1       3.606  -1.301  -0.258  1.00  0.00    -0.249 N 
ATOM     14  H1  UNL     1       3.727  -1.561  -1.237  1.00  0.00     0.196 HD
BRANCH  13  15
HETATM   15  O1  UNL     1       4.554  -1.699   0.664  1.00  0.00    -0.288 OA
ATOM     16  H1  UNL     1       5.315  -2.208   0.412  1.00  0.00     0.244 HD
ENDBRANCH  13  15
BRANCH  12  17
HETATM   17  O2  UNL     1       2.391  -0.247   1.406  1.00  0.00    -0.346 OA
ATOM     18  H2  UNL     1       1.630   0.262   1.658  1.00  0.00     0.219 HD
ENDBRANCH  12  17
ENDBRANCH   1  12
BRANCH   7  19
HETATM   19  O3  UNL     1      -2.045  -1.317   1.884  1.00  0.00    -0.386 OA
ATOM     20  H3  UNL     1      -1.372  -1.443   2.543  1.00  0.00     0.210 HD
ENDBRANCH   7  19
TORSDOF 4
