REMARK  5 active torsions:
REMARK  status: ('A' for Active; 'I' for Inactive)
REMARK    1  A    between atoms: C2_2  and  C3_3 
REMARK    2  A    between atoms: C3_3  and  O1_4 
REMARK    3  A    between atoms: C6_8  and  O2_9 
REMARK    4  A    between atoms: C9_13  and  O3_14 
REMARK    5  A    between atoms: C10_16  and  O4_17 
ROOT
HETATM    1  C3  UNL     1      -1.700  -0.734   0.062  1.00  0.00     0.064 C 
HETATM    2  C4  UNL     1      -1.409  -1.490  -1.227  1.00  0.00     0.041 C 
HETATM    3  C5  UNL     1      -0.374  -0.597  -1.888  1.00  0.00     0.042 C 
HETATM    4  C6  UNL     1       0.555  -0.398  -0.723  1.00  0.00     0.070 C 
HETATM    5  C7  UNL     1       1.456   0.772  -0.828  1.00  0.00     0.048 C 
HETATM    6  C8  UNL     1       2.518   0.535  -1.898  1.00  0.00     0.016 C 
HETATM    7  C9  UNL     1       2.035   1.095   0.498  1.00  0.00     0.153 C 
HETATM    8  C10 UNL     1       1.577   0.321   1.662  1.00  0.00     0.148 C 
HETATM    9  C11 UNL     1       0.234  -0.295   1.620  1.00  0.00     0.045 C 
HETATM   10  C12 UNL     1      -0.466   0.015   0.353  1.00  0.00     0.057 C 
ENDROOT
BRANCH   1  11
HETATM   11  C2  UNL     1      -2.833   0.241  -0.285  1.00  0.00     0.034 C 
HETATM   12  C1  UNL     1      -3.278   1.029   0.910  1.00  0.00     0.008 C 
ENDBRANCH   1  11
BRANCH   1  13
HETATM   13  O1  UNL     1      -2.087  -1.638   1.021  1.00  0.00    -0.389 OA
ATOM     14  H1  UNL     1      -1.386  -2.242   1.236  1.00  0.00     0.210 HD
ENDBRANCH   1  13
BRANCH   4  15
HETATM   15  O2  UNL     1       1.166  -1.581  -0.397  1.00  0.00    -0.389 OA
ATOM     16  H2  UNL     1       1.753  -1.455   0.339  1.00  0.00     0.210 HD
ENDBRANCH   4  15
BRANCH   8  17
HETATM   17  O4  UNL     1       2.516  -0.685   1.996  1.00  0.00    -0.393 OA
ATOM     18  H4  UNL     1       2.220  -1.185   2.748  1.00  0.00     0.210 HD
ENDBRANCH   8  17
BRANCH   7  19
HETATM   19  O3  UNL     1       3.436   0.914   0.383  1.00  0.00    -0.393 OA
ATOM     20  H3  UNL     1       3.807   1.121   1.233  1.00  0.00     0.210 HD
ENDBRANCH   7  19
TORSDOF 5
