REMARK  4 active torsions:
REMARK  status: ('A' for Active; 'I' for Inactive)
REMARK    1  A    between atoms: C2_2  and  C4_4 
REMARK    2  A    between atoms: C8_9  and  O1_10 
REMARK    3  A    between atoms: C9_12  and  O2_13 
REMARK    4  A    between atoms: N2_17  and  O3_18 
ROOT
HETATM    1  C4  UNL     1       1.614  -0.616  -0.325  1.00  0.00     0.120 C 
HETATM    2  C5  UNL     1       0.585  -1.197   0.611  1.00  0.00     0.297 C 
HETATM    3  N1  UNL     1      -0.431  -0.189   0.640  1.00  0.00     0.117 N 
HETATM    4  C6  UNL     1      -1.766  -0.675   0.809  1.00  0.00     0.252 C 
HETATM    5  C7  UNL     1      -1.864  -2.175   0.864  1.00  0.00     0.045 C 
HETATM    6  C8  UNL     1      -2.724  -0.187  -0.255  1.00  0.00     0.180 C 
HETATM    7  C9  UNL     1      -2.605   1.279  -0.524  1.00  0.00     0.152 C 
HETATM    8  C10 UNL     1      -1.141   1.703  -0.603  1.00  0.00     0.088 C 
HETATM    9  C11 UNL     1      -0.339   0.442  -0.660  1.00  0.00     0.325 C 
HETATM   10  N2  UNL     1       1.071   0.642  -0.801  1.00  0.00    -0.160 NA
ENDROOT
BRANCH   1  11
HETATM   11  C2  UNL     1       2.949  -0.408   0.352  1.00  0.00    -0.001 C 
HETATM   12  C1  UNL     1       3.964   0.175  -0.606  1.00  0.00     0.011 C 
HETATM   13  C3  UNL     1       2.786   0.604   1.482  1.00  0.00     0.011 C 
ENDBRANCH   1  11
BRANCH  10  14
HETATM   14  O3  UNL     1       1.351   0.824  -2.108  1.00  0.00    -0.311 OA
ATOM     15  H3  UNL     1       0.995   1.648  -2.420  1.00  0.00     0.237 HD
ENDBRANCH  10  14
BRANCH   6  16
HETATM   16  O1  UNL     1      -4.021  -0.453   0.241  1.00  0.00    -0.391 OA
ATOM     17  H1  UNL     1      -4.623  -0.147  -0.427  1.00  0.00     0.210 HD
ENDBRANCH   6  16
BRANCH   7  18
HETATM   18  O2  UNL     1      -3.297   2.064   0.387  1.00  0.00    -0.393 OA
ATOM     19  H2  UNL     1      -3.221   2.995   0.216  1.00  0.00     0.210 HD
ENDBRANCH   7  18
TORSDOF 4
