REMARK  6 active torsions:
REMARK  status: ('A' for Active; 'I' for Inactive)
REMARK    1  A    between atoms: C2_2  and  O1_3 
REMARK    2  A    between atoms: O1_3  and  C3_4 
REMARK    3  A    between atoms: C3_4  and  O2_5 
REMARK    4  A    between atoms: O2_5  and  C4_6 
REMARK    5  A    between atoms: C4_6  and  N1_8 
REMARK    6  A    between atoms: N1_8  and  C5_10 
ROOT
HETATM    1  C5  UNL     1      -0.534  -0.635   0.294  1.00  0.00     0.101 C 
HETATM    2  C6  UNL     1      -0.972   0.768   0.006  1.00  0.00     0.043 C 
HETATM    3  C7  UNL     1      -1.249   1.383   1.380  1.00  0.00     0.175 C 
HETATM    4  O3  UNL     1      -2.364   0.710   1.857  1.00  0.00    -0.384 OA
HETATM    5  C8  UNL     1      -2.784  -0.182   0.837  1.00  0.00     0.139 C 
HETATM    6  C9  UNL     1      -2.450   0.680  -0.368  1.00  0.00    -0.013 C 
HETATM    7  C10 UNL     1      -3.139   2.020  -0.134  1.00  0.00     0.018 C 
HETATM    8  C11 UNL     1      -2.751   0.156  -1.683  1.00  0.00     0.018 C 
HETATM    9  C12 UNL     1      -1.772  -1.280   0.808  1.00  0.00     0.000 C 
HETATM   10  C13 UNL     1      -1.607  -1.729   2.273  1.00  0.00     0.019 C 
HETATM   11  C14 UNL     1      -2.194  -2.509   0.065  1.00  0.00     0.019 C 
ENDROOT
BRANCH   1  12
HETATM   12  N1  UNL     1       0.105  -1.317  -0.795  1.00  0.00    -0.355 N 
ATOM     13  H1  UNL     1      -0.311  -2.175  -1.158  1.00  0.00     0.162 HD
BRANCH  12  14
HETATM   14  C4  UNL     1       1.287  -0.832  -1.371  1.00  0.00     0.212 C 
HETATM   15  S1  UNL     1       1.986  -1.615  -2.595  1.00  0.00    -0.033 SA
BRANCH  14  16
HETATM   16  O2  UNL     1       1.840   0.321  -0.873  1.00  0.00    -0.301 OA
BRANCH  16  17
HETATM   17  C3  UNL     1       3.193   0.639  -0.828  1.00  0.00     0.347 C 
BRANCH  17  18
HETATM   18  O1  UNL     1       3.930  -0.274  -0.079  1.00  0.00    -0.367 OA
BRANCH  18  19
HETATM   19  C2  UNL     1       5.268   0.130  -0.093  1.00  0.00     0.166 C 
HETATM   20  C1  UNL     1       5.445   1.495   0.493  1.00  0.00     0.033 C 
ENDBRANCH  18  19
ENDBRANCH  17  18
ENDBRANCH  16  17
ENDBRANCH  14  16
ENDBRANCH  12  14
ENDBRANCH   1  12
TORSDOF 6
