REMARK  7 active torsions:
REMARK  status: ('A' for Active; 'I' for Inactive)
REMARK    1  A    between atoms: C2_2  and  C3_3 
REMARK    2  A    between atoms: C4_4  and  C5_5 
REMARK    3  A    between atoms: C5_5  and  O1_6 
REMARK    4  A    between atoms: C7_9  and  O2_10 
REMARK    5  A    between atoms: O2_10  and  C8_11 
REMARK    6  A    between atoms: C8_11  and  C11_14 
REMARK    7  A    between atoms: C11_14  and  O4_16 
ROOT
HETATM    1  C5  UNL     1       1.824  -1.319   0.647  1.00  0.00     0.146 C 
HETATM    2  C6  UNL     1       0.415  -1.206   1.162  1.00  0.00     0.088 C 
HETATM    3  C7  UNL     1      -0.514  -1.124  -0.034  1.00  0.00     0.130 C 
HETATM    4  C13 UNL     1      -0.420  -2.486  -0.703  1.00  0.00     0.059 C 
HETATM    5  C14 UNL     1       0.938  -2.546  -1.328  1.00  0.00    -0.018 C 
HETATM    6  C15 UNL     1       1.934  -1.987  -0.652  1.00  0.00    -0.041 C 
HETATM    7  C16 UNL     1       3.285  -2.052  -1.284  1.00  0.00     0.047 C 
ENDROOT
BRANCH   3   8
HETATM    8  O2  UNL     1      -1.745  -0.678   0.210  1.00  0.00    -0.365 OA
BRANCH   8   9
HETATM    9  C8  UNL     1      -2.219   0.453  -0.331  1.00  0.00     0.141 C 
HETATM   10  C9  UNL     1      -1.408   1.701   0.032  1.00  0.00     0.057 C 
HETATM   11  C10 UNL     1      -2.087   0.334  -1.839  1.00  0.00     0.057 C 
BRANCH   9  12
HETATM   12  C11 UNL     1      -3.656   0.719  -0.075  1.00  0.00     0.292 C 
HETATM   13  O3  UNL     1      -4.168   1.764  -0.553  1.00  0.00    -0.262 OA
BRANCH  12  14
HETATM   14  O4  UNL     1      -4.486  -0.111   0.663  1.00  0.00    -0.324 OA
HETATM   15  C12 UNL     1      -5.863   0.196   0.876  1.00  0.00     0.213 C 
ENDBRANCH  12  14
ENDBRANCH   9  12
ENDBRANCH   8   9
ENDBRANCH   3   8
BRANCH   1  16
HETATM   16  C4  UNL     1       2.432   0.033   0.620  1.00  0.00    -0.063 C 
HETATM   17  C3  UNL     1       2.910   1.127   0.582  1.00  0.00    -0.103 C 
BRANCH  17  18
HETATM   18  C2  UNL     1       3.477   2.477   0.520  1.00  0.00     0.089 C 
HETATM   19  C1  UNL     1       3.604   3.027   1.925  1.00  0.00     0.018 C 
ENDBRANCH  17  18
ENDBRANCH   1  16
BRANCH   1  20
HETATM   20  O1  UNL     1       2.584  -2.041   1.596  1.00  0.00    -0.373 OA
ATOM     21  H1  UNL     1       2.194  -2.907   1.613  1.00  0.00     0.212 HD
ENDBRANCH   1  20
TORSDOF 7
