REMARK  4 active torsions:
REMARK  status: ('A' for Active; 'I' for Inactive)
REMARK    1  A    between atoms: C2_2  and  C3_3 
REMARK    2  A    between atoms: C3_3  and  N1_4 
REMARK    3  A    between atoms: C5_7  and  C6_8 
REMARK    4  A    between atoms: C6_8  and  O2_10 
ROOT
HETATM    1  N1  UNL     1      -1.143  -0.605  -0.156  1.00  0.00    -0.364 N 
ATOM      2  H1  UNL     1      -0.965  -1.558  -0.474  1.00  0.00     0.165 HD
HETATM    3  C4  UNL     1      -0.112   0.054   0.072  1.00  0.00     0.065 A 
HETATM    4  C5  UNL     1      -0.073   1.336   0.499  1.00  0.00     0.089 A 
HETATM    5  C8  UNL     1       1.192   1.917   0.756  1.00  0.00     0.025 A 
HETATM    6  C9  UNL     1       1.255   3.315   1.225  1.00  0.00     0.069 C 
HETATM    7  N2  UNL     1       2.323   1.248   0.590  1.00  0.00    -0.344 N 
ATOM      8  H2  UNL     1       3.216   1.700   0.785  1.00  0.00     0.167 HD
HETATM    9  C10 UNL     1       2.292  -0.048   0.157  1.00  0.00     0.118 A 
HETATM   10  N3  UNL     1       3.443  -0.717  -0.009  1.00  0.00    -0.346 N 
ATOM     11  H3  UNL     1       4.316  -0.232   0.197  1.00  0.00     0.167 HD
HETATM   12  C11 UNL     1       3.509  -1.986  -0.430  1.00  0.00     0.007 A 
HETATM   13  C12 UNL     1       4.831  -2.685  -0.598  1.00  0.00     0.068 C 
HETATM   14  C13 UNL     1       2.328  -2.609  -0.697  1.00  0.00     0.032 A 
HETATM   15  C14 UNL     1       1.061  -1.984  -0.551  1.00  0.00    -0.044 A 
HETATM   16  C15 UNL     1      -0.147  -2.738  -0.865  1.00  0.00     0.049 C 
HETATM   17  C16 UNL     1       1.102  -0.682  -0.113  1.00  0.00     0.042 A 
ENDROOT
BRANCH   1  18
HETATM   18  C3  UNL     1      -2.501  -0.282  -0.057  1.00  0.00     0.087 C 
BRANCH  18  19
HETATM   19  C2  UNL     1      -3.464  -1.351  -0.509  1.00  0.00     0.007 C 
HETATM   20  C1  UNL     1      -4.334  -1.826   0.357  1.00  0.00     0.012 C 
ENDBRANCH  18  19
ENDBRANCH   1  18
BRANCH   4  21
HETATM   21  C6  UNL     1      -1.225   2.192   0.683  1.00  0.00     0.297 C 
HETATM   22  O1  UNL     1      -1.913   2.311   1.716  1.00  0.00    -0.259 OA
BRANCH  21  23
HETATM   23  O2  UNL     1      -1.665   3.016  -0.388  1.00  0.00    -0.322 OA
HETATM   24  C7  UNL     1      -2.762   3.856  -0.243  1.00  0.00     0.213 C 
ENDBRANCH  21  23
ENDBRANCH   4  21
TORSDOF 4
