REMARK  7 active torsions:
REMARK  status: ('A' for Active; 'I' for Inactive)
REMARK    1  A    between atoms: O1_2  and  C2_3 
REMARK    2  A    between atoms: C2_3  and  C3_5 
REMARK    3  A    between atoms: C3_5  and  N1_6 
REMARK    4  A    between atoms: C3_5  and  C10_23 
REMARK       I    between atoms: N1_6  and  C4_8 
REMARK    5  A    between atoms: C4_8  and  C5_10 
REMARK    6  A    between atoms: C9_15  and  N2_16 
REMARK    7  A    between atoms: N2_16  and  N3_18 
ROOT
HETATM    1  C5  UNL     1      -2.158  -0.359   0.592  1.00  0.00     0.163 C 
HETATM    2  S1  UNL     1      -2.253  -2.032  -0.158  1.00  0.00    -0.152 SA
HETATM    3  C6  UNL     1      -3.411  -1.837  -1.568  1.00  0.00     0.075 C 
HETATM    4  C7  UNL     1      -4.564  -1.002  -1.121  1.00  0.00     0.012 C 
HETATM    5  C8  UNL     1      -4.204   0.324  -0.553  1.00  0.00     0.029 C 
HETATM    6  C9  UNL     1      -2.731   0.586  -0.454  1.00  0.00     0.123 C 
ENDROOT
BRANCH   1   7
HETATM    7  C4  UNL     1      -0.761  -0.054   0.908  1.00  0.00     0.234 C 
HETATM    8  N1  UNL     1       0.276  -0.004  -0.063  1.00  0.00    -0.346 N 
ATOM      9  H1  UNL     1       0.046  -0.189  -1.039  1.00  0.00     0.163 HD
HETATM   10  O3  UNL     1      -0.461   0.176   2.108  1.00  0.00    -0.272 OA
BRANCH   8  11
HETATM   11  C3  UNL     1       1.625   0.295   0.280  1.00  0.00     0.188 C 
BRANCH  11  12
HETATM   12  C2  UNL     1       2.134   1.528  -0.371  1.00  0.00     0.281 C 
HETATM   13  O2  UNL     1       1.349   2.153  -1.126  1.00  0.00    -0.263 OA
BRANCH  12  14
HETATM   14  O1  UNL     1       3.401   2.019  -0.195  1.00  0.00    -0.325 OA
HETATM   15  C1  UNL     1       3.916   3.183  -0.795  1.00  0.00     0.213 C 
ENDBRANCH  12  14
ENDBRANCH  11  12
BRANCH  11  16
HETATM   16  C10 UNL     1       2.595  -0.811  -0.025  1.00  0.00     0.018 C 
HETATM   17  C11 UNL     1       2.271  -2.156   0.542  1.00  0.00     0.007 C 
HETATM   18  C12 UNL     1       3.728  -2.297   0.932  1.00  0.00     0.001 C 
HETATM   19  C13 UNL     1       3.815  -0.780   0.897  1.00  0.00     0.007 C 
ENDBRANCH  11  16
ENDBRANCH   8  11
ENDBRANCH   1   7
BRANCH   6  20
HETATM   20  N2  UNL     1      -2.553   1.936   0.051  1.00  0.00    -0.316 N 
ATOM     21  H2  UNL     1      -1.768   2.516  -0.245  1.00  0.00     0.182 HD
BRANCH  20  22
HETATM   22  N3  UNL     1      -3.393   2.349   0.853  1.00  0.00    -0.253 N 
HETATM   23  N4  UNL     1      -4.234   3.115   1.365  1.00  0.00    -0.331 N 
ATOM     24  H42 UNL     1      -4.177   3.861   0.671  1.00  0.00     0.178 HD
ATOM     25  H41 UNL     1      -4.929   3.457   2.029  1.00  0.00     0.178 HD
ATOM     26  H3  UNL     1      -3.413   1.576   1.518  1.00  0.00     0.207 HD
ENDBRANCH  20  22
ENDBRANCH   6  20
TORSDOF 7
