REMARK  6 active torsions:
REMARK  status: ('A' for Active; 'I' for Inactive)
REMARK    1  A    between atoms: C2_2  and  C3_3 
REMARK    2  A    between atoms: C4_10  and  C5_11 
REMARK    3  A    between atoms: C7_15  and  N5_16 
REMARK    4  A    between atoms: N5_16  and  C8_18 
REMARK    5  A    between atoms: C8_18  and  C9_19 
REMARK    6  A    between atoms: N7_25  and  C13_27 
ROOT
HETATM    1  C5  UNL     1      -1.020   0.148  -0.351  1.00  0.00     0.070 A 
HETATM    2  C6  UNL     1      -0.081   1.136  -0.580  1.00  0.00     0.125 A 
HETATM    3  N4  UNL     1       1.240   0.915  -0.697  1.00  0.00    -0.201 N 
ATOM      4  H4  UNL     1       1.894   1.680  -0.865  1.00  0.00     0.183 HD
HETATM    5  C7  UNL     1       1.663  -0.356  -0.583  1.00  0.00     0.679 A 
HETATM    6  N6  UNL     1       0.769  -1.356  -0.359  1.00  0.00    -0.176 N 
ATOM      7  H6  UNL     1       1.115  -2.312  -0.277  1.00  0.00     0.186 HD
HETATM    8  C12 UNL     1      -0.550  -1.137  -0.241  1.00  0.00     0.132 A 
HETATM    9  N7  UNL     1      -1.394  -2.087  -0.028  1.00  0.00    -0.371 N 
ATOM     10  H7  UNL     1      -2.380  -1.838   0.050  1.00  0.00     0.161 HD
ENDROOT
BRANCH   1  11
HETATM   11  C4  UNL     1      -2.430   0.486  -0.239  1.00  0.00     0.138 A 
HETATM   12  N3  UNL     1      -3.315  -0.497  -0.018  1.00  0.00    -0.270 N 
HETATM   13  N2  UNL     1      -4.620  -0.257   0.096  1.00  0.00    -0.240 N 
ATOM     14  H3  UNL     1      -2.979  -1.456   0.065  1.00  0.00     0.190 HD
HETATM   15  N1  UNL     1      -5.056   0.992  -0.014  1.00  0.00    -0.275 N 
ATOM     16  H2  UNL     1      -5.274  -1.021   0.265  1.00  0.00     0.208 HD
HETATM   17  C3  UNL     1      -4.217   2.014  -0.235  1.00  0.00     0.098 A 
ATOM     18  H1  UNL     1      -6.055   1.179   0.072  1.00  0.00     0.189 HD
HETATM   19  N8  UNL     1      -2.910   1.737  -0.344  1.00  0.00    -0.329 N 
ATOM     20  H8  UNL     1      -2.257   2.502  -0.512  1.00  0.00     0.168 HD
BRANCH  17  21
HETATM   21  C2  UNL     1      -4.761   3.381  -0.348  1.00  0.00     0.073 C 
HETATM   22  C1  UNL     1      -4.818   4.084   0.994  1.00  0.00     0.013 C 
ENDBRANCH  17  21
ENDBRANCH   1  11
BRANCH   9  23
HETATM   23  C13 UNL     1      -1.041  -3.468   0.107  1.00  0.00     0.075 C 
HETATM   24  C14 UNL     1      -0.765  -4.156  -1.202  1.00  0.00     0.031 C 
HETATM   25  C15 UNL     1      -2.195  -4.181   0.786  1.00  0.00     0.031 C 
ENDBRANCH   9  23
BRANCH   5  26
HETATM   26  N5  UNL     1       2.904  -0.611  -0.687  1.00  0.00    -0.226 N 
ATOM     27  H5  UNL     1       3.181  -1.588  -0.594  1.00  0.00     0.177 HD
BRANCH  26  28
HETATM   28  C8  UNL     1       3.947   0.331  -0.921  1.00  0.00     0.142 C 
BRANCH  28  29
HETATM   29  C9  UNL     1       4.434   0.964   0.375  1.00  0.00    -0.004 C 
HETATM   30  C10 UNL     1       4.963  -0.135   1.290  1.00  0.00     0.011 C 
HETATM   31  C11 UNL     1       5.591   1.905   0.116  1.00  0.00     0.011 C 
ENDBRANCH  28  29
ENDBRANCH  26  28
ENDBRANCH   5  26
TORSDOF 6
