REMARK  5 active torsions:
REMARK  status: ('A' for Active; 'I' for Inactive)
REMARK    1  A    between atoms: C4_4  and  C5_5 
REMARK    2  A    between atoms: C17_19  and  O3_20 
REMARK    3  A    between atoms: C20_24  and  O4_25 
REMARK    4  A    between atoms: O4_25  and  C21_26 
REMARK    5  A    between atoms: C21_26  and  C22_28 
ROOT
HETATM    1  C5  UNL     1       3.235   0.474  -0.612  1.00  0.00     0.168 C 
HETATM    2  C6  UNL     1       2.058   0.968   0.117  1.00  0.00     0.052 C 
HETATM    3  C7  UNL     1       0.766   0.505  -0.411  1.00  0.00    -0.004 C 
HETATM    4  C8  UNL     1       0.291   1.271  -1.579  1.00  0.00     0.021 C 
HETATM    5  C9  UNL     1      -0.295   0.485   0.754  1.00  0.00     0.052 C 
HETATM    6  C10 UNL     1      -1.200  -0.465   0.115  1.00  0.00    -0.038 C 
HETATM    7  C11 UNL     1      -0.309  -1.573  -0.293  1.00  0.00    -0.029 C 
HETATM    8  C12 UNL     1       0.831  -0.967  -0.615  1.00  0.00     0.033 C 
HETATM    9  C13 UNL     1       2.061  -1.503  -1.244  1.00  0.00     0.291 C 
HETATM   10  O1  UNL     1       1.864  -2.370  -2.090  1.00  0.00    -0.260 OA
HETATM   11  O2  UNL     1       3.244  -0.950  -0.793  1.00  0.00    -0.307 OA
HETATM   12  C14 UNL     1      -0.591  -3.017  -0.295  1.00  0.00     0.012 C 
HETATM   13  C15 UNL     1       0.464  -4.018  -0.167  1.00  0.00     0.023 C 
HETATM   14  C16 UNL     1      -1.327  -3.208   1.070  1.00  0.00     0.023 C 
HETATM   15  C17 UNL     1      -1.617  -3.239  -1.340  1.00  0.00     0.180 C 
HETATM   16  C18 UNL     1      -2.853  -2.467  -1.258  1.00  0.00     0.006 C 
HETATM   17  C19 UNL     1      -3.261  -1.455  -0.508  1.00  0.00     0.008 C 
HETATM   18  C20 UNL     1      -2.551  -0.719   0.570  1.00  0.00     0.184 C 
ENDROOT
BRANCH   1  19
HETATM   19  C4  UNL     1       4.458   0.904   0.130  1.00  0.00    -0.004 A 
HETATM   20  C3  UNL     1       5.264   1.977  -0.184  1.00  0.00     0.044 A 
HETATM   21  C2  UNL     1       6.277   2.023   0.745  1.00  0.00     0.049 A 
HETATM   22  C1  UNL     1       7.383   3.042   0.775  1.00  0.00     0.076 C 
HETATM   23  O6  UNL     1       6.095   1.026   1.584  1.00  0.00    -0.327 OA
HETATM   24  C25 UNL     1       5.027   0.337   1.255  1.00  0.00     0.151 A 
ENDBRANCH   1  19
BRANCH  18  25
HETATM   25  O4  UNL     1      -3.177   0.598   0.557  1.00  0.00    -0.307 OA
BRANCH  25  26
HETATM   26  C21 UNL     1      -3.831   1.130   1.629  1.00  0.00     0.263 C 
HETATM   27  O5  UNL     1      -3.898   0.448   2.685  1.00  0.00    -0.265 OA
BRANCH  26  28
HETATM   28  C22 UNL     1      -4.472   2.476   1.619  1.00  0.00     0.077 C 
HETATM   29  C23 UNL     1      -5.545   2.497   0.525  1.00  0.00     0.020 C 
HETATM   30  C24 UNL     1      -3.453   3.570   1.343  1.00  0.00     0.020 C 
ENDBRANCH  26  28
ENDBRANCH  25  26
ENDBRANCH  18  25
BRANCH  15  31
HETATM   31  O3  UNL     1      -1.924  -4.616  -1.323  1.00  0.00    -0.274 OA
HETATM   32 CL1  UNL     1      -1.599  -5.389  -2.779  1.00  0.00     0.062 Cl
ENDBRANCH  15  31
TORSDOF 5
