REMARK  4 active torsions:
REMARK  status: ('A' for Active; 'I' for Inactive)
REMARK    1  A    between atoms: C2_2  and  O1_3 
REMARK    2  A    between atoms: O1_3  and  C3_4 
REMARK    3  A    between atoms: C3_4  and  C4_6 
REMARK    4  A    between atoms: C11_14  and  O3_15 
ROOT
HETATM    1  C4  UNL     1       3.391   0.538  -0.502  1.00  0.00     0.088 A 
HETATM    2  S1  UNL     1       2.669   1.686  -1.532  1.00  0.00    -0.065 SA
HETATM    3  C5  UNL     1       1.042   1.261  -1.314  1.00  0.00     0.082 A 
HETATM    4  C6  UNL     1       1.087   0.210  -0.425  1.00  0.00    -0.012 A 
HETATM    5  C7  UNL     1       2.325  -0.163  -0.004  1.00  0.00    -0.029 A 
HETATM    6  C8  UNL     1       2.620  -1.296   0.970  1.00  0.00     0.050 C 
HETATM    7  C9  UNL     1      -0.109  -0.528   0.106  1.00  0.00     0.037 C 
HETATM    8  C10 UNL     1      -0.417  -1.785  -0.639  1.00  0.00     0.042 C 
HETATM    9  C11 UNL     1      -1.806  -2.108  -0.135  1.00  0.00     0.126 C 
HETATM   10  C13 UNL     1      -2.253  -0.887   0.688  1.00  0.00     0.029 C 
HETATM   11  C14 UNL     1      -3.699  -0.594   0.554  1.00  0.00     0.040 C 
HETATM   12  C15 UNL     1      -3.963   0.770  -0.042  1.00  0.00     0.123 C 
HETATM   13  C16 UNL     1      -3.709   1.904   0.961  1.00  0.00     0.038 C 
HETATM   14  C17 UNL     1      -2.614   1.418   1.828  1.00  0.00     0.013 A 
HETATM   15  C18 UNL     1      -1.335   1.887   2.210  1.00  0.00     0.092 A 
HETATM   16 CL1  UNL     1      -1.219   3.615   2.688  1.00  0.00    -0.124 Cl
HETATM   17  C19 UNL     1      -1.422   1.493   0.844  1.00  0.00     0.022 A 
HETATM   18  C20 UNL     1      -1.374   0.251   0.112  1.00  0.00     0.011 C 
HETATM   19  C21 UNL     1      -1.986   0.468  -1.269  1.00  0.00     0.177 C 
HETATM   20  O4  UNL     1      -3.304   0.864  -1.205  1.00  0.00    -0.374 OA
HETATM   21  C22 UNL     1      -1.309   1.628  -1.971  1.00  0.00     0.013 C 
HETATM   22  C23 UNL     1      -2.121   2.555  -2.764  1.00  0.00     0.066 C 
HETATM   23  N1  UNL     1      -0.053   1.914  -1.960  1.00  0.00    -0.355 N 
ATOM     24  H1  UNL     1       0.201   2.741  -2.500  1.00  0.00     0.166 HD
ENDROOT
BRANCH   1  25
HETATM   25  C3  UNL     1       4.835   0.342  -0.211  1.00  0.00     0.300 C 
HETATM   26  O2  UNL     1       5.615   1.139  -0.814  1.00  0.00    -0.259 OA
BRANCH  25  27
HETATM   27  O1  UNL     1       5.317  -0.613   0.634  1.00  0.00    -0.317 OA
BRANCH  27  28
HETATM   28  C2  UNL     1       6.736  -0.681   0.815  1.00  0.00     0.174 C 
HETATM   29  C1  UNL     1       7.168   0.648   1.365  1.00  0.00     0.034 C 
ENDBRANCH  27  28
ENDBRANCH  25  27
ENDBRANCH   1  25
BRANCH   9  30
HETATM   30  O3  UNL     1      -2.707  -2.453  -1.098  1.00  0.00    -0.390 OA
HETATM   31  C12 UNL     1      -3.119  -3.761  -0.903  1.00  0.00     0.202 C 
ENDBRANCH   9  30
TORSDOF 4
