REMARK  6 active torsions:
REMARK  status: ('A' for Active; 'I' for Inactive)
REMARK    1  A    between atoms: C2_2  and  C3_4 
REMARK    2  A    between atoms: C3_4  and  C4_5 
REMARK    3  A    between atoms: C3_4  and  C18_23 
REMARK    4  A    between atoms: C4_5  and  C5_6 
REMARK    5  A    between atoms: C18_23  and  O6_25 
REMARK    6  A    between atoms: O6_25  and  C19_26 
ROOT
HETATM    1  C5  UNL     1      -1.631  -0.504   0.389  1.00  0.00     0.011 C 
HETATM    2  C6  UNL     1      -1.732  -1.995   0.761  1.00  0.00     0.017 C 
HETATM    3  C7  UNL     1      -2.559  -2.277   1.975  1.00  0.00     0.018 C 
HETATM    4  C8  UNL     1      -3.753  -1.382   2.131  1.00  0.00     0.115 C 
HETATM    5  C9  UNL     1      -3.275  -0.167   2.837  1.00  0.00     0.266 C 
HETATM    6  O1  UNL     1      -3.788   0.062   3.943  1.00  0.00    -0.265 OA
HETATM    7  O2  UNL     1      -2.331   0.692   2.357  1.00  0.00    -0.315 OA
HETATM    8  C10 UNL     1      -1.194   0.319   1.542  1.00  0.00     0.140 C 
HETATM    9  C11 UNL     1      -0.175  -0.263   2.450  1.00  0.00     0.041 C 
HETATM   10  C12 UNL     1      -4.125  -0.940   0.736  1.00  0.00     0.144 C 
HETATM   11  O3  UNL     1      -5.275  -0.148   0.738  1.00  0.00    -0.354 OA
HETATM   12  C13 UNL     1      -4.892   1.166   0.657  1.00  0.00     0.267 C 
HETATM   13  O4  UNL     1      -5.423   1.890  -0.406  1.00  0.00    -0.355 OA
HETATM   14  C14 UNL     1      -4.330   1.590  -1.181  1.00  0.00     0.130 C 
HETATM   15  C15 UNL     1      -3.768   2.750  -1.948  1.00  0.00     0.040 C 
HETATM   16  C16 UNL     1      -3.501   1.202   0.053  1.00  0.00     0.077 C 
HETATM   17  C17 UNL     1      -3.093  -0.204  -0.014  1.00  0.00     0.041 C 
ENDROOT
BRANCH   1  18
HETATM   18  C4  UNL     1      -0.882  -0.364  -0.896  1.00  0.00     0.005 C 
BRANCH  18  19
HETATM   19  C3  UNL     1       0.480  -0.812  -1.086  1.00  0.00     0.053 C 
BRANCH  19  20
HETATM   20  C2  UNL     1       0.848  -1.941  -1.649  1.00  0.00     0.024 C 
HETATM   21  C1  UNL     1      -0.147  -2.893  -2.164  1.00  0.00     0.063 C 
HETATM   22 CL1  UNL     1       2.519  -2.384  -1.805  1.00  0.00    -0.088 Cl
ENDBRANCH  19  20
BRANCH  19  23
HETATM   23  C18 UNL     1       1.598   0.071  -0.732  1.00  0.00     0.294 C 
HETATM   24  O5  UNL     1       1.476   1.218  -0.221  1.00  0.00    -0.259 OA
BRANCH  23  25
HETATM   25  O6  UNL     1       2.940  -0.230  -0.908  1.00  0.00    -0.312 OA
BRANCH  25  26
HETATM   26  C19 UNL     1       4.024   0.545  -0.601  1.00  0.00     0.132 C 
HETATM   27  C20 UNL     1       4.971   0.881  -1.692  1.00  0.00     0.032 C 
HETATM   28  C21 UNL     1       6.023   1.824  -1.136  1.00  0.00     0.002 C 
HETATM   29  C22 UNL     1       6.685   1.287   0.101  1.00  0.00     0.000 C 
HETATM   30  C23 UNL     1       5.684   0.860   1.153  1.00  0.00     0.002 C 
HETATM   31  C24 UNL     1       4.792  -0.167   0.499  1.00  0.00     0.032 C 
ENDBRANCH  25  26
ENDBRANCH  23  25
ENDBRANCH  19  23
ENDBRANCH  18  19
ENDBRANCH   1  18
TORSDOF 6
