REMARK  1 active torsions:
REMARK  status: ('A' for Active; 'I' for Inactive)
REMARK    1  A    between atoms: C8_9  and  O1_10 
ROOT
HETATM    1  N1  UNL     1       3.760   0.886   0.052  1.00  0.00    -0.197 NA
HETATM    2  C1  UNL     1       2.659   0.521   0.114  1.00  0.00     0.066 C 
HETATM    3  C2  UNL     1       1.274   0.081   0.205  1.00  0.00     0.121 C 
HETATM    4  C3  UNL     1       1.040  -1.018  -0.791  1.00  0.00     0.022 C 
HETATM    5  C4  UNL     1      -0.341  -1.561  -0.793  1.00  0.00     0.001 C 
HETATM    6  C5  UNL     1      -1.136  -1.276   0.441  1.00  0.00     0.000 C 
HETATM    7  C6  UNL     1      -1.746   0.087   0.475  1.00  0.00     0.002 C 
HETATM    8  C7  UNL     1      -0.795   1.177   0.863  1.00  0.00     0.033 C 
HETATM    9  C8  UNL     1       0.332   1.215  -0.132  1.00  0.00     0.135 C 
ENDROOT
BRANCH   9  10
HETATM   10  O1  UNL     1       0.980   2.439  -0.182  1.00  0.00    -0.394 OA
ATOM     11  H1  UNL     1       0.388   3.151  -0.394  1.00  0.00     0.210 HD
ENDBRANCH   9  10
TORSDOF 1
