REMARK  0 active torsions:
REMARK  status: ('A' for Active; 'I' for Inactive)
ROOT
HETATM    1  C1  UNL     1       1.982   0.357  -0.379  1.00  0.00     0.041 C 
HETATM    2  C2  UNL     1       0.521   0.497  -0.051  1.00  0.00     0.080 C 
HETATM    3  S1  UNL     1       0.126   1.941   0.911  1.00  0.00    -0.074 SA
HETATM    4  C3  UNL     1      -0.007  -0.793   0.548  1.00  0.00     0.050 C 
HETATM    5  C4  UNL     1      -1.521  -0.554   0.509  1.00  0.00     0.125 C 
HETATM    6  N1  UNL     1      -1.851  -0.505  -0.901  1.00  0.00    -0.178 NA
HETATM    7  S2  UNL     1      -0.511   0.480  -1.562  1.00  0.00    -0.044 SA
ENDROOT
TORSDOF 0
