REMARK  0 active torsions:
REMARK  status: ('A' for Active; 'I' for Inactive)
ROOT
HETATM    1  N1  UNL     1      -0.263   2.443  -0.141  1.00  0.00    -0.404 N 
ATOM      2  H11 UNL     1       0.421   3.129   0.178  1.00  0.00     0.155 HD
ATOM      3  H12 UNL     1      -1.018   2.956  -0.596  1.00  0.00     0.155 HD
HETATM    4  C1  UNL     1      -0.289   1.175  -0.055  1.00  0.00     0.005 C 
HETATM    5  C2  UNL     1      -1.281   0.181  -0.518  1.00  0.00     0.055 C 
HETATM    6  C3  UNL     1      -0.558  -1.137  -0.443  1.00  0.00     0.025 C 
HETATM    7  C4  UNL     1       0.281  -0.987   0.771  1.00  0.00     0.100 C 
HETATM    8  S1  UNL     1       1.897  -1.858   0.601  1.00  0.00    -0.032 SA
HETATM    9  N2  UNL     1       2.597  -0.566  -0.401  1.00  0.00    -0.277 N 
ATOM     10  H2  UNL     1       3.414  -0.647  -1.006  1.00  0.00     0.195 HD
HETATM   11  N3  UNL     1       1.929   0.421  -0.234  1.00  0.00    -0.319 N 
ATOM     12  H3  UNL     1       2.172   1.279  -0.728  1.00  0.00     0.181 HD
HETATM   13  C5  UNL     1       0.832   0.413   0.620  1.00  0.00     0.160 C 
ENDROOT
TORSDOF 0
