REMARK  0 active torsions:
REMARK  status: ('A' for Active; 'I' for Inactive)
ROOT
HETATM    1  C1  UNL     1      -0.744   0.254   0.032  1.00  0.00     0.134 C 
HETATM    2  C2  UNL     1      -0.295  -1.156   0.036  1.00  0.00     0.104 C 
HETATM    3  S1  UNL     1       1.372  -1.437  -0.555  1.00  0.00    -0.084 SA
HETATM    4  S2  UNL     1       2.666  -0.039   0.455  1.00  0.00    -0.007 SA
HETATM    5  S3  UNL     1       1.445   1.742   0.396  1.00  0.00     0.020 SA
HETATM    6  N1  UNL     1       0.090   1.189  -0.632  1.00  0.00    -0.167 NA
ENDROOT
TORSDOF 0
