REMARK  1 active torsions:
REMARK  status: ('A' for Active; 'I' for Inactive)
REMARK    1  A    between atoms: O1_3  and  C2_4 
ROOT
HETATM    1  N1  UNL     1       4.425  -0.110  -0.065  1.00  0.00    -0.164 NA
HETATM    2  C1  UNL     1       3.372   0.119  -0.489  1.00  0.00     0.229 C 
HETATM    3  O1  UNL     1       2.114   0.374  -1.009  1.00  0.00    -0.272 OA
ENDROOT
BRANCH   3   4
HETATM    4  C2  UNL     1       0.973   0.049  -0.279  1.00  0.00     0.186 C 
HETATM    5  C3  UNL     1       0.087  -0.971  -0.970  1.00  0.00     0.039 C 
HETATM    6  C4  UNL     1      -0.838  -1.518   0.124  1.00  0.00     0.003 C 
HETATM    7  C5  UNL     1      -1.573  -0.440   0.832  1.00  0.00     0.006 C 
HETATM    8  C6  UNL     1      -1.319   0.944   0.281  1.00  0.00     0.054 C 
HETATM    9  C7  UNL     1       0.111   1.204   0.034  1.00  0.00     0.010 C 
HETATM   10  N2  UNL     1       0.593   2.351   0.083  1.00  0.00    -0.403 N 
ATOM     11  H22 UNL     1       1.582   2.531  -0.088  1.00  0.00     0.155 HD
ATOM     12  H21 UNL     1      -0.003   3.150   0.299  1.00  0.00     0.155 HD
ENDBRANCH   3   4
TORSDOF 1
