REMARK  0 active torsions:
REMARK  status: ('A' for Active; 'I' for Inactive)
ROOT
HETATM    1  C1  UNL     1       0.110  -0.520   0.802  1.00  0.00     0.018 C 
HETATM    2  C2  UNL     1      -0.981  -0.675  -0.212  1.00  0.00     0.012 C 
HETATM    3  C3  UNL     1      -1.797   0.546  -0.437  1.00  0.00     0.087 C 
HETATM    4  S1  UNL     1      -1.081   2.050   0.228  1.00  0.00    -0.080 SA
HETATM    5  S2  UNL     1       1.013   2.119   0.090  1.00  0.00     0.008 SA
HETATM    6  N1  UNL     1       1.678   0.674  -0.654  1.00  0.00    -0.169 NA
HETATM    7  C4  UNL     1       1.494  -0.497   0.154  1.00  0.00     0.123 C 
ENDROOT
TORSDOF 0
