REMARK  3 active torsions:
REMARK  status: ('A' for Active; 'I' for Inactive)
REMARK    1  A    between atoms: C1_4  and  O1_5 
REMARK    2  A    between atoms: C1_4  and  S1_7 
REMARK    3  A    between atoms: S1_7  and  C2_8 
ROOT
HETATM    1  C2  UNL     1       0.427  -0.332   0.540  1.00  0.00     0.050 C 
HETATM    2  N2  UNL     1       0.224   0.918   0.392  1.00  0.00    -0.388 N 
ATOM      3  H2  UNL     1       1.038   1.531   0.418  1.00  0.00     0.159 HD
HETATM    4  C3  UNL     1      -1.044   1.525   0.194  1.00  0.00     0.120 C 
HETATM    5  C4  UNL     1      -2.057   0.650  -0.463  1.00  0.00     0.020 C 
HETATM    6  C5  UNL     1      -1.608  -0.757  -0.689  1.00  0.00     0.008 C 
HETATM    7  C6  UNL     1      -0.762  -1.224   0.501  1.00  0.00     0.065 C 
ENDROOT
BRANCH   1   8
HETATM    8  S1  UNL     1       2.019  -1.066   0.786  1.00  0.00    -0.034 SA
BRANCH   8   9
HETATM    9  C1  UNL     1       3.335   0.112   0.810  1.00  0.00     0.179 C 
HETATM   10  N1  UNL     1       4.539  -0.287   0.981  1.00  0.00    -0.374 N 
ATOM     11  H12 UNL     1       5.299   0.393   0.995  1.00  0.00     0.158 HD
ATOM     12  H11 UNL     1       4.701  -1.287   1.099  1.00  0.00     0.158 HD
BRANCH   9  13
HETATM   13  O1  UNL     1       3.116   1.466   0.650  1.00  0.00    -0.341 OA
ATOM     14  H1  UNL     1       2.222   1.762   0.523  1.00  0.00     0.220 HD
ENDBRANCH   9  13
ENDBRANCH   8   9
ENDBRANCH   1   8
TORSDOF 3
