REMARK  3 active torsions:
REMARK  status: ('A' for Active; 'I' for Inactive)
REMARK    1  A    between atoms: O1_2  and  C2_3 
REMARK    2  A    between atoms: C2_3  and  S1_5 
REMARK    3  A    between atoms: S1_5  and  C3_6 
ROOT
HETATM    1  S1  UNL     1      -0.287  -0.436   1.660  1.00  0.00    -0.053 SA
ENDROOT
BRANCH   1   2
HETATM    2  C2  UNL     1       1.428  -0.670   1.282  1.00  0.00     0.322 C 
HETATM    3  O2  UNL     1       2.172  -1.129   2.207  1.00  0.00    -0.252 OA
BRANCH   2   4
HETATM    4  O1  UNL     1       1.990  -0.378   0.036  1.00  0.00    -0.318 OA
HETATM    5  C1  UNL     1       3.387  -0.626  -0.101  1.00  0.00     0.214 C 
ENDBRANCH   2   4
ENDBRANCH   1   2
BRANCH   1   6
HETATM    6  C3  UNL     1      -1.210   0.220   0.250  1.00  0.00     0.007 C 
HETATM    7  C4  UNL     1      -0.746   1.614  -0.059  1.00  0.00     0.026 C 
HETATM    8  C5  UNL     1      -2.693   0.327   0.609  1.00  0.00     0.026 C 
HETATM    9  C6  UNL     1      -1.090  -0.742  -0.883  1.00  0.00     0.026 C 
ENDBRANCH   1   6
TORSDOF 3
