REMARK  0 active torsions:
REMARK  status: ('A' for Active; 'I' for Inactive)
ROOT
HETATM    1  O1  UNL     1       3.851  -0.540  -0.154  1.00  0.00    -0.260 OA
HETATM    2  C1  UNL     1       2.638  -0.361   0.073  1.00  0.00     0.280 C 
HETATM    3  N1  UNL     1       1.502  -1.098  -0.433  1.00  0.00    -0.346 N 
ATOM      4  H1  UNL     1       1.501  -2.084  -0.695  1.00  0.00     0.163 HD
HETATM    5  C2  UNL     1       0.405  -0.234  -0.503  1.00  0.00     0.099 C 
HETATM    6  C3  UNL     1      -0.951  -0.764  -0.709  1.00  0.00     0.026 C 
HETATM    7  C4  UNL     1      -1.762   0.477  -0.291  1.00  0.00     0.003 C 
HETATM    8  C5  UNL     1      -0.889   1.194   0.755  1.00  0.00     0.018 C 
HETATM    9  C6  UNL     1       0.205   0.248   0.957  1.00  0.00     0.080 C 
HETATM   10  S1  UNL     1       1.871   0.907   1.134  1.00  0.00    -0.062 SA
ENDROOT
TORSDOF 0
