REMARK  0 active torsions:
REMARK  status: ('A' for Active; 'I' for Inactive)
ROOT
HETATM    1  C1  UNL     1      -1.474   1.085   0.561  1.00  0.00     0.050 C 
HETATM    2  C2  UNL     1      -0.924  -0.239   0.037  1.00  0.00     0.067 C 
HETATM    3  C3  UNL     1      -2.117  -1.094  -0.311  1.00  0.00     0.050 C 
HETATM    4  N1  UNL     1      -0.112  -0.076  -1.118  1.00  0.00    -0.405 N 
ATOM      5  H1  UNL     1      -0.389  -0.436  -2.031  1.00  0.00     0.154 HD
HETATM    6  C4  UNL     1       1.112   0.622  -0.919  1.00  0.00     0.116 C 
HETATM    7  C5  UNL     1       2.155  -0.155  -0.161  1.00  0.00     0.029 C 
HETATM    8  C6  UNL     1       1.734  -0.566   1.206  1.00  0.00     0.078 C 
HETATM    9  S1  UNL     1       0.019  -1.102   1.314  1.00  0.00    -0.139 SA
ENDROOT
TORSDOF 0
