REMARK  0 active torsions:
REMARK  status: ('A' for Active; 'I' for Inactive)
ROOT
HETATM    1  N1  UNL     1       3.755  -0.011   0.769  1.00  0.00    -0.075 NA
HETATM    2  C1  UNL     1       2.440  -0.003   0.213  1.00  0.00     0.150 C 
HETATM    3  N2  UNL     1       1.314   0.038   0.740  1.00  0.00    -0.363 N 
ATOM      4  H2  UNL     1       1.254   0.073   1.758  1.00  0.00     0.162 HD
HETATM    5  C2  UNL     1       0.141   0.038   0.011  1.00  0.00     0.040 C 
HETATM    6  C3  UNL     1      -0.767  -1.056   0.598  1.00  0.00     0.032 C 
HETATM    7  C4  UNL     1      -2.095  -0.698  -0.031  1.00  0.00     0.002 C 
HETATM    8  C5  UNL     1      -2.155   0.791   0.194  1.00  0.00     0.002 C 
HETATM    9  C6  UNL     1      -0.730   1.267   0.146  1.00  0.00     0.032 C 
HETATM   10  C7  UNL     1       0.342  -0.308  -1.426  1.00  0.00     0.113 C 
HETATM   11  S1  UNL     1       2.157  -0.058  -1.554  1.00  0.00    -0.095 SA
ENDROOT
TORSDOF 0
