REMARK  0 active torsions:
REMARK  status: ('A' for Active; 'I' for Inactive)
ROOT
HETATM    1  C1  UNL     1      -2.527   0.388  -0.175  1.00  0.00     0.000 C 
HETATM    2  C2  UNL     1      -1.393   1.355  -0.345  1.00  0.00     0.002 C 
HETATM    3  C3  UNL     1      -0.249   0.600  -0.988  1.00  0.00     0.034 C 
HETATM    4  C4  UNL     1       0.308  -0.318   0.114  1.00  0.00     0.061 C 
HETATM    5  C5  UNL     1      -0.786  -1.325   0.421  1.00  0.00     0.034 C 
HETATM    6  C6  UNL     1      -2.091  -0.700   0.754  1.00  0.00     0.002 C 
HETATM    7  C7  UNL     1       1.514  -1.032  -0.352  1.00  0.00     0.153 C 
HETATM    8  N1  UNL     1       2.791  -0.507   0.051  1.00  0.00    -0.383 N 
ATOM      9  H1  UNL     1       3.651  -1.055   0.059  1.00  0.00     0.160 HD
HETATM   10  C8  UNL     1       2.723   0.865   0.438  1.00  0.00     0.192 C 
HETATM   11  N2  UNL     1       1.674   1.047   1.361  1.00  0.00    -0.300 N 
ATOM     12  H2  UNL     1       1.831   1.642   2.174  1.00  0.00     0.187 HD
HETATM   13  N3  UNL     1       0.588   0.518   1.220  1.00  0.00    -0.324 N 
ATOM     14  H3  UNL     1      -0.139   0.681   1.917  1.00  0.00     0.181 HD
ENDROOT
TORSDOF 0
