REMARK  0 active torsions:
REMARK  status: ('A' for Active; 'I' for Inactive)
ROOT
HETATM    1  O1  UNL     1       2.061   1.561   0.108  1.00  0.00    -0.265 OA
HETATM    2  C1  UNL     1       1.093   0.734   0.051  1.00  0.00     0.285 A 
HETATM    3  N1  UNL     1      -0.189   1.147   0.068  1.00  0.00    -0.309 N 
ATOM      4  H1  UNL     1      -0.401   2.143   0.127  1.00  0.00     0.170 HD
HETATM    5  C2  UNL     1      -1.187   0.254   0.008  1.00  0.00     0.145 A 
HETATM    6 CL1  UNL     1      -2.868   0.779   0.029  1.00  0.00    -0.061 Cl
HETATM    7  C3  UNL     1      -0.950  -1.104  -0.073  1.00  0.00     0.143 A 
HETATM    8 CL2  UNL     1      -2.273  -2.275  -0.153  1.00  0.00    -0.061 Cl
HETATM    9  N2  UNL     1       0.329  -1.522  -0.090  1.00  0.00    -0.330 N 
ATOM     10  H2  UNL     1       0.541  -2.518  -0.149  1.00  0.00     0.168 HD
HETATM   11  C4  UNL     1       1.333  -0.615  -0.029  1.00  0.00     0.173 A 
HETATM   12 CL3  UNL     1       3.023  -1.138  -0.050  1.00  0.00    -0.058 Cl
ENDROOT
TORSDOF 0
