REMARK  1 active torsions:
REMARK  status: ('A' for Active; 'I' for Inactive)
REMARK    1  A    between atoms: N1_1  and  C1_4 
ROOT
HETATM    1  C1  UNL     1       1.146  -0.168  -0.326  1.00  0.00     0.187 A 
HETATM    2  O1  UNL     1       0.636  -1.375  -0.388  1.00  0.00    -0.217 OA
HETATM    3  N2  UNL     1      -0.605  -1.654  -0.111  1.00  0.00    -0.246 N 
ATOM      4  H2  UNL     1      -0.918  -2.622  -0.187  1.00  0.00     0.196 HD
HETATM    5  C2  UNL     1      -1.490  -0.719   0.271  1.00  0.00     0.147 A 
HETATM    6 CL1  UNL     1      -3.144  -1.167   0.629  1.00  0.00    -0.061 Cl
HETATM    7  C3  UNL     1      -1.026   0.576   0.360  1.00  0.00     0.100 A 
HETATM    8 CL2  UNL     1      -2.140   1.825   0.853  1.00  0.00    -0.079 Cl
HETATM    9  C4  UNL     1       0.295   0.843   0.060  1.00  0.00     0.111 A 
HETATM   10 CL3  UNL     1       0.895   2.477   0.168  1.00  0.00    -0.078 Cl
ENDROOT
BRANCH   1  11
HETATM   11  N1  UNL     1       2.403   0.071  -0.614  1.00  0.00    -0.377 N 
ATOM     12  H12 UNL     1       3.034  -0.678  -0.900  1.00  0.00     0.158 HD
ATOM     13  H11 UNL     1       2.800   1.010  -0.566  1.00  0.00     0.158 HD
ENDBRANCH   1  11
TORSDOF 1
