REMARK  0 active torsions:
REMARK  status: ('A' for Active; 'I' for Inactive)
ROOT
HETATM    1  N1  UNL     1       2.642   0.016  -0.475  1.00  0.00    -0.365 N 
ATOM      2  H11 UNL     1       3.140  -0.874  -0.478  1.00  0.00     0.159 HD
ATOM      3  H12 UNL     1       3.158   0.878  -0.651  1.00  0.00     0.159 HD
HETATM    4  C1  UNL     1       1.358   0.059  -0.249  1.00  0.00     0.224 A 
HETATM    5  N2  UNL     1       0.702   1.231  -0.245  1.00  0.00    -0.311 N 
ATOM      6  H2  UNL     1       1.211   2.097  -0.421  1.00  0.00     0.170 HD
HETATM    7  C2  UNL     1      -0.628   1.270  -0.010  1.00  0.00     0.132 A 
HETATM    8 CL1  UNL     1      -1.452   2.811  -0.012  1.00  0.00    -0.062 Cl
HETATM    9  C3  UNL     1      -1.332   0.108   0.228  1.00  0.00     0.118 A 
HETATM   10 CL2  UNL     1      -3.050   0.105   0.536  1.00  0.00    -0.077 Cl
HETATM   11  C4  UNL     1      -0.602  -1.071   0.211  1.00  0.00     0.173 A 
HETATM   12 CL3  UNL     1      -1.456  -2.579   0.510  1.00  0.00    -0.054 Cl
HETATM   13  O1  UNL     1       0.693  -1.051  -0.022  1.00  0.00    -0.265 OA
ENDROOT
TORSDOF 0
