REMARK  0 active torsions:
REMARK  status: ('A' for Active; 'I' for Inactive)
ROOT
HETATM    1  N1  UNL     1      -2.124  -0.712  -0.190  1.00  0.00    -0.378 N 
ATOM      2  H11 UNL     1      -2.846   0.003  -0.278  1.00  0.00     0.158 HD
ATOM      3  H12 UNL     1      -2.372  -1.701  -0.190  1.00  0.00     0.158 HD
HETATM    4  C1  UNL     1      -0.877  -0.407  -0.076  1.00  0.00     0.169 A 
HETATM    5  O1  UNL     1       0.069  -1.344   0.039  1.00  0.00    -0.265 OA
HETATM    6  C2  UNL     1       1.339  -1.038   0.156  1.00  0.00     0.225 A 
HETATM    7 CL1  UNL     1       2.590  -2.258   0.308  1.00  0.00    -0.037 Cl
HETATM    8  N2  UNL     1       1.691   0.260   0.159  1.00  0.00    -0.316 N 
ATOM      9  H2  UNL     1       2.678   0.500   0.250  1.00  0.00     0.170 HD
HETATM   10  C3  UNL     1       0.791   1.256   0.047  1.00  0.00     0.132 A 
HETATM   11 CL2  UNL     1       1.242   2.932   0.050  1.00  0.00    -0.062 Cl
HETATM   12  C4  UNL     1      -0.542   0.928  -0.076  1.00  0.00     0.123 A 
HETATM   13 CL3  UNL     1      -1.816   2.112  -0.229  1.00  0.00    -0.076 Cl
ENDROOT
TORSDOF 0
