REMARK  0 active torsions:
REMARK  status: ('A' for Active; 'I' for Inactive)
ROOT
HETATM    1  C1  UNL     1      -1.759  -1.218   0.035  1.00  0.00     0.070 C 
HETATM    2  C2  UNL     1      -0.454  -0.552   0.008  1.00  0.00     0.031 A 
HETATM    3  N1  UNL     1       0.734  -1.185  -0.002  1.00  0.00    -0.336 N 
ATOM      4  H1  UNL     1       0.755  -2.205   0.009  1.00  0.00     0.168 HD
HETATM    5  C3  UNL     1       1.894  -0.505  -0.026  1.00  0.00     0.177 A 
HETATM    6  S1  UNL     1       3.281  -1.348  -0.037  1.00  0.00    -0.040 SA
HETATM    7  N2  UNL     1       1.967   0.839  -0.043  1.00  0.00    -0.323 N 
ATOM      8  H2  UNL     1       2.863   1.326  -0.062  1.00  0.00     0.169 HD
HETATM    9  C4  UNL     1       0.797   1.511  -0.034  1.00  0.00     0.125 A 
HETATM   10  S2  UNL     1       0.833   3.154  -0.053  1.00  0.00    -0.059 SA
HETATM   11  C5  UNL     1      -0.409   0.839  -0.009  1.00  0.00     0.104 A 
HETATM   12  C6  UNL     1      -1.625   1.567   0.001  1.00  0.00     0.104 C 
HETATM   13  N3  UNL     1      -2.602   2.156  -0.004  1.00  0.00    -0.191 NA
ENDROOT
TORSDOF 0
