REMARK  1 active torsions:
REMARK  status: ('A' for Active; 'I' for Inactive)
REMARK    1  A    between atoms: O1_1  and  C1_3 
ROOT
HETATM    1  C1  UNL     1       1.522  -0.242   0.098  1.00  0.00     0.179 C 
HETATM    2  C2  UNL     1       0.499  -1.251  -0.373  1.00  0.00     0.042 C 
HETATM    3  C3  UNL     1      -0.884  -0.954   0.134  1.00  0.00     0.004 C 
HETATM    4  C4  UNL     1      -1.449   0.325  -0.412  1.00  0.00     0.010 C 
HETATM    5  C5  UNL     1      -0.731   1.536   0.081  1.00  0.00     0.076 C 
HETATM    6  S1  UNL     1       0.624   0.948   1.172  1.00  0.00    -0.138 SA
ENDROOT
BRANCH   1   7
HETATM    7  O1  UNL     1       1.988   0.552  -0.975  1.00  0.00    -0.385 OA
ATOM      8  H1  UNL     1       2.631   1.186  -0.679  1.00  0.00     0.211 HD
ENDBRANCH   1   7
TORSDOF 1
