REMARK  0 active torsions:
REMARK  status: ('A' for Active; 'I' for Inactive)
ROOT
HETATM    1  N1  UNL     1       3.654   0.174   0.636  1.00  0.00    -0.197 NA
HETATM    2  C1  UNL     1       2.565   0.143   0.267  1.00  0.00     0.066 C 
HETATM    3  C2  UNL     1       1.204   0.106  -0.201  1.00  0.00     0.125 C 
HETATM    4  C3  UNL     1       0.484   1.407   0.159  1.00  0.00     0.054 C 
HETATM    5  C4  UNL     1      -0.902   0.867   0.423  1.00  0.00     0.187 C 
HETATM    6  C5  UNL     1      -1.385   0.049  -0.744  1.00  0.00     0.035 C 
HETATM    7  C6  UNL     1      -0.720  -1.321  -0.585  1.00  0.00     0.036 C 
HETATM    8  C7  UNL     1       0.348  -0.933   0.441  1.00  0.00     0.204 C 
HETATM    9  N2  UNL     1      -0.535  -0.203   1.372  1.00  0.00    -0.065 N 
ATOM     10  H21 UNL     1      -1.294  -0.726   1.810  1.00  0.00     0.278 HD
ATOM     11  H22 UNL     1      -0.143   0.078   2.271  1.00  0.00     0.278 HD
ENDROOT
TORSDOF 0
