REMARK  0 active torsions:
REMARK  status: ('A' for Active; 'I' for Inactive)
ROOT
HETATM    1  C1  UNL     1      -0.798  -0.502  -0.323  1.00  0.00     0.012 C 
HETATM    2  C2  UNL     1       0.512  -0.768   0.345  1.00  0.00     0.012 C 
HETATM    3  C3  UNL     1       1.649   0.020  -0.196  1.00  0.00     0.086 C 
HETATM    4  S1  UNL     1       1.276   1.726  -0.564  1.00  0.00    -0.098 SA
HETATM    5  S2  UNL     1      -0.797   2.177  -0.325  1.00  0.00    -0.098 SA
HETATM    6  C4  UNL     1      -1.566   0.644   0.327  1.00  0.00     0.086 C 
ENDROOT
TORSDOF 0
