REMARK  2 active torsions:
REMARK  status: ('A' for Active; 'I' for Inactive)
REMARK    1  A    between atoms: C8_11  and  N2_12 
REMARK    2  A    between atoms: N2_12  and  C9_14 
ROOT
HETATM    1  N1  UNL     1       4.557   0.764   1.462  1.00  0.00    -0.406 N 
ATOM      2  H11 UNL     1       5.202   1.364   0.948  1.00  0.00     0.155 HD
ATOM      3  H12 UNL     1       4.663   0.472   2.434  1.00  0.00     0.155 HD
HETATM    4  C1  UNL     1       3.516   0.340   0.824  1.00  0.00    -0.020 C 
HETATM    5  C2  UNL     1       2.581  -0.529   1.569  1.00  0.00     0.056 C 
HETATM    6  C3  UNL     1       1.401  -0.832   0.637  1.00  0.00    -0.007 C 
HETATM    7  C4  UNL     1       2.033  -1.340  -0.634  1.00  0.00     0.010 C 
HETATM    8  C5  UNL     1       2.518  -0.137  -1.409  1.00  0.00    -0.007 C 
HETATM    9  C6  UNL     1       3.364   0.759  -0.572  1.00  0.00     0.056 C 
HETATM   10  C7  UNL     1       1.279   0.560  -1.956  1.00  0.00     0.030 C 
HETATM   11  C8  UNL     1       0.199   0.706  -0.944  1.00  0.00     0.100 C 
HETATM   12  C13 UNL     1       0.641   0.439   0.467  1.00  0.00     0.030 C 
ENDROOT
BRANCH  11  13
HETATM   13  N2  UNL     1      -0.951  -0.127  -1.210  1.00  0.00    -0.222 N 
ATOM     14  H2  UNL     1      -0.928  -0.723  -2.038  1.00  0.00     0.178 HD
BRANCH  13  15
HETATM   15  C9  UNL     1      -2.108  -0.169  -0.394  1.00  0.00     0.670 C 
HETATM   16  N3  UNL     1      -2.290  -1.159   0.433  1.00  0.00    -0.227 N 
HETATM   17  C10 UNL     1      -3.458  -1.248   1.290  1.00  0.00     0.139 C 
ATOM     18  H3  UNL     1      -1.587  -1.897   0.480  1.00  0.00     0.177 HD
HETATM   19  C11 UNL     1      -4.612  -0.640   0.487  1.00  0.00     0.040 C 
HETATM   20  C12 UNL     1      -4.253   0.816   0.277  1.00  0.00     0.139 C 
HETATM   21  N4  UNL     1      -3.041   0.869  -0.497  1.00  0.00    -0.227 N 
ATOM     22  H4  UNL     1      -2.863   1.659  -1.117  1.00  0.00     0.177 HD
ENDBRANCH  13  15
ENDBRANCH  11  13
TORSDOF 2
