REMARK  2 active torsions:
REMARK  status: ('A' for Active; 'I' for Inactive)
REMARK    1  A    between atoms: C1_4  and  C2_5 
REMARK    2  A    between atoms: C8_11  and  N2_12 
ROOT
HETATM    1  C2  UNL     1      -1.581  -0.908  -0.243  1.00  0.00     0.021 C 
HETATM    2  C3  UNL     1      -0.523  -0.416   0.283  1.00  0.00    -0.049 C 
HETATM    3  C4  UNL     1      -0.389   0.821   1.069  1.00  0.00     0.036 C 
HETATM    4  C5  UNL     1       0.462   1.809   0.308  1.00  0.00     0.004 C 
HETATM    5  C6  UNL     1       1.729   1.231  -0.218  1.00  0.00     0.003 C 
HETATM    6  C7  UNL     1       1.732  -0.186  -0.614  1.00  0.00     0.037 C 
HETATM    7  C8  UNL     1       0.829  -1.110   0.126  1.00  0.00     0.212 C 
ENDROOT
BRANCH   1   8
HETATM    8  C1  UNL     1      -2.916  -0.394  -0.216  1.00  0.00     0.080 C 
HETATM    9  N1  UNL     1      -3.461   0.591   0.263  1.00  0.00    -0.408 N 
ATOM     10  H12 UNL     1      -2.787   1.175   0.758  1.00  0.00     0.155 HD
ATOM     11  H11 UNL     1      -4.413   0.957   0.282  1.00  0.00     0.155 HD
ENDBRANCH   1   8
BRANCH   7  12
HETATM   12  N2  UNL     1       0.698  -2.369  -0.519  1.00  0.00    -0.071 N 
ATOM     13  H23 UNL     1       0.026  -2.966  -0.037  1.00  0.00     0.275 HD
ATOM     14  H22 UNL     1       0.218  -2.281  -1.415  1.00  0.00     0.275 HD
ATOM     15  H21 UNL     1       1.601  -2.832  -0.624  1.00  0.00     0.275 HD
ENDBRANCH   7  12
TORSDOF 2
