REMARK  0 active torsions:
REMARK  status: ('A' for Active; 'I' for Inactive)
ROOT
HETATM    1  C1  UNL     1      -1.427  -1.654  -0.512  1.00  0.00     0.015 C 
HETATM    2  C2  UNL     1      -0.821  -0.390   0.039  1.00  0.00    -0.041 C 
HETATM    3  C3  UNL     1      -2.003   0.473   0.500  1.00  0.00     0.015 C 
HETATM    4  C4  UNL     1       0.040  -0.619   1.245  1.00  0.00     0.042 C 
HETATM    5  C5  UNL     1       1.358   0.118   1.047  1.00  0.00     0.186 C 
HETATM    6  C6  UNL     1       2.033  -0.553  -0.132  1.00  0.00     0.033 C 
HETATM    7  C7  UNL     1       1.242  -0.208  -1.378  1.00  0.00     0.009 C 
HETATM    8  C8  UNL     1      -0.078   0.410  -0.986  1.00  0.00     0.019 C 
HETATM    9  C9  UNL     1       0.267   1.755  -0.345  1.00  0.00     0.238 C 
HETATM   10  N1  UNL     1       1.131   1.507   0.771  1.00  0.00    -0.070 N 
ATOM     11  H11 UNL     1       2.018   1.995   0.649  1.00  0.00     0.277 HD
ATOM     12  H12 UNL     1       0.783   1.983   1.603  1.00  0.00     0.277 HD
ENDROOT
TORSDOF 0
