REMARK  4 active torsions:
REMARK  status: ('A' for Active; 'I' for Inactive)
REMARK    1  A    between atoms: C2_2  and  C3_3 
REMARK    2  A    between atoms: C6_8  and  O1_9 
REMARK    3  A    between atoms: O1_9  and  N2_10 
REMARK    4  A    between atoms: C11_16  and  C12_17 
ROOT
HETATM    1  C3  UNL     1       5.771  -0.948  -0.239  1.00  0.00     0.081 A 
HETATM    2  N1  UNL     1       4.674  -1.500   0.298  1.00  0.00    -0.344 N 
ATOM      3  H1  UNL     1       4.641  -2.056   1.152  1.00  0.00     0.167 HD
HETATM    4  C4  UNL     1       3.603  -1.186  -0.502  1.00  0.00     0.065 A 
HETATM    5  C5  UNL     1       2.284  -1.488  -0.417  1.00  0.00     0.071 A 
HETATM    6  C6  UNL     1       1.397  -1.036  -1.377  1.00  0.00     0.102 A 
HETATM    7  C18 UNL     1       1.900  -0.265  -2.428  1.00  0.00     0.065 A 
HETATM    8  C19 UNL     1       3.232   0.035  -2.505  1.00  0.00     0.065 A 
HETATM    9 CL1  UNL     1       3.881   0.998  -3.812  1.00  0.00    -0.082 Cl
HETATM   10  C20 UNL     1       4.094  -0.426  -1.539  1.00  0.00     0.082 A 
HETATM   11  N3  UNL     1       5.431  -0.290  -1.359  1.00  0.00    -0.343 N 
ATOM     12  H3  UNL     1       6.068   0.223  -1.969  1.00  0.00     0.167 HD
ENDROOT
BRANCH   6  13
HETATM   13  O1  UNL     1       0.061  -1.342  -1.296  1.00  0.00    -0.238 OA
BRANCH  13  14
HETATM   14  N2  UNL     1      -0.901  -0.699  -0.713  1.00  0.00    -0.269 N 
HETATM   15  C7  UNL     1      -1.124   0.368  -0.107  1.00  0.00     0.015 C 
HETATM   16  C8  UNL     1      -0.182   1.460   0.206  1.00  0.00     0.055 C 
HETATM   17  C11 UNL     1      -2.424   0.860   0.478  1.00  0.00     0.037 C 
HETATM   18  C9  UNL     1      -0.543   1.813   1.637  1.00  0.00     0.006 C 
HETATM   19  C10 UNL     1      -1.964   1.343   1.836  1.00  0.00     0.011 C 
ATOM     20  H2  UNL     1      -1.760  -1.246  -0.768  1.00  0.00     0.194 HD
BRANCH  17  21
HETATM   21  C12 UNL     1      -3.397  -0.272   0.703  1.00  0.00    -0.005 C 
HETATM   22  C13 UNL     1      -3.760  -1.013  -0.539  1.00  0.00     0.005 C 
HETATM   23  C14 UNL     1      -5.203  -1.459  -0.439  1.00  0.00     0.000 C 
HETATM   24  C15 UNL     1      -6.162  -0.288  -0.479  1.00  0.00     0.000 C 
HETATM   25  C16 UNL     1      -5.451   0.897   0.138  1.00  0.00     0.000 C 
HETATM   26  C17 UNL     1      -4.641   0.337   1.313  1.00  0.00     0.005 C 
ENDBRANCH  17  21
ENDBRANCH  13  14
ENDBRANCH   6  13
BRANCH   1  27
HETATM   27  C2  UNL     1       7.129  -1.052   0.318  1.00  0.00     0.072 C 
HETATM   28  C1  UNL     1       7.423   0.093   1.293  1.00  0.00     0.013 C 
ENDBRANCH   1  27
TORSDOF 4
