REMARK  5 active torsions:
REMARK  status: ('A' for Active; 'I' for Inactive)
REMARK    1  A    between atoms: C2_2  and  C3_3 
REMARK    2  A    between atoms: C3_3  and  C4_4 
REMARK    3  A    between atoms: C4_4  and  C5_5 
REMARK    4  A    between atoms: C16_18  and  O2_19 
REMARK    5  A    between atoms: C21_24  and  O3_26 
ROOT
HETATM    1  C5  UNL     1      -1.727   0.338   0.093  1.00  0.00    -0.017 C 
HETATM    2  C6  UNL     1      -1.073  -0.720  -0.202  1.00  0.00    -0.011 C 
HETATM    3  C7  UNL     1      -1.844  -1.780  -0.991  1.00  0.00     0.087 C 
HETATM    4  C8  UNL     1      -2.310  -2.898  -0.131  1.00  0.00     0.051 C 
HETATM    5  C9  UNL     1      -3.005  -1.156  -1.724  1.00  0.00     0.051 C 
HETATM    6  O1  UNL     1      -0.920  -2.170  -1.985  1.00  0.00    -0.336 OA
HETATM    7  C10 UNL     1       0.283  -1.474  -2.233  1.00  0.00     0.080 A 
HETATM    8  C11 UNL     1       0.732  -1.362  -3.499  1.00  0.00     0.038 A 
HETATM    9  C12 UNL     1       1.894  -0.696  -3.775  1.00  0.00     0.015 A 
HETATM   10  C13 UNL     1       2.614  -0.136  -2.770  1.00  0.00    -0.022 A 
HETATM   11  C14 UNL     1       3.780   0.537  -3.041  1.00  0.00     0.057 A 
HETATM   12  C15 UNL     1       4.490   1.099  -2.004  1.00  0.00     0.150 A 
HETATM   13  F1  UNL     1       5.641   1.765  -2.251  1.00  0.00    -0.203 F 
HETATM   14  C16 UNL     1       4.056   1.000  -0.704  1.00  0.00     0.107 A 
HETATM   15  C18 UNL     1       2.880   0.320  -0.432  1.00  0.00     0.053 A 
HETATM   16  C19 UNL     1       2.144  -0.253  -1.439  1.00  0.00    -0.011 A 
HETATM   17  C20 UNL     1       0.998  -0.906  -1.144  1.00  0.00     0.025 A 
HETATM   18  C21 UNL     1       0.389  -1.092   0.105  1.00  0.00     0.111 C 
HETATM   19  C22 UNL     1       0.591  -0.948   1.468  1.00  0.00     0.056 C 
ENDROOT
BRANCH   1  20
HETATM   20  C4  UNL     1      -1.209   1.504   0.832  1.00  0.00     0.027 C 
BRANCH  20  21
HETATM   21  C3  UNL     1      -1.790   1.734   2.174  1.00  0.00     0.003 C 
BRANCH  21  22
HETATM   22  C2  UNL     1      -3.279   1.965   2.172  1.00  0.00    -0.004 C 
HETATM   23  C1  UNL     1      -3.718   2.182   3.604  1.00  0.00     0.005 C 
ENDBRANCH  21  22
ENDBRANCH  20  21
ENDBRANCH   1  20
BRANCH  18  24
HETATM   24  O3  UNL     1       0.221  -2.592   0.065  1.00  0.00    -0.381 OA
ATOM     25  H3  UNL     1       1.123  -2.822   0.254  1.00  0.00     0.211 HD
ENDBRANCH  18  24
BRANCH  14  26
HETATM   26  O2  UNL     1       4.781   1.575   0.354  1.00  0.00    -0.353 OA
HETATM   27  C17 UNL     1       4.304   1.446   1.677  1.00  0.00     0.210 C 
ENDBRANCH  14  26
TORSDOF 5
