REMARK  5 active torsions:
REMARK  status: ('A' for Active; 'I' for Inactive)
REMARK    1  A    between atoms: C1_2  and  O2_3 
REMARK    2  A    between atoms: C1_2  and  C8_10 
REMARK    3  A    between atoms: O2_3  and  C2_4 
REMARK    4  A    between atoms: C13_16  and  N1_17 
REMARK       I    between atoms: N1_17  and  C14_19 
REMARK    5  A    between atoms: C14_19  and  C15_21 
ROOT
HETATM    1  C8  UNL     1      -0.047   1.916   0.096  1.00  0.00     0.067 A 
HETATM    2  C9  UNL     1       0.600   3.180   0.174  1.00  0.00     0.044 A 
HETATM    3  C10 UNL     1      -0.040   4.292   0.644  1.00  0.00     0.035 A 
HETATM    4 CL1  UNL     1       0.738   5.851   0.748  1.00  0.00    -0.084 Cl
HETATM    5  C11 UNL     1      -1.342   4.181   1.049  1.00  0.00     0.026 A 
HETATM    6  C12 UNL     1      -1.974   2.944   0.970  1.00  0.00     0.032 A 
HETATM    7  C13 UNL     1      -1.348   1.798   0.497  1.00  0.00     0.051 A 
ENDROOT
BRANCH   1   8
HETATM    8  C1  UNL     1       0.737   0.787  -0.359  1.00  0.00     0.296 C 
HETATM    9  O1  UNL     1       0.406  -0.403  -0.451  1.00  0.00    -0.259 OA
BRANCH   8  10
HETATM   10  O2  UNL     1       2.085   0.998  -0.775  1.00  0.00    -0.312 OA
BRANCH  10  11
HETATM   11  C2  UNL     1       2.911  -0.056  -1.231  1.00  0.00     0.132 C 
HETATM   12  C3  UNL     1       3.405   0.188  -2.616  1.00  0.00     0.032 C 
HETATM   13  C4  UNL     1       4.859  -0.000  -2.838  1.00  0.00     0.002 C 
HETATM   14  C5  UNL     1       5.573  -0.934  -1.953  1.00  0.00     0.000 C 
HETATM   15  C6  UNL     1       4.857  -1.388  -0.731  1.00  0.00     0.002 C 
HETATM   16  C7  UNL     1       4.032  -0.216  -0.224  1.00  0.00     0.032 C 
ENDBRANCH  10  11
ENDBRANCH   8  10
ENDBRANCH   1   8
BRANCH   7  17
HETATM   17  N1  UNL     1      -2.055   0.606   0.363  1.00  0.00    -0.326 N 
HETATM   18  C14 UNL     1      -3.286   0.319   1.016  1.00  0.00     0.226 C 
HETATM   19  O3  UNL     1      -3.917   1.048   1.797  1.00  0.00    -0.273 OA
ATOM     20  H1  UNL     1      -1.663  -0.112  -0.246  1.00  0.00     0.169 HD
BRANCH  18  21
HETATM   21  C15 UNL     1      -3.947  -1.029   0.758  1.00  0.00     0.078 C 
HETATM   22  C16 UNL     1      -2.993  -2.139   1.152  1.00  0.00     0.014 C 
HETATM   23  C17 UNL     1      -3.942  -3.260   1.483  1.00  0.00     0.001 C 
HETATM   24  C18 UNL     1      -5.216  -2.625   1.974  1.00  0.00     0.001 C 
HETATM   25  C19 UNL     1      -5.106  -1.147   1.709  1.00  0.00     0.014 C 
ENDBRANCH  18  21
ENDBRANCH   7  17
TORSDOF 5
