REMARK  5 active torsions:
REMARK  status: ('A' for Active; 'I' for Inactive)
REMARK    1  A    between atoms: C2_2  and  C3_3 
REMARK    2  A    between atoms: C6_6  and  O1_7 
REMARK    3  A    between atoms: C9_11  and  O2_12 
REMARK    4  A    between atoms: C14_17  and  C15_18 
REMARK    5  A    between atoms: C15_18  and  O3_21 
ROOT
HETATM    1  C3  UNL     1      -2.565  -0.449  -0.681  1.00  0.00    -0.016 A 
HETATM    2  C4  UNL     1      -1.233  -0.395  -0.353  1.00  0.00    -0.040 A 
HETATM    3  C5  UNL     1      -0.799   0.522   0.568  1.00  0.00    -0.011 A 
HETATM    4  C6  UNL     1      -1.666   1.396   1.180  1.00  0.00     0.100 A 
HETATM    5  C8  UNL     1      -2.998   1.325   0.836  1.00  0.00     0.101 A 
HETATM    6 CL1  UNL     1      -4.113   2.435   1.609  1.00  0.00    -0.078 Cl
HETATM    7  C9  UNL     1      -3.479   0.421  -0.084  1.00  0.00     0.099 A 
HETATM    8  C11 UNL     1       0.629   0.582   0.921  1.00  0.00     0.027 C 
HETATM    9  C12 UNL     1       1.108  -0.538   1.806  1.00  0.00     0.010 C 
HETATM   10  C13 UNL     1       2.545  -0.856   1.358  1.00  0.00     0.009 C 
HETATM   11  C14 UNL     1       2.818   0.247   0.412  1.00  0.00     0.024 C 
HETATM   12  C18 UNL     1       1.493   0.372  -0.319  1.00  0.00     0.001 C 
HETATM   13  C19 UNL     1       1.114  -0.804  -1.121  1.00  0.00     0.010 C 
HETATM   14  C20 UNL     1      -0.276  -1.317  -0.965  1.00  0.00     0.040 C 
ENDROOT
BRANCH  11  15
HETATM   15  C15 UNL     1       4.030   0.222  -0.390  1.00  0.00     0.054 C 
HETATM   16  C16 UNL     1       4.047   1.476  -1.271  1.00  0.00     0.045 C 
HETATM   17  C17 UNL     1       4.347  -0.987  -1.181  1.00  0.00     0.045 C 
BRANCH  15  18
HETATM   18  O3  UNL     1       5.117   0.419   0.501  1.00  0.00    -0.390 OA
ATOM     19  H3  UNL     1       5.909   0.403  -0.023  1.00  0.00     0.210 HD
ENDBRANCH  15  18
ENDBRANCH  11  15
BRANCH   4  20
HETATM   20  O1  UNL     1      -1.194   2.320   2.116  1.00  0.00    -0.354 OA
HETATM   21  C7  UNL     1      -1.122   2.028   3.495  1.00  0.00     0.210 C 
ENDBRANCH   4  20
BRANCH   1  22
HETATM   22  C2  UNL     1      -3.128  -1.398  -1.690  1.00  0.00     0.037 C 
HETATM   23  C1  UNL     1      -2.906  -0.966  -3.105  1.00  0.00     0.010 C 
ENDBRANCH   1  22
BRANCH   7  24
HETATM   24  O2  UNL     1      -4.840   0.417  -0.371  1.00  0.00    -0.354 OA
HETATM   25  C10 UNL     1      -5.723  -0.409   0.403  1.00  0.00     0.210 C 
ENDBRANCH   7  24
TORSDOF 5
