REMARK  5 active torsions:
REMARK  status: ('A' for Active; 'I' for Inactive)
REMARK    1  A    between atoms: C2_2  and  C10_10 
REMARK    2  A    between atoms: C3_3  and  C4_4 
REMARK    3  A    between atoms: C12_13  and  N1_14 
REMARK    4  A    between atoms: N1_14  and  N2_16 
REMARK    5  A    between atoms: C13_18  and  C14_19 
ROOT
HETATM    1  C10 UNL     1       0.041  -0.354  -1.670  1.00  0.00     0.046 A 
HETATM    2  C11 UNL     1       0.682  -0.234  -2.879  1.00  0.00     0.083 A 
HETATM    3  S1  UNL     1       2.215  -0.926  -2.559  1.00  0.00    -0.062 SA
HETATM    4  C12 UNL     1       1.968  -1.325  -0.931  1.00  0.00     0.163 A 
HETATM    5  N3  UNL     1       0.718  -0.912  -0.698  1.00  0.00    -0.335 N 
ATOM      6  H3  UNL     1       0.298  -1.030   0.224  1.00  0.00     0.168 HD
ENDROOT
BRANCH   4   7
HETATM    7  N1  UNL     1       2.791  -1.904  -0.076  1.00  0.00    -0.280 N 
ATOM      8  H1  UNL     1       2.499  -2.084   0.885  1.00  0.00     0.189 HD
BRANCH   7   9
HETATM    9  N2  UNL     1       4.013  -2.250  -0.491  1.00  0.00    -0.309 N 
HETATM   10  C13 UNL     1       5.194  -1.935  -0.292  1.00  0.00     0.118 C 
ATOM     11  H2  UNL     1       3.956  -3.000  -1.180  1.00  0.00     0.186 HD
BRANCH  10  12
HETATM   12  C14 UNL     1       5.705  -0.929   0.597  1.00  0.00    -0.019 A 
HETATM   13  C15 UNL     1       7.080  -0.719   0.685  1.00  0.00     0.014 A 
HETATM   14  C16 UNL     1       7.612   0.228   1.518  1.00  0.00     0.024 A 
HETATM   15  C17 UNL     1       6.753   0.983   2.281  1.00  0.00     0.034 A 
HETATM   16 CL1  UNL     1       7.436   2.195   3.348  1.00  0.00    -0.084 Cl
HETATM   17  C18 UNL     1       5.391   0.814   2.232  1.00  0.00     0.024 A 
HETATM   18  C19 UNL     1       4.884  -0.160   1.372  1.00  0.00     0.014 A 
ENDBRANCH  10  12
ENDBRANCH   7   9
ENDBRANCH   4   7
BRANCH   1  19
HETATM   19  C2  UNL     1      -1.380   0.121  -1.515  1.00  0.00    -0.038 C 
HETATM   20  C1  UNL     1      -2.086   0.571  -2.714  1.00  0.00     0.050 C 
HETATM   21  C3  UNL     1      -1.932   0.103  -0.349  1.00  0.00    -0.013 C 
BRANCH  21  22
HETATM   22  C4  UNL     1      -3.238   0.453   0.179  1.00  0.00     0.009 C 
HETATM   23  C5  UNL     1      -3.801  -0.679   1.056  1.00  0.00     0.008 C 
HETATM   24  C6  UNL     1      -4.924  -0.101   1.856  1.00  0.00     0.001 C 
HETATM   25  C7  UNL     1      -5.994   0.398   0.901  1.00  0.00     0.000 C 
HETATM   26  C8  UNL     1      -5.397   1.587   0.179  1.00  0.00     0.001 C 
HETATM   27  C9  UNL     1      -4.280   0.991  -0.726  1.00  0.00     0.008 C 
ENDBRANCH  21  22
ENDBRANCH   1  19
TORSDOF 5
