REMARK  5 active torsions:
REMARK  status: ('A' for Active; 'I' for Inactive)
REMARK    1  A    between atoms: C2_2  and  C3_3 
REMARK    2  A    between atoms: C5_5  and  O1_6 
REMARK    3  A    between atoms: C6_8  and  C7_9 
REMARK    4  A    between atoms: C10_13  and  O3_14 
REMARK    5  A    between atoms: O3_14  and  C11_15 
ROOT
HETATM    1  C3  UNL     1      -4.106  -0.222   0.359  1.00  0.00    -0.045 A 
HETATM    2  C4  UNL     1      -4.549   0.062   1.617  1.00  0.00     0.045 A 
HETATM    3  C5  UNL     1      -3.705   0.421   2.653  1.00  0.00     0.080 A 
HETATM    4  C6  UNL     1      -2.315   0.505   2.421  1.00  0.00     0.046 A 
HETATM    5  C8  UNL     1      -1.850   0.222   1.152  1.00  0.00    -0.007 A 
HETATM    6  C9  UNL     1      -0.524   0.282   0.835  1.00  0.00     0.050 A 
HETATM    7  C10 UNL     1      -0.000   0.004  -0.455  1.00  0.00     0.077 A 
HETATM    8  C20 UNL     1      -0.939  -0.344  -1.413  1.00  0.00     0.038 A 
HETATM    9  C21 UNL     1      -2.279  -0.414  -1.128  1.00  0.00     0.015 A 
HETATM   10  C22 UNL     1      -2.752  -0.138   0.137  1.00  0.00    -0.018 A 
ENDROOT
BRANCH   7  11
HETATM   11  O3  UNL     1       1.287   0.096  -0.633  1.00  0.00    -0.310 OA
BRANCH  11  12
HETATM   12  C11 UNL     1       2.355   0.059  -1.407  1.00  0.00     0.085 A 
HETATM   13  C12 UNL     1       2.355  -0.166  -2.789  1.00  0.00     0.080 A 
HETATM   14  C13 UNL     1       3.529  -0.186  -3.510  1.00  0.00     0.119 A 
HETATM   15  F1  UNL     1       3.479  -0.409  -4.862  1.00  0.00    -0.206 F 
HETATM   16  C14 UNL     1       4.718   0.018  -2.863  1.00  0.00     0.050 A 
HETATM   17  C15 UNL     1       4.771   0.245  -1.491  1.00  0.00    -0.046 A 
HETATM   18  C16 UNL     1       3.609   0.262  -0.796  1.00  0.00    -0.018 A 
HETATM   19  C19 UNL     1       5.954   0.486  -0.585  1.00  0.00     0.039 C 
HETATM   20  C17 UNL     1       3.905   0.525   0.662  1.00  0.00     0.042 C 
HETATM   21  C18 UNL     1       5.290   1.137   0.604  1.00  0.00     0.009 C 
ENDBRANCH  11  12
ENDBRANCH   7  11
BRANCH   4  22
HETATM   22  C7  UNL     1      -1.437   0.873   3.482  1.00  0.00     0.273 C 
HETATM   23  O2  UNL     1      -0.223   0.992   3.452  1.00  0.00    -0.301 OA
ENDBRANCH   4  22
BRANCH   3  24
HETATM   24  O1  UNL     1      -4.221   0.693   3.898  1.00  0.00    -0.360 OA
ATOM     25  H1  UNL     1      -3.642   0.939   4.609  1.00  0.00     0.217 HD
ENDBRANCH   3  24
BRANCH   1  26
HETATM   26  C2  UNL     1      -5.026  -0.620  -0.735  1.00  0.00     0.035 C 
HETATM   27  C1  UNL     1      -4.996  -2.123  -0.987  1.00  0.00     0.010 C 
ENDBRANCH   1  26
TORSDOF 5
