REMARK  3 active torsions:
REMARK  status: ('A' for Active; 'I' for Inactive)
REMARK    1  A    between atoms: C2_2  and  C3_3 
REMARK    2  A    between atoms: C6_6  and  C7_7 
REMARK       I    between atoms: C7_7  and  N1_9 
REMARK    3  A    between atoms: N1_9  and  N2_11 
ROOT
HETATM    1  N2  UNL     1       0.955   0.846   1.510  1.00  0.00    -0.303 N 
ATOM      2  H2  UNL     1       0.999   0.966   2.522  1.00  0.00     0.186 HD
HETATM    3  C8  UNL     1      -0.186   0.990   0.935  1.00  0.00     0.037 C 
HETATM    4  C9  UNL     1      -1.354   1.318   1.766  1.00  0.00     0.057 C 
HETATM    5  C10 UNL     1      -1.470   0.546   3.029  1.00  0.00     0.006 C 
HETATM    6  C11 UNL     1      -2.119  -0.810   2.862  1.00  0.00     0.000 C 
HETATM    7  C12 UNL     1      -3.612  -0.562   2.654  1.00  0.00     0.000 C 
HETATM    8  C13 UNL     1      -4.216  -1.547   1.701  1.00  0.00     0.000 C 
HETATM    9  C14 UNL     1      -5.050  -0.778   0.692  1.00  0.00     0.000 C 
HETATM   10  C15 UNL     1      -4.763  -1.225  -0.726  1.00  0.00     0.000 C 
HETATM   11  C16 UNL     1      -4.107  -0.124  -1.534  1.00  0.00     0.000 C 
HETATM   12  C17 UNL     1      -3.094  -0.636  -2.508  1.00  0.00     0.000 C 
HETATM   13  C18 UNL     1      -1.724   0.002  -2.328  1.00  0.00     0.003 C 
HETATM   14  C19 UNL     1      -1.162  -0.305  -0.959  1.00  0.00     0.043 C 
HETATM   15  C20 UNL     1      -0.230   0.814  -0.534  1.00  0.00     0.217 C 
HETATM   16  F1  UNL     1      -0.602   2.017  -1.152  1.00  0.00    -0.243 F 
ENDROOT
BRANCH   1  17
HETATM   17  N1  UNL     1       2.134   0.536   0.837  1.00  0.00    -0.264 N 
HETATM   18  C7  UNL     1       2.965   1.513   0.229  1.00  0.00     0.293 C 
HETATM   19  O1  UNL     1       2.677   2.736   0.265  1.00  0.00    -0.264 OA
ATOM     20  H1  UNL     1       2.415  -0.443   0.778  1.00  0.00     0.190 HD
BRANCH  18  21
HETATM   21  C6  UNL     1       4.189   1.134  -0.463  1.00  0.00     0.144 A 
HETATM   22  C5  UNL     1       5.097   1.973  -1.103  1.00  0.00     0.045 A 
HETATM   23  C4  UNL     1       6.112   1.204  -1.625  1.00  0.00     0.036 A 
HETATM   24  C3  UNL     1       5.790  -0.089  -1.286  1.00  0.00     0.053 A 
HETATM   25  O2  UNL     1       4.660  -0.081  -0.609  1.00  0.00    -0.309 OA
BRANCH  24  26
HETATM   26  C2  UNL     1       6.622  -1.272  -1.652  1.00  0.00     0.060 C 
HETATM   27  C1  UNL     1       7.657  -1.579  -0.583  1.00  0.00     0.012 C 
ENDBRANCH  24  26
ENDBRANCH  18  21
ENDBRANCH   1  17
TORSDOF 3
