REMARK  0 active torsions:
REMARK  status: ('A' for Active; 'I' for Inactive)
ROOT
HETATM    1  O1  UNL     1       0.024   0.429  -1.590  1.00  0.00    -0.064 OA
HETATM    2  N1  UNL     1      -0.059   0.666  -0.269  1.00  0.00     0.018 N 
HETATM    3  C1  UNL     1      -1.334   1.076   0.155  1.00  0.00     0.312 C 
HETATM    4  C2  UNL     1      -2.170  -0.200  -0.041  1.00  0.00     0.039 C 
HETATM    5  C3  UNL     1      -1.131  -1.326  -0.194  1.00  0.00     0.044 C 
HETATM    6  C4  UNL     1       0.059  -0.657   0.380  1.00  0.00     0.255 C 
HETATM    7  C5  UNL     1       1.385  -1.072  -0.133  1.00  0.00     0.044 C 
HETATM    8  C6  UNL     1       2.157   0.257  -0.041  1.00  0.00     0.039 C 
HETATM    9  C7  UNL     1       1.079   1.306   0.282  1.00  0.00     0.312 C 
ENDROOT
TORSDOF 0
