REMARK  0 active torsions:
REMARK  status: ('A' for Active; 'I' for Inactive)
ROOT
HETATM    1  C1  UNL     1      -1.649   0.961   0.047  1.00  0.00     0.044 C 
HETATM    2  C2  UNL     1      -1.315  -0.186  -0.891  1.00  0.00     0.005 C 
HETATM    3  C3  UNL     1      -0.899  -1.425  -0.187  1.00  0.00     0.005 C 
HETATM    4  C4  UNL     1       0.507  -1.470   0.279  1.00  0.00    -0.011 C 
HETATM    5  C5  UNL     1       1.515  -0.895  -0.650  1.00  0.00     0.029 C 
HETATM    6  C6  UNL     1       1.536   0.358   0.239  1.00  0.00     0.081 C 
HETATM    7  C7  UNL     1       0.867  -0.426   1.290  1.00  0.00     0.029 C 
HETATM    8  N1  UNL     1       0.740   1.335  -0.404  1.00  0.00    -0.398 N 
ATOM      9  H1  UNL     1       0.992   1.692  -1.326  1.00  0.00     0.159 HD
HETATM   10  C8  UNL     1      -0.407   1.800   0.262  1.00  0.00     0.056 C 
ENDROOT
TORSDOF 0
