REMARK  0 active torsions:
REMARK  status: ('A' for Active; 'I' for Inactive)
ROOT
HETATM    1  C1  UNL     1      -1.831   0.846   0.513  1.00  0.00     0.001 C 
HETATM    2  C2  UNL     1      -2.121  -0.363  -0.386  1.00  0.00     0.002 C 
HETATM    3  C3  UNL     1      -0.953  -1.317  -0.126  1.00  0.00     0.033 C 
HETATM    4  C4  UNL     1       0.256  -0.690  -0.758  1.00  0.00     0.190 C 
HETATM    5  N1  UNL     1       1.435  -1.481  -0.418  1.00  0.00    -0.070 N 
ATOM      6  H11 UNL     1       1.742  -2.093  -1.174  1.00  0.00     0.277 HD
ATOM      7  H12 UNL     1       1.246  -2.211   0.269  1.00  0.00     0.277 HD
HETATM    8  C5  UNL     1       2.450  -0.547   0.007  1.00  0.00     0.233 C 
HETATM    9  C6  UNL     1       1.595   0.500   0.739  1.00  0.00     0.034 C 
HETATM   10  C7  UNL     1       0.527   0.701  -0.347  1.00  0.00     0.018 C 
HETATM   11  C8  UNL     1      -0.596   1.533   0.072  1.00  0.00     0.007 C 
ENDROOT
TORSDOF 0
