REMARK  4 active torsions:
REMARK  status: ('A' for Active; 'I' for Inactive)
REMARK    1  A    between atoms: C2_2  and  O1_5 
REMARK    2  A    between atoms: O1_5  and  N1_6 
REMARK    3  A    between atoms: C6_10  and  O3_11 
REMARK    4  A    between atoms: C6_10  and  C7_13 
ROOT
HETATM    1  N1  UNL     1       0.833  -0.208   0.296  1.00  0.00    -0.243 N 
ATOM      2  H1  UNL     1       1.053  -1.204   0.268  1.00  0.00     0.196 HD
HETATM    3  C5  UNL     1      -0.397   0.149   0.170  1.00  0.00     0.178 A 
HETATM    4  O2  UNL     1      -0.940   1.416   0.175  1.00  0.00    -0.290 OA
HETATM    5  C6  UNL     1      -2.335   1.377   0.009  1.00  0.00     0.212 A 
HETATM    6  C8  UNL     1      -2.658  -0.068  -0.108  1.00  0.00     0.023 A 
HETATM    7  C9  UNL     1      -3.876  -0.698  -0.286  1.00  0.00     0.037 A 
HETATM    8  C10 UNL     1      -3.871  -2.076  -0.360  1.00  0.00     0.036 A 
HETATM    9 CL2  UNL     1      -5.389  -2.916  -0.585  1.00  0.00    -0.084 Cl
HETATM   10  C11 UNL     1      -2.706  -2.818  -0.263  1.00  0.00     0.048 A 
HETATM   11  C12 UNL     1      -1.490  -2.190  -0.086  1.00  0.00     0.051 A 
HETATM   12 CL3  UNL     1       0.004  -3.092   0.041  1.00  0.00    -0.083 Cl
HETATM   13  C13 UNL     1      -1.484  -0.811  -0.010  1.00  0.00     0.050 A 
ENDROOT
BRANCH   1  14
HETATM   14  O1  UNL     1       1.864   0.683   0.466  1.00  0.00    -0.268 OA
BRANCH  14  15
HETATM   15  C2  UNL     1       3.144   0.269   0.024  1.00  0.00     0.078 C 
HETATM   16  C1  UNL     1       3.521  -0.966   0.778  1.00  0.00     0.048 C 
HETATM   17  C3  UNL     1       3.021   0.006  -1.476  1.00  0.00     0.048 C 
HETATM   18  C4  UNL     1       4.199   1.316   0.278  1.00  0.00     0.048 C 
ENDBRANCH  14  15
ENDBRANCH   1  14
BRANCH   5  19
HETATM   19  O3  UNL     1      -2.752   2.074  -1.126  1.00  0.00    -0.360 OA
ATOM     20  H3  UNL     1      -3.695   2.048  -1.238  1.00  0.00     0.213 HD
ENDBRANCH   5  19
BRANCH   5  21
HETATM   21  C7  UNL     1      -3.036   1.991   1.212  1.00  0.00     0.189 C 
HETATM   22 CL1  UNL     1      -2.493   3.684   1.354  1.00  0.00    -0.124 Cl
ENDBRANCH   5  21
TORSDOF 4
