REMARK  3 active torsions:
REMARK  status: ('A' for Active; 'I' for Inactive)
REMARK    1  A    between atoms: O1_2  and  C2_3 
REMARK    2  A    between atoms: C3_4  and  O2_5 
REMARK    3  A    between atoms: C5_8  and  N1_9 
ROOT
HETATM    1  C2  UNL     1       3.225   0.140   0.145  1.00  0.00     0.123 A 
HETATM    2  C3  UNL     1       2.496   0.435  -0.979  1.00  0.00     0.102 A 
HETATM    3  C4  UNL     1       1.114   0.319  -0.937  1.00  0.00     0.069 A 
HETATM    4  C5  UNL     1       0.452  -0.081   0.197  1.00  0.00     0.047 A 
HETATM    5  C13 UNL     1       1.201  -0.373   1.317  1.00  0.00     0.057 A 
HETATM    6  C14 UNL     1       2.597  -0.266   1.303  1.00  0.00     0.072 A 
HETATM    7 CL3  UNL     1       3.520  -0.641   2.734  1.00  0.00    -0.081 Cl
ENDROOT
BRANCH   4   8
HETATM    8  N1  UNL     1      -0.973  -0.191   0.210  1.00  0.00    -0.280 N 
HETATM    9  C6  UNL     1      -1.750   0.896  -0.039  1.00  0.00     0.038 A 
HETATM   10  C7  UNL     1      -1.090   2.187  -0.322  1.00  0.00     0.070 C 
HETATM   11  C8  UNL     1      -3.118   0.789  -0.027  1.00  0.00     0.064 A 
HETATM   12 CL1  UNL     1      -4.099   2.197  -0.349  1.00  0.00    -0.082 Cl
HETATM   13  C9  UNL     1      -3.761  -0.394   0.232  1.00  0.00    -0.011 A 
HETATM   14  C10 UNL     1      -5.230  -0.560   0.257  1.00  0.00     0.052 C 
HETATM   15  C11 UNL     1      -2.957  -1.501   0.486  1.00  0.00     0.110 A 
HETATM   16 CL2  UNL     1      -3.636  -3.076   0.832  1.00  0.00    -0.078 Cl
HETATM   17  C12 UNL     1      -1.598  -1.355   0.464  1.00  0.00     0.275 A 
HETATM   18  O3  UNL     1      -0.868  -2.354   0.693  1.00  0.00    -0.266 OA
ENDBRANCH   4   8
BRANCH   2  19
HETATM   19  O2  UNL     1       3.169   0.836  -2.114  1.00  0.00    -0.358 OA
ATOM     20  H2  UNL     1       2.664   1.040  -2.892  1.00  0.00     0.217 HD
ENDBRANCH   2  19
BRANCH   1  21
HETATM   21  O1  UNL     1       4.605   0.238   0.158  1.00  0.00    -0.351 OA
HETATM   22  C1  UNL     1       5.464  -0.826  -0.181  1.00  0.00     0.210 C 
ENDBRANCH   1  21
TORSDOF 3
