REMARK  2 active torsions:
REMARK  status: ('A' for Active; 'I' for Inactive)
REMARK    1  A    between atoms: C4_7  and  S1_8 
REMARK    2  A    between atoms: S1_8  and  C5_9 
ROOT
HETATM    1  N1  UNL     1       5.738  -1.692   0.893  1.00  0.00    -0.191 NA
HETATM    2  C1  UNL     1       4.777  -1.177   0.496  1.00  0.00     0.106 C 
HETATM    3  C2  UNL     1       3.582  -0.560   0.009  1.00  0.00     0.127 A 
HETATM    4  C3  UNL     1       2.883  -1.068  -1.069  1.00  0.00     0.118 A 
HETATM    5  N2  UNL     1       1.761  -0.498  -1.534  1.00  0.00    -0.345 N 
ATOM      6  H2  UNL     1       1.273  -0.903  -2.333  1.00  0.00     0.167 HD
HETATM    7  C4  UNL     1       1.278   0.625  -0.933  1.00  0.00     0.152 A 
HETATM    8  N3  UNL     1       1.919   1.154   0.114  1.00  0.00    -0.302 N 
ATOM      9  H3  UNL     1       1.554   1.995   0.562  1.00  0.00     0.171 HD
HETATM   10  C11 UNL     1       3.039   0.583   0.577  1.00  0.00     0.269 A 
HETATM   11  O1  UNL     1       3.668   1.069   1.574  1.00  0.00    -0.266 OA
ENDROOT
BRANCH   7  12
HETATM   12  S1  UNL     1      -0.237   1.339  -1.606  1.00  0.00    -0.052 SA
BRANCH  12  13
HETATM   13  C5  UNL     1      -1.678   0.632  -0.831  1.00  0.00     0.032 A 
HETATM   14  C6  UNL     1      -2.278  -0.526  -1.337  1.00  0.00     0.046 A 
HETATM   15  C7  UNL     1      -3.379  -1.003  -0.690  1.00  0.00     0.057 A 
HETATM   16 CL1  UNL     1      -4.147  -2.446  -1.300  1.00  0.00    -0.083 Cl
HETATM   17  C8  UNL     1      -3.901  -0.386   0.420  1.00  0.00     0.057 A 
HETATM   18 CL2  UNL     1      -5.326  -1.039   1.222  1.00  0.00    -0.082 Cl
HETATM   19  C9  UNL     1      -3.310   0.741   0.905  1.00  0.00     0.051 A 
HETATM   20  C10 UNL     1      -2.193   1.258   0.281  1.00  0.00     0.052 A 
HETATM   21 CL3  UNL     1      -1.492   2.714   0.958  1.00  0.00    -0.083 Cl
ENDBRANCH  12  13
ENDBRANCH   7  12
TORSDOF 2
