REMARK  2 active torsions:
REMARK  status: ('A' for Active; 'I' for Inactive)
REMARK    1  A    between atoms: S1_2  and  C2_3 
REMARK    2  A    between atoms: C5_9  and  C6_10 
ROOT
HETATM    1  C2  UNL     1       2.619  -0.461   0.369  1.00  0.00     0.050 C 
HETATM    2  C3  UNL     1       2.573  -1.790  -0.356  1.00  0.00     0.043 C 
HETATM    3  C4  UNL     1       1.694  -1.685  -1.567  1.00  0.00     0.234 C 
HETATM    4  N1  UNL     1       0.330  -1.360  -1.200  1.00  0.00    -0.069 N 
ATOM      5  H11 UNL     1      -0.119  -2.130  -0.704  1.00  0.00     0.277 HD
ATOM      6  H12 UNL     1      -0.280  -1.324  -2.017  1.00  0.00     0.277 HD
HETATM    7  C5  UNL     1       0.273  -0.140  -0.444  1.00  0.00     0.209 C 
HETATM    8  C10 UNL     1       1.191  -0.110   0.728  1.00  0.00     0.050 C 
ENDROOT
BRANCH   7   9
HETATM    9  C6  UNL     1      -1.120   0.186  -0.012  1.00  0.00     0.116 C 
HETATM   10  C7  UNL     1      -1.773  -0.866   0.842  1.00  0.00     0.047 C 
HETATM   11  C8  UNL     1      -3.093  -0.285   1.344  1.00  0.00     0.124 C 
HETATM   12  N2  UNL     1      -3.815   0.439   0.350  1.00  0.00    -0.365 N 
HETATM   13  C9  UNL     1      -3.349   0.803  -0.806  1.00  0.00     0.184 C 
ATOM     14  H2  UNL     1      -4.779   0.692   0.565  1.00  0.00     0.162 HD
HETATM   15  N3  UNL     1      -4.168   1.521  -1.712  1.00  0.00    -0.064 NA
HETATM   16  N4  UNL     1      -2.006   0.456  -1.121  1.00  0.00    -0.358 N 
ATOM     17  H4  UNL     1      -1.683   0.400  -2.087  1.00  0.00     0.162 HD
ENDBRANCH   7   9
BRANCH   1  18
HETATM   18  S1  UNL     1       3.424   0.808  -0.609  1.00  0.00    -0.169 SA
HETATM   19  C1  UNL     1       3.448   2.367   0.305  1.00  0.00     0.090 C 
ENDBRANCH   1  18
TORSDOF 2
