REMARK  3 active torsions:
REMARK  status: ('A' for Active; 'I' for Inactive)
REMARK    1  A    between atoms: N1_1  and  C1_5 
REMARK    2  A    between atoms: C5_12  and  C6_13 
REMARK    3  A    between atoms: C7_16  and  C8_17 
ROOT
HETATM    1  C6  UNL     1       0.533  -0.443   0.783  1.00  0.00     0.154 A 
HETATM    2  N3  UNL     1      -0.387  -0.156  -0.152  1.00  0.00    -0.325 N 
ATOM      3  H3  UNL     1      -0.214   0.348  -1.021  1.00  0.00     0.169 HD
HETATM    4  C7  UNL     1      -1.578  -0.645   0.249  1.00  0.00     0.134 A 
HETATM    5  N5  UNL     1      -1.335  -1.227   1.444  1.00  0.00    -0.245 N 
ATOM      6  H5  UNL     1      -2.030  -1.697   2.024  1.00  0.00     0.196 HD
HETATM    7  O1  UNL     1      -0.092  -1.096   1.735  1.00  0.00    -0.222 OA
ENDROOT
BRANCH   1   8
HETATM    8  C5  UNL     1       1.965  -0.142   0.840  1.00  0.00     0.096 C 
HETATM    9  C1  UNL     1       2.716  -0.804  -0.318  1.00  0.00     0.221 C 
HETATM   10  C2  UNL     1       4.199  -0.693   0.051  1.00  0.00     0.265 C 
HETATM   11  N2  UNL     1       4.558   0.698   0.091  1.00  0.00    -0.073 N 
HETATM   12  C3  UNL     1       3.761   1.480   0.995  1.00  0.00     0.233 C 
ATOM     13  H22 UNL     1       5.550   0.806   0.302  1.00  0.00     0.277 HD
ATOM     14  H21 UNL     1       4.537   1.101  -0.846  1.00  0.00     0.277 HD
HETATM   15  C4  UNL     1       2.277   1.329   0.752  1.00  0.00     0.042 C 
BRANCH   9  16
HETATM   16  N1  UNL     1       2.530  -0.002  -1.505  1.00  0.00    -0.073 N 
ATOM     17  H13 UNL     1       2.849   0.961  -1.397  1.00  0.00     0.274 HD
ATOM     18  H12 UNL     1       3.157  -0.257  -2.268  1.00  0.00     0.274 HD
ATOM     19  H11 UNL     1       1.543  -0.076  -1.751  1.00  0.00     0.274 HD
ENDBRANCH   9  16
ENDBRANCH   1   8
BRANCH   4  20
HETATM   20  C8  UNL     1      -2.880  -0.589  -0.420  1.00  0.00     0.254 C 
HETATM   21  C9  UNL     1      -3.996  -0.774   0.611  1.00  0.00     0.042 C 
HETATM   22  C10 UNL     1      -5.201  -0.378  -0.249  1.00  0.00     0.030 C 
HETATM   23  C11 UNL     1      -4.643   0.820  -0.978  1.00  0.00     0.233 C 
HETATM   24  N4  UNL     1      -3.206   0.696  -0.964  1.00  0.00    -0.064 N 
ATOM     25  H42 UNL     1      -2.748   1.462  -0.470  1.00  0.00     0.278 HD
ATOM     26  H41 UNL     1      -2.787   0.855  -1.880  1.00  0.00     0.278 HD
ENDBRANCH   4  20
TORSDOF 3
