REMARK  5 active torsions:
REMARK  status: ('A' for Active; 'I' for Inactive)
REMARK    1  A    between atoms: C2_2  and  N1_4 
REMARK    2  A    between atoms: N1_4  and  C4_6 
REMARK    3  A    between atoms: N2_9  and  C7_10 
REMARK    4  A    between atoms: C7_10  and  C8_11 
REMARK       I    between atoms: C8_11  and  N3_13 
REMARK    5  A    between atoms: N3_13  and  C9_15 
ROOT
HETATM    1  C7  UNL     1       0.111   1.693  -1.135  1.00  0.00     0.220 C 
ENDROOT
BRANCH   1   2
HETATM    2  N2  UNL     1       0.530   1.234   0.139  1.00  0.00    -0.404 N 
HETATM    3  C6  UNL     1       0.749  -0.170   0.203  1.00  0.00     0.119 C 
HETATM    4  C5  UNL     1       2.187  -0.582  -0.055  1.00  0.00     0.044 C 
HETATM    5  C4  UNL     1       3.188   0.403   0.489  1.00  0.00     0.080 C 
HETATM    6  C17 UNL     1       2.461   1.184   1.577  1.00  0.00     0.044 C 
HETATM    7  C16 UNL     1       1.462   2.062   0.831  1.00  0.00     0.119 C 
BRANCH   5   8
HETATM    8  N1  UNL     1       4.349  -0.194   1.064  1.00  0.00    -0.414 N 
ATOM      9  H1  UNL     1       4.584  -0.078   2.050  1.00  0.00     0.153 HD
BRANCH   8  10
HETATM   10  C2  UNL     1       5.163  -0.963   0.180  1.00  0.00     0.068 C 
HETATM   11  C1  UNL     1       5.726  -0.106  -0.920  1.00  0.00     0.031 C 
HETATM   12  C3  UNL     1       6.336  -1.538   0.979  1.00  0.00     0.031 C 
ENDBRANCH   8  10
ENDBRANCH   5   8
ENDBRANCH   1   2
BRANCH   1  13
HETATM   13  C8  UNL     1      -1.250   1.277  -1.447  1.00  0.00     0.239 C 
HETATM   14  O1  UNL     1      -1.749   1.593  -2.599  1.00  0.00    -0.271 OA
HETATM   15  N3  UNL     1      -2.135   0.544  -0.622  1.00  0.00    -0.330 N 
ATOM     16  H3  UNL     1      -1.823   0.259   0.306  1.00  0.00     0.168 HD
BRANCH  15  17
HETATM   17  C9  UNL     1      -3.495   0.179  -1.063  1.00  0.00     0.009 C 
HETATM   18  C10 UNL     1      -3.563  -1.252  -1.503  1.00  0.00     0.068 C 
HETATM   19  C11 UNL     1      -4.214  -2.222  -0.461  1.00  0.00     0.086 C 
HETATM   20  C12 UNL     1      -4.786  -1.392   0.509  1.00  0.00    -0.182 C 
HETATM   21  C13 UNL     1      -5.340  -0.547   1.484  1.00  0.00     0.083 C 
HETATM   22  C14 UNL     1      -4.912   0.899   1.036  1.00  0.00     0.040 C 
HETATM   23  C15 UNL     1      -4.483   0.948  -0.390  1.00  0.00    -0.001 C 
ENDBRANCH  15  17
ENDBRANCH   1  13
TORSDOF 5
