REMARK  5 active torsions:
REMARK  status: ('A' for Active; 'I' for Inactive)
REMARK    1  A    between atoms: C2_2  and  C3_3 
REMARK    2  A    between atoms: C2_2  and  N2_10 
REMARK    3  A    between atoms: C2_2  and  C14_21 
REMARK    4  A    between atoms: C3_3  and  N1_4 
REMARK       I    between atoms: N2_10  and  C8_12 
REMARK       I    between atoms: C8_12  and  N3_14 
REMARK    5  A    between atoms: N3_14  and  C9_16 
ROOT
HETATM    1  C1  UNL     1      -0.668  -2.432  -0.955  1.00  0.00     0.045 C 
HETATM    2  C2  UNL     1      -0.880  -1.267   0.041  1.00  0.00     0.066 C 
ENDROOT
BRANCH   2   3
HETATM    3  C3  UNL     1      -1.781  -0.247  -0.595  1.00  0.00     0.089 C 
BRANCH   3   4
HETATM    4  N1  UNL     1      -2.118   0.917   0.055  1.00  0.00    -0.387 N 
HETATM    5  C4  UNL     1      -2.952   1.051   1.154  1.00  0.00     0.148 C 
HETATM    6  C5  UNL     1      -4.441   1.045   0.795  1.00  0.00     0.187 C 
HETATM    7  O1  UNL     1      -4.699   2.044  -0.119  1.00  0.00    -0.388 OA
HETATM    8  C6  UNL     1      -3.927   1.903  -1.249  1.00  0.00     0.187 C 
HETATM    9  C7  UNL     1      -2.452   1.952  -0.930  1.00  0.00     0.148 C 
ENDBRANCH   3   4
ENDBRANCH   2   3
BRANCH   2  10
HETATM   10  N2  UNL     1       0.430  -0.772   0.368  1.00  0.00    -0.329 N 
HETATM   11  C8  UNL     1       1.361  -0.246  -0.536  1.00  0.00     0.317 C 
HETATM   12  O2  UNL     1       1.152  -0.142  -1.782  1.00  0.00    -0.247 OA
HETATM   13  N3  UNL     1       2.646   0.222  -0.107  1.00  0.00    -0.339 N 
ATOM     14  H3  UNL     1       2.872   0.163   0.886  1.00  0.00     0.164 HD
ATOM     15  H2  UNL     1       0.707  -0.807   1.349  1.00  0.00     0.165 HD
BRANCH  13  16
HETATM   16  C9  UNL     1       3.637   0.770  -0.996  1.00  0.00     0.086 C 
HETATM   17  C10 UNL     1       4.934  -0.042  -0.867  1.00  0.00     0.025 C 
HETATM   18  C11 UNL     1       5.353   0.323   0.537  1.00  0.00     0.002 C 
HETATM   19  C12 UNL     1       4.969   1.775   0.686  1.00  0.00     0.002 C 
HETATM   20  C13 UNL     1       4.098   2.124  -0.497  1.00  0.00     0.025 C 
ENDBRANCH  13  16
ENDBRANCH   2  10
BRANCH   2  21
HETATM   21  C14 UNL     1      -1.552  -1.833   1.272  1.00  0.00     0.019 A 
HETATM   22  C15 UNL     1      -2.900  -2.484   1.069  1.00  0.00     0.008 A 
HETATM   23  C16 UNL     1      -1.709  -3.310   1.399  1.00  0.00     0.008 A 
ENDBRANCH   2  21
TORSDOF 5
