REMARK  6 active torsions:
REMARK  status: ('A' for Active; 'I' for Inactive)
REMARK       I    between atoms: C1_2  and  N1_3 
REMARK    1  A    between atoms: C1_2  and  C7_12 
REMARK    2  A    between atoms: N1_3  and  C2_5 
REMARK    3  A    between atoms: C2_5  and  C3_6 
REMARK    4  A    between atoms: C3_6  and  O2_7 
REMARK    5  A    between atoms: C11_16  and  C12_17 
REMARK    6  A    between atoms: C12_17  and  N2_18 
ROOT
HETATM    1  C7  UNL     1      -0.707   0.202   0.767  1.00  0.00     0.078 C 
HETATM    2  C8  UNL     1      -0.549  -1.160   1.308  1.00  0.00     0.014 C 
HETATM    3  C9  UNL     1       0.831  -1.610   1.625  1.00  0.00     0.002 C 
HETATM    4  C10 UNL     1       1.733  -1.321   0.452  1.00  0.00     0.010 C 
HETATM    5  C11 UNL     1       1.788   0.202   0.364  1.00  0.00     0.025 C 
HETATM    6  C17 UNL     1       0.447   0.788   0.039  1.00  0.00     0.024 C 
ENDROOT
BRANCH   1   7
HETATM    7  C1  UNL     1      -1.955   0.233  -0.051  1.00  0.00     0.222 C 
HETATM    8  O1  UNL     1      -1.831   0.532  -1.264  1.00  0.00    -0.273 OA
HETATM    9  N1  UNL     1      -3.225  -0.049   0.459  1.00  0.00    -0.349 N 
ATOM     10  H1  UNL     1      -3.279  -0.287   1.449  1.00  0.00     0.163 HD
BRANCH   9  11
HETATM   11  C2  UNL     1      -4.466  -0.038  -0.273  1.00  0.00     0.054 C 
HETATM   12  C4  UNL     1      -5.693  -0.104   0.607  1.00  0.00     0.033 C 
HETATM   13  C5  UNL     1      -6.019   1.343   0.352  1.00  0.00     0.005 C 
HETATM   14  C6  UNL     1      -4.910   1.376  -0.674  1.00  0.00     0.033 C 
BRANCH  11  15
HETATM   15  C3  UNL     1      -4.523  -1.015  -1.413  1.00  0.00     0.195 C 
BRANCH  15  16
HETATM   16  O2  UNL     1      -5.765  -0.916  -2.041  1.00  0.00    -0.398 OA
ATOM     17  H2  UNL     1      -5.801  -1.534  -2.762  1.00  0.00     0.209 HD
ENDBRANCH  15  16
ENDBRANCH  11  15
ENDBRANCH   9  11
ENDBRANCH   1   7
BRANCH   5  18
HETATM   18  C12 UNL     1       2.826   0.597  -0.625  1.00  0.00     0.072 C 
BRANCH  18  19
HETATM   19  N2  UNL     1       4.134   0.193  -0.385  1.00  0.00    -0.354 N 
HETATM   20  C13 UNL     1       4.861   0.717   0.682  1.00  0.00     0.068 C 
HETATM   21  C14 UNL     1       6.229   1.000   0.090  1.00  0.00     0.050 C 
HETATM   22  C15 UNL     1       6.366  -0.150  -0.906  1.00  0.00     0.050 C 
HETATM   23  C16 UNL     1       4.939  -0.265  -1.440  1.00  0.00     0.068 C 
ENDBRANCH  18  19
ENDBRANCH   5  18
TORSDOF 6
