REMARK  5 active torsions:
REMARK  status: ('A' for Active; 'I' for Inactive)
REMARK    1  A    between atoms: C2_2  and  N1_4 
REMARK    2  A    between atoms: C2_2  and  C12_15 
REMARK       I    between atoms: N1_4  and  C4_6 
REMARK    3  A    between atoms: C4_6  and  C5_8 
REMARK    4  A    between atoms: C5_8  and  C6_9 
REMARK       I    between atoms: C12_15  and  N2_17 
REMARK    5  A    between atoms: N2_17  and  C13_19 
ROOT
HETATM    1  C1  UNL     1       2.242   2.905  -0.102  1.00  0.00     0.048 C 
HETATM    2  C2  UNL     1       1.376   1.740  -0.600  1.00  0.00     0.106 C 
HETATM    3  C3  UNL     1       1.487   1.554  -2.085  1.00  0.00     0.048 C 
ENDROOT
BRANCH   2   4
HETATM    4  N1  UNL     1       0.004   1.946  -0.199  1.00  0.00    -0.344 N 
HETATM    5  C4  UNL     1      -1.034   1.034  -0.539  1.00  0.00     0.218 C 
HETATM    6  O1  UNL     1      -0.709   0.034  -1.210  1.00  0.00    -0.274 OA
ATOM      7  H1  UNL     1      -0.229   2.775   0.348  1.00  0.00     0.163 HD
BRANCH   5   8
HETATM    8  C5  UNL     1      -2.412   1.270  -0.116  1.00  0.00     0.107 C 
BRANCH   8   9
HETATM    9  C6  UNL     1      -3.393   0.205  -0.466  1.00  0.00    -0.006 C 
HETATM   10  C7  UNL     1      -3.065  -1.124   0.149  1.00  0.00     0.005 C 
HETATM   11  C8  UNL     1      -4.202  -2.112  -0.016  1.00  0.00     0.000 C 
HETATM   12  C9  UNL     1      -5.429  -1.560   0.661  1.00  0.00     0.000 C 
HETATM   13  C10 UNL     1      -5.838  -0.328  -0.155  1.00  0.00     0.000 C 
HETATM   14  C11 UNL     1      -4.751   0.681   0.037  1.00  0.00     0.005 C 
ENDBRANCH   8   9
ENDBRANCH   5   8
ENDBRANCH   2   4
BRANCH   2  15
HETATM   15  C12 UNL     1       1.953   0.514   0.061  1.00  0.00     0.245 C 
HETATM   16  O2  UNL     1       1.262  -0.185   0.863  1.00  0.00    -0.271 OA
HETATM   17  N2  UNL     1       3.293   0.138  -0.221  1.00  0.00    -0.352 N 
ATOM     18  H2  UNL     1       3.846   0.702  -0.866  1.00  0.00     0.163 HD
BRANCH  17  19
HETATM   19  C13 UNL     1       3.882  -1.018   0.384  1.00  0.00     0.110 C 
HETATM   20  C14 UNL     1       5.147  -0.626   1.144  1.00  0.00     0.053 C 
HETATM   21  C15 UNL     1       5.869  -1.972   1.113  1.00  0.00     0.169 C 
HETATM   22  O3  UNL     1       5.604  -2.517  -0.112  1.00  0.00    -0.389 OA
HETATM   23  C16 UNL     1       4.461  -1.977  -0.630  1.00  0.00     0.192 C 
ENDBRANCH  17  19
ENDBRANCH   2  15
TORSDOF 5
