REMARK  9 active torsions:
REMARK  status: ('A' for Active; 'I' for Inactive)
REMARK    1  A    between atoms: C2_2  and  N1_3 
REMARK    2  A    between atoms: N1_3  and  C3_4 
REMARK    3  A    between atoms: N1_3  and  C14_26 
REMARK    4  A    between atoms: C3_4  and  C4_5 
REMARK    5  A    between atoms: C4_5  and  C5_6 
REMARK    6  A    between atoms: C5_6  and  N2_7 
REMARK    7  A    between atoms: N2_7  and  C6_9 
REMARK    8  A    between atoms: C9_14  and  N4_15 
REMARK    9  A    between atoms: C15_29  and  C16_30 
ROOT
HETATM    1  C4  UNL     1       0.888  -2.168  -0.977  1.00  0.00     0.041 C 
ENDROOT
BRANCH   1   2
HETATM    2  C3  UNL     1       1.336  -1.881   0.445  1.00  0.00     0.143 C 
BRANCH   2   3
HETATM    3  N1  UNL     1       2.749  -2.243   0.604  1.00  0.00    -0.217 N 
BRANCH   3   4
HETATM    4  C2  UNL     1       3.048  -3.643   0.539  1.00  0.00     0.137 C 
HETATM    5  C1  UNL     1       4.504  -3.961   0.711  1.00  0.00     0.027 C 
ENDBRANCH   3   4
BRANCH   3   6
HETATM    6  C14 UNL     1       3.694  -1.202   0.805  1.00  0.00     0.697 A 
HETATM    7  N8  UNL     1       3.785  -0.264  -0.073  1.00  0.00    -0.171 N 
HETATM    8  C15 UNL     1       4.698   0.816   0.041  1.00  0.00     0.170 A 
ATOM      9  H8  UNL     1       3.172  -0.299  -0.888  1.00  0.00     0.186 HD
HETATM   10  N9  UNL     1       5.463   0.840   1.079  1.00  0.00    -0.268 N 
HETATM   11  N10 UNL     1       5.427  -0.145   2.085  1.00  0.00    -0.227 N 
ATOM     12  H9  UNL     1       6.126   1.609   1.176  1.00  0.00     0.190 HD
HETATM   13  N11 UNL     1       4.519  -1.210   1.962  1.00  0.00    -0.117 N 
ATOM     14  H10 UNL     1       6.050  -0.086   2.890  1.00  0.00     0.209 HD
ATOM     15  H11 UNL     1       4.456  -1.948   2.664  1.00  0.00     0.207 HD
BRANCH   8  16
HETATM   16  C16 UNL     1       4.761   1.859  -0.990  1.00  0.00     0.120 A 
HETATM   17  C17 UNL     1       5.792   2.766  -1.134  1.00  0.00     0.043 A 
HETATM   18  C18 UNL     1       5.489   3.577  -2.209  1.00  0.00     0.027 A 
HETATM   19  C19 UNL     1       4.271   3.126  -2.680  1.00  0.00     0.142 A 
HETATM   20  O2  UNL     1       3.888   2.119  -1.932  1.00  0.00    -0.319 OA
ENDBRANCH   8  16
ENDBRANCH   3   6
ENDBRANCH   2   3
ENDBRANCH   1   2
BRANCH   1  21
HETATM   21  C5  UNL     1      -0.572  -1.782  -1.099  1.00  0.00     0.139 C 
BRANCH  21  22
HETATM   22  N2  UNL     1      -0.799  -0.399  -0.818  1.00  0.00    -0.226 N 
ATOM     23  H2  UNL     1      -0.033   0.272  -0.869  1.00  0.00     0.177 HD
BRANCH  22  24
HETATM   24  C6  UNL     1      -1.986  -0.014  -0.500  1.00  0.00     0.682 A 
HETATM   25  N3  UNL     1      -3.092  -0.772  -0.393  1.00  0.00    -0.174 N 
HETATM   26  C7  UNL     1      -4.135  -0.001  -0.039  1.00  0.00     0.158 A 
ATOM     27  H3  UNL     1      -3.133  -1.778  -0.556  1.00  0.00     0.186 HD
HETATM   28  C8  UNL     1      -3.634   1.293   0.074  1.00  0.00     0.140 A 
HETATM   29  N6  UNL     1      -5.427  -0.285   0.188  1.00  0.00    -0.287 N 
HETATM   30  C9  UNL     1      -4.535   2.280   0.434  1.00  0.00     0.136 A 
HETATM   31  N7  UNL     1      -2.324   1.273  -0.209  1.00  0.00    -0.180 N 
HETATM   32  N5  UNL     1      -5.841   1.953   0.657  1.00  0.00    -0.288 N 
HETATM   33  C10 UNL     1      -6.748   3.041   1.034  1.00  0.00     0.163 C 
HETATM   34  C11 UNL     1      -6.270   0.696   0.535  1.00  0.00     0.331 A 
HETATM   35  O1  UNL     1      -7.505   0.454   0.757  1.00  0.00    -0.246 OA
HETATM   36  C13 UNL     1      -1.404   2.364  -0.220  1.00  0.00     0.176 C 
HETATM   37  C12 UNL     1      -5.940  -1.637   0.067  1.00  0.00     0.163 C 
BRANCH  30  38
HETATM   38  N4  UNL     1      -4.188   3.494   0.567  1.00  0.00    -0.383 N 
ATOM     39  H42 UNL     1      -3.212   3.738   0.400  1.00  0.00     0.157 HD
ATOM     40  H41 UNL     1      -4.852   4.221   0.832  1.00  0.00     0.157 HD
ENDBRANCH  30  38
ENDBRANCH  22  24
ENDBRANCH  21  22
ENDBRANCH   1  21
TORSDOF 9
