REMARK  9 active torsions:
REMARK  status: ('A' for Active; 'I' for Inactive)
REMARK    1  A    between atoms: C2_2  and  N2_6 
REMARK    2  A    between atoms: N3_8  and  C3_10 
REMARK    3  A    between atoms: C6_14  and  C7_15 
REMARK       I    between atoms: C7_15  and  N5_17 
REMARK    4  A    between atoms: N5_17  and  C8_19 
REMARK    5  A    between atoms: C8_19  and  C9_20 
REMARK    6  A    between atoms: C11_28  and  S1_29 
REMARK    7  A    between atoms: S1_29  and  C12_30 
REMARK    8  A    between atoms: C12_30  and  C13_31 
REMARK       I    between atoms: C13_31  and  N8_33 
REMARK    9  A    between atoms: N8_33  and  N9_35 
REMARK       I    between atoms: N9_35  and  C14_37 
ROOT
HETATM    1  C3  UNL     1      -0.745   1.992   0.253  1.00  0.00     0.100 A 
HETATM    2  C4  UNL     1       0.208   1.437   1.083  1.00  0.00     0.151 A 
HETATM    3  N4  UNL     1       0.881   0.307   0.780  1.00  0.00    -0.251 N 
HETATM    4  C5  UNL     1       1.857  -0.351   1.452  1.00  0.00     0.140 A 
HETATM    5  C6  UNL     1       2.199  -1.422   0.632  1.00  0.00     0.120 A 
HETATM    6  C10 UNL     1       1.401  -1.343  -0.478  1.00  0.00     0.299 A 
HETATM    7  O4  UNL     1       1.412  -2.132  -1.442  1.00  0.00    -0.264 OA
HETATM    8  N6  UNL     1       0.595  -0.275  -0.369  1.00  0.00    -0.149 N 
HETATM    9  N7  UNL     1      -0.327   0.232  -1.202  1.00  0.00    -0.267 N 
ATOM     10  H7  UNL     1      -0.509  -0.261  -2.076  1.00  0.00     0.190 HD
HETATM   11  C11 UNL     1      -1.020   1.346  -0.951  1.00  0.00     0.116 A 
ENDROOT
BRANCH  11  12
HETATM   12  S1  UNL     1      -2.213   2.050  -2.098  1.00  0.00    -0.099 SA
BRANCH  12  13
HETATM   13  C12 UNL     1      -3.891   1.637  -1.703  1.00  0.00     0.185 C 
BRANCH  13  14
HETATM   14  C13 UNL     1      -4.253   0.205  -1.776  1.00  0.00     0.245 C 
HETATM   15  O5  UNL     1      -4.452  -0.354  -2.890  1.00  0.00    -0.271 OA
HETATM   16  N8  UNL     1      -4.367  -0.503  -0.575  1.00  0.00    -0.267 N 
ATOM     17  H8  UNL     1      -4.203  -0.021   0.309  1.00  0.00     0.190 HD
BRANCH  16  18
HETATM   18  N9  UNL     1      -4.700  -1.852  -0.566  1.00  0.00    -0.268 N 
HETATM   19  C14 UNL     1      -5.911  -2.303   0.041  1.00  0.00     0.232 C 
HETATM   20  C15 UNL     1      -6.369  -3.703   0.097  1.00  0.00     0.119 C 
HETATM   21  O6  UNL     1      -6.677  -1.432   0.586  1.00  0.00    -0.272 OA
ATOM     22  H9  UNL     1      -4.071  -2.529  -0.999  1.00  0.00     0.190 HD
ENDBRANCH  16  18
ENDBRANCH  13  14
ENDBRANCH  12  13
ENDBRANCH  11  12
BRANCH   1  23
HETATM   23  N3  UNL     1      -1.446   3.164   0.549  1.00  0.00    -0.295 N 
HETATM   24  N2  UNL     1      -0.957   4.302   0.384  1.00  0.00    -0.289 N 
ATOM     25  H2  UNL     1      -1.559   5.086   0.636  1.00  0.00     0.188 HD
ATOM     26  H3  UNL     1      -2.395   3.087   0.915  1.00  0.00     0.187 HD
BRANCH  24  27
HETATM   27  C2  UNL     1       0.308   4.636  -0.101  1.00  0.00     0.085 C 
HETATM   28  C1  UNL     1       1.348   5.230   0.798  1.00  0.00     0.090 C 
HETATM   29  N1  UNL     1       0.613   4.442  -1.339  1.00  0.00    -0.388 N 
ATOM     30  H12 UNL     1       1.538   4.686  -1.694  1.00  0.00     0.157 HD
ATOM     31  H11 UNL     1      -0.095   4.037  -1.951  1.00  0.00     0.157 HD
ENDBRANCH  24  27
ENDBRANCH   1  23
BRANCH   5  32
HETATM   32  C7  UNL     1       3.303  -2.297   0.993  1.00  0.00     0.259 C 
HETATM   33  O1  UNL     1       3.131  -3.271   1.722  1.00  0.00    -0.267 OA
HETATM   34  N5  UNL     1       4.596  -1.979   0.471  1.00  0.00    -0.347 N 
ATOM     35  H5  UNL     1       4.731  -1.163  -0.126  1.00  0.00     0.163 HD
BRANCH  34  36
HETATM   36  C8  UNL     1       5.712  -2.843   0.810  1.00  0.00     0.236 C 
BRANCH  36  37
HETATM   37  C9  UNL     1       6.973  -2.236   0.296  1.00  0.00     0.191 C 
HETATM   38  O2  UNL     1       6.943  -1.193  -0.388  1.00  0.00    -0.647 OA
HETATM   39  O3  UNL     1       8.170  -2.842   0.590  1.00  0.00    -0.647 OA
ENDBRANCH  36  37
ENDBRANCH  34  36
ENDBRANCH   5  32
TORSDOF 9
