REMARK  9 active torsions:
REMARK  status: ('A' for Active; 'I' for Inactive)
REMARK    1  A    between atoms: C2_3  and  C3_4 
REMARK    2  A    between atoms: C3_4  and  S1_5 
REMARK    3  A    between atoms: S1_5  and  C4_6 
REMARK    4  A    between atoms: C5_9  and  C6_10 
REMARK    5  A    between atoms: C8_18  and  C9_19 
REMARK    6  A    between atoms: C9_19  and  O5_20 
REMARK    7  A    between atoms: C10_22  and  O6_23 
REMARK    8  A    between atoms: C12_29  and  C13_30 
REMARK    9  A    between atoms: C14_31  and  C15_32 
ROOT
HETATM    1  N1  UNL     1       3.565  -1.023  -1.020  1.00  0.00    -0.196 NA
HETATM    2  C1  UNL     1       2.613  -0.623  -0.498  1.00  0.00     0.072 C 
HETATM    3  C2  UNL     1       1.405  -0.162   0.118  1.00  0.00     0.082 C 
HETATM    4  C7  UNL     1       0.948   1.074  -0.678  1.00  0.00     0.193 C 
HETATM    5  O4  UNL     1      -0.187   0.713  -1.385  1.00  0.00    -0.381 OA
HETATM    6  C8  UNL     1      -0.817  -0.158  -0.513  1.00  0.00     0.163 C 
HETATM    7  C16 UNL     1       0.231  -1.137  -0.203  1.00  0.00     0.062 C 
ENDROOT
BRANCH   3   8
HETATM    8  C3  UNL     1       1.454   0.110   1.565  1.00  0.00     0.110 C 
BRANCH   8   9
HETATM    9  S1  UNL     1       2.537   1.340   2.209  1.00  0.00    -0.083 SA
BRANCH   9  10
HETATM   10  C4  UNL     1       4.244   0.913   2.147  1.00  0.00     0.210 A 
HETATM   11  N2  UNL     1       5.198   1.137   1.233  1.00  0.00    -0.308 N 
HETATM   12  C5  UNL     1       6.378   0.620   1.610  1.00  0.00     0.206 A 
ATOM     13  H2  UNL     1       5.046   1.639   0.358  1.00  0.00     0.170 HD
HETATM   14  N3  UNL     1       6.118   0.055   2.817  1.00  0.00    -0.236 N 
HETATM   15  O3  UNL     1       4.874   0.233   3.116  1.00  0.00    -0.210 OA
ATOM     16  H3  UNL     1       6.799  -0.434   3.398  1.00  0.00     0.197 HD
BRANCH  12  17
HETATM   17  C6  UNL     1       7.667   0.622   0.937  1.00  0.00     0.247 C 
HETATM   18  O1  UNL     1       8.674   0.066   1.474  1.00  0.00    -0.642 OA
HETATM   19  O2  UNL     1       7.833   1.217  -0.288  1.00  0.00    -0.642 OA
ENDBRANCH  12  17
ENDBRANCH   9  10
ENDBRANCH   8   9
ENDBRANCH   3   8
BRANCH   6  20
HETATM   20  C9  UNL     1      -2.165  -0.636  -0.928  1.00  0.00     0.142 C 
HETATM   21  C10 UNL     1      -2.232  -1.322  -2.245  1.00  0.00     0.258 C 
HETATM   22  N4  UNL     1      -2.575  -0.325  -3.196  1.00  0.00    -0.331 N 
HETATM   23  C11 UNL     1      -3.514   0.502  -2.531  1.00  0.00     0.230 C 
ATOM     24  H4  UNL     1      -2.223  -0.226  -4.148  1.00  0.00     0.165 HD
HETATM   25  O7  UNL     1      -4.531   1.060  -2.985  1.00  0.00    -0.273 OA
HETATM   26  C12 UNL     1      -3.010   0.574  -1.097  1.00  0.00     0.142 C 
BRANCH  20  27
HETATM   27  O5  UNL     1      -2.602  -1.511   0.061  1.00  0.00    -0.381 OA
ATOM     28  H5  UNL     1      -3.462  -1.816  -0.204  1.00  0.00     0.211 HD
ENDBRANCH  20  27
BRANCH  21  29
HETATM   29  O6  UNL     1      -1.191  -2.135  -2.587  1.00  0.00    -0.373 OA
ATOM     30  H6  UNL     1      -1.234  -2.573  -3.429  1.00  0.00     0.212 HD
ENDBRANCH  21  29
BRANCH  26  31
HETATM   31  C13 UNL     1      -4.051   0.921  -0.195  1.00  0.00    -0.003 C 
HETATM   32  C14 UNL     1      -4.544   0.300   0.822  1.00  0.00     0.081 C 
BRANCH  32  33
HETATM   33  C15 UNL     1      -5.657   0.902   1.613  1.00  0.00     0.198 C 
HETATM   34  O8  UNL     1      -6.089   2.011   1.256  1.00  0.00    -0.645 OA
HETATM   35  O9  UNL     1      -6.195   0.263   2.705  1.00  0.00    -0.645 OA
ENDBRANCH  32  33
ENDBRANCH  26  31
ENDBRANCH   6  20
TORSDOF 9
