REMARK  12 active torsions:
REMARK  status: ('A' for Active; 'I' for Inactive)
REMARK    1  A    between atoms: C2_2  and  C3_3 
REMARK    2  A    between atoms: C3_3  and  O1_4 
REMARK    3  A    between atoms: O1_4  and  C4_5 
REMARK    4  A    between atoms: C4_5  and  O2_6 
REMARK    5  A    between atoms: C6_10  and  C7_11 
REMARK    6  A    between atoms: C9_15  and  O4_16 
REMARK    7  A    between atoms: C10_18  and  C11_19 
REMARK    8  A    between atoms: C11_19  and  O5_20 
REMARK    9  A    between atoms: C12_22  and  N2_23 
REMARK   10  A    between atoms: N2_23  and  N3_24 
REMARK   11  A    between atoms: N3_24  and  S1_26 
REMARK   12  A    between atoms: C15_32  and  O9_33 
ROOT
HETATM    1  C7  UNL     1      -1.051  -1.027   0.180  1.00  0.00     0.085 A 
HETATM    2  N1  UNL     1      -0.335  -0.998   1.315  1.00  0.00    -0.348 N 
ATOM      3  H1  UNL     1      -0.653  -1.404   2.195  1.00  0.00     0.166 HD
HETATM    4  C8  UNL     1       0.843  -0.377   1.166  1.00  0.00     0.104 A 
HETATM    5  C9  UNL     1       1.870  -0.121   2.044  1.00  0.00     0.109 A 
HETATM    6  C10 UNL     1       2.981   0.573   1.523  1.00  0.00     0.069 A 
HETATM    7  C12 UNL     1       3.036   0.972   0.206  1.00  0.00     0.258 A 
HETATM    8  O8  UNL     1       1.965   0.665  -0.569  1.00  0.00    -0.275 OA
HETATM    9  C14 UNL     1       0.922   0.033  -0.144  1.00  0.00     0.143 A 
HETATM   10  C15 UNL     1      -0.276  -0.383  -0.750  1.00  0.00     0.130 A 
ENDROOT
BRANCH   1  11
HETATM   11  C6  UNL     1      -2.387  -1.632   0.027  1.00  0.00     0.070 C 
HETATM   12  C5  UNL     1      -3.048  -2.219   1.032  1.00  0.00     0.159 C 
HETATM   13  O3  UNL     1      -4.283  -2.695   0.584  1.00  0.00    -0.295 OA
HETATM   14  C4  UNL     1      -4.610  -2.021  -0.626  1.00  0.00     0.355 C 
HETATM   15  C16 UNL     1      -3.221  -1.734  -1.127  1.00  0.00     0.255 C 
HETATM   16  O10 UNL     1      -2.933  -1.623  -2.324  1.00  0.00    -0.283 OA
BRANCH  14  17
HETATM   17  O1  UNL     1      -5.206  -0.799  -0.383  1.00  0.00    -0.322 OA
BRANCH  17  18
HETATM   18  C3  UNL     1      -6.472  -0.906   0.173  1.00  0.00     0.201 C 
BRANCH  18  19
HETATM   19  C2  UNL     1      -6.991   0.483   0.386  1.00  0.00    -0.011 C 
HETATM   20  C1  UNL     1      -6.285   1.547   0.066  1.00  0.00     0.009 C 
ENDBRANCH  18  19
ENDBRANCH  17  18
ENDBRANCH  14  17
BRANCH  14  21
HETATM   21  O2  UNL     1      -5.303  -2.834  -1.490  1.00  0.00    -0.337 OA
ATOM     22  H2  UNL     1      -4.893  -3.675  -1.657  1.00  0.00     0.216 HD
ENDBRANCH  14  21
ENDBRANCH   1  11
BRANCH  10  23
HETATM   23  O9  UNL     1      -0.574  -0.152  -2.081  1.00  0.00    -0.356 OA
ATOM     24  H9  UNL     1      -0.037   0.294  -2.725  1.00  0.00     0.218 HD
ENDBRANCH  10  23
BRANCH   5  25
HETATM   25  O4  UNL     1       1.832  -0.510   3.353  1.00  0.00    -0.357 OA
ATOM     26  H4  UNL     1       2.541  -0.333   3.960  1.00  0.00     0.217 HD
ENDBRANCH   5  25
BRANCH   6  27
HETATM   27  C11 UNL     1       4.072   0.835   2.480  1.00  0.00     0.211 C 
BRANCH  27  28
HETATM   28  O5  UNL     1       5.130   1.516   1.943  1.00  0.00    -0.396 OA
ATOM     29  H5  UNL     1       5.833   1.685   2.559  1.00  0.00     0.209 HD
ENDBRANCH  27  28
ENDBRANCH   6  27
BRANCH   7  30
HETATM   30  N2  UNL     1       3.978   1.572  -0.276  1.00  0.00    -0.289 NA
BRANCH  30  31
HETATM   31  N3  UNL     1       4.960   2.201  -0.794  1.00  0.00    -0.158 N 
ATOM     32  H3  UNL     1       5.032   3.204  -0.621  1.00  0.00     0.215 HD
BRANCH  31  33
HETATM   33  S1  UNL     1       6.190   1.445  -1.783  1.00  0.00     0.249 S 
HETATM   34  C13 UNL     1       5.733   1.467  -3.479  1.00  0.00     0.188 C 
HETATM   35  O6  UNL     1       7.499   2.150  -1.625  1.00  0.00    -0.204 OA
HETATM   36  O7  UNL     1       6.410   0.020  -1.325  1.00  0.00    -0.204 OA
ENDBRANCH  31  33
ENDBRANCH  30  31
ENDBRANCH   7  30
TORSDOF 12
