REMARK  10 active torsions:
REMARK  status: ('A' for Active; 'I' for Inactive)
REMARK    1  A    between atoms: O1_2  and  C2_3 
REMARK    2  A    between atoms: C2_3  and  C3_5 
REMARK    3  A    between atoms: C3_5  and  O3_6 
REMARK    4  A    between atoms: N2_14  and  C7_15 
REMARK    5  A    between atoms: C7_15  and  C8_16 
REMARK    6  A    between atoms: C8_16  and  C9_17 
REMARK    7  A    between atoms: C8_16  and  C14_29 
REMARK    8  A    between atoms: C9_17  and  O4_18 
REMARK    9  A    between atoms: O4_18  and  C10_19 
REMARK   10  A    between atoms: C11_22  and  N4_23 
ROOT
HETATM    1  C8  UNL     1      -0.770  -0.402  -0.068  1.00  0.00     0.138 C 
ENDROOT
BRANCH   1   2
HETATM    2  C7  UNL     1       0.605   0.209  -0.024  1.00  0.00     0.084 C 
BRANCH   2   3
HETATM    3  N2  UNL     1       1.700  -0.581  -0.279  1.00  0.00    -0.310 N 
HETATM    4  C3  UNL     1       2.945   0.122  -0.334  1.00  0.00     0.398 C 
HETATM    5  N1  UNL     1       3.778  -0.359  -1.414  1.00  0.00    -0.013 N 
HETATM    6  C4  UNL     1       4.101  -1.732  -1.241  1.00  0.00     0.244 C 
ATOM      7  H12 UNL     1       3.350  -0.186  -2.324  1.00  0.00     0.283 HD
ATOM      8  H11 UNL     1       4.616   0.212  -1.525  1.00  0.00     0.283 HD
HETATM    9  C5  UNL     1       2.926  -2.562  -0.927  1.00  0.00     0.072 C 
HETATM   10  C6  UNL     1       1.620  -1.803  -0.939  1.00  0.00     0.070 C 
BRANCH   4  11
HETATM   11  C2  UNL     1       3.677   0.170   0.941  1.00  0.00     0.345 C 
HETATM   12  O2  UNL     1       3.951  -0.879   1.551  1.00  0.00    -0.257 OA
BRANCH  11  13
HETATM   13  O1  UNL     1       4.085   1.362   1.508  1.00  0.00    -0.321 OA
HETATM   14  C1  UNL     1       4.790   1.456   2.727  1.00  0.00     0.213 C 
ENDBRANCH  11  13
ENDBRANCH   4  11
BRANCH   4  15
HETATM   15  O3  UNL     1       2.708   1.499  -0.659  1.00  0.00    -0.341 OA
ATOM     16  H3  UNL     1       2.235   1.468  -1.482  1.00  0.00     0.215 HD
ENDBRANCH   4  15
ENDBRANCH   2   3
ENDBRANCH   1   2
BRANCH   1  17
HETATM   17  C9  UNL     1      -1.826   0.676   0.284  1.00  0.00     0.196 C 
BRANCH  17  18
HETATM   18  O4  UNL     1      -3.053   0.012   0.212  1.00  0.00    -0.334 OA
BRANCH  18  19
HETATM   19  C10 UNL     1      -4.301   0.634   0.472  1.00  0.00     0.157 A 
HETATM   20  N3  UNL     1      -4.423   1.892   0.808  1.00  0.00    -0.317 N 
HETATM   21  C11 UNL     1      -5.642   2.376   1.030  1.00  0.00     0.144 A 
ATOM     22  H3  UNL     1      -3.601   2.489   0.898  1.00  0.00     0.170 HD
HETATM   23  S1  UNL     1      -6.652   1.031   0.759  1.00  0.00    -0.055 SA
HETATM   24  C12 UNL     1      -5.443  -0.111   0.367  1.00  0.00     0.033 A 
HETATM   25  C13 UNL     1      -5.577  -1.566  -0.002  1.00  0.00     0.061 C 
BRANCH  21  26
HETATM   26  N4  UNL     1      -5.990   3.596   1.375  1.00  0.00    -0.380 N 
ATOM     27  H42 UNL     1      -5.385   4.401   1.537  1.00  0.00     0.158 HD
ATOM     28  H41 UNL     1      -6.925   3.967   1.545  1.00  0.00     0.158 HD
ENDBRANCH  21  26
ENDBRANCH  18  19
ENDBRANCH  17  18
ENDBRANCH   1  17
BRANCH   1  29
HETATM   29  C14 UNL     1      -1.123  -0.756  -1.478  1.00  0.00     0.242 C 
HETATM   30  N5  UNL     1      -0.991   0.240  -2.464  1.00  0.00    -0.061 NA
HETATM   31  O5  UNL     1      -1.519  -1.908  -1.726  1.00  0.00    -0.276 OA
ENDBRANCH   1  29
TORSDOF 10
