REMARK  4 active torsions:
REMARK  status: ('A' for Active; 'I' for Inactive)
REMARK    1  A    between atoms: N1_2  and  C2_3 
REMARK    2  A    between atoms: N1_2  and  C5_9 
REMARK    3  A    between atoms: C2_3  and  C3_4 
REMARK    4  A    between atoms: C4_5  and  N2_6 
ROOT
HETATM    1  C1  UNL     1       0.950  -1.491  -0.772  1.00  0.00     0.150 C 
HETATM    2  N1  UNL     1       0.837  -0.370   0.074  1.00  0.00    -0.383 N 
ENDROOT
BRANCH   2   3
HETATM    3  C2  UNL     1       1.726   0.716  -0.185  1.00  0.00     0.152 C 
BRANCH   3   4
HETATM    4  C3  UNL     1       3.109   0.454   0.082  1.00  0.00    -0.039 C 
HETATM    5  C4  UNL     1       4.272   0.244   0.287  1.00  0.00     0.009 C 
BRANCH   5   6
HETATM    6  N2  UNL     1       5.625   0.010   0.524  1.00  0.00    -0.359 N 
ATOM      7  H22 UNL     1       4.765   0.519   0.321  1.00  0.00     0.166 HD
ATOM      8  H21 UNL     1       6.614  -0.169   0.698  1.00  0.00     0.166 HD
ENDBRANCH   5   6
ENDBRANCH   3   4
ENDBRANCH   2   3
BRANCH   2   9
HETATM    9  C5  UNL     1      -0.474   0.107   0.361  1.00  0.00     0.083 C 
HETATM   10  C6  UNL     1      -1.067   0.556  -0.954  1.00  0.00     0.025 C 
HETATM   11  C7  UNL     1      -2.476   1.044  -0.835  1.00  0.00     0.002 C 
HETATM   12  C8  UNL     1      -3.325   0.193   0.072  1.00  0.00     0.000 C 
HETATM   13  C9  UNL     1      -2.681  -0.120   1.385  1.00  0.00     0.002 C 
HETATM   14  C10 UNL     1      -1.365  -0.825   1.116  1.00  0.00     0.025 C 
ENDBRANCH   2   9
TORSDOF 4
