REMARK  2 active torsions:
REMARK  status: ('A' for Active; 'I' for Inactive)
REMARK    1  A    between atoms: C2_2  and  N1_3 
REMARK    2  A    between atoms: N1_3  and  C3_6 
ROOT
HETATM    1  C3  UNL     1       0.881  -0.455  -0.254  1.00  0.00     0.186 C 
HETATM    2  C4  UNL     1      -0.078  -1.499   0.149  1.00  0.00     0.033 C 
HETATM    3  C5  UNL     1      -1.520  -1.167   0.172  1.00  0.00     0.010 C 
HETATM    4  C6  UNL     1      -1.881   0.175   0.719  1.00  0.00     0.042 C 
HETATM    5  C7  UNL     1      -3.398   0.309   0.756  1.00  0.00     0.239 C 
HETATM    6  N2  UNL     1      -3.331   0.728  -0.635  1.00  0.00    -0.070 N 
ATOM      7  H21 UNL     1      -4.036   1.353  -1.026  1.00  0.00     0.277 HD
ATOM      8  H22 UNL     1      -3.521   0.068  -1.389  1.00  0.00     0.277 HD
HETATM    9  C8  UNL     1      -2.011   1.186  -0.387  1.00  0.00     0.191 C 
HETATM   10  C9  UNL     1      -0.933   0.901  -1.377  1.00  0.00     0.035 C 
HETATM   11  C10 UNL     1       0.359   0.880  -0.620  1.00  0.00     0.035 C 
ENDROOT
BRANCH   1  12
HETATM   12  N1  UNL     1       1.820  -0.246   0.852  1.00  0.00    -0.071 N 
ATOM     13  H12 UNL     1       1.996  -1.113   1.359  1.00  0.00     0.277 HD
ATOM     14  H11 UNL     1       1.394   0.295   1.605  1.00  0.00     0.277 HD
BRANCH  12  15
HETATM   15  C2  UNL     1       3.048   0.358   0.402  1.00  0.00     0.228 C 
HETATM   16  C1  UNL     1       3.916  -0.610  -0.364  1.00  0.00     0.034 C 
ENDBRANCH  12  15
ENDBRANCH   1  12
TORSDOF 2
