REMARK  3 active torsions:
REMARK  status: ('A' for Active; 'I' for Inactive)
REMARK    1  A    between atoms: C2_2  and  C3_3 
REMARK    2  A    between atoms: C3_3  and  C4_4 
REMARK    3  A    between atoms: C4_4  and  N1_5 
ROOT
HETATM    1  C3  UNL     1       0.629  -0.043  -0.248  1.00  0.00     0.052 C 
HETATM    2  C5  UNL     1      -0.321  -0.327   0.858  1.00  0.00     0.037 C 
HETATM    3  C6  UNL     1      -1.718  -0.662   0.432  1.00  0.00    -0.012 C 
HETATM    4  C7  UNL     1      -2.661  -0.590   1.586  1.00  0.00     0.010 C 
HETATM    5  C8  UNL     1      -2.085   0.322  -0.684  1.00  0.00     0.048 C 
HETATM    6  C9  UNL     1      -1.209  -0.056  -1.829  1.00  0.00     0.057 C 
HETATM    7  N2  UNL     1       0.154  -0.209  -1.565  1.00  0.00    -0.391 N 
ATOM      8  H2  UNL     1       0.801  -0.439  -2.319  1.00  0.00     0.159 HD
ENDROOT
BRANCH   1   9
HETATM    9  C2  UNL     1       1.148   1.369  -0.098  1.00  0.00     0.028 C 
HETATM   10  C1  UNL     1       1.808   1.653   1.198  1.00  0.00     0.007 C 
ENDBRANCH   1   9
BRANCH   1  11
HETATM   11  C4  UNL     1       1.777  -1.060  -0.124  1.00  0.00     0.260 C 
BRANCH  11  12
HETATM   12  N1  UNL     1       2.779  -0.857  -1.127  1.00  0.00    -0.077 N 
ATOM     13  H13 UNL     1       2.374  -0.866  -2.063  1.00  0.00     0.274 HD
ATOM     14  H12 UNL     1       3.129   0.101  -1.114  1.00  0.00     0.274 HD
ATOM     15  H11 UNL     1       3.540  -1.531  -1.045  1.00  0.00     0.274 HD
ENDBRANCH  11  12
ENDBRANCH   1  11
TORSDOF 3
