REMARK  2 active torsions:
REMARK  status: ('A' for Active; 'I' for Inactive)
REMARK    1  A    between atoms: C5_5  and  N1_6 
REMARK    2  A    between atoms: N1_6  and  C6_8 
ROOT
HETATM    1  N1  UNL     1       0.689   0.206   0.362  1.00  0.00    -0.391 N 
ATOM      2  H1  UNL     1       0.409   0.844   1.107  1.00  0.00     0.155 HD
ENDROOT
BRANCH   1   3
HETATM    3  C5  UNL     1       0.024   0.182  -0.884  1.00  0.00     0.078 C 
HETATM    4  C4  UNL     1      -0.642  -1.163  -1.055  1.00  0.00     0.024 C 
HETATM    5  C3  UNL     1      -1.454  -1.614   0.103  1.00  0.00     0.002 C 
HETATM    6  C2  UNL     1      -2.117  -0.572   0.921  1.00  0.00     0.000 C 
HETATM    7  C1  UNL     1      -2.781   0.533   0.173  1.00  0.00     0.000 C 
HETATM    8  C10 UNL     1      -1.867   1.689  -0.155  1.00  0.00     0.002 C 
HETATM    9  C9  UNL     1      -0.847   1.353  -1.186  1.00  0.00     0.024 C 
ENDBRANCH   1   3
BRANCH   1  10
HETATM   10  C6  UNL     1       1.776  -0.711   0.525  1.00  0.00     0.281 C 
HETATM   11  C7  UNL     1       2.927  -0.413  -0.393  1.00  0.00     0.081 C 
HETATM   12  C8  UNL     1       3.394   0.438   0.793  1.00  0.00     0.238 C 
HETATM   13  N2  UNL     1       2.634  -0.460   1.639  1.00  0.00    -0.054 N 
ATOM     14  H22 UNL     1       2.253  -0.141   2.530  1.00  0.00     0.279 HD
ATOM     15  H21 UNL     1       3.092  -1.229   2.129  1.00  0.00     0.279 HD
ENDBRANCH   1  10
TORSDOF 2
