REMARK  3 active torsions:
REMARK  status: ('A' for Active; 'I' for Inactive)
REMARK    1  A    between atoms: C2_2  and  C3_6 
REMARK    2  A    between atoms: C4_8  and  N2_9 
REMARK    3  A    between atoms: C5_14  and  C6_15 
ROOT
HETATM    1  C3  UNL     1       2.134   0.035   0.047  1.00  0.00     0.053 A 
HETATM    2  S1  UNL     1       3.106   1.429  -0.323  1.00  0.00    -0.051 SA
HETATM    3  C4  UNL     1       1.881   2.534  -0.623  1.00  0.00     0.143 A 
HETATM    4  N3  UNL     1       0.759   1.816  -0.449  1.00  0.00    -0.339 N 
ATOM      5  H3  UNL     1      -0.160   2.239  -0.577  1.00  0.00     0.168 HD
HETATM    6  C5  UNL     1       0.881   0.547  -0.107  1.00  0.00     0.034 A 
ENDROOT
BRANCH   6   7
HETATM    7  C6  UNL     1      -0.364  -0.320   0.120  1.00  0.00     0.037 C 
HETATM    8  C7  UNL     1      -1.224   0.015  -1.169  1.00  0.00     0.011 C 
HETATM    9  C8  UNL     1      -2.399  -0.924  -1.121  1.00  0.00     0.001 C 
HETATM   10  C9  UNL     1      -3.328  -0.392  -0.029  1.00  0.00     0.000 C 
HETATM   11  C10 UNL     1      -2.606  -0.244   1.269  1.00  0.00     0.001 C 
HETATM   12  C11 UNL     1      -1.210   0.320   1.190  1.00  0.00     0.011 C 
ENDBRANCH   6   7
BRANCH   1  13
HETATM   13  C2  UNL     1       2.632  -1.261   0.517  1.00  0.00     0.018 C 
HETATM   14  C1  UNL     1       3.978  -1.623  -0.095  1.00  0.00     0.069 C 
HETATM   15  N1  UNL     1       2.026  -2.116   1.163  1.00  0.00    -0.402 N 
ATOM     16  H12 UNL     1       2.373  -3.018   1.490  1.00  0.00     0.156 HD
ATOM     17  H11 UNL     1       1.124  -1.873   1.573  1.00  0.00     0.156 HD
ENDBRANCH   1  13
BRANCH   3  18
HETATM   18  N2  UNL     1       1.953   3.819  -0.944  1.00  0.00    -0.380 N 
ATOM     19  H22 UNL     1       2.805   4.364  -1.076  1.00  0.00     0.158 HD
ATOM     20  H21 UNL     1       1.208   4.491  -1.126  1.00  0.00     0.158 HD
ENDBRANCH   3  18
TORSDOF 3
