REMARK  5 active torsions:
REMARK  status: ('A' for Active; 'I' for Inactive)
REMARK    1  A    between atoms: O1_2  and  C2_3 
REMARK    2  A    between atoms: C4_5  and  O2_6 
REMARK    3  A    between atoms: C6_8  and  C7_9 
REMARK    4  A    between atoms: C8_11  and  C9_12 
REMARK    5  A    between atoms: C15_19  and  N1_20 
ROOT
HETATM    1  C7  UNL     1      -0.177  -0.805  -1.176  1.00  0.00     0.165 C 
HETATM    2  O3  UNL     1      -0.447   0.499  -1.633  1.00  0.00    -0.370 OA
HETATM    3  C8  UNL     1      -1.744   0.314  -1.091  1.00  0.00     0.180 C 
HETATM    4  C15 UNL     1      -1.101  -0.538  -0.037  1.00  0.00     0.147 C 
ENDROOT
BRANCH   1   5
HETATM    5  C6  UNL     1       1.241  -1.113  -0.885  1.00  0.00     0.119 C 
HETATM    6  C4  UNL     1       1.936  -0.333   0.144  1.00  0.00     0.141 C 
HETATM    7  C3  UNL     1       2.093   1.114   0.018  1.00  0.00     0.077 C 
HETATM    8  C2  UNL     1       3.353   1.542  -0.743  1.00  0.00     0.196 C 
HETATM    9  S3  UNL     1       2.878   2.176  -2.383  1.00  0.00    -0.054 SA
HETATM   10  S2  UNL     1       1.724   0.710  -3.446  1.00  0.00    -0.022 SA
HETATM   11  S1  UNL     1       2.118  -1.171  -2.481  1.00  0.00    -0.076 SA
BRANCH   6  12
HETATM   12  O2  UNL     1       3.230  -0.890   0.280  1.00  0.00    -0.389 OA
HETATM   13  C5  UNL     1       3.431  -1.486   1.504  1.00  0.00     0.202 C 
ENDBRANCH   6  12
BRANCH   8  14
HETATM   14  O1  UNL     1       4.047   2.538  -0.100  1.00  0.00    -0.380 OA
HETATM   15  C1  UNL     1       5.380   2.194   0.137  1.00  0.00     0.203 C 
ENDBRANCH   8  14
ENDBRANCH   1   5
BRANCH   4  16
HETATM   16  N1  UNL     1      -1.899  -1.519   0.507  1.00  0.00    -0.383 N 
HETATM   17  C16 UNL     1      -2.897  -2.199  -0.181  1.00  0.00     0.059 C 
HETATM   18  C17 UNL     1      -2.548  -3.669  -0.037  1.00  0.00     0.046 C 
HETATM   19  C18 UNL     1      -1.990  -3.720   1.368  1.00  0.00     0.025 C 
HETATM   20  C19 UNL     1      -1.418  -2.331   1.564  1.00  0.00     0.123 C 
ENDBRANCH   4  16
BRANCH   3  21
HETATM   21  C9  UNL     1      -2.358   1.570  -0.613  1.00  0.00    -0.027 A 
HETATM   22  C10 UNL     1      -2.268   2.697  -1.396  1.00  0.00     0.013 A 
HETATM   23  C11 UNL     1      -2.844   3.880  -0.951  1.00  0.00     0.043 A 
HETATM   24  C12 UNL     1      -3.507   3.971   0.258  1.00  0.00     0.116 A 
HETATM   25  F1  UNL     1      -4.066   5.137   0.682  1.00  0.00    -0.206 F 
HETATM   26  C13 UNL     1      -3.584   2.828   1.027  1.00  0.00     0.043 A 
HETATM   27  C14 UNL     1      -3.015   1.637   0.598  1.00  0.00     0.013 A 
ENDBRANCH   3  21
TORSDOF 5
