REMARK  6 active torsions:
REMARK  status: ('A' for Active; 'I' for Inactive)
REMARK    1  A    between atoms: O1_2  and  C2_3 
REMARK    2  A    between atoms: C7_8  and  C8_9 
REMARK    3  A    between atoms: C8_9  and  C9_10 
REMARK    4  A    between atoms: C8_9  and  C18_23 
REMARK    5  A    between atoms: C9_10  and  C10_11 
REMARK    6  A    between atoms: C10_11  and  C11_12 
ROOT
HETATM    1  C8  UNL     1      -0.664  -1.987   0.343  1.00  0.00     0.029 C 
ENDROOT
BRANCH   1   2
HETATM    2  C7  UNL     1      -1.393  -0.793  -0.092  1.00  0.00    -0.017 A 
HETATM    3  C2  UNL     1      -2.238  -0.816  -1.179  1.00  0.00     0.077 A 
HETATM    4  C3  UNL     1      -2.951   0.338  -1.482  1.00  0.00     0.077 A 
HETATM    5  C4  UNL     1      -2.850   1.493  -0.750  1.00  0.00     0.111 A 
HETATM    6  C5  UNL     1      -2.005   1.515   0.334  1.00  0.00     0.109 A 
HETATM    7  O7  UNL     1      -3.428   2.754  -0.827  1.00  0.00    -0.284 OA
HETATM    8  C6  UNL     1      -1.293   0.393   0.653  1.00  0.00     0.050 A 
HETATM    9  O6  UNL     1      -2.087   2.805   0.899  1.00  0.00    -0.284 OA
HETATM   10  C22 UNL     1      -3.223   3.468   0.379  1.00  0.00     0.325 C 
HETATM   11  C23 UNL     1      -2.892   4.894  -0.031  1.00  0.00     0.121 C 
HETATM   12  F1  UNL     1      -4.305   3.423   1.208  1.00  0.00    -0.180 F 
BRANCH   3  13
HETATM   13  O1  UNL     1      -2.416  -1.930  -2.000  1.00  0.00    -0.355 OA
HETATM   14  C1  UNL     1      -3.285  -1.886  -3.081  1.00  0.00     0.210 C 
ENDBRANCH   3  13
ENDBRANCH   1   2
BRANCH   1  15
HETATM   15  C9  UNL     1       0.620  -1.616   1.110  1.00  0.00     0.011 C 
BRANCH  15  16
HETATM   16  C10 UNL     1       1.552  -0.835   0.230  1.00  0.00     0.018 C 
BRANCH  16  17
HETATM   17  C11 UNL     1       2.797  -0.500   0.976  1.00  0.00     0.119 C 
HETATM   18  C12 UNL     1       2.605   0.315   2.163  1.00  0.00     0.268 C 
HETATM   19  O2  UNL     1       2.039   0.044   3.237  1.00  0.00    -0.265 OA
HETATM   20  O3  UNL     1       3.198   1.561   1.918  1.00  0.00    -0.286 OA
HETATM   21  C13 UNL     1       4.308   1.318   1.023  1.00  0.00     0.302 C 
HETATM   22  O4  UNL     1       4.548   2.393   0.203  1.00  0.00    -0.323 OA
HETATM   23  C17 UNL     1       3.802   0.231   0.103  1.00  0.00     0.194 C 
HETATM   24  C14 UNL     1       3.965   2.120  -1.024  1.00  0.00     0.160 C 
HETATM   25  C15 UNL     1       3.070   3.288  -1.430  1.00  0.00     0.078 C 
HETATM   26  C16 UNL     1       5.007   1.828  -2.079  1.00  0.00     0.078 C 
HETATM   27  O5  UNL     1       3.156   0.995  -0.871  1.00  0.00    -0.345 OA
ENDBRANCH  16  17
ENDBRANCH  15  16
ENDBRANCH   1  15
BRANCH   1  28
HETATM   28  C18 UNL     1      -1.496  -2.874   1.221  1.00  0.00    -0.044 C 
HETATM   29  C19 UNL     1      -1.980  -2.157   2.491  1.00  0.00     0.015 C 
HETATM   30  C20 UNL     1      -2.696  -3.515   0.608  1.00  0.00     0.015 C 
HETATM   31  C21 UNL     1      -0.645  -4.033   1.772  1.00  0.00     0.015 C 
ENDBRANCH   1  28
TORSDOF 6
