REMARK  5 active torsions:
REMARK  status: ('A' for Active; 'I' for Inactive)
REMARK    1  A    between atoms: C2_3  and  O1_4 
REMARK    2  A    between atoms: O1_4  and  C3_5 
REMARK    3  A    between atoms: C3_5  and  C4_6 
REMARK    4  A    between atoms: C4_6  and  N1_7 
REMARK    5  A    between atoms: N2_16  and  C13_17 
ROOT
HETATM    1 CL1  UNL     1      -0.926   1.047  -0.048  1.00  0.00    -0.079 Cl
HETATM    2  C1  UNL     1      -0.186  -0.511   0.096  1.00  0.00     0.094 A 
HETATM    3  C2  UNL     1       1.202  -0.643   0.083  1.00  0.00     0.092 A 
HETATM    4  C9  UNL     1       1.807  -1.870   0.207  1.00  0.00     0.039 A 
HETATM    5  C10 UNL     1       0.996  -2.975   0.346  1.00  0.00     0.012 A 
HETATM    6  C11 UNL     1      -0.355  -2.878   0.362  1.00  0.00    -0.029 A 
HETATM    7  C12 UNL     1      -0.977  -1.624   0.236  1.00  0.00     0.067 A 
HETATM    8  N2  UNL     1      -2.395  -1.556   0.256  1.00  0.00    -0.329 N 
HETATM    9  C21 UNL     1      -3.132  -2.475   1.126  1.00  0.00     0.131 C 
HETATM   10  C22 UNL     1      -2.344  -3.683   1.481  1.00  0.00     0.025 C 
HETATM   11  C23 UNL     1      -1.273  -4.039   0.505  1.00  0.00     0.042 C 
ENDROOT
BRANCH   8  12
HETATM   12  C13 UNL     1      -3.083  -0.650  -0.547  1.00  0.00     0.145 A 
HETATM   13  N3  UNL     1      -2.921  -0.637  -1.872  1.00  0.00    -0.336 N 
HETATM   14  C14 UNL     1      -3.616   0.193  -2.683  1.00  0.00     0.182 A 
ATOM     15  H3  UNL     1      -2.246  -1.278  -2.289  1.00  0.00     0.168 HD
HETATM   16  N4  UNL     1      -4.514   1.056  -2.182  1.00  0.00    -0.349 N 
HETATM   17  C15 UNL     1      -4.707   1.074  -0.850  1.00  0.00     0.082 A 
ATOM     18  H4  UNL     1      -5.037   1.682  -2.795  1.00  0.00     0.166 HD
HETATM   19  C16 UNL     1      -5.521   1.805  -0.013  1.00  0.00     0.027 A 
HETATM   20  C18 UNL     1      -3.995   0.223  -0.011  1.00  0.00     0.147 A 
HETATM   21  C17 UNL     1      -5.291   1.392   1.280  1.00  0.00     0.088 A 
HETATM   22  C20 UNL     1      -6.548   2.857   0.082  1.00  0.00     0.212 C 
HETATM   23  O2  UNL     1      -4.379   0.456   1.218  1.00  0.00    -0.306 OA
HETATM   24  C19 UNL     1      -6.185   2.198   2.184  1.00  0.00     0.233 C 
HETATM   25  O3  UNL     1      -7.150   2.646   1.319  1.00  0.00    -0.380 OA
ENDBRANCH   8  12
BRANCH   3  26
HETATM   26  O1  UNL     1       1.971   0.478  -0.058  1.00  0.00    -0.348 OA
BRANCH  26  27
HETATM   27  C3  UNL     1       3.362   0.564  -0.094  1.00  0.00     0.206 C 
BRANCH  27  28
HETATM   28  C4  UNL     1       3.711   2.022  -0.269  1.00  0.00     0.299 C 
BRANCH  28  29
HETATM   29  N1  UNL     1       5.131   2.255  -0.321  1.00  0.00     0.090 N 
HETATM   30  C5  UNL     1       5.766   1.736  -1.488  1.00  0.00     0.272 C 
HETATM   31  C6  UNL     1       6.994   0.979  -1.036  1.00  0.00     0.032 C 
HETATM   32  C7  UNL     1       6.664   0.603   0.394  1.00  0.00     0.032 C 
HETATM   33  C8  UNL     1       5.828   1.772   0.841  1.00  0.00     0.272 C 
ENDBRANCH  28  29
ENDBRANCH  27  28
ENDBRANCH  26  27
ENDBRANCH   3  26
TORSDOF 5
