REMARK  3 active torsions:
REMARK  status: ('A' for Active; 'I' for Inactive)
REMARK    1  A    between atoms: C5_6  and  C6_7 
REMARK    2  A    between atoms: C9_12  and  N3_13 
REMARK       I    between atoms: N3_13  and  C10_15 
REMARK    3  A    between atoms: C10_15  and  C11_17 
ROOT
HETATM    1  N1  UNL     1       8.188   0.691  -3.337  1.00  0.00    -0.191 NA
HETATM    2  C1  UNL     1       7.233   0.471  -2.723  1.00  0.00     0.099 C 
HETATM    3  C2  UNL     1       6.020   0.194  -1.973  1.00  0.00     0.044 A 
HETATM    4  C3  UNL     1       5.321   1.196  -1.355  1.00  0.00     0.023 A 
HETATM    5  C4  UNL     1       4.154   0.912  -0.637  1.00  0.00     0.015 A 
HETATM    6  C5  UNL     1       3.671  -0.366  -0.525  1.00  0.00    -0.008 A 
HETATM    7  C20 UNL     1       4.386  -1.353  -1.150  1.00  0.00     0.015 A 
HETATM    8  C21 UNL     1       5.555  -1.076  -1.872  1.00  0.00     0.023 A 
ENDROOT
BRANCH   6   9
HETATM    9  C6  UNL     1       2.459  -0.680   0.219  1.00  0.00     0.059 A 
HETATM   10  C7  UNL     1       1.969  -1.963   0.334  1.00  0.00     0.118 A 
HETATM   11  N2  UNL     1       0.829  -2.223   1.039  1.00  0.00    -0.370 N 
HETATM   12  C8  UNL     1       0.160  -1.222   1.637  1.00  0.00     0.136 A 
ATOM     13  H2  UNL     1       0.484  -3.180   1.112  1.00  0.00     0.164 HD
HETATM   14  C9  UNL     1       0.616   0.076   1.546  1.00  0.00     0.124 A 
HETATM   15  N5  UNL     1       1.740   0.285   0.844  1.00  0.00    -0.340 N 
ATOM     16  H5  UNL     1       2.080   1.244   0.775  1.00  0.00     0.167 HD
BRANCH  14  17
HETATM   17  N3  UNL     1      -0.025   1.054   2.122  1.00  0.00    -0.306 N 
HETATM   18  C10 UNL     1      -1.197   0.875   2.860  1.00  0.00     0.273 C 
HETATM   19  O1  UNL     1      -1.143   0.886   4.114  1.00  0.00    -0.266 OA
ATOM     20  H3  UNL     1       0.349   1.999   2.029  1.00  0.00     0.170 HD
BRANCH  18  21
HETATM   21  C11 UNL     1      -2.464   0.677   2.183  1.00  0.00     0.101 A 
HETATM   22  C12 UNL     1      -3.629   0.499   2.941  1.00  0.00     0.036 A 
HETATM   23  C13 UNL     1      -4.821   0.312   2.273  1.00  0.00     0.016 A 
HETATM   24  C14 UNL     1      -4.824   0.308   0.887  1.00  0.00    -0.009 A 
HETATM   25  C15 UNL     1      -6.003   0.124   0.187  1.00  0.00     0.013 A 
HETATM   26  C19 UNL     1      -3.658   0.487   0.169  1.00  0.00     0.043 A 
HETATM   27  C16 UNL     1      -6.017   0.118  -1.191  1.00  0.00     0.001 A 
HETATM   28  C17 UNL     1      -4.855   0.296  -1.894  1.00  0.00     0.002 A 
HETATM   29  C18 UNL     1      -3.677   0.480  -1.229  1.00  0.00     0.030 A 
HETATM   30  N4  UNL     1      -2.516   0.665   0.842  1.00  0.00    -0.351 N 
ATOM     31  H4  UNL     1      -1.652   0.797   0.316  1.00  0.00     0.166 HD
ENDBRANCH  18  21
ENDBRANCH  14  17
ENDBRANCH   6   9
TORSDOF 3
