REMARK  5 active torsions:
REMARK  status: ('A' for Active; 'I' for Inactive)
REMARK    1  A    between atoms: C4_7  and  C5_8 
REMARK    2  A    between atoms: C5_8  and  N3_9 
REMARK    3  A    between atoms: C5_8  and  N5_13 
REMARK    4  A    between atoms: N5_13  and  C7_15 
REMARK    5  A    between atoms: C8_18  and  C9_19 
ROOT
HETATM    1  N3  UNL     1       1.901   0.900   2.615  1.00  0.00    -0.277 N 
ATOM      2  H3  UNL     1       2.259   0.399   3.429  1.00  0.00     0.179 HD
HETATM    3  C6  UNL     1       1.139   2.052   2.824  1.00  0.00     0.183 C 
HETATM    4  N4  UNL     1       0.514   3.016   2.995  1.00  0.00    -0.172 NA
ENDROOT
BRANCH   1   5
HETATM    5  C5  UNL     1       2.168   0.449   1.465  1.00  0.00     0.144 C 
BRANCH   5   6
HETATM    6  C4  UNL     1       2.969  -0.758   1.318  1.00  0.00     0.096 A 
HETATM    7  N1  UNL     1       3.643  -1.226   0.256  1.00  0.00    -0.293 N 
HETATM    8  C1  UNL     1       3.701  -0.555  -1.037  1.00  0.00     0.178 C 
HETATM    9  N2  UNL     1       4.241  -2.381   0.568  1.00  0.00    -0.310 N 
HETATM   10  C2  UNL     1       3.964  -2.681   1.844  1.00  0.00     0.110 A 
ATOM     11  H2  UNL     1       4.814  -2.942  -0.062  1.00  0.00     0.186 HD
HETATM   12  C3  UNL     1       3.176  -1.691   2.335  1.00  0.00     0.053 A 
ENDBRANCH   5   6
BRANCH   5  13
HETATM   13  N5  UNL     1       1.698   1.096   0.304  1.00  0.00    -0.325 N 
ATOM     14  H5  UNL     1       2.345   1.722  -0.175  1.00  0.00     0.169 HD
BRANCH  13  15
HETATM   15  C7  UNL     1       0.531   0.966  -0.201  1.00  0.00     0.118 A 
HETATM   16  N6  UNL     1      -0.412   0.160   0.352  1.00  0.00    -0.341 N 
HETATM   17  C8  UNL     1      -1.647   0.002  -0.151  1.00  0.00     0.044 A 
ATOM     18  H6  UNL     1      -0.168  -0.355   1.198  1.00  0.00     0.167 HD
HETATM   19  C15 UNL     1      -1.929   0.720  -1.297  1.00  0.00     0.042 A 
HETATM   20  C16 UNL     1      -1.007   1.561  -1.910  1.00  0.00    -0.020 A 
HETATM   21  C17 UNL     1      -1.291   2.275  -3.051  1.00  0.00     0.012 A 
HETATM   22  C21 UNL     1       0.239   1.683  -1.351  1.00  0.00     0.018 A 
HETATM   23  C18 UNL     1      -0.368   3.094  -3.632  1.00  0.00     0.001 A 
HETATM   24  C19 UNL     1       0.873   3.210  -3.068  1.00  0.00     0.001 A 
HETATM   25  C20 UNL     1       1.182   2.509  -1.930  1.00  0.00     0.016 A 
BRANCH  17  26
HETATM   26  C9  UNL     1      -2.634  -0.873   0.469  1.00  0.00    -0.009 A 
HETATM   27  C10 UNL     1      -2.377  -1.599   1.612  1.00  0.00     0.013 A 
HETATM   28  C11 UNL     1      -3.299  -2.437   2.221  1.00  0.00     0.001 A 
HETATM   29  C12 UNL     1      -4.552  -2.561   1.660  1.00  0.00     0.000 A 
HETATM   30  C13 UNL     1      -4.858  -1.853   0.514  1.00  0.00     0.001 A 
HETATM   31  C14 UNL     1      -3.899  -1.021  -0.066  1.00  0.00     0.013 A 
ENDBRANCH  17  26
ENDBRANCH  13  15
ENDBRANCH   5  13
ENDBRANCH   1   5
TORSDOF 5
