REMARK  6 active torsions:
REMARK  status: ('A' for Active; 'I' for Inactive)
REMARK    1  A    between atoms: C2_2  and  C3_3 
REMARK    2  A    between atoms: C3_3  and  N1_4 
REMARK    3  A    between atoms: C4_8  and  C5_9 
REMARK    4  A    between atoms: C4_8  and  C7_15 
REMARK    5  A    between atoms: C5_9  and  C6_10 
REMARK    6  A    between atoms: C6_10  and  N2_11 
ROOT
HETATM    1  C1  UNL     1      -2.242   0.146  -0.994  1.00  0.00     0.046 C 
HETATM    2  C2  UNL     1      -0.890  -0.621   0.011  1.00  0.00    -0.040 C 
HETATM    3  C4  UNL     1      -0.031   0.459  -0.205  1.00  0.00     0.023 C 
ENDROOT
BRANCH   3   4
HETATM    4  C5  UNL     1       1.227   0.110  -0.022  1.00  0.00    -0.116 C 
BRANCH   4   5
HETATM    5  C6  UNL     1       2.580  -0.265   0.174  1.00  0.00     0.315 C 
BRANCH   5   6
HETATM    6  N2  UNL     1       2.787  -0.722   1.565  1.00  0.00    -0.070 N 
ATOM      7  H23 UNL     1       2.483  -0.025   2.244  1.00  0.00     0.275 HD
ATOM      8  H22 UNL     1       2.143  -1.471   1.820  1.00  0.00     0.275 HD
ATOM      9  H21 UNL     1       3.761  -0.992   1.706  1.00  0.00     0.275 HD
ENDBRANCH   5   6
ENDBRANCH   4   5
ENDBRANCH   3   4
BRANCH   3  10
HETATM   10  C7  UNL     1      -0.353   1.878  -0.353  1.00  0.00     0.119 C 
HETATM   11  N3  UNL     1      -0.837   2.429  -1.551  1.00  0.00    -0.114 NA
ENDBRANCH   3  10
BRANCH   2  12
HETATM   12  C3  UNL     1      -1.670  -1.603   0.208  1.00  0.00     0.265 C 
BRANCH  12  13
HETATM   13  N1  UNL     1      -1.007  -2.637   1.083  1.00  0.00    -0.076 N 
ATOM     14  H13 UNL     1      -0.109  -2.936   0.703  1.00  0.00     0.274 HD
ATOM     15  H12 UNL     1      -0.674  -2.235   1.960  1.00  0.00     0.274 HD
ATOM     16  H11 UNL     1      -1.634  -3.426   1.241  1.00  0.00     0.274 HD
ENDBRANCH  12  13
ENDBRANCH   2  12
TORSDOF 6
