REMARK  6 active torsions:
REMARK  status: ('A' for Active; 'I' for Inactive)
REMARK    1  A    between atoms: C2_2  and  C3_3 
REMARK    2  A    between atoms: C3_3  and  C5_6 
REMARK    3  A    between atoms: C5_6  and  N2_7 
REMARK    4  A    between atoms: N2_7  and  C6_10 
REMARK    5  A    between atoms: C6_10  and  C7_11 
REMARK    6  A    between atoms: C7_11  and  N3_12 
ROOT
HETATM    1  N2  UNL     1       0.848  -0.068  -0.974  1.00  0.00    -0.070 N 
ATOM      2  H21 UNL     1       0.639   0.862  -1.337  1.00  0.00     0.277 HD
ATOM      3  H22 UNL     1       1.348  -0.426  -1.788  1.00  0.00     0.277 HD
ENDROOT
BRANCH   1   4
HETATM    4  C5  UNL     1      -0.327  -0.818  -0.679  1.00  0.00     0.271 C 
BRANCH   4   5
HETATM    5  C3  UNL     1      -1.462  -0.065  -0.130  1.00  0.00    -0.020 C 
HETATM    6  C4  UNL     1      -1.393   1.220   0.075  1.00  0.00     0.108 C 
HETATM    7  N1  UNL     1      -2.488   1.950   0.606  1.00  0.00    -0.115 NA
BRANCH   5   8
HETATM    8  C2  UNL     1      -2.690  -0.774   0.193  1.00  0.00    -0.001 C 
HETATM    9  C1  UNL     1      -2.828  -2.081   0.010  1.00  0.00     0.012 C 
ENDBRANCH   5   8
ENDBRANCH   4   5
ENDBRANCH   1   4
BRANCH   1  10
HETATM   10  C6  UNL     1       1.676  -0.029   0.215  1.00  0.00     0.260 C 
BRANCH  10  11
HETATM   11  C7  UNL     1       3.136   0.028  -0.254  1.00  0.00     0.257 C 
BRANCH  11  12
HETATM   12  N3  UNL     1       3.946   0.066   0.954  1.00  0.00    -0.078 N 
ATOM     13  H33 UNL     1       3.693   0.823   1.589  1.00  0.00     0.274 HD
ATOM     14  H32 UNL     1       3.755  -0.703   1.596  1.00  0.00     0.274 HD
ATOM     15  H31 UNL     1       4.916   0.104   0.642  1.00  0.00     0.274 HD
ENDBRANCH  11  12
ENDBRANCH  10  11
ENDBRANCH   1  10
TORSDOF 6
