REMARK  7 active torsions:
REMARK  status: ('A' for Active; 'I' for Inactive)
REMARK       I    between atoms: C2_4  and  N3_6 
REMARK    1  A    between atoms: N3_6  and  C3_8 
REMARK    2  A    between atoms: C3_8  and  S2_10 
REMARK    3  A    between atoms: S2_10  and  C4_11 
REMARK    4  A    between atoms: C4_11  and  C5_12 
REMARK    5  A    between atoms: C5_12  and  C6_13 
REMARK    6  A    between atoms: C6_13  and  N4_14 
REMARK    7  A    between atoms: N4_14  and  C7_16 
ROOT
HETATM    1  C3  UNL     1      -1.563   1.280  -0.127  1.00  0.00     0.140 C 
HETATM    2  S1  UNL     1      -0.513   2.516  -0.325  1.00  0.00    -0.052 SA
ENDROOT
BRANCH   1   3
HETATM    3  N3  UNL     1      -2.874   1.503   0.384  1.00  0.00    -0.316 N 
HETATM    4  C2  UNL     1      -3.824   0.451   0.561  1.00  0.00     0.189 C 
HETATM    5  N1  UNL     1      -4.889   0.672   1.264  1.00  0.00    -0.369 N 
HETATM    6  N2  UNL     1      -3.633  -0.832  -0.013  1.00  0.00    -0.064 NA
HETATM    7  C1  UNL     1      -5.839  -0.391   1.435  1.00  0.00     0.148 C 
ATOM      8  H1  UNL     1      -5.050   1.585   1.689  1.00  0.00     0.161 HD
ATOM      9  H3  UNL     1      -3.146   2.454   0.634  1.00  0.00     0.170 HD
ENDBRANCH   1   3
BRANCH   1  10
HETATM   10  S2  UNL     1      -1.067  -0.354  -0.568  1.00  0.00    -0.100 SA
BRANCH  10  11
HETATM   11  C4  UNL     1       0.630  -0.398  -1.119  1.00  0.00     0.083 C 
BRANCH  11  12
HETATM   12  C5  UNL     1       1.551  -0.111   0.036  1.00  0.00     0.030 C 
BRANCH  12  13
HETATM   13  C6  UNL     1       2.971  -0.164  -0.512  1.00  0.00     0.122 C 
BRANCH  13  14
HETATM   14  N4  UNL     1       3.950   0.100   0.520  1.00  0.00    -0.369 N 
ATOM     15  H4  UNL     1       3.658   0.290   1.478  1.00  0.00     0.161 HD
BRANCH  14  16
HETATM   16  C7  UNL     1       5.311   0.089   0.175  1.00  0.00     0.180 C 
HETATM   17  N5  UNL     1       5.726  -0.171  -1.142  1.00  0.00    -0.070 NA
HETATM   18  S3  UNL     1       6.422   0.382   1.320  1.00  0.00    -0.044 SA
ENDBRANCH  14  16
ENDBRANCH  13  14
ENDBRANCH  12  13
ENDBRANCH  11  12
ENDBRANCH  10  11
ENDBRANCH   1  10
TORSDOF 7
