REMARK  5 active torsions:
REMARK  status: ('A' for Active; 'I' for Inactive)
REMARK    1  A    between atoms: C2_2  and  N1_3 
REMARK       I    between atoms: N1_3  and  C3_5 
REMARK       I    between atoms: C3_5  and  N2_7 
REMARK    2  A    between atoms: N2_7  and  C4_9 
REMARK    3  A    between atoms: C4_9  and  C5_10 
REMARK    4  A    between atoms: C5_10  and  C6_11 
REMARK    5  A    between atoms: C9_14  and  C10_15 
ROOT
HETATM    1  C5  UNL     1       1.734  -1.827  -0.512  1.00  0.00     0.024 C 
ENDROOT
BRANCH   1   2
HETATM    2  C4  UNL     1       1.646  -1.297   0.851  1.00  0.00     0.125 C 
BRANCH   2   3
HETATM    3  N2  UNL     1       1.568   0.138   0.995  1.00  0.00    -0.343 N 
HETATM    4  C3  UNL     1       1.457   0.712   2.294  1.00  0.00     0.319 C 
HETATM    5  N1  UNL     1       1.376   2.104   2.514  1.00  0.00    -0.320 N 
HETATM    6  O1  UNL     1       1.429  -0.054   3.285  1.00  0.00    -0.247 OA
ATOM      7  H1  UNL     1       1.397   2.735   1.713  1.00  0.00     0.169 HD
ATOM      8  H2  UNL     1       1.592   0.738   0.170  1.00  0.00     0.164 HD
BRANCH   5   9
HETATM    9  C2  UNL     1       1.266   2.646   3.815  1.00  0.00     0.082 C 
HETATM   10  C1  UNL     1       1.190   3.945   4.033  1.00  0.00     0.030 C 
ENDBRANCH   5   9
ENDBRANCH   2   3
ENDBRANCH   1   2
BRANCH   1  11
HETATM   11  C6  UNL     1       0.632  -1.612  -1.472  1.00  0.00    -0.013 C 
HETATM   12  C7  UNL     1       0.271  -0.205  -1.806  1.00  0.00     0.005 C 
HETATM   13  C8  UNL     1      -0.721  -0.299  -2.977  1.00  0.00     0.014 C 
HETATM   14  C9  UNL     1      -2.044  -0.789  -2.405  1.00  0.00     0.075 C 
HETATM   15  C11 UNL     1      -1.807  -1.533  -1.115  1.00  0.00     0.014 C 
HETATM   16  C12 UNL     1      -0.597  -2.410  -1.214  1.00  0.00     0.005 C 
BRANCH  14  17
HETATM   17  C10 UNL     1      -2.880   0.402  -2.218  1.00  0.00     0.235 C 
HETATM   18  N3  UNL     1      -2.559   1.493  -1.399  1.00  0.00    -0.062 NA
HETATM   19  O2  UNL     1      -3.989   0.443  -2.856  1.00  0.00    -0.277 OA
ENDBRANCH  14  17
ENDBRANCH   1  11
TORSDOF 5
