REMARK  8 active torsions:
REMARK  status: ('A' for Active; 'I' for Inactive)
REMARK    1  A    between atoms: C2_2  and  C3_3 
REMARK    2  A    between atoms: C3_3  and  C4_4 
REMARK    3  A    between atoms: N3_10  and  S1_12 
REMARK    4  A    between atoms: S1_12  and  C6_15 
REMARK    5  A    between atoms: C7_16  and  C8_17 
REMARK    6  A    between atoms: C9_18  and  C10_19 
REMARK    7  A    between atoms: C10_19  and  O3_20 
REMARK    8  A    between atoms: N4_22  and  O4_24 
ROOT
HETATM    1  C6  UNL     1      -1.810  -1.142   0.387  1.00  0.00     0.103 A 
HETATM    2  C7  UNL     1      -2.602  -0.032   0.130  1.00  0.00     0.029 A 
HETATM    3  S2  UNL     1      -4.161  -0.714  -0.031  1.00  0.00    -0.093 SA
HETATM    4  C11 UNL     1      -3.806  -2.342   0.218  1.00  0.00    -0.013 A 
HETATM    5  C12 UNL     1      -4.722  -3.555   0.219  1.00  0.00     0.057 C 
HETATM    6  C13 UNL     1      -2.459  -2.330   0.426  1.00  0.00    -0.025 A 
HETATM    7  C14 UNL     1      -1.697  -3.635   0.684  1.00  0.00     0.051 C 
ENDROOT
BRANCH   1   8
HETATM    8  S1  UNL     1      -0.048  -0.944   0.688  1.00  0.00     0.266 S 
HETATM    9  O1  UNL     1       0.465  -2.163   1.455  1.00  0.00    -0.200 OA
HETATM   10  O2  UNL     1       0.195   0.216   1.561  1.00  0.00    -0.200 OA
BRANCH   8  11
HETATM   11  N3  UNL     1       0.825  -0.935  -0.786  1.00  0.00    -0.259 N 
HETATM   12  C5  UNL     1       1.938  -0.235  -0.801  1.00  0.00     0.174 A 
HETATM   13  N2  UNL     1       2.774  -0.086  -1.833  1.00  0.00    -0.278 N 
HETATM   14  S3  UNL     1       2.708   0.699   0.405  1.00  0.00    -0.037 SA
HETATM   15  N1  UNL     1       3.812   0.629  -1.679  1.00  0.00    -0.296 N 
ATOM     16  H2  UNL     1       2.582  -0.538  -2.727  1.00  0.00     0.189 HD
HETATM   17  C4  UNL     1       4.052   1.212  -0.514  1.00  0.00     0.069 A 
ATOM     18  H1  UNL     1       4.463   0.755  -2.454  1.00  0.00     0.187 HD
ATOM     19  H3  UNL     1       0.499  -1.445  -1.607  1.00  0.00     0.181 HD
BRANCH  17  20
HETATM   20  C3  UNL     1       5.232   2.087  -0.169  1.00  0.00     0.066 C 
BRANCH  20  21
HETATM   21  C2  UNL     1       6.297   1.140   0.360  1.00  0.00     0.002 C 
HETATM   22  C1  UNL     1       6.611   0.151  -0.757  1.00  0.00     0.005 C 
ENDBRANCH  20  21
ENDBRANCH  17  20
ENDBRANCH   8  11
ENDBRANCH   1   8
BRANCH   2  23
HETATM   23  C8  UNL     1      -2.160   1.353  -0.015  1.00  0.00     0.025 C 
HETATM   24  C9  UNL     1      -2.806   2.433  -0.176  1.00  0.00     0.059 C 
BRANCH  24  25
HETATM   25  C10 UNL     1      -4.186   2.802  -0.287  1.00  0.00     0.159 C 
HETATM   26  N4  UNL     1      -4.509   4.070  -0.460  1.00  0.00    -0.248 N 
ATOM     27  H4  UNL     1      -3.786   4.787  -0.515  1.00  0.00     0.196 HD
BRANCH  25  28
HETATM   28  O3  UNL     1      -5.214   1.913  -0.225  1.00  0.00    -0.345 OA
ATOM     29  H3  UNL     1      -6.129   2.158  -0.299  1.00  0.00     0.219 HD
ENDBRANCH  25  28
BRANCH  26  30
HETATM   30  O4  UNL     1      -5.823   4.403  -0.564  1.00  0.00    -0.288 OA
ATOM     31  H4  UNL     1      -6.055   5.316  -0.689  1.00  0.00     0.244 HD
ENDBRANCH  26  30
ENDBRANCH  24  25
ENDBRANCH   2  23
TORSDOF 8
