REMARK  16 active torsions:
REMARK  status: ('A' for Active; 'I' for Inactive)
REMARK    1  A    between atoms: C2_2  and  C3_3 
REMARK    2  A    between atoms: C3_3  and  C4_4 
REMARK    3  A    between atoms: C6_9  and  C7_10 
REMARK    4  A    between atoms: C10_15  and  O2_16 
REMARK    5  A    between atoms: C11_18  and  C12_19 
REMARK    6  A    between atoms: C12_19  and  C13_20 
REMARK    7  A    between atoms: C16_25  and  C17_26 
REMARK    8  A    between atoms: C17_26  and  C18_27 
REMARK    9  A    between atoms: C18_27  and  C19_28 
REMARK   10  A    between atoms: C19_28  and  C20_29 
REMARK   11  A    between atoms: C25_37  and  N5_38 
REMARK   12  A    between atoms: C30_46  and  C31_47 
REMARK   13  A    between atoms: C31_47  and  C32_48 
REMARK   14  A    between atoms: C32_48  and  C33_49 
REMARK   15  A    between atoms: C33_49  and  C34_50 
REMARK   16  A    between atoms: C34_50  and  N7_51 
ROOT
HETATM    1  C4  UNL     1       2.821  -1.999   0.810  1.00  0.00     0.180 C 
HETATM    2  N1  UNL     1       1.532  -1.325   0.945  1.00  0.00    -0.346 N 
ATOM      3  H1  UNL     1       1.291  -0.641   0.227  1.00  0.00     0.163 HD
HETATM    4  C5  UNL     1       0.596  -1.528   1.965  1.00  0.00     0.241 C 
HETATM    5  O1  UNL     1       0.202  -0.501   2.629  1.00  0.00    -0.271 OA
HETATM    6  C6  UNL     1       0.005  -2.820   2.360  1.00  0.00     0.179 C 
HETATM    7  N2  UNL     1      -0.849  -3.416   1.361  1.00  0.00    -0.359 N 
ATOM      8  H2  UNL     1      -1.522  -4.082   1.742  1.00  0.00     0.162 HD
HETATM    9  C10 UNL     1      -0.935  -3.263  -0.007  1.00  0.00     0.135 C 
HETATM   10  C11 UNL     1      -1.390  -2.135  -0.855  1.00  0.00     0.152 C 
HETATM   11  N3  UNL     1      -2.203  -1.155  -0.301  1.00  0.00    -0.404 N 
ATOM     12  H3  UNL     1      -3.031  -1.424   0.231  1.00  0.00     0.154 HD
HETATM   13  C16 UNL     1      -1.887   0.222  -0.471  1.00  0.00     0.095 C 
HETATM   14  C23 UNL     1      -1.701   0.698  -1.876  1.00  0.00     0.147 C 
HETATM   15  N4  UNL     1      -1.753   2.144  -1.896  1.00  0.00    -0.354 N 
ATOM     16  H4  UNL     1      -2.648   2.550  -1.625  1.00  0.00     0.162 HD
HETATM   17  C24 UNL     1      -0.755   3.069  -2.233  1.00  0.00     0.265 C 
HETATM   18  O3  UNL     1      -1.021   3.781  -3.280  1.00  0.00    -0.266 OA
HETATM   19  C25 UNL     1       0.515   3.361  -1.610  1.00  0.00     0.092 C 
HETATM   20  C28 UNL     1       1.383   2.285  -1.000  1.00  0.00     0.185 C 
HETATM   21  N6  UNL     1       1.517   2.477   0.426  1.00  0.00    -0.354 N 
ATOM     22  H6  UNL     1       0.760   2.973   0.896  1.00  0.00     0.162 HD
HETATM   23  C29 UNL     1       2.589   2.047   1.232  1.00  0.00     0.240 C 
HETATM   24  O4  UNL     1       2.650   2.387   2.462  1.00  0.00    -0.271 OA
HETATM   25  C30 UNL     1       3.706   1.194   0.761  1.00  0.00     0.176 C 
HETATM   26  N8  UNL     1       3.949   0.132   1.711  1.00  0.00    -0.346 N 
ATOM     27  H8  UNL     1       4.198   0.429   2.654  1.00  0.00     0.163 HD
HETATM   28  C35 UNL     1       3.887  -1.244   1.506  1.00  0.00     0.241 C 
HETATM   29  O5  UNL     1       4.852  -1.949   1.966  1.00  0.00    -0.271 OA
ENDROOT
BRANCH  25  30
HETATM   30  C31 UNL     1       4.913   2.125   0.679  1.00  0.00     0.035 C 
BRANCH  30  31
HETATM   31  C32 UNL     1       6.155   1.441   0.220  1.00  0.00     0.004 C 
BRANCH  31  32
HETATM   32  C33 UNL     1       5.998   0.836  -1.171  1.00  0.00     0.027 C 
BRANCH  32  33
HETATM   33  C34 UNL     1       7.323   0.162  -1.553  1.00  0.00     0.229 C 
BRANCH  33  34
HETATM   34  N7  UNL     1       8.369   1.196  -1.546  1.00  0.00    -0.079 N 
ATOM     35  H73 UNL     1       8.143   1.992  -2.142  1.00  0.00     0.274 HD
ATOM     36  H72 UNL     1       8.422   1.701  -0.661  1.00  0.00     0.274 HD
ATOM     37  H71 UNL     1       9.250   0.748  -1.800  1.00  0.00     0.274 HD
ENDBRANCH  33  34
ENDBRANCH  32  33
ENDBRANCH  31  32
ENDBRANCH  30  31
ENDBRANCH  25  30
BRANCH   1  38
HETATM   38  C3  UNL     1       3.184  -2.263  -0.602  1.00  0.00     0.061 C 
BRANCH  38  39
HETATM   39  C2  UNL     1       4.503  -2.952  -0.689  1.00  0.00    -0.034 C 
HETATM   40  C1  UNL     1       4.599  -4.158  -1.234  1.00  0.00     0.007 C 
ENDBRANCH  38  39
ENDBRANCH   1  38
BRANCH  19  41
HETATM   41  N5  UNL     1       1.018   4.560  -1.514  1.00  0.00    -0.387 N 
HETATM   42  C26 UNL     1       2.296   4.849  -0.888  1.00  0.00     0.149 C 
HETATM   43  C27 UNL     1       0.244   5.660  -2.056  1.00  0.00     0.149 C 
ENDBRANCH  19  41
BRANCH   6  44
HETATM   44  C7  UNL     1      -0.633  -2.754   3.725  1.00  0.00     0.009 C 
HETATM   45  C8  UNL     1      -1.734  -1.767   3.865  1.00  0.00     0.012 C 
HETATM   46  C9  UNL     1      -1.214  -4.146   3.994  1.00  0.00     0.012 C 
ENDBRANCH   6  44
BRANCH  13  47
HETATM   47  C17 UNL     1      -2.792   1.077   0.369  1.00  0.00     0.026 C 
BRANCH  47  48
HETATM   48  C18 UNL     1      -4.248   0.944   0.074  1.00  0.00     0.002 C 
BRANCH  48  49
HETATM   49  C19 UNL     1      -4.968   1.903   1.033  1.00  0.00     0.004 C 
BRANCH  49  50
HETATM   50  C20 UNL     1      -6.459   1.854   0.824  1.00  0.00    -0.023 C 
HETATM   51  C21 UNL     1      -7.068   2.835   1.820  1.00  0.00     0.009 C 
HETATM   52  C22 UNL     1      -6.742   2.444  -0.555  1.00  0.00     0.009 C 
ENDBRANCH  49  50
ENDBRANCH  48  49
ENDBRANCH  47  48
ENDBRANCH  13  47
BRANCH   9  53
HETATM   53  O2  UNL     1      -0.560  -4.266  -0.747  1.00  0.00    -0.348 OA
ATOM     54  H2  UNL     1      -0.619  -4.161  -1.689  1.00  0.00     0.219 HD
ENDBRANCH   9  53
BRANCH  10  55
HETATM   55  C12 UNL     1      -2.112  -2.752  -2.068  1.00  0.00     0.037 C 
BRANCH  55  56
HETATM   56  C13 UNL     1      -3.283  -3.590  -1.699  1.00  0.00    -0.020 C 
HETATM   57  C14 UNL     1      -4.383  -2.910  -0.959  1.00  0.00     0.009 C 
HETATM   58  C15 UNL     1      -3.896  -4.103  -3.010  1.00  0.00     0.009 C 
ENDBRANCH  55  56
ENDBRANCH  10  55
TORSDOF 16
