REMARK  15 active torsions:
REMARK  status: ('A' for Active; 'I' for Inactive)
REMARK    1  A    between atoms: C2_2  and  C3_3 
REMARK    2  A    between atoms: C3_3  and  C4_4 
REMARK    3  A    between atoms: C6_9  and  C7_10 
REMARK    4  A    between atoms: C7_10  and  C8_11 
REMARK    5  A    between atoms: C8_11  and  C9_12 
REMARK    6  A    between atoms: C9_12  and  C10_13 
REMARK    7  A    between atoms: C10_13  and  N2_14 
REMARK    8  A    between atoms: C12_22  and  C13_23 
REMARK    9  A    between atoms: C13_23  and  C14_24 
REMARK   10  A    between atoms: C18_31  and  C19_32 
REMARK   11  A    between atoms: C24_40  and  C25_41 
REMARK   12  A    between atoms: C25_41  and  C26_42 
REMARK   13  A    between atoms: C29_47  and  O5_48 
REMARK   14  A    between atoms: C30_50  and  C31_51 
REMARK   15  A    between atoms: C31_51  and  C32_52 
ROOT
HETATM    1  C4  UNL     1      -0.436   2.636  -0.938  1.00  0.00     0.176 C 
HETATM    2  N1  UNL     1      -1.555   2.057  -1.646  1.00  0.00    -0.346 N 
ATOM      3  H1  UNL     1      -1.288   1.397  -2.376  1.00  0.00     0.163 HD
HETATM    4  C5  UNL     1      -2.904   2.229  -1.519  1.00  0.00     0.241 C 
HETATM    5  O1  UNL     1      -3.542   2.768  -2.502  1.00  0.00    -0.271 OA
HETATM    6  C6  UNL     1      -3.842   1.893  -0.396  1.00  0.00     0.176 C 
HETATM    7  N3  UNL     1      -3.173   1.299   0.707  1.00  0.00    -0.346 N 
ATOM      8  H3  UNL     1      -2.822   1.958   1.402  1.00  0.00     0.163 HD
HETATM    9  C11 UNL     1      -2.918  -0.051   0.993  1.00  0.00     0.241 C 
HETATM   10  O2  UNL     1      -3.327  -0.542   2.111  1.00  0.00    -0.271 OA
HETATM   11  C12 UNL     1      -2.196  -1.048   0.126  1.00  0.00     0.177 C 
HETATM   12  N4  UNL     1      -1.860  -2.212   0.926  1.00  0.00    -0.346 N 
ATOM     13  H4  UNL     1      -2.660  -2.806   1.145  1.00  0.00     0.163 HD
HETATM   14  C17 UNL     1      -0.670  -2.670   1.447  1.00  0.00     0.241 C 
HETATM   15  O3  UNL     1      -0.429  -2.493   2.709  1.00  0.00    -0.271 OA
HETATM   16  C18 UNL     1       0.463  -3.382   0.771  1.00  0.00     0.184 C 
HETATM   17  N5  UNL     1       1.676  -2.776   1.230  1.00  0.00    -0.345 N 
ATOM     18  H5  UNL     1       1.906  -2.966   2.205  1.00  0.00     0.163 HD
HETATM   19  C23 UNL     1       2.598  -1.965   0.559  1.00  0.00     0.241 C 
HETATM   20  O4  UNL     1       3.176  -1.053   1.264  1.00  0.00    -0.271 OA
HETATM   21  C24 UNL     1       2.970  -2.053  -0.858  1.00  0.00     0.175 C 
HETATM   22  N6  UNL     1       3.414  -0.914  -1.548  1.00  0.00    -0.359 N 
ATOM     23  H6  UNL     1       4.294  -1.082  -2.035  1.00  0.00     0.162 HD
HETATM   24  C29 UNL     1       2.954   0.390  -1.735  1.00  0.00     0.135 C 
HETATM   25  C30 UNL     1       2.732   1.507  -0.780  1.00  0.00     0.159 C 
HETATM   26  N7  UNL     1       2.079   2.570  -1.559  1.00  0.00    -0.347 N 
ATOM     27  H7  UNL     1       2.687   3.309  -1.914  1.00  0.00     0.163 HD
HETATM   28  C35 UNL     1       0.736   2.682  -1.865  1.00  0.00     0.241 C 
HETATM   29  O6  UNL     1       0.445   2.849  -3.114  1.00  0.00    -0.271 OA
ENDROOT
BRANCH   6  30
HETATM   30  C7  UNL     1      -4.531   3.170  -0.037  1.00  0.00     0.035 C 
BRANCH  30  31
HETATM   31  C8  UNL     1      -5.566   3.182   1.014  1.00  0.00     0.004 C 
BRANCH  31  32
HETATM   32  C9  UNL     1      -5.220   2.805   2.399  1.00  0.00     0.027 C 
BRANCH  32  33
HETATM   33  C10 UNL     1      -6.470   2.955   3.318  1.00  0.00     0.229 C 
BRANCH  33  34
HETATM   34  N2  UNL     1      -6.850   4.357   3.234  1.00  0.00    -0.079 N 
ATOM     35  H23 UNL     1      -6.093   5.001   3.463  1.00  0.00     0.274 HD
ATOM     36  H22 UNL     1      -7.001   4.684   2.280  1.00  0.00     0.274 HD
ATOM     37  H21 UNL     1      -7.668   4.455   3.835  1.00  0.00     0.274 HD
ENDBRANCH  33  34
ENDBRANCH  32  33
ENDBRANCH  31  32
ENDBRANCH  30  31
ENDBRANCH   6  30
BRANCH   1  38
HETATM   38  C3  UNL     1      -0.672   3.888  -0.218  1.00  0.00     0.034 C 
BRANCH  38  39
HETATM   39  C2  UNL     1      -1.115   5.098  -0.933  1.00  0.00    -0.002 C 
HETATM   40  C1  UNL     1      -0.220   5.654  -1.980  1.00  0.00     0.005 C 
ENDBRANCH  38  39
ENDBRANCH   1  38
BRANCH  11  41
HETATM   41  C13 UNL     1      -3.110  -1.550  -0.974  1.00  0.00     0.038 C 
BRANCH  41  42
HETATM   42  C14 UNL     1      -2.408  -2.542  -1.870  1.00  0.00    -0.020 C 
HETATM   43  C15 UNL     1      -3.378  -3.008  -2.952  1.00  0.00     0.009 C 
HETATM   44  C16 UNL     1      -1.270  -1.835  -2.602  1.00  0.00     0.009 C 
ENDBRANCH  41  42
ENDBRANCH  11  41
BRANCH  25  45
HETATM   45  C31 UNL     1       4.058   1.999  -0.330  1.00  0.00     0.037 C 
BRANCH  45  46
HETATM   46  C32 UNL     1       4.193   3.086   0.631  1.00  0.00    -0.020 C 
HETATM   47  C33 UNL     1       3.647   4.438   0.278  1.00  0.00     0.009 C 
HETATM   48  C34 UNL     1       3.764   2.733   2.048  1.00  0.00     0.009 C 
ENDBRANCH  45  46
ENDBRANCH  25  45
BRANCH  16  49
HETATM   49  C19 UNL     1       0.312  -4.827   1.249  1.00  0.00    -0.022 C 
HETATM   50  C20 UNL     1       0.397  -5.000   2.723  1.00  0.00     0.017 C 
HETATM   51  C21 UNL     1       1.296  -5.772   0.611  1.00  0.00     0.017 C 
HETATM   52  C22 UNL     1      -1.066  -5.379   0.842  1.00  0.00     0.017 C 
ENDBRANCH  16  49
BRANCH  24  53
HETATM   53  O5  UNL     1       2.656   0.731  -2.958  1.00  0.00    -0.348 OA
ATOM     54  H5  UNL     1       2.343   1.619  -3.085  1.00  0.00     0.219 HD
ENDBRANCH  24  53
BRANCH  21  55
HETATM   55  C25 UNL     1       3.939  -3.240  -0.969  1.00  0.00     0.038 C 
BRANCH  55  56
HETATM   56  C26 UNL     1       5.158  -3.144  -0.136  1.00  0.00    -0.020 C 
HETATM   57  C27 UNL     1       6.081  -1.993  -0.401  1.00  0.00     0.009 C 
HETATM   58  C28 UNL     1       6.029  -4.402  -0.316  1.00  0.00     0.009 C 
ENDBRANCH  55  56
ENDBRANCH  21  55
TORSDOF 15
