REMARK  12 active torsions:
REMARK  status: ('A' for Active; 'I' for Inactive)
REMARK    1  A    between atoms: C2_2  and  C3_3 
REMARK    2  A    between atoms: C3_3  and  C4_4 
REMARK    3  A    between atoms: C4_4  and  C5_5 
REMARK    4  A    between atoms: C5_5  and  C6_6 
REMARK    5  A    between atoms: C8_8  and  O1_9 
REMARK    6  A    between atoms: C9_11  and  N1_12 
REMARK    7  A    between atoms: N1_12  and  C10_14 
REMARK    8  A    between atoms: C11_16  and  C12_17 
REMARK    9  A    between atoms: C12_17  and  C13_18 
REMARK   10  A    between atoms: C13_18  and  C14_19 
REMARK       I    between atoms: N2_20  and  C15_22 
REMARK   11  A    between atoms: N5_27  and  C16_28 
REMARK   12  A    between atoms: C16_28  and  C17_29 
ROOT
HETATM    1  C6  UNL     1      -1.386  -0.433  -0.704  1.00  0.00    -0.013 C 
HETATM    2  C7  UNL     1      -1.098  -1.172  -1.976  1.00  0.00     0.086 C 
HETATM    3  C8  UNL     1       0.343  -1.592  -2.117  1.00  0.00     0.148 C 
HETATM    4  C9  UNL     1       1.252  -0.399  -1.939  1.00  0.00     0.135 C 
HETATM    5  C11 UNL     1       0.956   0.224  -0.597  1.00  0.00     0.109 C 
HETATM    6  N5  UNL     1      -0.398   0.548  -0.385  1.00  0.00    -0.380 N 
ENDROOT
BRANCH   5   7
HETATM    7  C12 UNL     1       1.529  -0.581   0.514  1.00  0.00     0.032 C 
BRANCH   7   8
HETATM    8  C13 UNL     1       3.023  -0.753   0.478  1.00  0.00     0.046 C 
BRANCH   8   9
HETATM    9  C14 UNL     1       3.789   0.482   0.527  1.00  0.00     0.063 C 
HETATM   10  N2  UNL     1       5.003   0.465   0.928  1.00  0.00    -0.344 N 
HETATM   11  C15 UNL     1       5.719  -0.663   1.347  1.00  0.00     0.185 C 
ATOM     12  H2  UNL     1       5.497   1.358   0.944  1.00  0.00     0.167 HD
HETATM   13  N3  UNL     1       6.494  -0.552   2.384  1.00  0.00    -0.374 N 
HETATM   14  N4  UNL     1       5.671  -1.943   0.721  1.00  0.00    -0.064 NA
ATOM     15  H32 UNL     1       6.528   0.364   2.832  1.00  0.00     0.158 HD
ATOM     16  H31 UNL     1       7.016  -1.374   2.689  1.00  0.00     0.158 HD
ENDBRANCH   8   9
ENDBRANCH   7   8
ENDBRANCH   5   7
BRANCH   4  17
HETATM   17  N1  UNL     1       1.175   0.527  -3.027  1.00  0.00    -0.359 N 
ATOM     18  H1  UNL     1       0.288   1.000  -3.203  1.00  0.00     0.162 HD
BRANCH  17  19
HETATM   19  C10 UNL     1       2.259   0.812  -3.858  1.00  0.00     0.349 C 
HETATM   20  O2  UNL     1       3.359   0.241  -3.661  1.00  0.00    -0.284 OA
ENDBRANCH  17  19
ENDBRANCH   4  17
BRANCH   6  21
HETATM   21  C16 UNL     1      -0.722   1.290   0.770  1.00  0.00     0.127 C 
BRANCH  21  22
HETATM   22  C17 UNL     1       0.207   2.445   1.074  1.00  0.00     0.003 C 
HETATM   23  C18 UNL     1       0.222   3.456  -0.061  1.00  0.00     0.006 C 
HETATM   24  C19 UNL     1      -0.431   4.700   0.466  1.00  0.00     0.000 C 
HETATM   25  C20 UNL     1      -0.346   4.638   1.962  1.00  0.00     0.000 C 
HETATM   26  C21 UNL     1      -0.360   3.178   2.283  1.00  0.00     0.006 C 
ENDBRANCH  21  22
ENDBRANCH   6  21
BRANCH   3  27
HETATM   27  O1  UNL     1       0.497  -2.160  -3.375  1.00  0.00    -0.393 OA
ATOM     28  H1  UNL     1       1.405  -2.425  -3.464  1.00  0.00     0.210 HD
ENDBRANCH   3  27
BRANCH   1  29
HETATM   29  C5  UNL     1      -1.867  -1.288   0.417  1.00  0.00     0.052 C 
BRANCH  29  30
HETATM   30  C4  UNL     1      -3.178  -2.002   0.062  1.00  0.00     0.006 C 
BRANCH  30  31
HETATM   31  C3  UNL     1      -3.650  -2.837   1.234  1.00  0.00     0.000 C 
BRANCH  31  32
HETATM   32  C2  UNL     1      -4.948  -3.501   0.779  1.00  0.00    -0.005 C 
HETATM   33  C1  UNL     1      -5.954  -2.422   0.424  1.00  0.00     0.005 C 
ENDBRANCH  31  32
ENDBRANCH  30  31
ENDBRANCH  29  30
ENDBRANCH   1  29
TORSDOF 12
