REMARK  11 active torsions:
REMARK  status: ('A' for Active; 'I' for Inactive)
REMARK       I    between atoms: C2_2  and  N1_4 
REMARK    1  A    between atoms: N1_4  and  C3_6 
REMARK    2  A    between atoms: C3_6  and  C4_7 
REMARK    3  A    between atoms: C3_6  and  C8_11 
REMARK    4  A    between atoms: C4_7  and  C5_8 
REMARK       I    between atoms: C8_11  and  N2_13 
REMARK    5  A    between atoms: N2_13  and  C9_15 
REMARK    6  A    between atoms: C9_15  and  C10_16 
REMARK    7  A    between atoms: C9_15  and  C17_27 
REMARK    8  A    between atoms: C10_16  and  O3_17 
REMARK    9  A    between atoms: C10_16  and  C11_19 
REMARK   10  A    between atoms: C11_19  and  N3_20 
REMARK   11  A    between atoms: N3_20  and  C12_22 
ROOT
HETATM    1  C9  UNL     1       0.747   0.565   0.305  1.00  0.00     0.122 C 
ENDROOT
BRANCH   1   2
HETATM    2  N2  UNL     1      -0.585   0.451  -0.252  1.00  0.00    -0.351 N 
HETATM    3  C8  UNL     1      -1.688   0.073   0.557  1.00  0.00     0.240 C 
HETATM    4  O2  UNL     1      -1.594  -0.180   1.776  1.00  0.00    -0.271 OA
ATOM      5  H2  UNL     1      -0.733   0.646  -1.242  1.00  0.00     0.163 HD
BRANCH   3   6
HETATM    6  C3  UNL     1      -3.056  -0.035  -0.068  1.00  0.00     0.177 C 
BRANCH   6   7
HETATM    7  N1  UNL     1      -3.979  -0.413   0.964  1.00  0.00    -0.348 N 
HETATM    8  C2  UNL     1      -4.998   0.470   1.409  1.00  0.00     0.214 C 
HETATM    9  C1  UNL     1      -5.945   0.070   2.474  1.00  0.00     0.117 C 
HETATM   10  O1  UNL     1      -5.101   1.607   0.895  1.00  0.00    -0.274 OA
ATOM     11  H1  UNL     1      -3.901  -1.338   1.388  1.00  0.00     0.163 HD
ENDBRANCH   6   7
BRANCH   6  12
HETATM   12  C4  UNL     1      -2.979  -0.992  -1.220  1.00  0.00     0.038 C 
BRANCH  12  13
HETATM   13  C5  UNL     1      -4.221  -1.221  -1.989  1.00  0.00    -0.020 C 
HETATM   14  C6  UNL     1      -4.802   0.034  -2.606  1.00  0.00     0.009 C 
HETATM   15  C7  UNL     1      -5.249  -1.992  -1.233  1.00  0.00     0.009 C 
ENDBRANCH  12  13
ENDBRANCH   6  12
ENDBRANCH   3   6
ENDBRANCH   1   2
BRANCH   1  16
HETATM   16  C10 UNL     1       1.645  -0.416  -0.405  1.00  0.00     0.179 C 
BRANCH  16  17
HETATM   17  O3  UNL     1       1.118  -1.684  -0.192  1.00  0.00    -0.388 OA
ATOM     18  H3  UNL     1       1.684  -2.302  -0.639  1.00  0.00     0.210 HD
ENDBRANCH  16  17
BRANCH  16  19
HETATM   19  C11 UNL     1       3.045  -0.339   0.130  1.00  0.00     0.089 C 
BRANCH  19  20
HETATM   20  N3  UNL     1       3.933  -1.241  -0.491  1.00  0.00    -0.395 N 
ATOM     21  H3  UNL     1       4.681  -0.902  -1.096  1.00  0.00     0.159 HD
BRANCH  20  22
HETATM   22  C12 UNL     1       3.763  -2.642  -0.255  1.00  0.00     0.080 C 
HETATM   23  C13 UNL     1       3.925  -2.999   1.210  1.00  0.00     0.025 C 
HETATM   24  C14 UNL     1       5.387  -2.980   1.512  1.00  0.00     0.002 C 
HETATM   25  C15 UNL     1       6.058  -2.671   0.192  1.00  0.00     0.002 C 
HETATM   26  C16 UNL     1       5.081  -3.279  -0.792  1.00  0.00     0.025 C 
ENDBRANCH  20  22
ENDBRANCH  19  20
ENDBRANCH  16  19
ENDBRANCH   1  16
BRANCH   1  27
HETATM   27  C17 UNL     1       1.245   1.981   0.309  1.00  0.00     0.011 C 
HETATM   28  C18 UNL     1       0.233   2.758   1.168  1.00  0.00     0.007 C 
HETATM   29  C19 UNL     1       0.881   4.084   1.412  1.00  0.00     0.000 C 
HETATM   30  C20 UNL     1       1.093   4.869   0.148  1.00  0.00     0.000 C 
HETATM   31  C21 UNL     1       1.481   4.092  -1.035  1.00  0.00     0.000 C 
HETATM   32  C22 UNL     1       1.284   2.632  -1.022  1.00  0.00     0.007 C 
ENDBRANCH   1  27
TORSDOF 11
