REMARK  15 active torsions:
REMARK  status: ('A' for Active; 'I' for Inactive)
REMARK    1  A    between atoms: O1_2  and  C2_3 
REMARK    2  A    between atoms: C2_3  and  C4_5 
REMARK    3  A    between atoms: C2_3  and  C23_37 
REMARK    4  A    between atoms: C4_5  and  C5_6 
REMARK    5  A    between atoms: C5_6  and  C6_7 
REMARK    6  A    between atoms: C10_11  and  C11_12 
REMARK    7  A    between atoms: C15_17  and  O2_18 
REMARK    8  A    between atoms: C16_20  and  O3_21 
REMARK    9  A    between atoms: C17_23  and  O4_24 
REMARK   10  A    between atoms: C20_30  and  O6_31 
REMARK   11  A    between atoms: C21_33  and  C22_34 
REMARK   12  A    between atoms: C22_34  and  O7_35 
REMARK   13  A    between atoms: C23_37  and  C24_38 
REMARK   14  A    between atoms: C24_38  and  C25_39 
REMARK   15  A    between atoms: C25_39  and  C26_40 
ROOT
HETATM    1  C6  UNL     1       0.753   0.284   0.013  1.00  0.00     0.011 C 
HETATM    2  C7  UNL     1       0.424   1.458  -0.592  1.00  0.00    -0.008 C 
HETATM    3  C8  UNL     1      -0.945   1.958  -0.797  1.00  0.00     0.037 C 
HETATM    4  C9  UNL     1      -1.860   0.848  -0.436  1.00  0.00     0.041 C 
HETATM    5  C10 UNL     1      -3.307   1.131  -0.427  1.00  0.00     0.023 C 
HETATM    6  C14 UNL     1      -4.035  -0.158  -0.176  1.00  0.00     0.032 C 
HETATM    7  C15 UNL     1      -3.851  -1.280  -1.116  1.00  0.00     0.156 C 
HETATM    8  C16 UNL     1      -3.088  -2.494  -0.721  1.00  0.00     0.202 C 
HETATM    9  C17 UNL     1      -1.635  -2.440  -0.593  1.00  0.00     0.289 C 
HETATM   10  O5  UNL     1      -0.759  -1.453  -0.397  1.00  0.00    -0.345 OA
HETATM   11  C18 UNL     1      -0.270  -0.609   0.557  1.00  0.00     0.208 C 
HETATM   12  C19 UNL     1      -1.418   0.365   0.912  1.00  0.00     0.164 C 
HETATM   13  F1  UNL     1      -0.722   1.342   1.636  1.00  0.00    -0.237 F 
HETATM   14  C20 UNL     1      -2.439  -0.192   1.804  1.00  0.00     0.167 C 
HETATM   15  C21 UNL     1      -3.776  -0.547   1.280  1.00  0.00     0.048 C 
ENDROOT
BRANCH   1  16
HETATM   16  C5  UNL     1       2.198   0.074   0.074  1.00  0.00    -0.143 C 
BRANCH  16  17
HETATM   17  C4  UNL     1       3.366  -0.096   0.124  1.00  0.00     0.123 C 
BRANCH  17  18
HETATM   18  C2  UNL     1       4.363  -1.086   0.597  1.00  0.00     0.066 C 
HETATM   19  C3  UNL     1       3.736  -1.947   1.666  1.00  0.00     0.047 C 
BRANCH  18  20
HETATM   20  O1  UNL     1       4.957  -1.808  -0.415  1.00  0.00    -0.385 OA
HETATM   21  C1  UNL     1       4.151  -2.630  -1.146  1.00  0.00     0.202 C 
ENDBRANCH  18  20
BRANCH  18  22
HETATM   22  C23 UNL     1       5.539  -0.324   1.254  1.00  0.00     0.038 C 
BRANCH  22  23
HETATM   23  C24 UNL     1       6.209   0.537   0.237  1.00  0.00     0.005 C 
BRANCH  23  24
HETATM   24  C25 UNL     1       7.428   1.280   0.767  1.00  0.00     0.031 C 
BRANCH  24  25
HETATM   25  C26 UNL     1       8.036   2.115  -0.354  1.00  0.00     0.222 C 
HETATM   26  F2  UNL     1       9.142   2.783   0.117  1.00  0.00    -0.255 F 
ENDBRANCH  24  25
ENDBRANCH  23  24
ENDBRANCH  22  23
ENDBRANCH  18  22
ENDBRANCH  17  18
ENDBRANCH  16  17
ENDBRANCH   1  16
BRANCH   9  27
HETATM   27  O4  UNL     1      -1.092  -3.633  -0.696  1.00  0.00    -0.368 OA
ATOM     28  H4  UNL     1      -0.146  -3.598  -0.613  1.00  0.00     0.212 HD
ENDBRANCH   9  27
BRANCH  14  29
HETATM   29  O6  UNL     1      -1.826  -1.197   2.563  1.00  0.00    -0.392 OA
ATOM     30  H6  UNL     1      -2.488  -1.558   3.141  1.00  0.00     0.210 HD
ENDBRANCH  14  29
BRANCH   5  31
HETATM   31  C11 UNL     1      -3.865   2.149  -1.308  1.00  0.00     0.034 C 
HETATM   32  C12 UNL     1      -3.715   2.076  -2.784  1.00  0.00     0.032 C 
HETATM   33  C13 UNL     1      -5.412   2.185  -1.092  1.00  0.00     0.032 C 
HETATM   34 CL1  UNL     1      -3.398   3.805  -0.823  1.00  0.00    -0.120 Cl
ENDBRANCH   5  31
BRANCH   8  35
HETATM   35  O3  UNL     1      -3.341  -3.378  -1.841  1.00  0.00    -0.388 OA
ATOM     36  H3  UNL     1      -2.854  -4.153  -1.589  1.00  0.00     0.210 HD
ENDBRANCH   8  35
BRANCH  15  37
HETATM   37  C22 UNL     1      -4.916  -0.054   2.162  1.00  0.00     0.172 C 
BRANCH  37  38
HETATM   38  O7  UNL     1      -4.738  -0.377   3.498  1.00  0.00    -0.400 OA
ATOM     39  H7  UNL     1      -5.449  -0.070   4.048  1.00  0.00     0.209 HD
ENDBRANCH  37  38
ENDBRANCH  15  37
BRANCH   7  40
HETATM   40  O2  UNL     1      -3.508  -1.019  -2.404  1.00  0.00    -0.392 OA
ATOM     41  H2  UNL     1      -3.390  -1.742  -3.009  1.00  0.00     0.210 HD
ENDBRANCH   7  40
TORSDOF 15
