REMARK  13 active torsions:
REMARK  status: ('A' for Active; 'I' for Inactive)
REMARK    1  A    between atoms: C1_2  and  C2_5 
REMARK    2  A    between atoms: C4_9  and  N2_10 
REMARK    3  A    between atoms: N2_10  and  C5_12 
REMARK    4  A    between atoms: C5_12  and  C6_13 
REMARK    5  A    between atoms: C6_13  and  C7_14 
REMARK    6  A    between atoms: C7_14  and  N3_15 
REMARK    7  A    between atoms: N3_15  and  C8_17 
REMARK    8  A    between atoms: C10_21  and  N5_22 
REMARK    9  A    between atoms: N5_22  and  C11_24 
REMARK   10  A    between atoms: C11_24  and  C12_25 
REMARK   11  A    between atoms: C18_36  and  N8_37 
REMARK   12  A    between atoms: N8_37  and  C19_38 
REMARK   13  A    between atoms: C19_38  and  C20_39 
ROOT
HETATM    1  N2  UNL     1      -1.921  -1.612  -0.180  1.00  0.00    -0.226 N 
ATOM      2  H2  UNL     1      -2.075  -1.742   0.820  1.00  0.00     0.177 HD
ENDROOT
BRANCH   1   3
HETATM    3  C4  UNL     1      -2.909  -1.280  -0.975  1.00  0.00     0.680 A 
HETATM    4  N1  UNL     1      -2.722  -1.106  -2.296  1.00  0.00    -0.201 N 
HETATM    5  C3  UNL     1      -3.739  -0.762  -3.102  1.00  0.00     0.127 A 
ATOM      6  H1  UNL     1      -1.791  -1.238  -2.692  1.00  0.00     0.183 HD
HETATM    7  C2  UNL     1      -5.006  -0.577  -2.603  1.00  0.00     0.122 A 
HETATM    8  C18 UNL     1      -5.225  -0.753  -1.229  1.00  0.00     0.208 A 
HETATM    9  N7  UNL     1      -4.125  -1.108  -0.465  1.00  0.00    -0.164 N 
ATOM     10  H7  UNL     1      -4.254  -1.244   0.538  1.00  0.00     0.187 HD
BRANCH   7  11
HETATM   11  C1  UNL     1      -6.120  -0.209  -3.521  1.00  0.00     0.423 C 
HETATM   12  F1  UNL     1      -7.106  -1.154  -3.531  1.00  0.00    -0.166 F 
HETATM   13  F2  UNL     1      -5.647  -0.137  -4.837  1.00  0.00    -0.166 F 
HETATM   14  F3  UNL     1      -6.648   1.037  -3.249  1.00  0.00    -0.166 F 
ENDBRANCH   7  11
BRANCH   8  15
HETATM   15  N8  UNL     1      -6.311  -0.589  -0.768  1.00  0.00    -0.402 NA
BRANCH  15  16
HETATM   16  C19 UNL     1      -7.535  -0.400  -0.276  1.00  0.00     0.162 C 
BRANCH  16  17
HETATM   17  C20 UNL     1      -7.825   1.035   0.216  1.00  0.00     0.042 C 
HETATM   18  C21 UNL     1      -6.837   1.338   1.305  1.00  0.00     0.037 C 
HETATM   19  C22 UNL     1      -7.196   2.679   1.957  1.00  0.00     0.168 C 
HETATM   20  O2  UNL     1      -8.454   2.500   2.547  1.00  0.00    -0.391 OA
HETATM   21  C23 UNL     1      -9.431   2.355   1.560  1.00  0.00     0.168 C 
HETATM   22  C24 UNL     1      -9.218   1.057   0.831  1.00  0.00     0.037 C 
ENDBRANCH  16  17
ENDBRANCH  15  16
ENDBRANCH   8  15
ENDBRANCH   1   3
BRANCH   1  23
HETATM   23  C5  UNL     1      -0.625  -1.787  -0.749  1.00  0.00     0.139 C 
BRANCH  23  24
HETATM   24  C6  UNL     1       0.454  -1.973   0.300  1.00  0.00     0.040 C 
BRANCH  24  25
HETATM   25  C7  UNL     1       0.501  -0.763   1.179  1.00  0.00     0.121 C 
BRANCH  25  26
HETATM   26  N3  UNL     1       1.546  -0.924   2.166  1.00  0.00    -0.388 N 
ATOM     27  H3  UNL     1       1.273  -1.034   3.143  1.00  0.00     0.159 HD
BRANCH  26  28
HETATM   28  C8  UNL     1       2.932  -0.937   1.850  1.00  0.00     0.060 A 
HETATM   29  C9  UNL     1       3.825  -1.287   2.841  1.00  0.00     0.136 A 
HETATM   30  N4  UNL     1       5.139  -1.286   2.540  1.00  0.00    -0.200 N 
HETATM   31  C10 UNL     1       5.633  -0.964   1.335  1.00  0.00     0.677 A 
ATOM     32  H4  UNL     1       5.798  -1.546   3.274  1.00  0.00     0.183 HD
HETATM   33  N6  UNL     1       4.759  -0.623   0.373  1.00  0.00    -0.200 N 
HETATM   34  C17 UNL     1       3.418  -0.603   0.607  1.00  0.00     0.136 A 
ATOM     35  H6  UNL     1       5.108  -0.374  -0.553  1.00  0.00     0.183 HD
BRANCH  31  36
HETATM   36  N5  UNL     1       6.921  -0.976   1.086  1.00  0.00    -0.224 N 
ATOM     37  H5  UNL     1       7.577  -1.236   1.823  1.00  0.00     0.177 HD
BRANCH  36  38
HETATM   38  C11 UNL     1       7.420  -0.623  -0.229  1.00  0.00     0.170 C 
BRANCH  38  39
HETATM   39  C12 UNL     1       8.936  -0.678  -0.215  1.00  0.00     0.139 C 
HETATM   40  C13 UNL     1       9.503   0.218   0.867  1.00  0.00     0.034 C 
HETATM   41  C14 UNL     1      10.417   1.232   0.207  1.00  0.00     0.005 C 
HETATM   42  C15 UNL     1       9.577   1.964  -0.839  1.00  0.00     0.026 C 
HETATM   43  C16 UNL     1       9.156   0.933  -1.871  1.00  0.00     0.168 C 
HETATM   44  O1  UNL     1       9.465  -0.355  -1.464  1.00  0.00    -0.384 OA
ENDBRANCH  38  39
ENDBRANCH  36  38
ENDBRANCH  31  36
ENDBRANCH  26  28
ENDBRANCH  25  26
ENDBRANCH  24  25
ENDBRANCH  23  24
ENDBRANCH   1  23
TORSDOF 13
