REMARK  10 active torsions:
REMARK  status: ('A' for Active; 'I' for Inactive)
REMARK    1  A    between atoms: C2_2  and  C3_3 
REMARK    2  A    between atoms: C2_2  and  C5_11 
REMARK    3  A    between atoms: C3_3  and  C4_4 
REMARK    4  A    between atoms: C4_4  and  N1_5 
REMARK    5  A    between atoms: C4_4  and  O1_9 
REMARK    6  A    between atoms: C5_11  and  C6_13 
REMARK       I    between atoms: C6_13  and  N2_15 
REMARK    7  A    between atoms: C10_19  and  N3_20 
REMARK       I    between atoms: N3_20  and  C11_22 
REMARK    8  A    between atoms: C11_22  and  C12_24 
REMARK    9  A    between atoms: C12_24  and  C13_25 
REMARK   10  A    between atoms: C13_25  and  C16_29 
ROOT
HETATM    1  C13 UNL     1       6.399   1.174  -0.063  1.00  0.00     0.151 C 
HETATM    2  C14 UNL     1       6.719   0.542  -1.378  1.00  0.00     0.041 C 
HETATM    3  C15 UNL     1       6.904   0.352   1.053  1.00  0.00     0.078 C 
HETATM    4  N4  UNL     1       7.297  -0.286   1.916  1.00  0.00    -0.196 NA
ENDROOT
BRANCH   1   5
HETATM    5  C12 UNL     1       4.937   1.429   0.141  1.00  0.00     0.136 C 
BRANCH   5   6
HETATM    6  C11 UNL     1       4.124   0.199   0.091  1.00  0.00     0.219 C 
HETATM    7  N3  UNL     1       2.721   0.195   0.257  1.00  0.00    -0.356 N 
ATOM      8  H3  UNL     1       2.250   1.085   0.419  1.00  0.00     0.162 HD
HETATM    9  O4  UNL     1       4.709  -0.897  -0.108  1.00  0.00    -0.274 OA
BRANCH   7  10
HETATM   10  C10 UNL     1       1.919  -1.010   0.208  1.00  0.00     0.086 C 
HETATM   11  C9  UNL     1       1.287  -1.212   1.554  1.00  0.00     0.027 C 
HETATM   12  C8  UNL     1       0.257  -0.198   1.900  1.00  0.00     0.022 C 
HETATM   13  C7  UNL     1      -1.118  -0.507   1.354  1.00  0.00     0.126 C 
HETATM   14  N2  UNL     1      -1.171  -0.214  -0.051  1.00  0.00    -0.345 N 
HETATM   15  C6  UNL     1      -2.399  -0.295  -0.763  1.00  0.00     0.294 C 
HETATM   16  C18 UNL     1      -0.010   0.183  -0.869  1.00  0.00     0.128 C 
HETATM   17  O3  UNL     1      -2.348  -0.016  -2.001  1.00  0.00    -0.264 OA
HETATM   18  C17 UNL     1       0.941  -0.968  -0.914  1.00  0.00     0.045 C 
BRANCH  15  19
HETATM   19  C5  UNL     1      -3.674  -0.665  -0.198  1.00  0.00     0.241 C 
HETATM   20  O2  UNL     1      -3.738  -0.959   1.009  1.00  0.00    -0.282 OA
BRANCH  19  21
HETATM   21  C2  UNL     1      -4.881  -0.695  -1.030  1.00  0.00    -0.024 C 
HETATM   22  C1  UNL     1      -5.260   0.636  -1.638  1.00  0.00     0.048 C 
BRANCH  21  23
HETATM   23  C3  UNL     1      -6.036  -1.465  -0.525  1.00  0.00     0.098 C 
BRANCH  23  24
HETATM   24  C4  UNL     1      -6.902  -0.886   0.514  1.00  0.00     0.320 C 
BRANCH  24  25
HETATM   25  N1  UNL     1      -7.538   0.362   0.135  1.00  0.00    -0.053 N 
ATOM     26  H13 UNL     1      -6.839   1.041  -0.165  1.00  0.00     0.277 HD
ATOM     27  H12 UNL     1      -8.055   0.248  -0.737  1.00  0.00     0.277 HD
ATOM     28  H11 UNL     1      -8.138   0.763   0.855  1.00  0.00     0.277 HD
ENDBRANCH  24  25
BRANCH  24  29
HETATM   29  O1  UNL     1      -6.415  -0.774   1.784  1.00  0.00    -0.370 OA
ATOM     30  H1  UNL     1      -6.974  -0.400   2.455  1.00  0.00     0.212 HD
ENDBRANCH  24  29
ENDBRANCH  23  24
ENDBRANCH  21  23
ENDBRANCH  19  21
ENDBRANCH  15  19
ENDBRANCH   7  10
ENDBRANCH   5   6
ENDBRANCH   1   5
BRANCH   1  31
HETATM   31  C16 UNL     1       7.106   2.530   0.063  1.00  0.00     0.408 C 
HETATM   32  F1  UNL     1       6.631   3.411  -0.893  1.00  0.00    -0.169 F 
HETATM   33  F2  UNL     1       8.463   2.411  -0.103  1.00  0.00    -0.169 F 
HETATM   34  F3  UNL     1       6.871   3.085   1.295  1.00  0.00    -0.169 F 
ENDBRANCH   1  31
TORSDOF 10
