REMARK  10 active torsions:
REMARK  status: ('A' for Active; 'I' for Inactive)
REMARK    1  A    between atoms: S1_2  and  C2_3 
REMARK    2  A    between atoms: C2_3  and  C3_4 
REMARK    3  A    between atoms: C3_4  and  C4_5 
REMARK    4  A    between atoms: C4_5  and  O1_6 
REMARK    5  A    between atoms: C4_5  and  N1_8 
REMARK    6  A    between atoms: N1_8  and  C5_9 
REMARK    7  A    between atoms: N1_8  and  C12_21 
REMARK    8  A    between atoms: C8_14  and  C9_15 
REMARK    9  A    between atoms: C9_15  and  C10_16 
REMARK   10  A    between atoms: C15_27  and  C16_28 
ROOT
HETATM    1  N1  UNL     1      -0.135   0.330  -0.033  1.00  0.00    -0.349 N 
ENDROOT
BRANCH   1   2
HETATM    2  C4  UNL     1      -0.471   1.634  -0.349  1.00  0.00     0.115 C 
BRANCH   2   3
HETATM    3  C3  UNL     1      -1.632   2.305  -0.863  1.00  0.00     0.094 C 
BRANCH   3   4
HETATM    4  C2  UNL     1      -1.487   3.779  -1.128  1.00  0.00     0.081 C 
BRANCH   4   5
HETATM    5  S1  UNL     1      -3.078   4.377  -1.768  1.00  0.00    -0.173 SA
HETATM    6  C1  UNL     1      -3.449   3.664  -3.390  1.00  0.00     0.089 C 
ENDBRANCH   4   5
ENDBRANCH   3   4
ENDBRANCH   2   3
BRANCH   2   7
HETATM    7  O1  UNL     1       0.503   2.481  -0.128  1.00  0.00    -0.349 OA
ATOM      8  H1  UNL     1       1.271   2.037   0.212  1.00  0.00     0.219 HD
ENDBRANCH   2   7
ENDBRANCH   1   2
BRANCH   1   9
HETATM    9  C5  UNL     1       1.191   0.031   0.496  1.00  0.00     0.148 C 
HETATM   10  C6  UNL     1       1.015  -0.493   1.904  1.00  0.00     0.087 C 
HETATM   11  N2  UNL     1       2.186  -0.553   2.678  1.00  0.00    -0.378 N 
HETATM   12  C7  UNL     1       3.405  -0.167   2.091  1.00  0.00     0.092 C 
ATOM     13  H2  UNL     1       2.153  -0.870   3.647  1.00  0.00     0.164 HD
HETATM   14  C8  UNL     1       3.844  -1.111   1.019  1.00  0.00     0.169 C 
HETATM   15  O4  UNL     1       3.349  -0.648  -0.196  1.00  0.00    -0.378 OA
HETATM   16  C11 UNL     1       1.967  -0.953  -0.275  1.00  0.00     0.199 C 
BRANCH  14  17
HETATM   17  C9  UNL     1       5.339  -1.164   0.977  1.00  0.00     0.150 C 
BRANCH  17  18
HETATM   18  C10 UNL     1       5.845   0.206   0.690  1.00  0.00     0.175 C 
HETATM   19  O2  UNL     1       5.842   1.080   1.592  1.00  0.00    -0.648 OA
HETATM   20  O3  UNL     1       6.317   0.518  -0.569  1.00  0.00    -0.648 OA
ENDBRANCH  17  18
ENDBRANCH  14  17
ENDBRANCH   1   9
BRANCH   1  21
HETATM   21  C12 UNL     1      -1.052  -0.752  -0.214  1.00  0.00     0.090 C 
HETATM   22  C13 UNL     1      -1.599  -0.945  -1.591  1.00  0.00     0.053 C 
HETATM   23  C14 UNL     1      -3.113  -1.036  -1.609  1.00  0.00     0.235 C 
HETATM   24  N3  UNL     1      -3.611  -2.118  -0.788  1.00  0.00    -0.062 N 
HETATM   25  C15 UNL     1      -2.956  -2.072   0.483  1.00  0.00     0.294 C 
ATOM     26  H32 UNL     1      -4.627  -2.107  -0.703  1.00  0.00     0.277 HD
ATOM     27  H31 UNL     1      -3.517  -3.027  -1.242  1.00  0.00     0.277 HD
HETATM   28  C17 UNL     1      -2.242  -0.742   0.729  1.00  0.00     0.067 C 
BRANCH  25  29
HETATM   29  C16 UNL     1      -3.869  -2.414   1.645  1.00  0.00     0.415 C 
HETATM   30  F1  UNL     1      -3.096  -2.326   2.793  1.00  0.00    -0.169 F 
HETATM   31  F2  UNL     1      -4.267  -3.730   1.493  1.00  0.00    -0.169 F 
HETATM   32  F3  UNL     1      -4.934  -1.553   1.748  1.00  0.00    -0.169 F 
ENDBRANCH  25  29
ENDBRANCH   1  21
TORSDOF 10
