REMARK  7 active torsions:
REMARK  status: ('A' for Active; 'I' for Inactive)
REMARK    1  A    between atoms: N1_2  and  C2_3 
REMARK    2  A    between atoms: N1_2  and  C8_13 
REMARK    3  A    between atoms: C2_3  and  C3_4 
REMARK       I    between atoms: C3_4  and  N2_6 
REMARK       I    between atoms: N2_6  and  C4_8 
REMARK    4  A    between atoms: C4_8  and  C5_10 
REMARK    5  A    between atoms: C8_13  and  C9_14 
REMARK    6  A    between atoms: C8_13  and  C13_30 
REMARK    7  A    between atoms: C10_17  and  C11_18 
ROOT
HETATM    1  C8  UNL     1      -0.946  -1.601   0.970  1.00  0.00     0.202 C 
ENDROOT
BRANCH   1   2
HETATM    2  N1  UNL     1      -0.037  -0.525   0.763  1.00  0.00    -0.394 N 
HETATM    3  C1  UNL     1      -0.269   0.686   1.459  1.00  0.00     0.144 C 
BRANCH   2   4
HETATM    4  C2  UNL     1       0.464  -0.426  -0.562  1.00  0.00     0.220 C 
BRANCH   4   5
HETATM    5  C3  UNL     1       1.860   0.037  -0.719  1.00  0.00     0.241 C 
HETATM    6  O1  UNL     1       2.286   0.152  -1.900  1.00  0.00    -0.271 OA
HETATM    7  N2  UNL     1       2.697   0.341   0.374  1.00  0.00    -0.296 N 
HETATM    8  C4  UNL     1       4.006   0.808   0.380  1.00  0.00     0.228 C 
ATOM      9  H2  UNL     1       2.281   0.197   1.294  1.00  0.00     0.171 HD
HETATM   10  O2  UNL     1       4.569   1.033   1.509  1.00  0.00    -0.273 OA
BRANCH   8  11
HETATM   11  C5  UNL     1       4.841   1.083  -0.799  1.00  0.00     0.078 A 
HETATM   12  C6  UNL     1       6.330   0.856  -0.683  1.00  0.00     0.015 A 
HETATM   13  C7  UNL     1       5.749   2.267  -0.720  1.00  0.00     0.015 A 
ENDBRANCH   8  11
ENDBRANCH   4   5
ENDBRANCH   2   4
ENDBRANCH   1   2
BRANCH   1  14
HETATM   14  C9  UNL     1      -2.323  -1.212   0.509  1.00  0.00     0.109 A 
HETATM   15  N3  UNL     1      -2.573  -0.669  -0.709  1.00  0.00    -0.340 N 
HETATM   16  C10 UNL     1      -3.889  -0.419  -0.811  1.00  0.00     0.096 A 
ATOM     17  H3  UNL     1      -1.876  -0.481  -1.429  1.00  0.00     0.167 HD
HETATM   18  C12 UNL     1      -4.429  -0.829   0.386  1.00  0.00     0.123 A 
HETATM   19  N8  UNL     1      -3.451  -1.322   1.208  1.00  0.00    -0.352 N 
ATOM     20  H8  UNL     1      -3.562  -1.693   2.152  1.00  0.00     0.166 HD
BRANCH  16  21
HETATM   21  C11 UNL     1      -4.596   0.173  -1.958  1.00  0.00     0.165 A 
HETATM   22  N4  UNL     1      -4.048   0.570  -3.110  1.00  0.00    -0.267 N 
HETATM   23  N5  UNL     1      -5.040   1.046  -3.875  1.00  0.00    -0.227 N 
ATOM     24  H4  UNL     1      -3.060   0.520  -3.360  1.00  0.00     0.190 HD
HETATM   25  N6  UNL     1      -6.181   0.957  -3.237  1.00  0.00    -0.227 N 
ATOM     26  H5  UNL     1      -4.924   1.422  -4.816  1.00  0.00     0.210 HD
HETATM   27  N7  UNL     1      -5.909   0.421  -2.060  1.00  0.00    -0.267 N 
ATOM     28  H6  UNL     1      -7.097   1.244  -3.581  1.00  0.00     0.210 HD
ATOM     29  H7  UNL     1      -6.598   0.225  -1.334  1.00  0.00     0.190 HD
ENDBRANCH  16  21
ENDBRANCH   1  14
BRANCH   1  30
HETATM   30  C13 UNL     1      -0.931  -2.107   2.379  1.00  0.00     0.215 C 
HETATM   31 CL1  UNL     1      -1.408  -0.959   3.614  1.00  0.00    -0.081 Cl
HETATM   32 CL2  UNL     1       0.767  -2.639   2.774  1.00  0.00    -0.081 Cl
HETATM   33 CL3  UNL     1      -1.895  -3.607   2.576  1.00  0.00    -0.081 Cl
ENDBRANCH   1  30
TORSDOF 7
