REMARK  10 active torsions:
REMARK  status: ('A' for Active; 'I' for Inactive)
REMARK    1  A    between atoms: C2_2  and  O1_4 
REMARK    2  A    between atoms: O1_4  and  C4_5 
REMARK       I    between atoms: C4_5  and  N1_7 
REMARK    3  A    between atoms: C8_11  and  C9_12 
REMARK    4  A    between atoms: C9_12  and  N2_13 
REMARK       I    between atoms: N2_13  and  C10_15 
REMARK    5  A    between atoms: C10_15  and  C11_17 
REMARK    6  A    between atoms: C11_17  and  N3_18 
REMARK    7  A    between atoms: C11_17  and  C17_29 
REMARK       I    between atoms: N3_18  and  C12_20 
REMARK    8  A    between atoms: C12_20  and  O5_22 
REMARK    9  A    between atoms: O5_22  and  C13_23 
REMARK   10  A    between atoms: C13_23  and  C16_26 
ROOT
HETATM    1  N2  UNL     1       0.303  -1.014   0.567  1.00  0.00    -0.357 N 
ATOM      2  H2  UNL     1       0.906  -0.210   0.742  1.00  0.00     0.162 HD
HETATM    3  C10 UNL     1      -0.988  -0.837   0.041  1.00  0.00     0.249 C 
HETATM    4  O3  UNL     1      -1.705  -1.856  -0.156  1.00  0.00    -0.271 OA
ENDROOT
BRANCH   3   5
HETATM    5  C11 UNL     1      -1.473   0.532  -0.264  1.00  0.00     0.268 C 
BRANCH   5   6
HETATM    6  N3  UNL     1      -2.869   0.485  -0.705  1.00  0.00    -0.316 N 
HETATM    7  C12 UNL     1      -3.898   1.133   0.009  1.00  0.00     0.362 C 
HETATM    8  O4  UNL     1      -3.617   1.767   1.047  1.00  0.00    -0.238 OA
ATOM      9  H3  UNL     1      -3.104  -0.031  -1.553  1.00  0.00     0.166 HD
BRANCH   7  10
HETATM   10  O5  UNL     1      -5.206   1.084  -0.410  1.00  0.00    -0.288 OA
BRANCH  10  11
HETATM   11  C13 UNL     1      -6.270   1.706   0.256  1.00  0.00     0.124 C 
HETATM   12  C14 UNL     1      -6.146   3.186   0.382  1.00  0.00     0.052 C 
HETATM   13  C15 UNL     1      -6.297   1.126   1.675  1.00  0.00     0.052 C 
BRANCH  11  14
HETATM   14  C16 UNL     1      -7.606   1.388  -0.357  1.00  0.00     0.387 C 
HETATM   15  F1  UNL     1      -7.665   1.799  -1.674  1.00  0.00    -0.211 F 
HETATM   16  F2  UNL     1      -7.927   0.045  -0.234  1.00  0.00    -0.211 F 
ENDBRANCH  11  14
ENDBRANCH  10  11
ENDBRANCH   7  10
ENDBRANCH   5   6
BRANCH   5  17
HETATM   17  C17 UNL     1      -0.630   1.152  -1.298  1.00  0.00     0.263 C 
HETATM   18  N4  UNL     1       0.748   1.349  -1.136  1.00  0.00    -0.060 NA
HETATM   19  O6  UNL     1      -1.159   1.525  -2.375  1.00  0.00    -0.274 OA
ENDBRANCH   5  17
ENDBRANCH   3   5
BRANCH   1  20
HETATM   20  C9  UNL     1       0.764  -2.360   0.857  1.00  0.00     0.148 C 
BRANCH  20  21
HETATM   21  C8  UNL     1       2.167  -2.388   1.417  1.00  0.00     0.107 C 
HETATM   22  N1  UNL     1       3.146  -1.825   0.526  1.00  0.00    -0.322 N 
HETATM   23  C4  UNL     1       3.859  -0.621   0.695  1.00  0.00     0.363 C 
HETATM   24  C5  UNL     1       3.277  -2.722  -0.591  1.00  0.00     0.129 C 
HETATM   25  O2  UNL     1       3.692   0.129   1.717  1.00  0.00    -0.238 OA
HETATM   26  C6  UNL     1       3.327  -4.076   0.115  1.00  0.00     0.022 C 
HETATM   27  C7  UNL     1       2.628  -3.852   1.442  1.00  0.00     0.029 C 
BRANCH  23  28
HETATM   28  O1  UNL     1       4.792  -0.157  -0.225  1.00  0.00    -0.299 OA
BRANCH  28  29
HETATM   29  C2  UNL     1       5.511   1.052  -0.058  1.00  0.00     0.125 C 
HETATM   30  C1  UNL     1       5.133   2.056  -1.122  1.00  0.00     0.040 C 
HETATM   31  C3  UNL     1       7.004   0.811  -0.018  1.00  0.00     0.040 C 
ENDBRANCH  28  29
ENDBRANCH  23  28
ENDBRANCH  20  21
ENDBRANCH   1  20
TORSDOF 10
