REMARK  9 active torsions:
REMARK  status: ('A' for Active; 'I' for Inactive)
REMARK    1  A    between atoms: C3_3  and  N1_4 
REMARK    2  A    between atoms: C3_3  and  C16_27 
REMARK    3  A    between atoms: N1_4  and  C4_6 
REMARK    4  A    between atoms: C4_6  and  C5_7 
REMARK    5  A    between atoms: C7_10  and  N2_11 
REMARK       I    between atoms: N2_11  and  C8_13 
REMARK    6  A    between atoms: C8_13  and  C9_15 
REMARK    7  A    between atoms: C9_15  and  O3_17 
REMARK    8  A    between atoms: O3_17  and  C10_18 
REMARK    9  A    between atoms: C14_23  and  C15_24 
ROOT
HETATM    1  C5  UNL     1       1.551  -1.007  -0.347  1.00  0.00     0.100 C 
HETATM    2  S1  UNL     1       0.180  -0.113   0.429  1.00  0.00    -0.133 SA
HETATM    3  C6  UNL     1      -0.450  -1.524   1.388  1.00  0.00     0.165 C 
HETATM    4  C7  UNL     1      -1.937  -1.671   1.233  1.00  0.00     0.119 C 
HETATM    5  C12 UNL     1      -2.152  -3.083   0.775  1.00  0.00     0.047 C 
HETATM    6  C13 UNL     1      -0.832  -3.431   0.078  1.00  0.00     0.121 C 
HETATM    7  N3  UNL     1       0.115  -2.612   0.695  1.00  0.00    -0.383 N 
HETATM    8  C14 UNL     1       1.375  -2.388   0.211  1.00  0.00     0.197 C 
ENDROOT
BRANCH   1   9
HETATM    9  C4  UNL     1       2.848  -0.370   0.162  1.00  0.00     0.137 C 
BRANCH   9  10
HETATM   10  N1  UNL     1       2.919   1.013  -0.181  1.00  0.00    -0.385 N 
ATOM     11  H1  UNL     1       2.161   1.448  -0.707  1.00  0.00     0.159 HD
BRANCH  10  12
HETATM   12  C3  UNL     1       4.074   1.804   0.219  1.00  0.00     0.108 C 
HETATM   13  C2  UNL     1       3.905   3.030   0.608  1.00  0.00     0.003 C 
HETATM   14  C1  UNL     1       4.960   3.946   1.038  1.00  0.00     0.038 C 
BRANCH  12  15
HETATM   15  C16 UNL     1       5.380   1.125   0.151  1.00  0.00     0.431 C 
HETATM   16  F1  UNL     1       5.349   0.119   1.126  1.00  0.00    -0.165 F 
HETATM   17  F2  UNL     1       6.432   1.964   0.321  1.00  0.00    -0.165 F 
HETATM   18  F3  UNL     1       5.529   0.495  -1.106  1.00  0.00    -0.165 F 
ENDBRANCH  12  15
ENDBRANCH  10  12
ENDBRANCH   9  10
ENDBRANCH   1   9
BRANCH   8  19
HETATM   19  C15 UNL     1       1.817  -3.361  -0.803  1.00  0.00     0.197 C 
HETATM   20  O4  UNL     1       2.997  -3.225  -1.309  1.00  0.00    -0.646 OA
HETATM   21  O5  UNL     1       1.118  -4.429  -1.300  1.00  0.00    -0.646 OA
ENDBRANCH   8  19
BRANCH   4  22
HETATM   22  N2  UNL     1      -2.490  -0.703   0.314  1.00  0.00    -0.345 N 
HETATM   23  C8  UNL     1      -3.469   0.210   0.782  1.00  0.00     0.317 C 
HETATM   24  O1  UNL     1      -3.849   0.179   1.978  1.00  0.00    -0.262 OA
ATOM     25  H2  UNL     1      -2.181  -0.677  -0.658  1.00  0.00     0.163 HD
BRANCH  23  26
HETATM   26  C9  UNL     1      -4.074   1.217  -0.086  1.00  0.00     0.351 C 
HETATM   27  O2  UNL     1      -3.739   1.304  -1.301  1.00  0.00    -0.254 OA
BRANCH  26  28
HETATM   28  O3  UNL     1      -5.025   2.105   0.369  1.00  0.00    -0.314 OA
BRANCH  28  29
HETATM   29  C10 UNL     1      -5.642   3.094  -0.419  1.00  0.00     0.175 C 
HETATM   30  C11 UNL     1      -6.361   2.434  -1.551  1.00  0.00     0.034 C 
ENDBRANCH  28  29
ENDBRANCH  26  28
ENDBRANCH  23  26
ENDBRANCH   4  22
TORSDOF 9
