REMARK  9 active torsions:
REMARK  status: ('A' for Active; 'I' for Inactive)
REMARK    1  A    between atoms: C2_2  and  C4_4 
REMARK    2  A    between atoms: C4_4  and  S1_5 
REMARK    3  A    between atoms: C4_4  and  C7_14 
REMARK    4  A    between atoms: S1_5  and  C5_6 
REMARK       I    between atoms: C7_14  and  N4_16 
REMARK    5  A    between atoms: C11_20  and  C12_21 
REMARK       I    between atoms: C12_21  and  N5_23 
REMARK    6  A    between atoms: N5_23  and  C13_25 
REMARK    7  A    between atoms: C13_25  and  C14_26 
REMARK    8  A    between atoms: C13_25  and  C16_30 
REMARK    9  A    between atoms: C14_26  and  O3_28 
ROOT
HETATM    1  C7  UNL     1      -1.115  -0.472   0.121  1.00  0.00     0.235 C 
HETATM    2  O1  UNL     1      -0.542  -1.597   0.307  1.00  0.00    -0.272 OA
HETATM    3  N4  UNL     1      -0.492   0.758  -0.055  1.00  0.00    -0.338 N 
HETATM    4  C8  UNL     1      -1.309   1.992  -0.244  1.00  0.00     0.127 C 
HETATM    5  C9  UNL     1      -0.678   2.450  -1.548  1.00  0.00     0.022 C 
HETATM    6  C10 UNL     1       0.771   2.033  -1.463  1.00  0.00     0.037 C 
HETATM    7  C11 UNL     1       0.796   1.294  -0.109  1.00  0.00     0.179 C 
ENDROOT
BRANCH   1   8
HETATM    8  C4  UNL     1      -2.614  -0.602   0.106  1.00  0.00     0.151 C 
BRANCH   8   9
HETATM    9  C2  UNL     1      -3.069  -1.973   0.525  1.00  0.00     0.001 C 
HETATM   10  C1  UNL     1      -2.622  -2.319   1.929  1.00  0.00     0.011 C 
HETATM   11  C3  UNL     1      -2.603  -3.007  -0.478  1.00  0.00     0.011 C 
ENDBRANCH   8   9
BRANCH   8  12
HETATM   12  S1  UNL     1      -3.245  -0.361  -1.593  1.00  0.00    -0.078 SA
BRANCH  12  13
HETATM   13  C5  UNL     1      -5.016  -0.258  -1.601  1.00  0.00     0.160 A 
HETATM   14  N1  UNL     1      -5.813  -0.089  -2.666  1.00  0.00    -0.331 N 
HETATM   15  C6  UNL     1      -7.104  -0.057  -2.263  1.00  0.00     0.199 A 
ATOM     16  H1  UNL     1      -5.495   0.001  -3.631  1.00  0.00     0.168 HD
HETATM   17  N2  UNL     1      -7.095  -0.208  -0.933  1.00  0.00    -0.294 N 
HETATM   18  N3  UNL     1      -5.826  -0.330  -0.535  1.00  0.00    -0.279 N 
ATOM     19  H2  UNL     1      -7.916  -0.227  -0.328  1.00  0.00     0.187 HD
ATOM     20  H3  UNL     1      -5.521  -0.458   0.430  1.00  0.00     0.189 HD
ENDBRANCH  12  13
ENDBRANCH   8  12
ENDBRANCH   1   8
BRANCH   7  21
HETATM   21  C12 UNL     1       1.984   0.473   0.009  1.00  0.00     0.241 C 
HETATM   22  O2  UNL     1       1.940  -0.772  -0.040  1.00  0.00    -0.271 OA
HETATM   23  N5  UNL     1       3.288   1.019   0.192  1.00  0.00    -0.344 N 
ATOM     24  H5  UNL     1       3.377   2.034   0.240  1.00  0.00     0.163 HD
BRANCH  23  25
HETATM   25  C13 UNL     1       4.493   0.228   0.314  1.00  0.00     0.220 C 
BRANCH  25  26
HETATM   26  C14 UNL     1       5.065   0.365   1.721  1.00  0.00     0.145 C 
HETATM   27  C15 UNL     1       6.162  -0.626   1.980  1.00  0.00     0.042 C 
BRANCH  26  28
HETATM   28  O3  UNL     1       5.430   1.654   2.020  1.00  0.00    -0.394 OA
ATOM     29  H3  UNL     1       5.786   1.739   2.896  1.00  0.00     0.210 HD
ENDBRANCH  26  28
ENDBRANCH  25  26
BRANCH  25  30
HETATM   30  C16 UNL     1       5.513   0.608  -0.717  1.00  0.00     0.409 C 
HETATM   31  F1  UNL     1       6.634  -0.168  -0.573  1.00  0.00    -0.169 F 
HETATM   32  F2  UNL     1       4.972   0.289  -1.966  1.00  0.00    -0.169 F 
HETATM   33  F3  UNL     1       5.903   1.919  -0.639  1.00  0.00    -0.169 F 
ENDBRANCH  25  30
ENDBRANCH  23  25
ENDBRANCH   7  21
TORSDOF 9
