REMARK  8 active torsions:
REMARK  status: ('A' for Active; 'I' for Inactive)
REMARK    1  A    between atoms: C2_2  and  C3_3 
REMARK    2  A    between atoms: C5_6  and  S1_7 
REMARK    3  A    between atoms: S1_7  and  C6_8 
REMARK    4  A    between atoms: C6_8  and  C7_9 
REMARK    5  A    between atoms: C6_8  and  C16_27 
REMARK    6  A    between atoms: C7_9  and  C8_10 
REMARK    7  A    between atoms: C8_10  and  N1_12 
REMARK    8  A    between atoms: C8_10  and  C15_23 
REMARK       I    between atoms: N2_15  and  C12_16 
ROOT
HETATM    1  C8  UNL     1      -0.702  -2.045   0.379  1.00  0.00     0.127 C 
HETATM    2  C9  UNL     1      -1.323  -3.249  -0.448  1.00  0.00     0.048 C 
ENDROOT
BRANCH   1   3
HETATM    3  C7  UNL     1       0.255  -1.448  -0.531  1.00  0.00     0.065 C 
BRANCH   3   4
HETATM    4  C6  UNL     1       1.414  -2.122  -1.104  1.00  0.00     0.147 C 
BRANCH   4   5
HETATM    5  S1  UNL     1       2.253  -0.960  -2.315  1.00  0.00    -0.072 SA
BRANCH   5   6
HETATM    6  C5  UNL     1       2.921   0.422  -1.396  1.00  0.00     0.188 A 
HETATM    7  O1  UNL     1       4.100   0.501  -0.869  1.00  0.00    -0.298 OA
HETATM    8  C4  UNL     1       4.305   1.640  -0.256  1.00  0.00     0.174 A 
HETATM    9  C3  UNL     1       3.144   2.361  -0.403  1.00  0.00     0.056 A 
HETATM   10  N6  UNL     1       2.297   1.600  -1.108  1.00  0.00    -0.329 N 
ATOM     11  H6  UNL     1       1.349   1.857  -1.382  1.00  0.00     0.168 HD
BRANCH   9  12
HETATM   12  C2  UNL     1       2.929   3.697   0.128  1.00  0.00     0.021 C 
HETATM   13  C1  UNL     1       3.855   4.328   0.803  1.00  0.00     0.013 C 
ENDBRANCH   9  12
ENDBRANCH   5   6
ENDBRANCH   4   5
BRANCH   4  14
HETATM   14  C16 UNL     1       2.553  -2.342  -0.134  1.00  0.00     0.245 C 
HETATM   15  N5  UNL     1       3.433  -3.471  -0.311  1.00  0.00    -0.061 NA
HETATM   16  O2  UNL     1       2.733  -1.546   0.809  1.00  0.00    -0.276 OA
ENDBRANCH   4  14
ENDBRANCH   3   4
ENDBRANCH   1   3
BRANCH   1  17
HETATM   17  N1  UNL     1      -1.827  -1.142   0.516  1.00  0.00    -0.373 N 
HETATM   18  C10 UNL     1      -2.569  -0.881  -0.651  1.00  0.00     0.079 C 
HETATM   19  C11 UNL     1      -2.597   0.545  -1.138  1.00  0.00     0.169 C 
HETATM   20  N2  UNL     1      -2.909   1.396  -0.034  1.00  0.00    -0.350 N 
HETATM   21  C12 UNL     1      -3.136   2.774  -0.221  1.00  0.00     0.184 C 
HETATM   22  C13 UNL     1      -2.986   0.804   1.272  1.00  0.00     0.145 C 
HETATM   23  N3  UNL     1      -4.333   3.269  -0.188  1.00  0.00    -0.374 N 
HETATM   24  N4  UNL     1      -2.039   3.669  -0.454  1.00  0.00    -0.064 NA
ATOM     25  H32 UNL     1      -5.113   2.633  -0.022  1.00  0.00     0.158 HD
ATOM     26  H31 UNL     1      -4.497   4.267  -0.323  1.00  0.00     0.158 HD
HETATM   27  C14 UNL     1      -1.733  -0.084   1.422  1.00  0.00     0.143 C 
ENDBRANCH   1  17
BRANCH   1  28
HETATM   28  C15 UNL     1      -0.380  -2.693   1.649  1.00  0.00     0.412 C 
HETATM   29  F1  UNL     1       0.444  -3.822   1.564  1.00  0.00    -0.168 F 
HETATM   30  F2  UNL     1      -1.586  -3.293   2.105  1.00  0.00    -0.168 F 
HETATM   31  F3  UNL     1       0.021  -1.913   2.696  1.00  0.00    -0.168 F 
ENDBRANCH   1  28
TORSDOF 8
