REMARK  7 active torsions:
REMARK  status: ('A' for Active; 'I' for Inactive)
REMARK    1  A    between atoms: C3_3  and  C4_4 
REMARK    2  A    between atoms: C4_4  and  N1_5 
REMARK    3  A    between atoms: C6_10  and  N3_11 
REMARK    4  A    between atoms: N3_11  and  C7_13 
REMARK    5  A    between atoms: C7_13  and  C8_14 
REMARK    6  A    between atoms: C8_14  and  N4_15 
REMARK       I    between atoms: N4_15  and  C10_17 
REMARK    7  A    between atoms: C10_17  and  C11_19 
ROOT
HETATM    1  C1  UNL     1      -6.326   1.791   0.765  1.00  0.00     0.012 C 
HETATM    2  C2  UNL     1      -6.197   0.816   0.066  1.00  0.00    -0.116 C 
HETATM    3  C3  UNL     1      -6.023  -0.380  -0.799  1.00  0.00     0.112 C 
ENDROOT
BRANCH   3   4
HETATM    4  C4  UNL     1      -5.084  -1.305  -0.022  1.00  0.00     0.133 C 
BRANCH   4   5
HETATM    5  N1  UNL     1      -3.850  -0.748   0.242  1.00  0.00    -0.374 N 
HETATM    6  C5  UNL     1      -2.698  -0.662  -0.213  1.00  0.00     0.137 A 
HETATM    7  N2  UNL     1      -1.750   0.067   0.478  1.00  0.00    -0.176 N 
HETATM    8  C13 UNL     1      -2.255  -1.238  -1.376  1.00  0.00     0.089 A 
HETATM    9  C6  UNL     1      -0.489   0.200   0.041  1.00  0.00     0.680 A 
ATOM     10  H2  UNL     1      -2.018   0.520   1.351  1.00  0.00     0.186 HD
HETATM   11  N5  UNL     1      -0.099  -0.385  -1.108  1.00  0.00    -0.184 N 
HETATM   12  C12 UNL     1      -0.946  -1.115  -1.852  1.00  0.00     0.117 A 
ATOM     13  H5  UNL     1       0.865  -0.271  -1.421  1.00  0.00     0.185 HD
HETATM   14 BR2  UNL     1      -0.373  -1.937  -3.479  1.00  0.00    -0.029 Br
HETATM   15 BR3  UNL     1      -3.410  -2.285  -2.475  1.00  0.00    -0.044 Br
ATOM     16  H1  UNL     1      -3.902  -0.224   1.116  1.00  0.00     0.161 HD
BRANCH   9  17
HETATM   17  N3  UNL     1       0.334   0.894   0.741  1.00  0.00    -0.224 N 
ATOM     18  H3  UNL     1      -0.024   1.310   1.601  1.00  0.00     0.177 HD
BRANCH  17  19
HETATM   19  C7  UNL     1       1.706   1.135   0.423  1.00  0.00     0.158 C 
BRANCH  19  20
HETATM   20  C8  UNL     1       2.578  -0.007   0.901  1.00  0.00     0.145 C 
BRANCH  20  21
HETATM   21  N4  UNL     1       3.944   0.269   0.563  1.00  0.00    -0.354 N 
HETATM   22  C9  UNL     1       4.739   0.993   1.535  1.00  0.00     0.152 C 
HETATM   23  C10 UNL     1       4.560  -0.116  -0.647  1.00  0.00     0.229 C 
HETATM   24  O1  UNL     1       3.925  -0.754  -1.549  1.00  0.00    -0.273 OA
BRANCH  23  25
HETATM   25  C11 UNL     1       5.969   0.200  -0.932  1.00  0.00     0.188 C 
HETATM   26 BR1  UNL     1       6.526  -0.454  -2.663  1.00  0.00    -0.087 Br
ENDBRANCH  23  25
ENDBRANCH  20  21
ENDBRANCH  19  20
ENDBRANCH  17  19
ENDBRANCH   9  17
ENDBRANCH   4   5
ENDBRANCH   3   4
TORSDOF 7
