REMARK  7 active torsions:
REMARK  status: ('A' for Active; 'I' for Inactive)
REMARK    1  A    between atoms: C2_2  and  N1_3 
REMARK    2  A    between atoms: N1_3  and  C3_5 
REMARK    3  A    between atoms: N1_3  and  C6_9 
REMARK    4  A    between atoms: C3_5  and  C4_6 
REMARK    5  A    between atoms: C4_6  and  O1_7 
REMARK    6  A    between atoms: C6_9  and  C7_10 
REMARK       I    between atoms: C7_10  and  N2_12 
REMARK    7  A    between atoms: C9_17  and  N4_18 
ROOT
HETATM    1  C7  UNL     1       0.392  -0.664  -0.115  1.00  0.00     0.250 C 
HETATM    2  O2  UNL     1       0.116  -0.428  -1.318  1.00  0.00    -0.271 OA
HETATM    3  N2  UNL     1       1.730  -0.901   0.175  1.00  0.00    -0.310 N 
ATOM      4  H2  UNL     1       1.881  -1.899   0.323  1.00  0.00     0.170 HD
HETATM    5  C8  UNL     1       2.784  -0.297   0.310  1.00  0.00     0.143 A 
HETATM    6  N3  UNL     1       3.917  -1.016   0.616  1.00  0.00    -0.175 N 
ATOM      7  H3  UNL     1       3.834  -2.027   0.718  1.00  0.00     0.186 HD
HETATM    8  C9  UNL     1       5.113  -0.462   0.785  1.00  0.00     0.678 A 
HETATM    9  N5  UNL     1       5.245   0.869   0.656  1.00  0.00    -0.184 N 
ATOM     10  H5  UNL     1       6.165   1.290   0.788  1.00  0.00     0.185 HD
HETATM   11  C10 UNL     1       4.206   1.660   0.360  1.00  0.00     0.117 A 
HETATM   12 BR2  UNL     1       4.400   3.547   0.178  1.00  0.00    -0.029 Br
HETATM   13  C11 UNL     1       2.954   1.051   0.186  1.00  0.00     0.090 A 
HETATM   14 BR3  UNL     1       1.488   2.210  -0.235  1.00  0.00    -0.044 Br
ENDROOT
BRANCH   1  15
HETATM   15  C6  UNL     1      -0.555  -0.716   0.998  1.00  0.00     0.354 C 
BRANCH  15  16
HETATM   16  N1  UNL     1      -1.940  -0.514   0.742  1.00  0.00    -0.001 N 
HETATM   17 BR1  UNL     1      -2.764  -1.445   2.273  1.00  0.00     0.165 Br
BRANCH  16  18
HETATM   18  C2  UNL     1      -2.496  -1.258  -0.354  1.00  0.00     0.247 C 
HETATM   19  C1  UNL     1      -2.185  -2.740  -0.200  1.00  0.00     0.036 C 
ENDBRANCH  16  18
BRANCH  16  20
HETATM   20  C3  UNL     1      -2.406   0.816   0.899  1.00  0.00     0.278 C 
BRANCH  20  21
HETATM   21  C4  UNL     1      -3.594   1.263   0.162  1.00  0.00     0.196 C 
BRANCH  21  22
HETATM   22  O1  UNL     1      -3.535   1.242  -1.220  1.00  0.00    -0.394 OA
HETATM   23  C5  UNL     1      -2.576   2.134  -1.742  1.00  0.00     0.201 C 
ENDBRANCH  21  22
ENDBRANCH  20  21
ENDBRANCH  16  20
ENDBRANCH  15  16
ENDBRANCH   1  15
BRANCH   8  24
HETATM   24  N4  UNL     1       6.166  -1.178   1.074  1.00  0.00    -0.234 N 
ATOM     25  H42 UNL     1       6.066  -2.188   1.172  1.00  0.00     0.174 HD
ATOM     26  H41 UNL     1       7.084  -0.753   1.204  1.00  0.00     0.174 HD
ENDBRANCH   8  24
TORSDOF 7
