REMARK  6 active torsions:
REMARK  status: ('A' for Active; 'I' for Inactive)
REMARK    1  A    between atoms: C5_9  and  C6_10 
REMARK    2  A    between atoms: C5_9  and  C9_17 
REMARK    3  A    between atoms: C6_10  and  N2_11 
REMARK       I    between atoms: N2_11  and  C7_13 
REMARK    4  A    between atoms: C7_13  and  C8_15 
REMARK       I    between atoms: C9_17  and  N3_19 
REMARK    5  A    between atoms: C10_21  and  C11_22 
REMARK    6  A    between atoms: C10_21  and  C13_24 
ROOT
HETATM    1  B1  UNL     1      -2.485  -0.919   1.734  1.00  0.00     0.241 B 
HETATM    2  N1  UNL     1      -2.281  -0.982   0.279  1.00  0.00    -0.455 N 
HETATM    3  C1  UNL     1      -2.625  -2.237  -0.332  1.00  0.00     0.106 C 
HETATM    4  C2  UNL     1      -1.292  -2.674  -0.956  1.00  0.00     0.035 C 
HETATM    5  C3  UNL     1      -1.516  -3.611  -2.120  1.00  0.00     0.014 C 
HETATM    6  C4  UNL     1      -0.873  -1.335  -1.540  1.00  0.00     0.133 C 
HETATM    7 CL1  UNL     1      -2.021  -0.957  -2.834  1.00  0.00    -0.103 Cl
HETATM    8 BR1  UNL     1       0.883  -1.391  -2.197  1.00  0.00    -0.064 Br
HETATM    9  C5  UNL     1      -1.113  -0.448  -0.318  1.00  0.00     0.144 C 
ENDROOT
BRANCH   9  10
HETATM   10  C6  UNL     1      -1.396   0.951  -0.812  1.00  0.00     0.165 C 
BRANCH  10  11
HETATM   11  N2  UNL     1      -1.783   1.878   0.206  1.00  0.00    -0.357 N 
HETATM   12  C7  UNL     1      -2.087   3.223  -0.145  1.00  0.00     0.227 C 
HETATM   13  O1  UNL     1      -2.013   3.585  -1.342  1.00  0.00    -0.273 OA
ATOM     14  H2  UNL     1      -1.841   1.577   1.179  1.00  0.00     0.162 HD
BRANCH  12  15
HETATM   15  C8  UNL     1      -2.496   4.245   0.849  1.00  0.00     0.187 C 
HETATM   16 BR2  UNL     1      -2.826   5.948   0.017  1.00  0.00    -0.087 Br
ENDBRANCH  12  15
ENDBRANCH  10  11
ENDBRANCH   9  10
BRANCH   9  17
HETATM   17  C9  UNL     1       0.085  -0.375   0.567  1.00  0.00     0.253 C 
HETATM   18  O2  UNL     1       0.022  -0.931   1.690  1.00  0.00    -0.270 OA
HETATM   19  N3  UNL     1       1.261   0.272   0.228  1.00  0.00    -0.324 N 
HETATM   20  C10 UNL     1       2.482   0.074   0.411  1.00  0.00     0.077 C 
ATOM     21  H3  UNL     1       1.088   1.124  -0.305  1.00  0.00     0.169 HD
BRANCH  20  22
HETATM   22  C11 UNL     1       3.438   1.112  -0.178  1.00  0.00     0.058 C 
HETATM   23  C12 UNL     1       4.272   1.733   0.904  1.00  0.00     0.011 C 
ENDBRANCH  20  22
BRANCH  20  24
HETATM   24  C13 UNL     1       3.143  -1.018   1.099  1.00  0.00     0.277 C 
HETATM   25  N4  UNL     1       4.587  -0.994   1.170  1.00  0.00    -0.056 NA
HETATM   26  O3  UNL     1       2.572  -1.991   1.642  1.00  0.00    -0.270 OA
ENDBRANCH  20  24
ENDBRANCH   9  17
TORSDOF 6
