REMARK  12 active torsions:
REMARK  status: ('A' for Active; 'I' for Inactive)
REMARK    1  A    between atoms: C2_2  and  C3_3 
REMARK    2  A    between atoms: C3_3  and  O2_5 
REMARK    3  A    between atoms: O2_5  and  C4_6 
REMARK    4  A    between atoms: C4_6  and  C5_7 
REMARK    5  A    between atoms: C4_6  and  C7_14 
REMARK    6  A    between atoms: C5_7  and  O4_12 
REMARK    7  A    between atoms: N1_8  and  O3_10 
REMARK    8  A    between atoms: C7_14  and  C8_17 
REMARK    9  A    between atoms: C13_22  and  O5_23 
REMARK   10  A    between atoms: O5_23  and  C14_24 
REMARK   11  A    between atoms: C17_27  and  S1_28 
REMARK   12  A    between atoms: S1_28  and  C18_31 
ROOT
HETATM    1  C8  UNL     1      -2.051   0.257  -0.467  1.00  0.00     0.033 A 
HETATM    2  C9  UNL     1      -3.048   0.996  -1.027  1.00  0.00     0.015 A 
HETATM    3  C10 UNL     1      -2.748   2.129  -1.782  1.00  0.00     0.001 A 
HETATM    4  C11 UNL     1      -1.447   2.522  -1.975  1.00  0.00     0.003 A 
HETATM    5  C12 UNL     1      -0.456   1.766  -1.404  1.00  0.00     0.038 A 
HETATM    6  C13 UNL     1      -0.718   0.660  -0.665  1.00  0.00     0.086 A 
ENDROOT
BRANCH   1   7
HETATM    7  C7  UNL     1      -2.248  -0.941   0.354  1.00  0.00     0.242 C 
HETATM    8  F1  UNL     1      -1.367  -1.919  -0.094  1.00  0.00    -0.216 F 
HETATM    9 CL1  UNL     1      -1.572  -0.507   2.000  1.00  0.00    -0.074 Cl
BRANCH   7  10
HETATM   10  C4  UNL     1      -3.606  -1.448   0.604  1.00  0.00     0.268 C 
BRANCH  10  11
HETATM   11  O2  UNL     1      -4.508  -0.476   1.032  1.00  0.00    -0.302 OA
BRANCH  11  12
HETATM   12  C3  UNL     1      -5.146  -0.466   2.262  1.00  0.00     0.259 C 
HETATM   13  O1  UNL     1      -4.889  -1.410   3.052  1.00  0.00    -0.265 OA
BRANCH  12  14
HETATM   14  C2  UNL     1      -6.107   0.628   2.640  1.00  0.00     0.106 C 
HETATM   15  C1  UNL     1      -6.210   1.603   1.508  1.00  0.00     0.015 C 
ENDBRANCH  12  14
ENDBRANCH  11  12
ENDBRANCH  10  11
BRANCH  10  16
HETATM   16  C5  UNL     1      -4.163  -2.339  -0.468  1.00  0.00     0.172 C 
HETATM   17  N1  UNL     1      -4.285  -3.603  -0.283  1.00  0.00    -0.249 N 
ATOM     18  H1  UNL     1      -3.978  -3.932   0.632  1.00  0.00     0.196 HD
BRANCH  17  19
HETATM   19  O3  UNL     1      -4.747  -4.554  -1.091  1.00  0.00    -0.288 OA
ATOM     20  H3  UNL     1      -4.837  -5.490  -0.954  1.00  0.00     0.244 HD
ENDBRANCH  17  19
BRANCH  16  21
HETATM   21  O4  UNL     1      -4.573  -1.871  -1.703  1.00  0.00    -0.341 OA
HETATM   22  C6  UNL     1      -5.810  -2.156  -2.307  1.00  0.00     0.211 C 
ENDBRANCH  16  21
ENDBRANCH  10  16
ENDBRANCH   7  10
ENDBRANCH   1   7
BRANCH   6  23
HETATM   23  O5  UNL     1       0.317  -0.108  -0.083  1.00  0.00    -0.310 OA
BRANCH  23  24
HETATM   24  C14 UNL     1       1.627   0.280  -0.273  1.00  0.00     0.076 A 
HETATM   25  C15 UNL     1       2.389  -0.170  -1.345  1.00  0.00     0.039 A 
HETATM   26  C16 UNL     1       3.691   0.270  -1.457  1.00  0.00     0.026 A 
HETATM   27  C17 UNL     1       4.230   1.135  -0.533  1.00  0.00     0.064 A 
HETATM   28  C24 UNL     1       3.456   1.563   0.513  1.00  0.00     0.026 A 
HETATM   29  C25 UNL     1       2.164   1.152   0.662  1.00  0.00     0.039 A 
BRANCH  27  30
HETATM   30  S1  UNL     1       5.896   1.703  -0.669  1.00  0.00     0.206 S 
HETATM   31  O6  UNL     1       5.969   3.056   0.009  1.00  0.00    -0.217 OA
HETATM   32  O7  UNL     1       6.302   1.853  -2.092  1.00  0.00    -0.217 OA
BRANCH  30  33
HETATM   33  C18 UNL     1       6.988   0.632   0.177  1.00  0.00     0.064 A 
HETATM   34  C19 UNL     1       7.321   0.798   1.505  1.00  0.00     0.024 A 
HETATM   35  C20 UNL     1       8.179  -0.035   2.185  1.00  0.00     0.002 A 
HETATM   36  C21 UNL     1       8.715  -1.088   1.460  1.00  0.00     0.000 A 
HETATM   37  C22 UNL     1       8.410  -1.282   0.150  1.00  0.00     0.002 A 
HETATM   38  C23 UNL     1       7.558  -0.443  -0.503  1.00  0.00     0.024 A 
ENDBRANCH  30  33
ENDBRANCH  27  30
ENDBRANCH  23  24
ENDBRANCH   6  23
TORSDOF 12
