REMARK  14 active torsions:
REMARK  status: ('A' for Active; 'I' for Inactive)
REMARK    1  A    between atoms: C2_2  and  O1_3 
REMARK    2  A    between atoms: C2_2  and  C3_5 
REMARK    3  A    between atoms: C3_5  and  C4_6 
REMARK    4  A    between atoms: C4_6  and  C6_9 
REMARK    5  A    between atoms: C6_9  and  O2_10 
REMARK    6  A    between atoms: C6_9  and  N1_12 
REMARK    7  A    between atoms: N1_12  and  C7_13 
REMARK    8  A    between atoms: N1_12  and  C13_21 
REMARK    9  A    between atoms: C7_13  and  C8_14 
REMARK   10  A    between atoms: C8_14  and  O4_16 
REMARK   11  A    between atoms: O4_16  and  C9_17 
REMARK   12  A    between atoms: C13_21  and  C14_22 
REMARK   13  A    between atoms: N3_25  and  C15_26 
REMARK   14  A    between atoms: N4_31  and  C19_32 
ROOT
HETATM    1  N1  UNL     1       0.559   0.303   0.163  1.00  0.00    -0.347 N 
ENDROOT
BRANCH   1   2
HETATM    2  C6  UNL     1       0.686   1.660   0.505  1.00  0.00     0.138 C 
BRANCH   2   3
HETATM    3  C4  UNL     1       1.652   2.643   0.012  1.00  0.00     0.103 C 
HETATM    4  C5  UNL     1       1.250   3.085  -1.407  1.00  0.00     0.042 C 
HETATM    5 CL1  UNL     1       3.329   2.160  -0.027  1.00  0.00    -0.110 Cl
BRANCH   3   6
HETATM    6  C3  UNL     1       1.576   3.889   0.904  1.00  0.00     0.097 C 
BRANCH   6   7
HETATM    7  C2  UNL     1       2.491   4.959   0.464  1.00  0.00     0.036 C 
HETATM    8  C1  UNL     1       3.449   5.407   1.274  1.00  0.00     0.045 C 
BRANCH   7   9
HETATM    9  O1  UNL     1       2.360   5.506  -0.792  1.00  0.00    -0.366 OA
ATOM     10  H1  UNL     1       1.677   5.187  -1.370  1.00  0.00     0.217 HD
ENDBRANCH   7   9
ENDBRANCH   6   7
ENDBRANCH   3   6
ENDBRANCH   2   3
BRANCH   2  11
HETATM   11  O2  UNL     1      -0.193   2.073   1.375  1.00  0.00    -0.348 OA
ATOM     12  H2  UNL     1      -0.820   1.435   1.695  1.00  0.00     0.219 HD
ENDBRANCH   2  11
ENDBRANCH   1   2
BRANCH   1  13
HETATM   13  C7  UNL     1       1.485  -0.336  -0.703  1.00  0.00     0.236 C 
BRANCH  13  14
HETATM   14  C8  UNL     1       2.589  -1.030  -0.040  1.00  0.00     0.277 C 
HETATM   15  O3  UNL     1       2.612  -1.147   1.200  1.00  0.00    -0.263 OA
BRANCH  14  16
HETATM   16  O4  UNL     1       3.607  -1.555  -0.797  1.00  0.00    -0.310 OA
BRANCH  16  17
HETATM   17  C9  UNL     1       4.723  -2.243  -0.279  1.00  0.00     0.060 C 
HETATM   18  C10 UNL     1       5.544  -1.425   0.660  1.00  0.00     0.045 C 
HETATM   19  C11 UNL     1       5.596  -2.639  -1.457  1.00  0.00     0.045 C 
HETATM   20  C12 UNL     1       4.199  -3.515   0.373  1.00  0.00     0.045 C 
ENDBRANCH  16  17
ENDBRANCH  14  16
ENDBRANCH  13  14
ENDBRANCH   1  13
BRANCH   1  21
HETATM   21  C13 UNL     1      -0.585  -0.431   0.745  1.00  0.00     0.203 C 
BRANCH  21  22
HETATM   22  C14 UNL     1      -1.718  -0.307  -0.168  1.00  0.00     0.119 A 
HETATM   23  N2  UNL     1      -1.694   0.328  -1.346  1.00  0.00    -0.283 N 
HETATM   24  N3  UNL     1      -2.868   0.270  -1.940  1.00  0.00    -0.262 N 
ATOM     25  H2  UNL     1      -0.874   0.795  -1.733  1.00  0.00     0.188 HD
HETATM   26  C18 UNL     1      -3.641  -0.429  -1.090  1.00  0.00     0.197 A 
HETATM   27  S1  UNL     1      -5.211  -0.777  -1.378  1.00  0.00    -0.039 SA
HETATM   28  N4  UNL     1      -2.960  -0.798   0.009  1.00  0.00    -0.305 N 
BRANCH  24  29
HETATM   29  C15 UNL     1      -3.216   0.847  -3.230  1.00  0.00     0.103 C 
HETATM   30  C16 UNL     1      -1.999   0.820  -4.122  1.00  0.00     0.034 C 
HETATM   31  C17 UNL     1      -3.789   2.222  -3.110  1.00  0.00     0.034 C 
ENDBRANCH  24  29
BRANCH  28  32
HETATM   32  C19 UNL     1      -3.474  -1.556   1.127  1.00  0.00     0.094 C 
HETATM   33  C20 UNL     1      -3.766  -0.681   2.329  1.00  0.00     0.026 C 
HETATM   34  C21 UNL     1      -3.939  -1.623   3.511  1.00  0.00     0.002 C 
HETATM   35  C22 UNL     1      -4.506  -2.963   3.057  1.00  0.00     0.000 C 
HETATM   36  C23 UNL     1      -3.550  -3.734   2.201  1.00  0.00     0.002 C 
HETATM   37  C24 UNL     1      -2.617  -2.713   1.530  1.00  0.00     0.026 C 
ENDBRANCH  28  32
ENDBRANCH  21  22
ENDBRANCH   1  21
TORSDOF 14
