REMARK  8 active torsions:
REMARK  status: ('A' for Active; 'I' for Inactive)
REMARK    1  A    between atoms: O1_1  and  N1_3 
REMARK    2  A    between atoms: N1_3  and  N2_5 
REMARK    3  A    between atoms: N2_5  and  C1_7 
REMARK    4  A    between atoms: C2_10  and  C3_11 
REMARK    5  A    between atoms: C3_11  and  C4_12 
REMARK    6  A    between atoms: C4_12  and  C5_13 
REMARK    7  A    between atoms: C5_13  and  C6_14 
REMARK    8  A    between atoms: C6_14  and  C7_15 
ROOT
HETATM    1  C1  UNL     1       4.793   0.508   0.155  1.00  0.00     0.701 A 
HETATM    2  N3  UNL     1       3.472   0.787   0.220  1.00  0.00    -0.194 N 
ATOM      3  H3  UNL     1       3.175   1.761   0.166  1.00  0.00     0.184 HD
HETATM    4  C2  UNL     1       2.541  -0.159   0.352  1.00  0.00     0.032 A 
HETATM    5  C13 UNL     1       2.955  -1.471   0.426  1.00  0.00     0.100 A 
HETATM    6  C14 UNL     1       4.293  -1.796   0.364  1.00  0.00     0.261 A 
HETATM    7  O2  UNL     1       4.661  -3.008   0.432  1.00  0.00    -0.268 OA
HETATM    8  N4  UNL     1       5.173  -0.789   0.230  1.00  0.00    -0.155 N 
ATOM      9  H4  UNL     1       6.167  -1.011   0.183  1.00  0.00     0.187 HD
ENDROOT
BRANCH   4  10
HETATM   10  C3  UNL     1       1.080   0.130   0.423  1.00  0.00     0.058 C 
BRANCH  10  11
HETATM   11  C4  UNL     1       0.435   0.131  -0.918  1.00  0.00     0.006 C 
BRANCH  11  12
HETATM   12  C5  UNL     1      -1.026   0.445  -0.792  1.00  0.00     0.005 C 
BRANCH  12  13
HETATM   13  C6  UNL     1      -1.692  -0.586   0.058  1.00  0.00     0.038 C 
BRANCH  13  14
HETATM   14  C7  UNL     1      -3.174  -0.304   0.185  1.00  0.00    -0.058 A 
HETATM   15  C8  UNL     1      -4.009  -0.858  -0.745  1.00  0.00     0.007 A 
HETATM   16  C9  UNL     1      -5.363  -0.622  -0.660  1.00  0.00     0.001 A 
HETATM   17  C10 UNL     1      -5.860   0.161   0.349  1.00  0.00     0.000 A 
HETATM   18  C11 UNL     1      -5.029   0.720   1.285  1.00  0.00     0.001 A 
HETATM   19  C12 UNL     1      -3.675   0.479   1.193  1.00  0.00     0.007 A 
ENDBRANCH  13  14
ENDBRANCH  12  13
ENDBRANCH  11  12
ENDBRANCH  10  11
ENDBRANCH   4  10
BRANCH   1  20
HETATM   20  N2  UNL     1       5.705   1.386   0.029  1.00  0.00    -0.112 N 
ATOM     21  H2  UNL     1       6.666   1.047  -0.007  1.00  0.00     0.207 HD
BRANCH  20  22
HETATM   22  N1  UNL     1       5.525   2.747  -0.063  1.00  0.00    -0.196 N 
ATOM     23  H1  UNL     1       5.623   3.310   0.782  1.00  0.00     0.216 HD
BRANCH  22  24
HETATM   24  O1  UNL     1       5.251   3.317  -1.121  1.00  0.00    -0.274 OA
ATOM     25  H1  UNL     1       5.127   4.257  -1.185  1.00  0.00     0.246 HD
ENDBRANCH  22  24
ENDBRANCH  20  22
ENDBRANCH   1  20
TORSDOF 8
