REMARK  10 active torsions:
REMARK  status: ('A' for Active; 'I' for Inactive)
REMARK    1  A    between atoms: C2_2  and  C3_3 
REMARK    2  A    between atoms: C4_4  and  C5_5 
REMARK    3  A    between atoms: C5_5  and  C6_6 
REMARK    4  A    between atoms: C6_6  and  C7_7 
REMARK    5  A    between atoms: C7_7  and  C8_8 
REMARK    6  A    between atoms: C11_11  and  C12_12 
REMARK    7  A    between atoms: C12_12  and  C13_13 
REMARK    8  A    between atoms: C13_13  and  C14_14 
REMARK       I    between atoms: N2_20  and  C16_22 
REMARK    9  A    between atoms: C16_22  and  C17_24 
REMARK   10  A    between atoms: C17_24  and  C18_25 
ROOT
HETATM    1  C3  UNL     1       1.927  -0.213  -0.162  1.00  0.00     0.014 A 
HETATM    2  C4  UNL     1       3.073   0.465   0.234  1.00  0.00    -0.041 A 
HETATM    3  C10 UNL     1       3.052   1.835   0.325  1.00  0.00     0.047 A 
HETATM    4  C11 UNL     1       1.907   2.539   0.026  1.00  0.00     0.089 A 
HETATM    5  N1  UNL     1       0.819   1.850  -0.354  1.00  0.00    -0.335 N 
ATOM      6  H1  UNL     1      -0.031   2.368  -0.576  1.00  0.00     0.168 HD
HETATM    7  C15 UNL     1       0.797   0.512  -0.455  1.00  0.00     0.119 A 
HETATM    8  N2  UNL     1      -0.307  -0.062  -0.808  1.00  0.00    -0.312 N 
ATOM      9  H2  UNL     1      -0.369  -1.078  -0.878  1.00  0.00     0.170 HD
HETATM   10  C16 UNL     1      -1.427   0.756  -1.095  1.00  0.00     0.224 C 
HETATM   11  O3  UNL     1      -1.650   1.116  -2.281  1.00  0.00    -0.273 OA
ENDROOT
BRANCH   1  12
HETATM   12  C2  UNL     1       1.958  -1.688  -0.225  1.00  0.00     0.005 C 
HETATM   13  C1  UNL     1       1.205  -2.473  -0.909  1.00  0.00     0.012 C 
ENDBRANCH   1  12
BRANCH   2  14
HETATM   14  C5  UNL     1       4.337  -0.291   0.544  1.00  0.00     0.040 C 
BRANCH  14  15
HETATM   15  C6  UNL     1       5.003  -0.678  -0.740  1.00  0.00     0.005 C 
BRANCH  15  16
HETATM   16  C7  UNL     1       6.278  -1.413  -0.454  1.00  0.00    -0.000 C 
BRANCH  16  17
HETATM   17  C8  UNL     1       5.986  -2.669   0.311  1.00  0.00    -0.005 C 
HETATM   18  C9  UNL     1       7.341  -3.348   0.535  1.00  0.00     0.005 C 
ENDBRANCH  16  17
ENDBRANCH  15  16
ENDBRANCH  14  15
ENDBRANCH   2  14
BRANCH   4  19
HETATM   19  C12 UNL     1       1.877   3.968   0.117  1.00  0.00    -0.037 C 
BRANCH  19  20
HETATM   20  C13 UNL     1       1.872   5.171   0.193  1.00  0.00     0.012 C 
BRANCH  20  21
HETATM   21  C14 UNL     1       1.890   6.609   0.281  1.00  0.00     0.258 C 
HETATM   22  O1  UNL     1       0.815   7.258   0.317  1.00  0.00    -0.637 OA
HETATM   23  O2  UNL     1       3.113   7.304   0.329  1.00  0.00    -0.637 OA
ENDBRANCH  20  21
ENDBRANCH  19  20
ENDBRANCH   4  19
BRANCH  10  24
HETATM   24  C17 UNL     1      -2.319   1.181  -0.024  1.00  0.00     0.112 C 
BRANCH  24  25
HETATM   25  C18 UNL     1      -3.534   0.289   0.025  1.00  0.00    -0.031 C 
HETATM   26  C19 UNL     1      -4.288   0.334  -1.269  1.00  0.00     0.014 C 
HETATM   27  C20 UNL     1      -5.572  -0.487  -1.136  1.00  0.00    -0.013 C 
HETATM   28  C21 UNL     1      -6.412   0.110  -0.056  1.00  0.00     0.009 C 
HETATM   29  C25 UNL     1      -5.138  -1.903  -0.848  1.00  0.00     0.009 C 
HETATM   30  C22 UNL     1      -5.646   0.042   1.248  1.00  0.00    -0.013 C 
HETATM   31  C23 UNL     1      -5.299  -1.380   1.539  1.00  0.00     0.009 C 
HETATM   32  C27 UNL     1      -4.416   0.873   1.129  1.00  0.00     0.014 C 
HETATM   33  C24 UNL     1      -4.402  -1.959   0.473  1.00  0.00    -0.013 C 
HETATM   34  C26 UNL     1      -3.151  -1.110   0.408  1.00  0.00     0.014 C 
ENDBRANCH  24  25
ENDBRANCH  10  24
TORSDOF 10
