REMARK  6 active torsions:
REMARK  status: ('A' for Active; 'I' for Inactive)
REMARK    1  A    between atoms: N1_6  and  C6_7 
REMARK    2  A    between atoms: C6_7  and  C7_8 
REMARK    3  A    between atoms: C7_8  and  C8_9 
REMARK    4  A    between atoms: C8_9  and  N2_10 
REMARK       I    between atoms: N2_10  and  C9_12 
REMARK       I    between atoms: C9_12  and  N3_14 
REMARK    5  A    between atoms: N3_14  and  C10_16 
REMARK    6  A    between atoms: C21_27  and  N4_28 
ROOT
HETATM    1  C8  UNL     1       0.704  -2.181  -1.614  1.00  0.00     0.126 C 
ENDROOT
BRANCH   1   2
HETATM    2  C7  UNL     1      -0.772  -1.854  -1.584  1.00  0.00     0.048 C 
BRANCH   2   3
HETATM    3  C6  UNL     1      -1.259  -1.698  -0.186  1.00  0.00     0.239 C 
BRANCH   3   4
HETATM    4  N1  UNL     1      -2.609  -1.393  -0.013  1.00  0.00    -0.061 N 
HETATM    5  C2  UNL     1      -3.524  -1.857  -1.022  1.00  0.00     0.192 C 
HETATM    6  C1  UNL     1      -3.621  -3.352  -1.112  1.00  0.00     0.041 C 
HETATM    7  C3  UNL     1      -4.803  -1.263  -0.392  1.00  0.00     0.053 C 
HETATM    8  C4  UNL     1      -4.721  -1.907   0.971  1.00  0.00     0.037 C 
HETATM    9  C21 UNL     1      -4.364   0.178  -0.368  1.00  0.00     0.255 C 
HETATM   10  C5  UNL     1      -3.217  -1.957   1.195  1.00  0.00     0.238 C 
HETATM   11  C20 UNL     1      -2.909   0.043   0.036  1.00  0.00     0.274 C 
BRANCH   9  12
HETATM   12  N4  UNL     1      -5.116   0.992   0.547  1.00  0.00     0.095 N 
HETATM   13  C22 UNL     1      -4.585   2.340   0.472  1.00  0.00     0.273 C 
HETATM   14  C23 UNL     1      -5.642   3.364   0.193  1.00  0.00     0.030 C 
HETATM   15  C24 UNL     1      -6.835   3.279   1.086  1.00  0.00     0.003 C 
HETATM   16  C25 UNL     1      -7.221   1.833   1.273  1.00  0.00     0.030 C 
HETATM   17  C26 UNL     1      -6.494   1.037   0.187  1.00  0.00     0.273 C 
ENDBRANCH   9  12
ENDBRANCH   3   4
ENDBRANCH   2   3
ENDBRANCH   1   2
BRANCH   1  18
HETATM   18  N2  UNL     1       1.507  -1.136  -0.992  1.00  0.00    -0.343 N 
HETATM   19  C9  UNL     1       2.908  -1.296  -0.941  1.00  0.00     0.316 C 
HETATM   20  O1  UNL     1       3.455  -2.330  -1.427  1.00  0.00    -0.247 OA
HETATM   21  N3  UNL     1       3.698  -0.284  -0.339  1.00  0.00    -0.338 N 
ATOM     22  H3  UNL     1       3.260   0.550   0.052  1.00  0.00     0.164 HD
ATOM     23  H2  UNL     1       1.065  -0.304  -0.601  1.00  0.00     0.164 HD
BRANCH  21  24
HETATM   24  C10 UNL     1       5.123  -0.450  -0.288  1.00  0.00     0.094 C 
HETATM   25  C11 UNL     1       5.810   0.660  -1.057  1.00  0.00     0.009 C 
HETATM   26  C12 UNL     1       5.565   2.011  -0.444  1.00  0.00     0.011 C 
HETATM   27  C16 UNL     1       7.294   0.384  -1.047  1.00  0.00     0.011 C 
HETATM   28  C13 UNL     1       6.088   2.032   0.971  1.00  0.00    -0.013 C 
HETATM   29  C14 UNL     1       7.559   1.755   0.985  1.00  0.00     0.009 C 
HETATM   30  C19 UNL     1       5.357   0.962   1.751  1.00  0.00     0.011 C 
HETATM   31  C15 UNL     1       7.813   0.393   0.363  1.00  0.00    -0.013 C 
HETATM   32  C17 UNL     1       7.092  -0.661   1.159  1.00  0.00     0.011 C 
HETATM   33  C18 UNL     1       5.618  -0.400   1.127  1.00  0.00     0.009 C 
ENDBRANCH  21  24
ENDBRANCH   1  18
TORSDOF 6
