REMARK  7 active torsions:
REMARK  status: ('A' for Active; 'I' for Inactive)
REMARK    1  A    between atoms: C12_15  and  C13_16 
REMARK    2  A    between atoms: C13_16  and  C14_17 
REMARK       I    between atoms: C14_17  and  N2_19 
REMARK    3  A    between atoms: N2_19  and  C15_21 
REMARK    4  A    between atoms: C15_21  and  C16_22 
REMARK    5  A    between atoms: C16_22  and  C17_23 
REMARK    6  A    between atoms: C17_23  and  C18_24 
REMARK    7  A    between atoms: C18_24  and  N3_25 
ROOT
HETATM    1  C1  UNL     1      -7.472   2.964   0.158  1.00  0.00     0.040 C 
HETATM    2  C2  UNL     1      -7.331   1.522   0.492  1.00  0.00     0.189 C 
HETATM    3  N1  UNL     1      -6.862   0.666  -0.611  1.00  0.00    -0.061 N 
ATOM      4  H11 UNL     1      -6.385   1.059  -1.423  1.00  0.00     0.278 HD
ATOM      5  H12 UNL     1      -7.518   0.216  -1.250  1.00  0.00     0.278 HD
HETATM    6  C3  UNL     1      -6.148  -0.089   0.384  1.00  0.00     0.132 C 
HETATM    7  C4  UNL     1      -6.966  -1.164   1.069  1.00  0.00     0.047 C 
HETATM    8  C5  UNL     1      -6.028   1.147   1.200  1.00  0.00     0.052 C 
HETATM    9  C6  UNL     1      -4.863   2.006   0.912  1.00  0.00     0.010 C 
HETATM   10  C7  UNL     1      -4.157   1.763  -0.364  1.00  0.00     0.006 C 
HETATM   11  C8  UNL     1      -3.966   0.364  -0.771  1.00  0.00    -0.003 C 
HETATM   12  C9  UNL     1      -2.543  -0.108  -0.725  1.00  0.00    -0.002 C 
HETATM   13  C10 UNL     1      -1.896   0.083   0.612  1.00  0.00     0.006 C 
HETATM   14  C11 UNL     1      -0.384   0.055   0.348  1.00  0.00     0.005 C 
HETATM   15  C12 UNL     1       0.002  -1.190  -0.362  1.00  0.00    -0.005 C 
HETATM   16  C22 UNL     1      -1.105  -2.156  -0.612  1.00  0.00     0.014 C 
HETATM   17  C23 UNL     1      -2.372  -1.525  -1.144  1.00  0.00    -0.040 C 
HETATM   18  C24 UNL     1      -2.274  -1.547  -2.670  1.00  0.00     0.015 C 
HETATM   19  C25 UNL     1      -3.479  -2.452  -0.771  1.00  0.00     0.010 C 
HETATM   20  C26 UNL     1      -4.842  -1.875  -0.799  1.00  0.00     0.008 C 
HETATM   21  C27 UNL     1      -4.803  -0.592   0.028  1.00  0.00     0.026 C 
ENDROOT
BRANCH  15  22
HETATM   22  C13 UNL     1       1.063  -1.889   0.465  1.00  0.00     0.107 C 
BRANCH  22  23
HETATM   23  C14 UNL     1       2.278  -1.043   0.651  1.00  0.00     0.217 C 
HETATM   24  O1  UNL     1       2.343   0.107   0.142  1.00  0.00    -0.274 OA
HETATM   25  N2  UNL     1       3.337  -1.558   1.401  1.00  0.00    -0.361 N 
ATOM     26  H2  UNL     1       3.238  -2.492   1.798  1.00  0.00     0.162 HD
BRANCH  25  27
HETATM   27  C15 UNL     1       4.546  -0.851   1.642  1.00  0.00     0.122 C 
BRANCH  27  28
HETATM   28  C16 UNL     1       5.280  -0.552   0.368  1.00  0.00     0.021 C 
BRANCH  28  29
HETATM   29  C17 UNL     1       6.578   0.194   0.637  1.00  0.00     0.029 C 
BRANCH  29  30
HETATM   30  C18 UNL     1       7.255   0.455  -0.706  1.00  0.00     0.236 C 
BRANCH  30  31
HETATM   31  N3  UNL     1       8.501   1.164  -0.530  1.00  0.00    -0.079 N 
HETATM   32  C19 UNL     1       8.954   1.725  -1.773  1.00  0.00     0.271 C 
HETATM   33  C20 UNL     1       9.535   0.295  -0.013  1.00  0.00     0.271 C 
HETATM   34  C21 UNL     1       8.243   2.241   0.436  1.00  0.00     0.271 C 
ENDBRANCH  30  31
ENDBRANCH  29  30
ENDBRANCH  28  29
ENDBRANCH  27  28
ENDBRANCH  25  27
ENDBRANCH  22  23
ENDBRANCH  15  22
TORSDOF 7
