REMARK  7 active torsions:
REMARK  status: ('A' for Active; 'I' for Inactive)
REMARK    1  A    between atoms: C6_7  and  C7_8 
REMARK    2  A    between atoms: C7_8  and  C8_9 
REMARK    3  A    between atoms: C8_9  and  C9_10 
REMARK    4  A    between atoms: C9_10  and  C10_11 
REMARK    5  A    between atoms: C10_11  and  N2_12 
REMARK    6  A    between atoms: N3_15  and  C12_16 
REMARK    7  A    between atoms: C12_16  and  C13_17 
ROOT
HETATM    1  N2  UNL     1      -0.119   1.122   0.608  1.00  0.00    -0.309 N 
HETATM    2  C11 UNL     1       0.057  -0.241   0.918  1.00  0.00     0.183 A 
HETATM    3  S1  UNL     1       1.328  -1.273   1.143  1.00  0.00    -0.040 SA
HETATM    4  N3  UNL     1      -1.378  -0.405   1.000  1.00  0.00    -0.309 N 
HETATM    5  C18 UNL     1      -1.560   0.945   0.694  1.00  0.00     0.116 A 
HETATM    6  C19 UNL     1      -2.600   1.717   0.537  1.00  0.00    -0.035 C 
HETATM    7  C20 UNL     1      -2.422   3.177   0.177  1.00  0.00     0.038 C 
HETATM    8  C21 UNL     1      -3.793   3.749  -0.209  1.00  0.00     0.004 C 
HETATM    9  C22 UNL     1      -4.786   3.657   0.903  1.00  0.00     0.001 C 
HETATM   10  C23 UNL     1      -4.695   2.338   1.623  1.00  0.00     0.004 C 
HETATM   11  C24 UNL     1      -4.009   1.348   0.667  1.00  0.00     0.038 C 
ENDROOT
BRANCH   1  12
HETATM   12  C10 UNL     1       0.694   2.261   0.293  1.00  0.00     0.133 C 
BRANCH  12  13
HETATM   13  C9  UNL     1       1.344   2.307  -1.014  1.00  0.00     0.020 C 
BRANCH  13  14
HETATM   14  C8  UNL     1       2.384   1.325  -1.397  1.00  0.00     0.004 C 
BRANCH  14  15
HETATM   15  C7  UNL     1       3.601   1.346  -0.552  1.00  0.00     0.036 C 
BRANCH  15  16
HETATM   16  C6  UNL     1       4.659   0.403  -1.027  1.00  0.00     0.222 C 
HETATM   17  N1  UNL     1       4.346  -0.968  -1.093  1.00  0.00     0.088 N 
HETATM   18  C1  UNL     1       3.678  -1.394  -2.319  1.00  0.00     0.310 C 
HETATM   19  C2  UNL     1       5.522  -1.779  -0.861  1.00  0.00     0.272 C 
HETATM   20  C3  UNL     1       5.849  -1.725   0.619  1.00  0.00     0.030 C 
HETATM   21  C4  UNL     1       5.861  -0.271   1.084  1.00  0.00     0.004 C 
HETATM   22  C5  UNL     1       5.932   0.586  -0.178  1.00  0.00     0.036 C 
ENDBRANCH  15  16
ENDBRANCH  14  15
ENDBRANCH  13  14
ENDBRANCH  12  13
ENDBRANCH   1  12
BRANCH   4  23
HETATM   23  C12 UNL     1      -2.078  -1.633   1.301  1.00  0.00     0.137 C 
BRANCH  23  24
HETATM   24  C13 UNL     1      -1.937  -2.635   0.169  1.00  0.00     0.007 C 
HETATM   25  C14 UNL     1      -2.506  -2.095  -1.112  1.00  0.00     0.025 C 
HETATM   26  C15 UNL     1      -3.950  -2.429  -1.300  1.00  0.00     0.114 C 
HETATM   27  N4  UNL     1      -4.665  -2.774  -0.118  1.00  0.00    -0.421 N 
HETATM   28  C16 UNL     1      -4.078  -3.817   0.664  1.00  0.00     0.114 C 
ATOM     29  H4  UNL     1      -5.533  -2.311   0.151  1.00  0.00     0.153 HD
HETATM   30  C17 UNL     1      -2.598  -3.941   0.481  1.00  0.00     0.025 C 
ENDBRANCH  23  24
ENDBRANCH   4  23
TORSDOF 7
