REMARK  0 active torsions:
REMARK  status: ('A' for Active; 'I' for Inactive)
ROOT
HETATM    1  N1  UNL     1       3.172   0.297  -0.239  1.00  0.00    -0.388 N 
ATOM      2  H11 UNL     1       3.611   1.195  -0.037  1.00  0.00     0.157 HD
ATOM      3  H12 UNL     1       3.742  -0.468  -0.602  1.00  0.00     0.157 HD
HETATM    4  C1  UNL     1       1.921   0.151  -0.032  1.00  0.00     0.101 C 
HETATM    5  S1  UNL     1       1.154  -1.419  -0.385  1.00  0.00    -0.104 SA
HETATM    6  C2  UNL     1      -0.597  -1.245   0.138  1.00  0.00     0.102 C 
HETATM    7  C3  UNL     1      -1.215   0.010  -0.355  1.00  0.00     0.101 C 
HETATM    8 CL1  UNL     1      -2.996  -0.169  -0.174  1.00  0.00    -0.123 Cl
HETATM    9  C4  UNL     1      -0.823   1.247   0.387  1.00  0.00     0.102 C 
HETATM   10  S2  UNL     1       0.939   1.469   0.593  1.00  0.00    -0.104 SA
ENDROOT
TORSDOF 0
