REMARK  0 active torsions:
REMARK  status: ('A' for Active; 'I' for Inactive)
ROOT
HETATM    1  C1  UNL     1      -0.587  -0.177  -0.632  1.00  0.00     0.012 C 
HETATM    2  C2  UNL     1       0.377  -0.993   0.160  1.00  0.00     0.012 C 
HETATM    3  C3  UNL     1       1.764  -0.381   0.032  1.00  0.00     0.087 C 
HETATM    4  S1  UNL     1       1.885   1.238   0.781  1.00  0.00    -0.086 SA
HETATM    5  S2  UNL     1       0.454   2.614   0.168  1.00  0.00    -0.025 SA
HETATM    6  S3  UNL     1      -1.535   2.045   0.665  1.00  0.00    -0.086 SA
HETATM    7  C4  UNL     1      -1.762   0.300   0.206  1.00  0.00     0.087 C 
ENDROOT
TORSDOF 0
