REMARK  1 active torsions:
REMARK  status: ('A' for Active; 'I' for Inactive)
REMARK    1  A    between atoms: O1_1  and  N1_3 
ROOT
HETATM    1  N1  UNL     1       2.041  -0.656  -0.101  1.00  0.00    -0.275 N 
ATOM      2  H1  UNL     1       2.106  -1.576  -0.537  1.00  0.00     0.193 HD
HETATM    3  C1  UNL     1       0.942  -0.048  -0.244  1.00  0.00     0.038 C 
HETATM    4  C2  UNL     1      -0.127  -0.723  -1.020  1.00  0.00     0.058 C 
HETATM    5  C3  UNL     1      -1.415  -0.884  -0.278  1.00  0.00     0.016 C 
HETATM    6  C4  UNL     1      -1.939   0.366   0.345  1.00  0.00     0.076 C 
HETATM    7  S1  UNL     1      -0.705   1.118   1.459  1.00  0.00    -0.143 SA
HETATM    8  C5  UNL     1       0.759   1.294   0.352  1.00  0.00     0.190 C 
HETATM    9 CL1  UNL     1       2.129   1.896   1.231  1.00  0.00    -0.107 Cl
ENDROOT
BRANCH   1  10
HETATM   10  O1  UNL     1       3.133  -0.235   0.557  1.00  0.00    -0.290 OA
ATOM     11  H1  UNL     1       3.959  -0.692   0.664  1.00  0.00     0.244 HD
ENDBRANCH   1  10
TORSDOF 1
