REMARK  10 active torsions:
REMARK  status: ('A' for Active; 'I' for Inactive)
REMARK    1  A    between atoms: O1_2  and  C2_3 
REMARK    2  A    between atoms: C2_3  and  C3_4 
REMARK    3  A    between atoms: C3_4  and  N1_5 
REMARK       I    between atoms: N2_8  and  C6_9 
REMARK       I    between atoms: C6_9  and  N3_11 
REMARK    4  A    between atoms: N3_11  and  C7_13 
REMARK       I    between atoms: N4_16  and  C10_17 
REMARK       I    between atoms: C10_17  and  N5_19 
REMARK    5  A    between atoms: N5_19  and  C11_21 
REMARK    6  A    between atoms: C11_21  and  C12_22 
REMARK    7  A    between atoms: C12_22  and  N6_23 
REMARK    8  A    between atoms: N6_23  and  N7_24 
REMARK       I    between atoms: N7_24  and  C13_26 
REMARK    9  A    between atoms: C14_31  and  O4_32 
REMARK   10  A    between atoms: C15_34  and  C16_35 
ROOT
HETATM    1  C7  UNL     1       0.536   2.344   1.746  1.00  0.00     0.136 C 
HETATM    2  C8  UNL     1       0.820   2.500   3.239  1.00  0.00     0.049 C 
HETATM    3  C9  UNL     1       1.714   1.349   3.551  1.00  0.00     0.132 C 
HETATM    4  N4  UNL     1       2.353   0.994   2.317  1.00  0.00    -0.305 N 
HETATM    5  C10 UNL     1       3.425   0.044   2.183  1.00  0.00     0.320 C 
HETATM    6  O3  UNL     1       3.846  -0.538   3.216  1.00  0.00    -0.247 OA
HETATM    7  N5  UNL     1       3.971  -0.202   0.896  1.00  0.00    -0.342 N 
ATOM      8  H5  UNL     1       3.606   0.287   0.079  1.00  0.00     0.164 HD
HETATM    9  C14 UNL     1       1.777   1.717   1.227  1.00  0.00     0.247 C 
ENDROOT
BRANCH   1  10
HETATM   10  N3  UNL     1      -0.635   1.508   1.621  1.00  0.00    -0.334 N 
HETATM   11  C6  UNL     1      -1.783   2.001   0.951  1.00  0.00     0.319 C 
HETATM   12  N2  UNL     1      -2.939   1.236   0.802  1.00  0.00    -0.318 N 
HETATM   13  O2  UNL     1      -1.645   3.193   0.511  1.00  0.00    -0.247 OA
HETATM   14  C5  UNL     1      -2.943  -0.169   1.281  1.00  0.00     0.158 C 
HETATM   15  C15 UNL     1      -4.179   1.606   0.210  1.00  0.00     0.206 C 
HETATM   16  C4  UNL     1      -3.881  -0.970   0.381  1.00  0.00     0.292 C 
HETATM   17  N1  UNL     1      -3.889  -0.514  -0.951  1.00  0.00     0.094 N 
HETATM   18  C17 UNL     1      -4.236   0.879  -1.123  1.00  0.00     0.307 C 
ATOM     19  H3  UNL     1      -0.636   0.566   2.013  1.00  0.00     0.164 HD
BRANCH  17  20
HETATM   20  C3  UNL     1      -4.540  -1.298  -1.917  1.00  0.00     0.298 C 
BRANCH  20  21
HETATM   21  C2  UNL     1      -6.018  -1.421  -1.845  1.00  0.00     0.197 C 
BRANCH  21  22
HETATM   22  O1  UNL     1      -6.544  -2.015  -0.733  1.00  0.00    -0.394 OA
HETATM   23  C1  UNL     1      -6.246  -3.343  -0.551  1.00  0.00     0.201 C 
ENDBRANCH  21  22
ENDBRANCH  20  21
ENDBRANCH  17  20
BRANCH  15  24
HETATM   24  C16 UNL     1      -4.566   2.990   0.046  1.00  0.00     0.256 C 
HETATM   25  N10 UNL     1      -5.519   3.373  -0.991  1.00  0.00    -0.060 NA
HETATM   26  O5  UNL     1      -4.145   3.931   0.738  1.00  0.00    -0.275 OA
ENDBRANCH  15  24
ENDBRANCH   1  10
BRANCH   9  27
HETATM   27  O4  UNL     1       2.675   2.644   0.690  1.00  0.00    -0.374 OA
ATOM     28  H4  UNL     1       3.469   2.243   0.358  1.00  0.00     0.212 HD
ENDBRANCH   9  27
BRANCH   7  29
HETATM   29  C11 UNL     1       5.048  -1.152   0.758  1.00  0.00     0.142 C 
BRANCH  29  30
HETATM   30  C12 UNL     1       5.464  -1.245  -0.671  1.00  0.00     0.154 C 
BRANCH  30  31
HETATM   31  N6  UNL     1       6.534  -2.159  -0.924  1.00  0.00    -0.137 NA
BRANCH  31  32
HETATM   32  N7  UNL     1       6.886  -2.204  -2.270  1.00  0.00    -0.278 N 
HETATM   33  C13 UNL     1       8.189  -2.057  -2.784  1.00  0.00     0.197 C 
HETATM   34  N8  UNL     1       8.716  -2.983  -3.531  1.00  0.00    -0.373 N 
HETATM   35  N9  UNL     1       8.906  -0.880  -2.472  1.00  0.00    -0.063 NA
ATOM     36  H82 UNL     1       8.198  -3.833  -3.756  1.00  0.00     0.158 HD
ATOM     37  H81 UNL     1       9.660  -2.877  -3.903  1.00  0.00     0.158 HD
ATOM     38  H7  UNL     1       6.135  -2.357  -2.943  1.00  0.00     0.185 HD
ENDBRANCH  31  32
ENDBRANCH  30  31
ENDBRANCH  29  30
ENDBRANCH   7  29
TORSDOF 10
