REMARK  16 active torsions:
REMARK  status: ('A' for Active; 'I' for Inactive)
REMARK    1  A    between atoms: N1_2  and  C4_5 
REMARK    2  A    between atoms: C5_6  and  C6_7 
REMARK       I    between atoms: C6_7  and  N2_9 
REMARK    3  A    between atoms: N2_9  and  C7_11 
REMARK    4  A    between atoms: C7_11  and  O2_12 
REMARK    5  A    between atoms: C7_11  and  C8_14 
REMARK    6  A    between atoms: C8_14  and  O3_15 
REMARK    7  A    between atoms: C8_14  and  C9_17 
REMARK    8  A    between atoms: C9_17  and  O4_18 
REMARK    9  A    between atoms: C9_17  and  C10_20 
REMARK   10  A    between atoms: C10_20  and  O5_21 
REMARK   11  A    between atoms: C12_24  and  N3_25 
REMARK   12  A    between atoms: C15_29  and  C16_30 
REMARK   13  A    between atoms: C16_30  and  C17_31 
REMARK   14  A    between atoms: C17_31  and  O7_32 
REMARK   15  A    between atoms: C18_34  and  O8_35 
REMARK   16  A    between atoms: C19_37  and  O9_38 
ROOT
HETATM    1  C4  UNL     1      -0.414  -2.212   0.364  1.00  0.00     0.233 C 
HETATM    2  C5  UNL     1       0.260  -0.933   0.664  1.00  0.00     0.113 C 
HETATM    3  C11 UNL     1      -0.841   0.106   0.903  1.00  0.00     0.044 C 
HETATM    4  C12 UNL     1      -1.813   0.177  -0.226  1.00  0.00     0.119 C 
HETATM    5  C18 UNL     1      -2.239  -1.117  -0.793  1.00  0.00     0.171 C 
HETATM    6  C19 UNL     1      -1.136  -2.143  -0.928  1.00  0.00     0.180 C 
ENDROOT
BRANCH   2   7
HETATM    7  C6  UNL     1       1.264  -0.438  -0.281  1.00  0.00     0.226 C 
HETATM    8  O1  UNL     1       1.612  -1.092  -1.275  1.00  0.00    -0.273 OA
HETATM    9  N2  UNL     1       1.910   0.842  -0.109  1.00  0.00    -0.332 N 
ATOM     10  H2  UNL     1       1.657   1.418   0.694  1.00  0.00     0.165 HD
BRANCH   9  11
HETATM   11  C7  UNL     1       2.889   1.328  -1.024  1.00  0.00     0.251 C 
BRANCH  11  12
HETATM   12  O2  UNL     1       2.542   2.515  -1.624  1.00  0.00    -0.374 OA
ATOM     13  H2  UNL     1       3.194   2.839  -2.234  1.00  0.00     0.212 HD
ENDBRANCH  11  12
BRANCH  11  14
HETATM   14  C8  UNL     1       4.288   1.445  -0.466  1.00  0.00     0.197 C 
BRANCH  14  15
HETATM   15  O3  UNL     1       5.074   1.935  -1.546  1.00  0.00    -0.389 OA
ATOM     16  H3  UNL     1       5.954   2.009  -1.195  1.00  0.00     0.210 HD
ENDBRANCH  14  15
BRANCH  14  17
HETATM   17  C9  UNL     1       4.440   2.446   0.628  1.00  0.00     0.174 C 
BRANCH  17  18
HETATM   18  O4  UNL     1       3.715   2.042   1.743  1.00  0.00    -0.391 OA
ATOM     19  H4  UNL     1       3.812   2.680   2.440  1.00  0.00     0.210 HD
ENDBRANCH  17  18
BRANCH  17  20
HETATM   20  C10 UNL     1       5.906   2.443   1.042  1.00  0.00     0.198 C 
BRANCH  20  21
HETATM   21  O5  UNL     1       6.250   1.139   1.434  1.00  0.00    -0.398 OA
ATOM     22  H5  UNL     1       7.164   1.137   1.692  1.00  0.00     0.209 HD
ENDBRANCH  20  21
ENDBRANCH  17  20
ENDBRANCH  14  17
ENDBRANCH  11  14
ENDBRANCH   9  11
ENDBRANCH   2   7
BRANCH   1  23
HETATM   23  N1  UNL     1       0.341  -3.396   0.618  1.00  0.00    -0.071 N 
HETATM   24  C1  UNL     1       1.265  -3.142   1.717  1.00  0.00     0.272 C 
HETATM   25  C2  UNL     1      -0.593  -4.410   1.142  1.00  0.00     0.272 C 
HETATM   26  C3  UNL     1       0.994  -4.003  -0.493  1.00  0.00     0.272 C 
ENDBRANCH   1  23
BRANCH   6  27
HETATM   27  O9  UNL     1      -1.770  -3.374  -1.187  1.00  0.00    -0.391 OA
ATOM     28  H9  UNL     1      -2.233  -3.330  -2.015  1.00  0.00     0.210 HD
ENDBRANCH   6  27
BRANCH   4  29
HETATM   29  N3  UNL     1      -2.997   0.879   0.257  1.00  0.00    -0.340 N 
HETATM   30  C13 UNL     1      -3.996   0.634   1.232  1.00  0.00     0.222 C 
HETATM   31  O6  UNL     1      -4.052   0.033   2.322  1.00  0.00    -0.273 OA
HETATM   32  C14 UNL     1      -4.947   1.399   0.398  1.00  0.00     0.128 C 
HETATM   33  C15 UNL     1      -3.685   2.131  -0.037  1.00  0.00     0.098 C 
BRANCH  33  34
HETATM   34  C16 UNL     1      -3.653   2.547  -1.470  1.00  0.00     0.051 C 
BRANCH  34  35
HETATM   35  C17 UNL     1      -4.403   3.851  -1.600  1.00  0.00     0.166 C 
BRANCH  35  36
HETATM   36  O7  UNL     1      -5.711   3.680  -1.187  1.00  0.00    -0.401 OA
ATOM     37  H7  UNL     1      -6.183   4.500  -1.269  1.00  0.00     0.209 HD
ENDBRANCH  35  36
ENDBRANCH  34  35
ENDBRANCH  33  34
ENDBRANCH   4  29
BRANCH   5  38
HETATM   38  O8  UNL     1      -3.286  -1.733  -0.109  1.00  0.00    -0.391 OA
ATOM     39  H8  UNL     1      -3.560  -2.566  -0.474  1.00  0.00     0.210 HD
ENDBRANCH   5  38
TORSDOF 16
