REMARK  15 active torsions:
REMARK  status: ('A' for Active; 'I' for Inactive)
REMARK    1  A    between atoms: N2_6  and  C2_7 
REMARK    2  A    between atoms: C2_7  and  C3_8 
REMARK    3  A    between atoms: C3_8  and  O2_9 
REMARK    4  A    between atoms: C3_8  and  C4_11 
REMARK    5  A    between atoms: C4_11  and  O3_12 
REMARK    6  A    between atoms: C6_15  and  C7_16 
REMARK    7  A    between atoms: N5_21  and  C8_22 
REMARK    8  A    between atoms: C9_25  and  C10_26 
REMARK       I    between atoms: C10_26  and  N7_28 
REMARK    9  A    between atoms: N7_28  and  C11_30 
REMARK   10  A    between atoms: C13_34  and  C14_35 
REMARK   11  A    between atoms: C14_35  and  N10_36 
REMARK   12  A    between atoms: C16_38  and  C17_39 
REMARK   13  A    between atoms: C17_39  and  O5_40 
REMARK   14  A    between atoms: C17_39  and  O6_42 
REMARK   15  A    between atoms: C18_48  and  O8_49 
ROOT
HETATM    1  C8  UNL     1      -1.351  -0.672  -3.308  1.00  0.00     0.256 A 
HETATM    2  N6  UNL     1      -0.123  -0.744  -2.751  1.00  0.00    -0.312 N 
ATOM      3  H6  UNL     1       0.373   0.040  -2.326  1.00  0.00     0.170 HD
HETATM    4  C9  UNL     1       0.348  -1.991  -2.838  1.00  0.00     0.163 A 
HETATM    5  C18 UNL     1      -0.646  -2.720  -3.482  1.00  0.00     0.219 A 
HETATM    6  O9  UNL     1      -1.618  -1.898  -3.735  1.00  0.00    -0.252 OA
ENDROOT
BRANCH   4   7
HETATM    7  C10 UNL     1       1.626  -2.490  -2.366  1.00  0.00     0.275 C 
HETATM    8  O4  UNL     1       1.902  -3.703  -2.539  1.00  0.00    -0.266 OA
HETATM    9  N7  UNL     1       2.571  -1.679  -1.725  1.00  0.00    -0.328 N 
ATOM     10  H7  UNL     1       2.352  -0.693  -1.582  1.00  0.00     0.165 HD
BRANCH   9  11
HETATM   11  C11 UNL     1       3.847  -2.181  -1.257  1.00  0.00     0.241 C 
HETATM   12  C12 UNL     1       4.975  -1.642  -2.096  1.00  0.00     0.184 C 
HETATM   13  N8  UNL     1       6.269  -1.853  -1.517  1.00  0.00    -0.142 NA
HETATM   14  N9  UNL     1       6.224  -2.595  -0.335  1.00  0.00    -0.114 NA
HETATM   15  C13 UNL     1       5.298  -1.927   0.549  1.00  0.00     0.252 C 
HETATM   16  O7  UNL     1       4.010  -2.055   0.083  1.00  0.00    -0.341 OA
BRANCH  15  17
HETATM   17  C14 UNL     1       5.692  -0.487   0.801  1.00  0.00     0.196 C 
BRANCH  17  18
HETATM   18  N10 UNL     1       4.696   0.088   1.704  1.00  0.00    -0.281 N 
HETATM   19  C15 UNL     1       4.782   0.071   3.063  1.00  0.00     0.139 A 
HETATM   20  C16 UNL     1       3.677   0.702   3.609  1.00  0.00     0.095 A 
HETATM   21  N11 UNL     1       2.946   1.086   2.537  1.00  0.00    -0.282 N 
HETATM   22  N12 UNL     1       3.569   0.711   1.412  1.00  0.00    -0.020 NA
ATOM     23  H11 UNL     1       2.057   1.584   2.579  1.00  0.00     0.184 HD
BRANCH  20  24
HETATM   24  C17 UNL     1       3.399   0.892   5.055  1.00  0.00     0.307 C 
BRANCH  24  25
HETATM   25  O5  UNL     1       2.974   2.226   5.245  1.00  0.00    -0.366 OA
ATOM     26  H5  UNL     1       2.796   2.348   6.170  1.00  0.00     0.213 HD
ENDBRANCH  24  25
BRANCH  24  27
HETATM   27  O6  UNL     1       4.512   0.599   5.799  1.00  0.00    -0.366 OA
ATOM     28  H6  UNL     1       4.334   0.721   6.724  1.00  0.00     0.213 HD
ENDBRANCH  24  27
ENDBRANCH  20  24
ENDBRANCH  17  18
ENDBRANCH  15  17
ENDBRANCH   9  11
ENDBRANCH   4   7
BRANCH   5  29
HETATM   29  O8  UNL     1      -0.571  -4.083  -3.782  1.00  0.00    -0.339 OA
ATOM     30  H8  UNL     1      -1.250  -4.581  -4.222  1.00  0.00     0.220 HD
ENDBRANCH   5  29
BRANCH   1  31
HETATM   31  N5  UNL     1      -2.178   0.475  -3.415  1.00  0.00    -0.185 N 
HETATM   32  C7  UNL     1      -3.201   0.976  -2.729  1.00  0.00     0.164 A 
HETATM   33  N3  UNL     1      -3.206   1.997  -3.651  1.00  0.00    -0.268 N 
HETATM   34  N4  UNL     1      -2.196   1.480  -4.308  1.00  0.00    -0.230 N 
ATOM     35  H3  UNL     1      -3.776   2.834  -3.776  1.00  0.00     0.190 HD
ATOM     36  H4  UNL     1      -1.657   1.731  -5.137  1.00  0.00     0.209 HD
BRANCH  32  37
HETATM   37  C6  UNL     1      -4.036   0.706  -1.570  1.00  0.00     0.082 A 
HETATM   38  C1  UNL     1      -3.943  -0.300  -0.655  1.00  0.00     0.179 A 
HETATM   39  N1  UNL     1      -3.075  -1.242  -0.633  1.00  0.00    -0.377 N 
HETATM   40  O1  UNL     1      -4.933  -0.129   0.230  1.00  0.00    -0.217 OA
ATOM     41  H12 UNL     1      -3.005  -1.995   0.052  1.00  0.00     0.158 HD
ATOM     42  H11 UNL     1      -2.321  -1.372  -1.307  1.00  0.00     0.158 HD
HETATM   43  N2  UNL     1      -5.640   0.903  -0.056  1.00  0.00    -0.259 N 
HETATM   44  C5  UNL     1      -5.126   1.463  -1.167  1.00  0.00     0.137 A 
BRANCH  43  45
HETATM   45  C2  UNL     1      -6.802   1.456   0.609  1.00  0.00     0.189 C 
BRANCH  45  46
HETATM   46  C3  UNL     1      -6.445   2.456   1.660  1.00  0.00     0.162 C 
BRANCH  46  47
HETATM   47  O2  UNL     1      -5.752   3.503   1.099  1.00  0.00    -0.392 OA
ATOM     48  H2  UNL     1      -5.525   4.139   1.767  1.00  0.00     0.210 HD
ENDBRANCH  46  47
BRANCH  46  49
HETATM   49  C4  UNL     1      -7.658   2.915   2.446  1.00  0.00     0.197 C 
BRANCH  49  50
HETATM   50  O3  UNL     1      -8.563   3.597   1.672  1.00  0.00    -0.398 OA
ATOM     51  H3  UNL     1      -9.323   3.885   2.164  1.00  0.00     0.209 HD
ENDBRANCH  49  50
ENDBRANCH  46  49
ENDBRANCH  45  46
ENDBRANCH  43  45
ENDBRANCH  32  37
ENDBRANCH   1  31
TORSDOF 15
