REMARK  1 active torsions:
REMARK  status: ('A' for Active; 'I' for Inactive)
REMARK    1  A    between atoms: O1_1  and  C1_3 
ROOT
HETATM    1  C1  UNL     1      -1.641  -0.072   0.577  1.00  0.00     0.121 C 
HETATM    2  C2  UNL     1      -1.520  -0.441  -0.881  1.00  0.00     0.062 C 
HETATM    3  C3  UNL     1      -0.293   0.094  -1.491  1.00  0.00     0.275 C 
HETATM    4  N1  UNL     1       0.589   0.839  -0.695  1.00  0.00     0.093 N 
HETATM    5  C4  UNL     1       2.004   0.472  -0.855  1.00  0.00     0.275 A 
HETATM    6  C5  UNL     1       2.111   0.151   0.613  1.00  0.00     0.066 A 
HETATM    7  C6  UNL     1       0.677   0.555   0.681  1.00  0.00     0.227 A 
HETATM    8  C7  UNL     1      -0.291  -0.480   1.189  1.00  0.00     0.067 C 
ENDROOT
BRANCH   1   9
HETATM    9  O1  UNL     1      -2.700  -0.654   1.216  1.00  0.00    -0.395 OA
ATOM     10  H1  UNL     1      -2.776  -0.422   2.134  1.00  0.00     0.210 HD
ENDBRANCH   1   9
TORSDOF 1
