REMARK  1 active torsions:
REMARK  status: ('A' for Active; 'I' for Inactive)
REMARK    1  A    between atoms: O1_1  and  C1_3 
ROOT
HETATM    1  C1  UNL     1      -1.351   0.879  -0.046  1.00  0.00     0.147 C 
HETATM    2  C2  UNL     1      -1.726  -0.583   0.055  1.00  0.00     0.035 C 
HETATM    3  C3  UNL     1      -0.693  -1.257  -0.820  1.00  0.00     0.010 C 
HETATM    4  C4  UNL     1       0.541  -0.425  -0.770  1.00  0.00     0.019 C 
HETATM    5  C5  UNL     1       1.566  -0.919   0.227  1.00  0.00     0.033 C 
HETATM    6  C6  UNL     1       2.016   0.426   0.815  1.00  0.00     0.168 C 
HETATM    7  O2  UNL     1       0.742   0.975   1.085  1.00  0.00    -0.383 OA
HETATM    8  C7  UNL     1       0.154   0.910  -0.179  1.00  0.00     0.154 C 
ENDROOT
BRANCH   1   9
HETATM    9  O1  UNL     1      -1.693   1.460   1.188  1.00  0.00    -0.393 OA
ATOM     10  H1  UNL     1      -1.457   2.378   1.125  1.00  0.00     0.210 HD
ENDBRANCH   1   9
TORSDOF 1
