REMARK  1 active torsions:
REMARK  status: ('A' for Active; 'I' for Inactive)
REMARK    1  A    between atoms: N1_1  and  C1_5 
ROOT
HETATM    1  C1  UNL     1       1.443   0.343  -0.174  1.00  0.00     0.212 C 
HETATM    2  C2  UNL     1       0.832  -1.059  -0.282  1.00  0.00     0.041 C 
HETATM    3  C3  UNL     1      -0.588  -0.996  -0.741  1.00  0.00     0.018 C 
HETATM    4  C4  UNL     1      -1.558  -1.012   0.448  1.00  0.00     0.036 C 
HETATM    5  C5  UNL     1      -1.788   0.459   0.749  1.00  0.00     0.273 C 
HETATM    6  N2  UNL     1      -0.868   1.192  -0.116  1.00  0.00     0.090 N 
HETATM    7  C6  UNL     1       0.441   1.273   0.462  1.00  0.00     0.305 C 
HETATM    8  C7  UNL     1      -0.915   0.386  -1.322  1.00  0.00     0.277 C 
ENDROOT
BRANCH   1   9
HETATM    9  N1  UNL     1       2.638   0.240   0.557  1.00  0.00    -0.073 N 
ATOM     10  H13 UNL     1       2.508  -0.205   1.466  1.00  0.00     0.274 HD
ATOM     11  H12 UNL     1       3.285  -0.443   0.162  1.00  0.00     0.274 HD
ATOM     12  H11 UNL     1       3.044   1.173   0.629  1.00  0.00     0.274 HD
ENDBRANCH   1   9
TORSDOF 1
