REMARK  3 active torsions:
REMARK  status: ('A' for Active; 'I' for Inactive)
REMARK    1  A    between atoms: O1_2  and  N1_3 
REMARK    2  A    between atoms: N1_3  and  C2_5 
REMARK    3  A    between atoms: C2_5  and  C3_9 
ROOT
HETATM    1  C3  UNL     1      -0.566   0.077  -0.227  1.00  0.00     0.178 C 
HETATM    2  C4  UNL     1      -0.121   1.478  -0.545  1.00  0.00     0.065 C 
HETATM    3  C5  UNL     1      -0.905   2.391   0.367  1.00  0.00     0.025 C 
HETATM    4  C6  UNL     1      -2.157   1.621   0.652  1.00  0.00     0.127 C 
HETATM    5  N3  UNL     1      -1.772   0.217   0.567  1.00  0.00    -0.343 N 
HETATM    6  C7  UNL     1      -2.354  -0.964   1.103  1.00  0.00     0.193 C 
HETATM    7  N4  UNL     1      -2.411  -2.079   0.459  1.00  0.00    -0.264 N 
ATOM      8  H4  UNL     1      -2.835  -2.911   0.870  1.00  0.00     0.181 HD
HETATM    9  S1  UNL     1      -1.737  -2.101  -1.130  1.00  0.00     0.322 S 
HETATM   10  O2  UNL     1      -0.837  -3.282  -1.237  1.00  0.00    -0.182 OA
HETATM   11  O3  UNL     1      -2.865  -2.171  -2.129  1.00  0.00    -0.182 OA
HETATM   12  N5  UNL     1      -0.894  -0.617  -1.437  1.00  0.00    -0.268 N 
ATOM     13  H5  UNL     1      -0.659  -0.278  -2.370  1.00  0.00     0.177 HD
ENDROOT
BRANCH   1  14
HETATM   14  C2  UNL     1       0.528  -0.580   0.529  1.00  0.00     0.145 C 
HETATM   15  N2  UNL     1       0.418  -1.045   1.701  1.00  0.00    -0.384 N 
ATOM     16  H22 UNL     1       1.170  -1.497   2.221  1.00  0.00     0.157 HD
ATOM     17  H21 UNL     1      -0.480  -0.973   2.180  1.00  0.00     0.157 HD
BRANCH  14  18
HETATM   18  N1  UNL     1       1.783  -0.680  -0.141  1.00  0.00    -0.251 N 
ATOM     19  H1  UNL     1       1.874  -1.218  -1.003  1.00  0.00     0.196 HD
BRANCH  18  20
HETATM   20  O1  UNL     1       2.843  -0.047   0.393  1.00  0.00    -0.284 OA
HETATM   21  C1  UNL     1       3.979  -0.210  -0.361  1.00  0.00     0.237 C 
ENDBRANCH  18  20
ENDBRANCH  14  18
ENDBRANCH   1  14
TORSDOF 3
