REMARK  5 active torsions:
REMARK  status: ('A' for Active; 'I' for Inactive)
REMARK    1  A    between atoms: N1_1  and  S1_4 
REMARK    2  A    between atoms: S1_4  and  N2_5 
REMARK    3  A    between atoms: S1_4  and  C1_9 
REMARK    4  A    between atoms: C3_12  and  S3_13 
REMARK    5  A    between atoms: S3_13  and  N3_14 
ROOT
HETATM    1  C1  UNL     1      -0.759   0.357   0.839  1.00  0.00     0.135 A 
HETATM    2  C2  UNL     1      -0.460   0.692   2.134  1.00  0.00     0.094 A 
HETATM    3  S2  UNL     1       1.191   0.207   2.240  1.00  0.00    -0.068 SA
HETATM    4  C3  UNL     1       1.375  -0.379   0.647  1.00  0.00     0.192 A 
HETATM    5  N4  UNL     1       0.193  -0.178   0.130  1.00  0.00    -0.330 N 
ATOM      6  H4  UNL     1       0.014  -0.443  -0.839  1.00  0.00     0.168 HD
ENDROOT
BRANCH   1   7
HETATM    7  S1  UNL     1      -2.347   0.624   0.133  1.00  0.00     0.147 S 
HETATM    8  O1  UNL     1      -3.226   1.283   1.142  1.00  0.00    -0.222 OA
BRANCH   7   9
HETATM    9  N1  UNL     1      -2.257   1.579  -1.094  1.00  0.00    -0.340 N 
ATOM     10  H12 UNL     1      -2.534   1.325  -2.042  1.00  0.00     0.167 HD
ATOM     11  H11 UNL     1      -1.884   2.482  -0.801  1.00  0.00     0.167 HD
ENDBRANCH   7   9
BRANCH   7  12
HETATM   12  N2  UNL     1      -2.986  -0.921  -0.368  1.00  0.00    -0.340 N 
ATOM     13  H22 UNL     1      -3.256  -1.149  -1.325  1.00  0.00     0.167 HD
ATOM     14  H21 UNL     1      -3.045  -1.546   0.436  1.00  0.00     0.167 HD
ENDBRANCH   7  12
ENDBRANCH   1   7
BRANCH   4  15
HETATM   15  S3  UNL     1       2.790  -1.080  -0.124  1.00  0.00     0.279 S 
HETATM   16  O2  UNL     1       2.379  -2.130  -1.137  1.00  0.00    -0.199 OA
HETATM   17  O3  UNL     1       3.587  -1.750   0.983  1.00  0.00    -0.199 OA
BRANCH  15  18
HETATM   18  N3  UNL     1       3.718   0.143  -0.862  1.00  0.00    -0.323 N 
ATOM     19  H32 UNL     1       3.475   1.133  -0.849  1.00  0.00     0.169 HD
ATOM     20  H31 UNL     1       4.539  -0.264  -1.310  1.00  0.00     0.169 HD
ENDBRANCH  15  18
ENDBRANCH   4  15
TORSDOF 5
