REMARK  14 active torsions:
REMARK  status: ('A' for Active; 'I' for Inactive)
REMARK    1  A    between atoms: C2_2  and  C3_3 
REMARK    2  A    between atoms: C3_3  and  N1_4 
REMARK    3  A    between atoms: N1_4  and  C4_6 
REMARK    4  A    between atoms: C6_10  and  C7_11 
REMARK    5  A    between atoms: C7_11  and  O1_12 
REMARK    6  A    between atoms: C7_11  and  N3_14 
REMARK    7  A    between atoms: C8_15  and  C9_16 
REMARK    8  A    between atoms: C9_16  and  O2_17 
REMARK    9  A    between atoms: C12_20  and  N4_21 
REMARK   10  A    between atoms: N4_21  and  N5_23 
REMARK   11  A    between atoms: N5_23  and  N6_24 
REMARK   12  A    between atoms: C13_27  and  O3_28 
REMARK   13  A    between atoms: O3_28  and  C14_29 
REMARK   14  A    between atoms: C15_33  and  N7_34 
ROOT
HETATM    1  N3  UNL     1      -1.638   0.311  -0.270  1.00  0.00    -0.325 N 
HETATM    2  C8  UNL     1      -2.972   0.718  -0.677  1.00  0.00     0.115 C 
HETATM    3  C11 UNL     1      -3.831  -0.486  -0.391  1.00  0.00     0.059 C 
HETATM    4  C12 UNL     1      -3.191  -0.982   0.902  1.00  0.00     0.165 C 
HETATM    5  C13 UNL     1      -1.710  -0.999   0.375  1.00  0.00     0.260 C 
ENDROOT
BRANCH   1   6
HETATM    6  C7  UNL     1      -0.493   1.078  -0.454  1.00  0.00     0.156 C 
BRANCH   6   7
HETATM    7  C6  UNL     1       0.878   0.783  -0.098  1.00  0.00     0.075 A 
HETATM    8  C5  UNL     1       1.736   0.264  -1.063  1.00  0.00     0.125 A 
HETATM    9  N2  UNL     1       3.028   0.016  -0.780  1.00  0.00    -0.201 N 
HETATM   10  C4  UNL     1       3.546   0.256   0.437  1.00  0.00     0.679 A 
ATOM     11  H2  UNL     1       3.631  -0.365  -1.509  1.00  0.00     0.183 HD
HETATM   12  N8  UNL     1       2.723   0.758   1.375  1.00  0.00    -0.176 N 
HETATM   13  C15 UNL     1       1.428   1.022   1.143  1.00  0.00     0.130 A 
ATOM     14  H8  UNL     1       3.100   0.946   2.304  1.00  0.00     0.186 HD
BRANCH  10  15
HETATM   15  N1  UNL     1       4.788   0.024   0.729  1.00  0.00    -0.223 N 
ATOM     16  H1  UNL     1       5.145   0.219   1.664  1.00  0.00     0.178 HD
BRANCH  15  17
HETATM   17  C3  UNL     1       5.666  -0.520  -0.299  1.00  0.00     0.164 C 
BRANCH  17  18
HETATM   18  C2  UNL     1       7.049  -0.550   0.220  1.00  0.00    -0.017 C 
HETATM   19  C1  UNL     1       8.016   0.118  -0.376  1.00  0.00     0.008 C 
ENDBRANCH  17  18
ENDBRANCH  15  17
ENDBRANCH  10  15
BRANCH  13  20
HETATM   20  N7  UNL     1       0.639   1.503   2.041  1.00  0.00    -0.384 N 
ATOM     21  H72 UNL     1      -0.345   1.704   1.865  1.00  0.00     0.157 HD
ATOM     22  H71 UNL     1       1.046   1.680   2.959  1.00  0.00     0.157 HD
ENDBRANCH  13  20
ENDBRANCH   6   7
BRANCH   6  23
HETATM   23  O1  UNL     1      -0.670   2.233  -1.028  1.00  0.00    -0.345 OA
ATOM     24  H1  UNL     1      -1.570   2.427  -1.262  1.00  0.00     0.219 HD
ENDBRANCH   6  23
ENDBRANCH   1   6
BRANCH   2  25
HETATM   25  C9  UNL     1      -3.478   1.930   0.075  1.00  0.00     0.192 C 
BRANCH  25  26
HETATM   26  O2  UNL     1      -4.746   2.302  -0.312  1.00  0.00    -0.394 OA
HETATM   27  C10 UNL     1      -4.890   2.640  -1.636  1.00  0.00     0.201 C 
ENDBRANCH  25  26
ENDBRANCH   2  25
BRANCH   5  28
HETATM   28  O3  UNL     1      -1.606  -2.059  -0.460  1.00  0.00    -0.270 OA
BRANCH  28  29
HETATM   29  C14 UNL     1      -0.867  -3.137  -0.146  1.00  0.00     0.526 C 
HETATM   30  F1  UNL     1       0.460  -2.844   0.070  1.00  0.00    -0.144 F 
HETATM   31  F2  UNL     1      -0.843  -4.066  -1.212  1.00  0.00    -0.144 F 
HETATM   32  F3  UNL     1      -1.267  -3.888   0.941  1.00  0.00    -0.144 F 
ENDBRANCH  28  29
ENDBRANCH   5  28
BRANCH   4  33
HETATM   33  N4  UNL     1      -3.685  -2.267   1.204  1.00  0.00    -0.243 N 
ATOM     34  H4  UNL     1      -3.042  -2.928   1.640  1.00  0.00     0.197 HD
BRANCH  33  35
HETATM   35  N5  UNL     1      -4.822  -2.650   0.984  1.00  0.00    -0.248 NA
BRANCH  35  36
HETATM   36  N6  UNL     1      -5.927  -3.017   0.582  1.00  0.00    -0.261 N 
ATOM     37  H62 UNL     1      -5.571  -2.869  -0.362  1.00  0.00     0.193 HD
ATOM     38  H61 UNL     1      -6.878  -3.337   0.398  1.00  0.00     0.193 HD
ENDBRANCH  35  36
ENDBRANCH  33  35
ENDBRANCH   4  33
TORSDOF 14
