REMARK  14 active torsions:
REMARK  status: ('A' for Active; 'I' for Inactive)
REMARK    1  A    between atoms: C4_4  and  C5_5 
REMARK    2  A    between atoms: C5_5  and  C6_6 
REMARK    3  A    between atoms: C9_9  and  O1_11 
REMARK    4  A    between atoms: C22_26  and  C23_27 
REMARK    5  A    between atoms: C22_26  and  C33_40 
REMARK    6  A    between atoms: C23_27  and  C24_28 
REMARK    7  A    between atoms: C24_28  and  C25_29 
REMARK    8  A    between atoms: C25_29  and  C26_30 
REMARK    9  A    between atoms: C29_33  and  C30_34 
REMARK   10  A    between atoms: C30_34  and  O4_35 
REMARK   11  A    between atoms: C31_37  and  C32_38 
REMARK   12  A    between atoms: C33_40  and  O6_41 
REMARK   13  A    between atoms: O6_41  and  C34_42 
REMARK   14  A    between atoms: C34_42  and  C35_44 
ROOT
HETATM    1  C6  UNL     1      -2.966  -0.688   0.022  1.00  0.00     0.092 C 
HETATM    2  C7  UNL     1      -4.315  -0.221  -0.481  1.00  0.00     0.046 C 
HETATM    3  C8  UNL     1      -5.486  -1.021  -0.091  1.00  0.00     0.041 C 
HETATM    4  C9  UNL     1      -5.329  -2.369   0.472  1.00  0.00     0.061 C 
HETATM    5  C10 UNL     1      -6.343  -2.508   1.633  1.00  0.00     0.046 C 
HETATM    6  C11 UNL     1      -3.993  -2.736   1.051  1.00  0.00     0.047 C 
HETATM    7  C12 UNL     1      -4.151  -3.575   2.290  1.00  0.00     0.018 C 
HETATM    8  C13 UNL     1      -3.203  -1.498   1.214  1.00  0.00    -0.042 C 
HETATM    9  C14 UNL     1      -2.855  -1.336   2.479  1.00  0.00    -0.008 C 
HETATM   10  C15 UNL     1      -2.076  -0.246   3.175  1.00  0.00     0.080 C 
HETATM   11  C16 UNL     1      -0.653  -0.736   3.286  1.00  0.00     0.022 C 
HETATM   12  C17 UNL     1      -2.214   0.940   2.287  1.00  0.00     0.196 C 
HETATM   13  O2  UNL     1      -2.881   1.822   2.729  1.00  0.00    -0.291 OA
HETATM   14  C18 UNL     1      -1.570   1.034   0.937  1.00  0.00     0.230 C 
HETATM   15  C19 UNL     1      -1.797   2.492   0.513  1.00  0.00     0.085 C 
HETATM   16  C20 UNL     1      -1.020   2.826  -0.730  1.00  0.00     0.087 C 
HETATM   17  C21 UNL     1       0.385   2.439  -0.470  1.00  0.00     0.163 C 
HETATM   18  O3  UNL     1       1.224   2.860  -1.255  1.00  0.00    -0.295 OA
HETATM   19  C22 UNL     1       0.706   1.600   0.676  1.00  0.00     0.146 C 
HETATM   20  O8  UNL     1      -0.228   0.779   1.173  1.00  0.00    -0.327 OA
HETATM   21  O9  UNL     1      -2.013   0.237  -0.001  1.00  0.00    -0.333 OA
ENDROOT
BRANCH  19  22
HETATM   22  C23 UNL     1       1.892   0.690   0.224  1.00  0.00     0.048 C 
BRANCH  22  23
HETATM   23  C24 UNL     1       1.520  -0.152  -0.918  1.00  0.00     0.004 C 
BRANCH  23  24
HETATM   24  C25 UNL     1       2.564  -1.096  -1.367  1.00  0.00     0.005 C 
BRANCH  24  25
HETATM   25  C26 UNL     1       3.879  -0.651  -1.857  1.00  0.00    -0.003 C 
HETATM   26  C27 UNL     1       4.587  -1.987  -2.285  1.00  0.00     0.006 C 
HETATM   27  C28 UNL     1       6.052  -1.714  -2.133  1.00  0.00     0.008 C 
HETATM   28  C29 UNL     1       6.110  -0.873  -0.868  1.00  0.00     0.020 C 
HETATM   29  C31 UNL     1       4.841  -0.017  -0.932  1.00  0.00     0.057 C 
BRANCH  28  30
HETATM   30  C30 UNL     1       6.166  -1.704   0.379  1.00  0.00     0.169 C 
BRANCH  30  31
HETATM   31  O4  UNL     1       6.216  -0.814   1.462  1.00  0.00    -0.400 OA
ATOM     32  H4  UNL     1       6.251  -1.340   2.252  1.00  0.00     0.209 HD
ENDBRANCH  30  31
ENDBRANCH  28  30
BRANCH  29  33
HETATM   33  C32 UNL     1       5.344   1.311  -1.455  1.00  0.00     0.236 C 
HETATM   34  O5  UNL     1       6.399   1.751  -1.114  1.00  0.00    -0.306 OA
ENDBRANCH  29  33
ENDBRANCH  24  25
ENDBRANCH  23  24
ENDBRANCH  22  23
ENDBRANCH  19  22
BRANCH  19  35
HETATM   35  C33 UNL     1       1.317   2.412   1.828  1.00  0.00     0.225 C 
BRANCH  35  36
HETATM   36  O6  UNL     1       2.306   3.289   1.350  1.00  0.00    -0.314 OA
BRANCH  36  37
HETATM   37  C34 UNL     1       2.967   4.104   2.252  1.00  0.00     0.289 C 
HETATM   38  O7  UNL     1       2.648   4.020   3.462  1.00  0.00    -0.260 OA
BRANCH  37  39
HETATM   39  C35 UNL     1       4.003   5.032   1.793  1.00  0.00     0.024 C 
HETATM   40  C36 UNL     1       4.374   5.126   0.359  1.00  0.00     0.056 C 
HETATM   41  C37 UNL     1       4.624   5.803   2.670  1.00  0.00     0.097 C 
HETATM   42 CL1  UNL     1       4.267   5.776   4.381  1.00  0.00    -0.096 Cl
ENDBRANCH  37  39
ENDBRANCH  36  37
ENDBRANCH  35  36
ENDBRANCH  19  35
BRANCH   1  43
HETATM   43  C5  UNL     1      -2.477  -1.684  -1.069  1.00  0.00     0.070 C 
BRANCH  43  44
HETATM   44  C4  UNL     1      -2.368  -0.869  -2.328  1.00  0.00    -0.021 C 
HETATM   45  C2  UNL     1      -3.006  -1.188  -3.459  1.00  0.00    -0.091 C 
HETATM   46  C1  UNL     1      -3.875  -2.389  -3.532  1.00  0.00     0.042 C 
HETATM   47  C3  UNL     1      -2.869  -0.351  -4.684  1.00  0.00     0.042 C 
ENDBRANCH  43  44
ENDBRANCH   1  43
BRANCH   4  48
HETATM   48  O1  UNL     1      -5.784  -3.374  -0.423  1.00  0.00    -0.390 OA
ATOM     49  H1  UNL     1      -5.682  -4.246  -0.059  1.00  0.00     0.210 HD
ENDBRANCH   4  48
TORSDOF 14
