REMARK  14 active torsions:
REMARK  status: ('A' for Active; 'I' for Inactive)
REMARK    1  A    between atoms: O1_2  and  C2_3 
REMARK    2  A    between atoms: C2_3  and  O2_4 
REMARK    3  A    between atoms: O2_4  and  C3_5 
REMARK    4  A    between atoms: C6_8  and  O3_9 
REMARK    5  A    between atoms: C8_13  and  C10_15 
REMARK    6  A    between atoms: C10_15  and  O5_16 
REMARK    7  A    between atoms: C11_18  and  O6_19 
REMARK    8  A    between atoms: O6_19  and  C12_20 
REMARK    9  A    between atoms: C12_20  and  C13_22 
REMARK   10  A    between atoms: C21_30  and  C22_31 
REMARK   11  A    between atoms: C22_31  and  O8_32 
REMARK   12  A    between atoms: O8_32  and  C23_33 
REMARK   13  A    between atoms: C31_42  and  C32_43 
REMARK   14  A    between atoms: C32_43  and  C33_44 
ROOT
HETATM    1  C3  UNL     1       1.239   3.899  -1.056  1.00  0.00     0.176 C 
HETATM    2  C4  UNL     1       2.596   3.729  -1.588  1.00  0.00     0.079 C 
HETATM    3  C5  UNL     1       3.154   2.873  -0.407  1.00  0.00     0.052 C 
HETATM    4  C6  UNL     1       2.549   3.617   0.687  1.00  0.00     0.265 C 
HETATM    5  O4  UNL     1       1.617   4.564   0.159  1.00  0.00    -0.325 OA
HETATM    6  C7  UNL     1       2.701   1.502  -0.790  1.00  0.00     0.016 C 
HETATM    7  C8  UNL     1       3.408   0.394  -0.110  1.00  0.00     0.009 C 
HETATM    8  C9  UNL     1       3.822   0.911   1.288  1.00  0.00     0.020 C 
HETATM    9  C11 UNL     1       2.714  -0.892   0.091  1.00  0.00     0.142 C 
HETATM   10  C17 UNL     1       1.489  -1.063  -0.786  1.00  0.00     0.034 C 
HETATM   11  C18 UNL     1       0.583   0.143  -0.612  1.00  0.00     0.012 C 
HETATM   12  C19 UNL     1       1.235   1.409  -1.070  1.00  0.00    -0.028 C 
HETATM   13  C20 UNL     1       0.917   1.440  -2.581  1.00  0.00     0.016 C 
HETATM   14  C21 UNL     1       0.522   2.649  -0.509  1.00  0.00     0.081 C 
ENDROOT
BRANCH  14  15
HETATM   15  C22 UNL     1      -0.898   2.784  -0.886  1.00  0.00     0.179 C 
BRANCH  15  16
HETATM   16  O8  UNL     1      -1.865   1.926  -0.514  1.00  0.00    -0.380 OA
BRANCH  16  17
HETATM   17  C23 UNL     1      -2.205   1.849   0.806  1.00  0.00     0.176 C 
HETATM   18  C24 UNL     1      -3.660   2.467   0.961  1.00  0.00     0.203 C 
HETATM   19  O9  UNL     1      -3.964   2.090   2.239  1.00  0.00    -0.377 OA
HETATM   20  C25 UNL     1      -3.457   0.809   2.446  1.00  0.00     0.175 C 
HETATM   21  C26 UNL     1      -4.604  -0.095   2.619  1.00  0.00     0.004 C 
HETATM   22  C37 UNL     1      -2.601   0.474   1.229  1.00  0.00     0.185 C 
HETATM   23  C27 UNL     1      -4.807  -1.318   2.201  1.00  0.00    -0.017 C 
HETATM   24  C28 UNL     1      -3.848  -2.160   1.380  1.00  0.00    -0.004 C 
HETATM   25  C29 UNL     1      -4.496  -3.504   1.266  1.00  0.00     0.021 C 
HETATM   26  C30 UNL     1      -2.610  -2.427   2.286  1.00  0.00     0.021 C 
HETATM   27  C31 UNL     1      -3.459  -1.450   0.160  1.00  0.00     0.137 C 
HETATM   28  O10 UNL     1      -3.395  -0.064   0.300  1.00  0.00    -0.374 OA
BRANCH  27  29
HETATM   29  C32 UNL     1      -4.337  -1.632  -1.036  1.00  0.00     0.060 C 
BRANCH  29  30
HETATM   30  C33 UNL     1      -4.514  -2.960  -1.586  1.00  0.00    -0.022 C 
HETATM   31  C34 UNL     1      -5.740  -3.418  -1.832  1.00  0.00    -0.091 C 
HETATM   32  C35 UNL     1      -5.948  -4.796  -2.403  1.00  0.00     0.042 C 
HETATM   33  C36 UNL     1      -6.967  -2.594  -1.569  1.00  0.00     0.042 C 
ENDBRANCH  29  30
ENDBRANCH  27  29
ENDBRANCH  16  17
ENDBRANCH  15  16
ENDBRANCH  14  15
BRANCH   1  34
HETATM   34  O2  UNL     1       0.433   4.624  -1.847  1.00  0.00    -0.330 OA
BRANCH  34  35
HETATM   35  C2  UNL     1       0.848   5.801  -2.326  1.00  0.00     0.341 C 
BRANCH  35  36
HETATM   36  O1  UNL     1       1.964   5.679  -3.122  1.00  0.00    -0.372 OA
HETATM   37  C1  UNL     1       2.425   6.877  -3.638  1.00  0.00     0.204 C 
ENDBRANCH  35  36
ENDBRANCH  34  35
ENDBRANCH   1  34
BRANCH   4  38
HETATM   38  O3  UNL     1       3.560   4.504   1.182  1.00  0.00    -0.371 OA
ATOM     39  H3  UNL     1       3.165   4.990   1.896  1.00  0.00     0.212 HD
ENDBRANCH   4  38
BRANCH   7  40
HETATM   40  C10 UNL     1       4.808   0.210  -0.751  1.00  0.00     0.176 C 
BRANCH  40  41
HETATM   41  O5  UNL     1       5.536  -0.786  -0.175  1.00  0.00    -0.400 OA
ATOM     42  H5  UNL     1       6.394  -0.899  -0.568  1.00  0.00     0.209 HD
ENDBRANCH  40  41
ENDBRANCH   7  40
BRANCH   9  43
HETATM   43  O6  UNL     1       3.532  -1.995   0.173  1.00  0.00    -0.312 OA
BRANCH  43  44
HETATM   44  C12 UNL     1       3.698  -2.828   1.248  1.00  0.00     0.283 C 
HETATM   45  O7  UNL     1       3.050  -2.567   2.257  1.00  0.00    -0.260 OA
BRANCH  44  46
HETATM   46  C13 UNL     1       4.597  -3.973   1.205  1.00  0.00     0.084 C 
HETATM   47  C14 UNL     1       4.787  -4.798   2.205  1.00  0.00    -0.082 C 
HETATM   48  C15 UNL     1       4.073  -4.612   3.489  1.00  0.00     0.043 C 
HETATM   49  C16 UNL     1       5.726  -5.939   2.074  1.00  0.00     0.043 C 
ENDBRANCH  44  46
ENDBRANCH  43  44
ENDBRANCH   9  43
TORSDOF 14
