REMARK  12 active torsions:
REMARK  status: ('A' for Active; 'I' for Inactive)
REMARK    1  A    between atoms: C2_2  and  C3_3 
REMARK    2  A    between atoms: C3_3  and  C5_5 
REMARK    3  A    between atoms: C5_5  and  N1_6 
REMARK    4  A    between atoms: C6_7  and  C7_8 
REMARK    5  A    between atoms: C12_17  and  N4_18 
REMARK    6  A    between atoms: N4_18  and  C13_19 
REMARK    7  A    between atoms: C15_21  and  C16_22 
REMARK    8  A    between atoms: N6_26  and  C18_27 
REMARK    9  A    between atoms: N7_30  and  C21_31 
REMARK   10  A    between atoms: C21_31  and  C22_32 
REMARK   11  A    between atoms: C29_39  and  N8_40 
REMARK   12  A    between atoms: N8_40  and  S1_42 
ROOT
HETATM    1  C13 UNL     1      -1.007  -0.923  -1.894  1.00  0.00     0.136 A 
HETATM    2  C14 UNL     1      -0.087  -1.097  -0.848  1.00  0.00     0.059 A 
HETATM    3  C15 UNL     1       1.224  -1.262  -1.075  1.00  0.00    -0.018 A 
HETATM    4  C28 UNL     1       1.682  -1.261  -2.394  1.00  0.00     0.044 A 
HETATM    5  C29 UNL     1       0.848  -1.097  -3.459  1.00  0.00     0.068 A 
HETATM    6  C31 UNL     1      -0.472  -0.932  -3.214  1.00  0.00     0.102 A 
HETATM    7 CL1  UNL     1      -1.580  -0.718  -4.536  1.00  0.00    -0.078 Cl
ENDROOT
BRANCH   1   8
HETATM    8  N4  UNL     1      -2.296  -0.718  -1.701  1.00  0.00    -0.369 NA
BRANCH   8   9
HETATM    9  C12 UNL     1      -3.438  -0.529  -1.518  1.00  0.00     0.264 A 
HETATM   10  N3  UNL     1      -4.468  -0.901  -2.335  1.00  0.00    -0.299 N 
HETATM   11  C11 UNL     1      -5.618  -0.478  -1.778  1.00  0.00     0.156 A 
ATOM     12  H3  UNL     1      -4.381  -1.411  -3.214  1.00  0.00     0.171 HD
HETATM   13  N2  UNL     1      -6.941  -0.419  -1.930  1.00  0.00    -0.328 N 
HETATM   14  C33 UNL     1      -5.326   0.161  -0.596  1.00  0.00     0.163 A 
HETATM   15  C6  UNL     1      -7.517   0.230  -0.900  1.00  0.00     0.098 A 
ATOM     16  H2  UNL     1      -7.450  -0.813  -2.721  1.00  0.00     0.169 HD
HETATM   17  N1  UNL     1      -6.527   0.585  -0.076  1.00  0.00    -0.297 N 
HETATM   18  N9  UNL     1      -3.997   0.133  -0.439  1.00  0.00    -0.294 N 
HETATM   19  C32 UNL     1      -3.192   0.668   0.597  1.00  0.00     0.162 C 
BRANCH  15  20
HETATM   20  C7  UNL     1      -8.978   0.502  -0.805  1.00  0.00     0.008 C 
HETATM   21  C8  UNL     1      -9.297   1.926  -1.235  1.00  0.00     0.022 C 
HETATM   22  C9  UNL     1      -9.645  -0.358  -1.903  1.00  0.00     0.022 C 
HETATM   23  C10 UNL     1      -9.651   0.111   0.450  1.00  0.00     0.022 C 
ENDBRANCH  15  20
BRANCH  17  24
HETATM   24  C5  UNL     1      -6.583   1.317   1.133  1.00  0.00     0.077 C 
BRANCH  24  25
HETATM   25  C3  UNL     1      -6.838   0.692   2.437  1.00  0.00     0.020 C 
HETATM   26  C4  UNL     1      -6.487   1.858   3.503  1.00  0.00     0.015 C 
BRANCH  25  27
HETATM   27  C2  UNL     1      -5.974  -0.418   2.929  1.00  0.00     0.005 C 
HETATM   28  C1  UNL     1      -6.085  -1.714   2.169  1.00  0.00     0.006 C 
ENDBRANCH  25  27
ENDBRANCH  24  25
ENDBRANCH  17  24
ENDBRANCH   8   9
ENDBRANCH   1   8
BRANCH   3  29
HETATM   29  C16 UNL     1       2.249  -1.381  -0.050  1.00  0.00     0.008 A 
HETATM   30  C17 UNL     1       2.244  -1.888   1.222  1.00  0.00     0.121 A 
HETATM   31  N5  UNL     1       3.509  -1.775   1.716  1.00  0.00    -0.309 N 
HETATM   32  N6  UNL     1       4.326  -1.234   0.857  1.00  0.00    -0.298 N 
ATOM     33  H5  UNL     1       3.784  -2.079   2.650  1.00  0.00     0.186 HD
HETATM   34  C27 UNL     1       3.593  -0.975  -0.242  1.00  0.00     0.124 A 
BRANCH  32  35
HETATM   35  C18 UNL     1       5.739  -0.974   0.944  1.00  0.00     0.111 C 
HETATM   36  C19 UNL     1       6.198   0.061  -0.078  1.00  0.00     0.057 C 
HETATM   37  C20 UNL     1       7.686  -0.142  -0.195  1.00  0.00     0.274 C 
HETATM   38  N7  UNL     1       8.326   0.116   1.110  1.00  0.00     0.088 N 
HETATM   39  C25 UNL     1       7.767  -0.599   2.182  1.00  0.00     0.274 C 
HETATM   40  C26 UNL     1       6.209  -0.469   2.254  1.00  0.00     0.057 C 
BRANCH  38  41
HETATM   41  C21 UNL     1       9.699  -0.136   0.858  1.00  0.00     0.276 C 
BRANCH  41  42
HETATM   42  C22 UNL     1      10.746   0.088   1.838  1.00  0.00     0.006 C 
HETATM   43  C23 UNL     1      10.640  -0.730   3.081  1.00  0.00     0.011 C 
HETATM   44  C24 UNL     1      10.924   1.570   2.162  1.00  0.00     0.011 C 
ENDBRANCH  41  42
ENDBRANCH  38  41
ENDBRANCH  32  35
ENDBRANCH   3  29
BRANCH   5  45
HETATM   45  N8  UNL     1       1.351  -1.045  -4.814  1.00  0.00    -0.283 N 
ATOM     46  H8  UNL     1       0.826  -1.467  -5.580  1.00  0.00     0.178 HD
BRANCH  45  47
HETATM   47  S1  UNL     1       2.853  -0.256  -5.109  1.00  0.00     0.227 S 
HETATM   48  C30 UNL     1       2.702   1.465  -4.616  1.00  0.00     0.186 C 
HETATM   49  O1  UNL     1       3.064  -0.212  -6.619  1.00  0.00    -0.206 OA
HETATM   50  O2  UNL     1       4.030  -0.926  -4.536  1.00  0.00    -0.206 OA
ENDBRANCH  45  47
ENDBRANCH   5  45
TORSDOF 12
