REMARK  14 active torsions:
REMARK  status: ('A' for Active; 'I' for Inactive)
REMARK    1  A    between atoms: C2_2  and  C3_3 
REMARK    2  A    between atoms: C3_3  and  C6_6 
REMARK    3  A    between atoms: C6_6  and  O2_8 
REMARK    4  A    between atoms: O2_8  and  C7_9 
REMARK    5  A    between atoms: C8_10  and  O3_11 
REMARK    6  A    between atoms: C17_24  and  O7_25 
REMARK    7  A    between atoms: C19_27  and  O8_28 
REMARK    8  A    between atoms: O8_28  and  C20_29 
REMARK    9  A    between atoms: C20_29  and  O9_30 
REMARK   10  A    between atoms: C20_29  and  C21_32 
REMARK   11  A    between atoms: C22_33  and  C23_34 
REMARK   12  A    between atoms: C23_34  and  C24_35 
REMARK   13  A    between atoms: C24_35  and  C25_36 
REMARK   14  A    between atoms: C25_36  and  C26_37 
ROOT
HETATM    1  C7  UNL     1      -3.486   0.798  -1.638  1.00  0.00     0.222 C 
HETATM    2  C8  UNL     1      -4.681   0.307  -2.348  1.00  0.00     0.186 C 
HETATM    3  C9  UNL     1      -5.771  -0.072  -1.412  1.00  0.00     0.191 A 
HETATM    4  O4  UNL     1      -6.694  -0.980  -2.115  1.00  0.00    -0.364 OA
HETATM    5  C10 UNL     1      -5.979  -1.338  -0.915  1.00  0.00     0.115 A 
HETATM    6  C11 UNL     1      -7.013  -1.491   0.215  1.00  0.00     0.052 C 
HETATM    7  C12 UNL     1      -4.941  -2.409  -1.001  1.00  0.00     0.197 C 
HETATM    8  O5  UNL     1      -5.405  -3.505  -0.278  1.00  0.00    -0.344 OA
HETATM    9  C13 UNL     1      -4.383  -3.997   0.480  1.00  0.00     0.158 C 
HETATM   10  C14 UNL     1      -4.078  -5.411   0.033  1.00  0.00     0.078 C 
HETATM   11  C15 UNL     1      -4.754  -4.098   1.964  1.00  0.00     0.078 C 
HETATM   12  O6  UNL     1      -3.316  -3.153   0.376  1.00  0.00    -0.341 OA
HETATM   13  C16 UNL     1      -3.714  -1.994  -0.277  1.00  0.00     0.216 C 
HETATM   14  C17 UNL     1      -2.575  -1.574  -1.217  1.00  0.00     0.109 C 
HETATM   15  C19 UNL     1      -2.382  -0.082  -1.224  1.00  0.00     0.114 C 
ENDROOT
BRANCH  15  16
HETATM   16  O8  UNL     1      -1.190   0.257  -1.527  1.00  0.00    -0.316 OA
BRANCH  16  17
HETATM   17  C20 UNL     1      -0.007   0.609  -1.518  1.00  0.00     0.287 C 
BRANCH  17  18
HETATM   18  O9  UNL     1       0.310   1.931  -1.999  1.00  0.00    -0.367 OA
ATOM     19  H9  UNL     1       1.221   2.202  -1.992  1.00  0.00     0.213 HD
ENDBRANCH  17  18
BRANCH  17  20
HETATM   20  C21 UNL     1       1.108  -0.207  -2.076  1.00  0.00     0.029 C 
HETATM   21  C22 UNL     1       2.366  -0.098  -1.760  1.00  0.00    -0.026 C 
BRANCH  21  22
HETATM   22  C23 UNL     1       2.840   0.887  -0.777  1.00  0.00     0.027 C 
BRANCH  22  23
HETATM   23  C24 UNL     1       3.516   0.242   0.414  1.00  0.00     0.007 C 
BRANCH  23  24
HETATM   24  C25 UNL     1       4.704  -0.579  -0.005  1.00  0.00     0.028 C 
BRANCH  24  25
HETATM   25  C26 UNL     1       5.362  -1.203   1.174  1.00  0.00    -0.019 C 
HETATM   26  C27 UNL     1       6.621  -0.950   1.413  1.00  0.00    -0.058 A 
HETATM   27  C28 UNL     1       7.212  -1.590   2.586  1.00  0.00     0.008 A 
HETATM   28  C37 UNL     1       7.384  -0.060   0.518  1.00  0.00     0.077 A 
HETATM   29  C29 UNL     1       8.480  -1.376   2.840  1.00  0.00     0.012 A 
HETATM   30  C30 UNL     1       9.330  -0.543   2.025  1.00  0.00    -0.028 A 
HETATM   31  C31 UNL     1      10.657  -0.363   2.330  1.00  0.00     0.036 A 
HETATM   32  C36 UNL     1       8.802   0.080   0.907  1.00  0.00    -0.043 A 
HETATM   33  C32 UNL     1      11.454   0.421   1.540  1.00  0.00     0.040 A 
HETATM   34 CL1  UNL     1      13.158   0.663   1.914  1.00  0.00    -0.084 Cl
HETATM   35  C33 UNL     1      10.951   1.045   0.431  1.00  0.00    -0.040 A 
HETATM   36  C34 UNL     1      11.828   1.893  -0.425  1.00  0.00     0.050 C 
HETATM   37  C35 UNL     1       9.620   0.867   0.123  1.00  0.00     0.016 A 
ENDBRANCH  24  25
ENDBRANCH  23  24
ENDBRANCH  22  23
ENDBRANCH  21  22
ENDBRANCH  17  20
ENDBRANCH  16  17
ENDBRANCH  15  16
BRANCH   1  38
HETATM   38  O2  UNL     1      -4.078   1.591  -0.610  1.00  0.00    -0.306 OA
BRANCH  38  39
HETATM   39  C6  UNL     1      -4.043   2.952  -0.529  1.00  0.00     0.267 C 
HETATM   40  O1  UNL     1      -3.414   3.482  -1.482  1.00  0.00    -0.264 OA
BRANCH  39  41
HETATM   41  C3  UNL     1      -4.672   3.758   0.556  1.00  0.00     0.040 C 
HETATM   42  C4  UNL     1      -6.183   3.564   0.550  1.00  0.00     0.025 C 
HETATM   43  C5  UNL     1      -4.415   5.210   0.214  1.00  0.00     0.025 C 
BRANCH  41  44
HETATM   44  C2  UNL     1      -4.083   3.407   1.903  1.00  0.00     0.014 C 
HETATM   45  C1  UNL     1      -4.671   4.278   2.985  1.00  0.00     0.006 C 
ENDBRANCH  41  44
ENDBRANCH  39  41
ENDBRANCH  38  39
ENDBRANCH   1  38
BRANCH  14  46
HETATM   46  O7  UNL     1      -2.580  -2.265  -2.373  1.00  0.00    -0.355 OA
HETATM   47  C18 UNL     1      -1.604  -3.229  -2.543  1.00  0.00     0.209 C 
ENDBRANCH  14  46
BRANCH   2  48
HETATM   48  O3  UNL     1      -4.509  -0.518  -3.427  1.00  0.00    -0.390 OA
ATOM     49  H3  UNL     1      -5.279  -0.834  -3.885  1.00  0.00     0.210 HD
ENDBRANCH   2  48
TORSDOF 14
