REMARK  14 active torsions:
REMARK  status: ('A' for Active; 'I' for Inactive)
REMARK    1  A    between atoms: C2_2  and  C3_3 
REMARK    2  A    between atoms: C2_2  and  C5_7 
REMARK    3  A    between atoms: C3_3  and  O2_5 
REMARK    4  A    between atoms: C7_9  and  O3_10 
REMARK    5  A    between atoms: O3_10  and  C8_11 
REMARK    6  A    between atoms: C8_11  and  C9_13 
REMARK    7  A    between atoms: C15_20  and  C16_21 
REMARK    8  A    between atoms: C16_21  and  S1_23 
REMARK    9  A    between atoms: S1_23  and  C17_24 
REMARK   10  A    between atoms: C17_24  and  C18_25 
REMARK   11  A    between atoms: C18_25  and  O6_26 
REMARK   12  A    between atoms: C18_25  and  C19_28 
REMARK   13  A    between atoms: C19_28  and  C21_30 
REMARK   14  A    between atoms: C27_36  and  O7_37 
ROOT
HETATM    1  C16 UNL     1      -3.324  -0.059   1.656  1.00  0.00     0.196 C 
HETATM    2  O5  UNL     1      -3.020  -0.282   2.863  1.00  0.00    -0.285 OA
ENDROOT
BRANCH   1   3
HETATM    3  C15 UNL     1      -4.704  -0.098   1.209  1.00  0.00     0.125 C 
HETATM    4  C7  UNL     1      -5.083  -0.804  -0.030  1.00  0.00     0.149 C 
HETATM    5  C6  UNL     1      -5.856   0.265  -0.896  1.00  0.00     0.047 C 
HETATM    6  C5  UNL     1      -5.119   1.494  -0.534  1.00  0.00     0.055 C 
HETATM    7  C35 UNL     1      -5.108   1.367   0.959  1.00  0.00    -0.066 C 
HETATM    8  C36 UNL     1      -5.406   2.231   1.863  1.00  0.00     0.016 C 
BRANCH   4   9
HETATM    9  O3  UNL     1      -6.033  -1.858   0.210  1.00  0.00    -0.311 OA
BRANCH   9  10
HETATM   10  C8  UNL     1      -5.903  -3.117  -0.350  1.00  0.00     0.295 C 
HETATM   11  O4  UNL     1      -4.907  -3.305  -1.086  1.00  0.00    -0.259 OA
BRANCH  10  12
HETATM   12  C9  UNL     1      -6.906  -4.158  -0.070  1.00  0.00     0.061 A 
HETATM   13  C10 UNL     1      -6.913  -5.300  -0.817  1.00  0.00     0.019 A 
HETATM   14  C11 UNL     1      -7.867  -6.278  -0.560  1.00  0.00     0.001 A 
HETATM   15  C12 UNL     1      -8.813  -6.136   0.429  1.00  0.00     0.002 A 
HETATM   16  C13 UNL     1      -8.786  -4.960   1.176  1.00  0.00     0.025 A 
HETATM   17  C14 UNL     1      -7.846  -3.988   0.928  1.00  0.00     0.050 A 
HETATM   18 CL1  UNL     1      -7.788  -2.493   1.857  1.00  0.00    -0.083 Cl
ENDBRANCH  10  12
ENDBRANCH   9  10
ENDBRANCH   4   9
BRANCH   6  19
HETATM   19  C2  UNL     1      -5.643   2.765  -1.029  1.00  0.00     0.016 C 
HETATM   20  C1  UNL     1      -6.780   2.832  -1.732  1.00  0.00     0.026 C 
BRANCH  19  21
HETATM   21  C3  UNL     1      -4.890   3.999  -0.785  1.00  0.00     0.288 C 
HETATM   22  O1  UNL     1      -3.804   3.967  -0.150  1.00  0.00    -0.260 OA
BRANCH  21  23
HETATM   23  O2  UNL     1      -5.292   5.262  -1.216  1.00  0.00    -0.323 OA
HETATM   24  C4  UNL     1      -4.501   6.410  -0.944  1.00  0.00     0.213 C 
ENDBRANCH  21  23
ENDBRANCH  19  21
ENDBRANCH   6  19
ENDBRANCH   1   3
BRANCH   1  25
HETATM   25  S1  UNL     1      -1.896   0.298   0.631  1.00  0.00    -0.089 SA
BRANCH  25  26
HETATM   26  C17 UNL     1      -0.586   1.053   1.625  1.00  0.00     0.114 C 
BRANCH  26  27
HETATM   27  C18 UNL     1       0.731   1.250   0.944  1.00  0.00     0.132 C 
BRANCH  27  28
HETATM   28  O6  UNL     1       0.566   1.995  -0.185  1.00  0.00    -0.394 OA
ATOM     29  H6  UNL     1       1.403   2.120  -0.618  1.00  0.00     0.210 HD
ENDBRANCH  27  28
BRANCH  27  30
HETATM   30  C19 UNL     1       1.615   0.071   0.863  1.00  0.00     0.016 C 
HETATM   31  C20 UNL     1       1.914  -0.432   2.317  1.00  0.00     0.013 C 
BRANCH  30  32
HETATM   32  C21 UNL     1       2.934   0.183   0.223  1.00  0.00    -0.000 C 
HETATM   33  C22 UNL     1       3.848   1.228   0.815  1.00  0.00     0.009 C 
HETATM   34  C23 UNL     1       5.071   1.434  -0.011  1.00  0.00     0.038 C 
HETATM   35  C24 UNL     1       5.576   0.166  -0.662  1.00  0.00     0.063 C 
HETATM   36  C25 UNL     1       6.604   0.633  -1.684  1.00  0.00     0.041 C 
HETATM   37  O8  UNL     1       6.054  -0.648   0.313  1.00  0.00    -0.367 OA
HETATM   38  C31 UNL     1       4.521  -0.569  -1.449  1.00  0.00     0.047 C 
HETATM   39  C26 UNL     1       7.606  -0.474  -1.837  1.00  0.00     0.038 C 
HETATM   40  C27 UNL     1       8.333  -0.543  -0.499  1.00  0.00     0.152 C 
HETATM   41  C28 UNL     1       7.350  -0.688   0.641  1.00  0.00     0.080 C 
HETATM   42  C29 UNL     1       7.798   0.267   1.746  1.00  0.00     0.048 C 
HETATM   43  C30 UNL     1       7.626  -2.089   1.229  1.00  0.00     0.048 C 
HETATM   44  C32 UNL     1       3.100  -0.022  -1.233  1.00  0.00    -0.041 C 
HETATM   45  C33 UNL     1       2.204  -1.205  -1.659  1.00  0.00     0.015 C 
HETATM   46  C34 UNL     1       2.792   1.089  -2.152  1.00  0.00     0.015 C 
BRANCH  40  47
HETATM   47  O7  UNL     1       9.042   0.646  -0.375  1.00  0.00    -0.393 OA
ATOM     48  H7  UNL     1       9.495   0.603   0.459  1.00  0.00     0.210 HD
ENDBRANCH  40  47
ENDBRANCH  30  32
ENDBRANCH  27  30
ENDBRANCH  26  27
ENDBRANCH  25  26
ENDBRANCH   1  25
TORSDOF 14
