REMARK  2 active torsions:
REMARK  status: ('A' for Active; 'I' for Inactive)
REMARK    1  A    between atoms: N1_6  and  C6_7 
REMARK    2  A    between atoms: C6_7  and  C7_8 
ROOT
HETATM    1  C1  UNL     1      -4.009   1.256   0.468  1.00  0.00     0.061 C 
HETATM    2  C2  UNL     1      -2.487   1.016   0.341  1.00  0.00     0.134 C 
HETATM    3  C3  UNL     1      -1.967   0.383   1.596  1.00  0.00     0.054 C 
HETATM    4  C4  UNL     1      -1.267  -0.927   1.408  1.00  0.00     0.030 C 
HETATM    5  C5  UNL     1      -0.235  -0.992   0.343  1.00  0.00     0.104 C 
HETATM    6  N1  UNL     1       0.684   0.179   0.326  1.00  0.00    -0.350 N 
HETATM    7  C10 UNL     1       0.475   1.552   0.533  1.00  0.00     0.194 C 
HETATM    8  S1  UNL     1       1.576   2.422   1.319  1.00  0.00    -0.039 SA
HETATM    9  N2  UNL     1      -0.645   2.389   0.171  1.00  0.00    -0.239 N 
ATOM     10  H2  UNL     1      -0.345   3.340  -0.041  1.00  0.00     0.197 HD
HETATM   11  O1  UNL     1      -1.973   2.255   0.038  1.00  0.00    -0.256 OA
HETATM   12  C11 UNL     1      -0.921  -1.187  -0.966  1.00  0.00     0.024 C 
HETATM   13  C12 UNL     1      -1.490  -2.612  -0.977  1.00  0.00     0.029 C 
HETATM   14  C13 UNL     1      -0.068  -1.045  -2.187  1.00  0.00     0.029 C 
HETATM   15  S2  UNL     1      -2.285  -0.023  -1.112  1.00  0.00    -0.118 SA
ENDROOT
BRANCH   6  16
HETATM   16  C6  UNL     1       2.015  -0.248   0.045  1.00  0.00     0.130 C 
BRANCH  16  17
HETATM   17  C7  UNL     1       3.049   0.768  -0.259  1.00  0.00     0.004 A 
HETATM   18  C8  UNL     1       4.451   0.143  -0.603  1.00  0.00     0.007 A 
HETATM   19  C9  UNL     1       4.294   0.974   0.586  1.00  0.00     0.007 A 
ENDBRANCH  16  17
ENDBRANCH   6  16
TORSDOF 2
