REMARK  7 active torsions:
REMARK  status: ('A' for Active; 'I' for Inactive)
REMARK    1  A    between atoms: C2_2  and  C3_3 
REMARK    2  A    between atoms: C3_3  and  C4_4 
REMARK    3  A    between atoms: C7_10  and  C8_11 
REMARK    4  A    between atoms: C14_20  and  O3_21 
REMARK    5  A    between atoms: C15_25  and  C16_26 
REMARK    6  A    between atoms: C16_26  and  C17_27 
REMARK    7  A    between atoms: C20_30  and  O4_31 
ROOT
HETATM    1  C4  UNL     1      -0.548   2.073  -0.994  1.00  0.00     0.000 C 
HETATM    2  C5  UNL     1      -1.926   1.571  -0.814  1.00  0.00     0.155 C 
HETATM    3  C6  UNL     1      -2.484   1.420   0.509  1.00  0.00     0.223 C 
HETATM    4  O1  UNL     1      -2.094   2.106   1.476  1.00  0.00    -0.273 OA
HETATM    5  N1  UNL     1      -3.510   0.478   0.773  1.00  0.00    -0.347 N 
ATOM      6  H1  UNL     1      -4.315   0.783   1.321  1.00  0.00     0.163 HD
HETATM    7  C7  UNL     1      -3.478  -0.910   0.302  1.00  0.00     0.180 C 
HETATM    8  C11 UNL     1      -2.744  -1.724   1.274  1.00  0.00     0.241 C 
HETATM    9  O2  UNL     1      -2.716  -1.260   2.479  1.00  0.00    -0.271 OA
HETATM   10  N2  UNL     1      -2.067  -2.932   1.096  1.00  0.00    -0.348 N 
ATOM     11  H2  UNL     1      -2.278  -3.647   1.792  1.00  0.00     0.163 HD
HETATM   12  C12 UNL     1      -1.125  -3.329   0.095  1.00  0.00     0.155 C 
HETATM   13  C13 UNL     1      -1.577  -3.091  -1.333  1.00  0.00     0.041 C 
HETATM   14  C14 UNL     1       0.284  -2.924   0.335  1.00  0.00     0.135 C 
HETATM   15  N3  UNL     1       0.848  -1.851   0.993  1.00  0.00    -0.359 N 
ATOM     16  H3  UNL     1       1.335  -2.128   1.845  1.00  0.00     0.162 HD
HETATM   17  C15 UNL     1       0.910  -0.429   0.758  1.00  0.00     0.180 C 
HETATM   18  C24 UNL     1       0.885  -0.035  -0.663  1.00  0.00     0.246 C 
HETATM   19  O5  UNL     1       1.360  -0.983  -1.400  1.00  0.00    -0.271 OA
HETATM   20  N4  UNL     1       0.471   1.099  -1.312  1.00  0.00    -0.328 N 
HETATM   21  C25 UNL     1       1.214   1.394  -2.591  1.00  0.00     0.159 C 
ENDROOT
BRANCH  17  22
HETATM   22  C16 UNL     1       2.141   0.205   1.446  1.00  0.00     0.073 C 
BRANCH  22  23
HETATM   23  C17 UNL     1       3.418  -0.309   1.013  1.00  0.00    -0.053 A 
HETATM   24  C18 UNL     1       4.093   0.221  -0.097  1.00  0.00     0.010 A 
HETATM   25  C19 UNL     1       5.316  -0.285  -0.476  1.00  0.00     0.040 A 
HETATM   26  C20 UNL     1       5.913  -1.311   0.204  1.00  0.00     0.106 A 
HETATM   27  C22 UNL     1       5.262  -1.841   1.295  1.00  0.00     0.150 A 
HETATM   28  F1  UNL     1       5.859  -2.870   1.979  1.00  0.00    -0.203 F 
HETATM   29  C23 UNL     1       4.043  -1.335   1.673  1.00  0.00     0.052 A 
BRANCH  26  30
HETATM   30  O4  UNL     1       7.150  -1.819  -0.186  1.00  0.00    -0.353 OA
HETATM   31  C21 UNL     1       7.779  -1.253  -1.300  1.00  0.00     0.210 C 
ENDBRANCH  26  30
ENDBRANCH  22  23
ENDBRANCH  17  22
BRANCH  14  32
HETATM   32  O3  UNL     1       1.126  -3.771  -0.189  1.00  0.00    -0.348 OA
ATOM     33  H3  UNL     1       2.027  -3.512  -0.036  1.00  0.00     0.219 HD
ENDBRANCH  14  32
BRANCH   1  34
HETATM   34  C3  UNL     1      -0.066   3.162  -0.076  1.00  0.00     0.053 C 
BRANCH  34  35
HETATM   35  C2  UNL     1      -0.858   4.442  -0.173  1.00  0.00     0.001 C 
HETATM   36  C1  UNL     1      -0.301   5.459   0.797  1.00  0.00     0.005 C 
ENDBRANCH  34  35
ENDBRANCH   1  34
BRANCH   7  37
HETATM   37  C8  UNL     1      -4.919  -1.333   0.123  1.00  0.00     0.009 C 
HETATM   38  C9  UNL     1      -5.512  -0.371  -0.916  1.00  0.00     0.012 C 
HETATM   39  C10 UNL     1      -5.724  -1.281   1.373  1.00  0.00     0.012 C 
ENDBRANCH   7  37
TORSDOF 7
