REMARK  6 active torsions:
REMARK  status: ('A' for Active; 'I' for Inactive)
REMARK    1  A    between atoms: C2_2  and  C3_3 
REMARK    2  A    between atoms: C3_3  and  C4_4 
REMARK    3  A    between atoms: C4_4  and  C5_5 
REMARK    4  A    between atoms: C18_29  and  C19_30 
REMARK    5  A    between atoms: C19_30  and  C20_31 
REMARK    6  A    between atoms: C20_31  and  C21_32 
ROOT
HETATM    1  C5  UNL     1       0.853   1.961   0.760  1.00  0.00     0.176 C 
HETATM    2  N1  UNL     1      -0.453   2.565   0.709  1.00  0.00    -0.348 N 
ATOM      3  H1  UNL     1      -0.695   3.161   1.501  1.00  0.00     0.163 HD
HETATM    4  C6  UNL     1      -1.443   2.444  -0.288  1.00  0.00     0.218 C 
HETATM    5  O1  UNL     1      -1.965   3.473  -0.803  1.00  0.00    -0.274 OA
HETATM    6  C7  UNL     1      -1.984   1.180  -0.847  1.00  0.00     0.104 C 
HETATM    7  C8  UNL     1      -3.387   1.338  -1.378  1.00  0.00     0.027 C 
HETATM    8  C9  UNL     1      -4.312   0.201  -1.076  1.00  0.00     0.034 C 
HETATM    9  C10 UNL     1      -4.466  -0.070   0.388  1.00  0.00     0.025 C 
HETATM   10  C11 UNL     1      -5.705   0.670  -1.548  1.00  0.00     0.025 C 
HETATM   11  C12 UNL     1      -4.041  -1.007  -1.891  1.00  0.00     0.232 C 
HETATM   12  O2  UNL     1      -3.509  -0.753  -3.034  1.00  0.00    -0.272 OA
HETATM   13  N2  UNL     1      -4.287  -2.343  -1.570  1.00  0.00    -0.297 N 
ATOM     14  H2  UNL     1      -4.842  -2.862  -2.250  1.00  0.00     0.171 HD
HETATM   15  C13 UNL     1      -3.876  -3.073  -0.440  1.00  0.00     0.227 C 
HETATM   16  O3  UNL     1      -4.716  -3.825   0.123  1.00  0.00    -0.273 OA
HETATM   17  C14 UNL     1      -2.524  -3.039   0.159  1.00  0.00     0.142 C 
HETATM   18  C15 UNL     1      -1.661  -4.162  -0.342  1.00  0.00     0.196 C 
HETATM   19  F1  UNL     1      -1.702  -4.080  -1.718  1.00  0.00    -0.247 F 
HETATM   20  C16 UNL     1      -0.218  -4.074   0.044  1.00  0.00     0.160 C 
HETATM   21  N3  UNL     1      -0.103  -3.185   1.181  1.00  0.00    -0.357 N 
ATOM     22  H3  UNL     1      -0.390  -3.585   2.074  1.00  0.00     0.162 HD
HETATM   23  C17 UNL     1       0.342  -1.863   1.238  1.00  0.00     0.240 C 
HETATM   24  O4  UNL     1      -0.426  -1.076   1.907  1.00  0.00    -0.271 OA
HETATM   25  C18 UNL     1       1.526  -1.206   0.680  1.00  0.00     0.178 C 
HETATM   26  N4  UNL     1       1.290  -0.302  -0.430  1.00  0.00    -0.341 N 
HETATM   27  C23 UNL     1       1.158  -0.969  -1.715  1.00  0.00     0.153 C 
HETATM   28  C24 UNL     1       1.184   1.098  -0.362  1.00  0.00     0.243 C 
HETATM   29  O5  UNL     1       1.416   1.708  -1.468  1.00  0.00    -0.271 OA
ENDROOT
BRANCH   1  30
HETATM   30  C4  UNL     1       1.854   3.132   0.705  1.00  0.00     0.035 C 
BRANCH  30  31
HETATM   31  C3  UNL     1       1.676   4.078   1.850  1.00  0.00     0.002 C 
BRANCH  31  32
HETATM   32  C2  UNL     1       2.729   5.180   1.672  1.00  0.00    -0.004 C 
HETATM   33  C1  UNL     1       2.624   6.182   2.791  1.00  0.00     0.005 C 
ENDBRANCH  31  32
ENDBRANCH  30  31
ENDBRANCH   1  30
BRANCH  25  34
HETATM   34  C19 UNL     1       2.689  -2.151   0.461  1.00  0.00     0.035 C 
BRANCH  34  35
HETATM   35  C20 UNL     1       3.897  -1.441  -0.106  1.00  0.00     0.002 C 
BRANCH  35  36
HETATM   36  C21 UNL     1       4.998  -2.495  -0.276  1.00  0.00    -0.004 C 
HETATM   37  C22 UNL     1       6.261  -1.891  -0.838  1.00  0.00     0.005 C 
ENDBRANCH  35  36
ENDBRANCH  34  35
ENDBRANCH  25  34
TORSDOF 6
