REMARK  7 active torsions:
REMARK  status: ('A' for Active; 'I' for Inactive)
REMARK    1  A    between atoms: N1_2  and  C3_4 
REMARK    2  A    between atoms: C3_4  and  C4_5 
REMARK    3  A    between atoms: C4_5  and  C5_6 
REMARK    4  A    between atoms: C8_9  and  N2_10 
REMARK       I    between atoms: N2_10  and  C9_12 
REMARK    5  A    between atoms: C9_12  and  C10_14 
REMARK    6  A    between atoms: C14_21  and  C15_22 
REMARK       I    between atoms: C15_22  and  N4_24 
REMARK    7  A    between atoms: N4_24  and  C16_26 
ROOT
HETATM    1  C10 UNL     1       0.760  -1.086   0.576  1.00  0.00     0.109 C 
HETATM    2  C11 UNL     1       2.160  -1.608   0.415  1.00  0.00     0.103 C 
HETATM    3  N3  UNL     1       2.345  -2.671  -0.497  1.00  0.00    -0.364 N 
ATOM      4  H3  UNL     1       1.694  -3.456  -0.468  1.00  0.00     0.162 HD
HETATM    5  C12 UNL     1       3.275  -2.694  -1.342  1.00  0.00     0.162 C 
HETATM    6  F1  UNL     1       3.409  -3.733  -2.192  1.00  0.00    -0.192 F 
HETATM    7  C13 UNL     1       4.223  -1.574  -1.410  1.00  0.00     0.104 C 
HETATM    8  C14 UNL     1       3.504  -0.226  -1.229  1.00  0.00     0.092 C 
HETATM    9  C21 UNL     1       2.539  -0.247  -0.092  1.00  0.00     0.031 C 
HETATM   10  C22 UNL     1       1.118   0.038  -0.360  1.00  0.00    -0.027 C 
HETATM   11  C23 UNL     1       0.599   1.358   0.229  1.00  0.00     0.016 C 
HETATM   12  C24 UNL     1       0.603  -0.128  -1.756  1.00  0.00     0.016 C 
ENDROOT
BRANCH   1  13
HETATM   13  C9  UNL     1      -0.322  -1.962   0.161  1.00  0.00     0.225 C 
HETATM   14  N2  UNL     1      -1.667  -1.555   0.305  1.00  0.00    -0.356 N 
ATOM     15  H2  UNL     1      -1.870  -0.639   0.706  1.00  0.00     0.162 HD
HETATM   16  O1  UNL     1      -0.081  -3.087  -0.329  1.00  0.00    -0.273 OA
BRANCH  14  17
HETATM   17  C8  UNL     1      -2.784  -2.421  -0.110  1.00  0.00     0.084 C 
HETATM   18  C7  UNL     1      -3.590  -2.716   1.119  1.00  0.00     0.025 C 
HETATM   19  C6  UNL     1      -5.057  -2.373   0.928  1.00  0.00     0.007 C 
HETATM   20  C5  UNL     1      -5.073  -0.853   0.713  1.00  0.00    -0.013 C 
HETATM   21  C26 UNL     1      -4.446  -0.588  -0.612  1.00  0.00     0.007 C 
HETATM   22  C25 UNL     1      -3.555  -1.649  -1.145  1.00  0.00     0.025 C 
BRANCH  20  23
HETATM   23  C4  UNL     1      -6.502  -0.424   0.729  1.00  0.00     0.034 C 
BRANCH  23  24
HETATM   24  C3  UNL     1      -6.621   1.059   0.527  1.00  0.00     0.271 C 
BRANCH  24  25
HETATM   25  N1  UNL     1      -7.987   1.516   0.535  1.00  0.00     0.080 N 
HETATM   26  C1  UNL     1      -8.678   1.022  -0.636  1.00  0.00     0.309 C 
HETATM   27  C2  UNL     1      -8.023   2.954   0.537  1.00  0.00     0.309 C 
ENDBRANCH  24  25
ENDBRANCH  23  24
ENDBRANCH  20  23
ENDBRANCH  14  17
ENDBRANCH   1  13
BRANCH   8  28
HETATM   28  C15 UNL     1       4.572   0.753  -0.929  1.00  0.00     0.223 C 
HETATM   29  O2  UNL     1       4.720   1.758  -1.695  1.00  0.00    -0.273 OA
HETATM   30  N4  UNL     1       5.449   0.626   0.184  1.00  0.00    -0.352 N 
ATOM     31  H4  UNL     1       5.333  -0.177   0.802  1.00  0.00     0.163 HD
BRANCH  30  32
HETATM   32  C16 UNL     1       6.483   1.564   0.480  1.00  0.00     0.141 C 
HETATM   33  C17 UNL     1       6.433   2.103   1.906  1.00  0.00     0.195 C 
HETATM   34  O3  UNL     1       7.704   2.600   2.071  1.00  0.00    -0.380 OA
HETATM   35  C18 UNL     1       8.609   1.800   1.425  1.00  0.00     0.179 C 
HETATM   36  C19 UNL     1       9.155   2.351   0.121  1.00  0.00     0.266 C 
HETATM   37  C20 UNL     1       7.840   0.848   0.529  1.00  0.00     0.240 C 
HETATM   38  N5  UNL     1       8.707   1.136  -0.576  1.00  0.00    -0.064 N 
ATOM     39  H52 UNL     1       8.334   1.193  -1.523  1.00  0.00     0.277 HD
ATOM     40  H51 UNL     1       9.385   0.444  -0.893  1.00  0.00     0.277 HD
ENDBRANCH  30  32
ENDBRANCH   8  28
TORSDOF 7
