REMARK  6 active torsions:
REMARK  status: ('A' for Active; 'I' for Inactive)
REMARK    1  A    between atoms: O1_2  and  C2_3 
REMARK    2  A    between atoms: C2_3  and  C3_4 
REMARK    3  A    between atoms: C3_4  and  C4_5 
REMARK    4  A    between atoms: C4_5  and  N1_6 
REMARK    5  A    between atoms: N1_6  and  C5_8 
REMARK    6  A    between atoms: C17_22  and  C18_23 
ROOT
HETATM    1  C5  UNL     1       3.726  -0.769  -0.233  1.00  0.00     0.085 C 
HETATM    2  C6  UNL     1       3.892  -0.343  -1.634  1.00  0.00     0.026 C 
HETATM    3  C7  UNL     1       2.783  -1.109  -2.402  1.00  0.00     0.012 C 
HETATM    4  C8  UNL     1       1.940  -1.787  -1.430  1.00  0.00    -0.030 C 
HETATM    5  C9  UNL     1       2.407  -3.220  -1.296  1.00  0.00     0.016 C 
HETATM    6  C10 UNL     1       2.226  -1.034  -0.139  1.00  0.00     0.018 C 
HETATM    7  C11 UNL     1       1.411   0.186  -0.290  1.00  0.00     0.020 C 
HETATM    8  C12 UNL     1       0.169  -0.194  -1.115  1.00  0.00    -0.008 C 
HETATM    9  C13 UNL     1       0.171   0.733  -2.323  1.00  0.00     0.018 C 
HETATM   10  C14 UNL     1      -1.025   0.101  -0.337  1.00  0.00     0.145 C 
HETATM   11  O2  UNL     1      -2.043   0.878  -1.013  1.00  0.00    -0.315 OA
HETATM   12  C15 UNL     1      -3.318   0.327  -1.194  1.00  0.00     0.264 C 
HETATM   13  O3  UNL     1      -3.864   0.241  -2.318  1.00  0.00    -0.265 OA
HETATM   14  C16 UNL     1      -4.032  -0.172  -0.007  1.00  0.00     0.095 C 
HETATM   15  C17 UNL     1      -5.188   0.500   0.494  1.00  0.00     0.003 C 
HETATM   16  C21 UNL     1      -5.579   0.024   1.891  1.00  0.00     0.006 C 
HETATM   17  C22 UNL     1      -4.461  -0.314   2.776  1.00  0.00     0.005 C 
HETATM   18  C23 UNL     1      -3.483  -1.311   2.108  1.00  0.00    -0.013 C 
HETATM   19  C24 UNL     1      -2.551  -1.692   3.204  1.00  0.00     0.010 C 
HETATM   20  C25 UNL     1      -2.912  -0.532   0.997  1.00  0.00     0.010 C 
HETATM   21  C26 UNL     1      -1.860  -1.108   0.134  1.00  0.00     0.021 C 
HETATM   22  C27 UNL     1      -0.906  -2.074   0.650  1.00  0.00     0.008 C 
HETATM   23  C28 UNL     1      -0.108  -2.624  -0.516  1.00  0.00     0.011 C 
HETATM   24  C29 UNL     1       0.443  -1.626  -1.474  1.00  0.00    -0.027 C 
HETATM   25  C30 UNL     1      -0.094  -1.978  -2.847  1.00  0.00     0.017 C 
ENDROOT
BRANCH   1  26
HETATM   26  N1  UNL     1       4.178   0.046   0.788  1.00  0.00    -0.397 N 
ATOM     27  H1  UNL     1       3.492   0.444   1.430  1.00  0.00     0.159 HD
BRANCH  26  28
HETATM   28  C4  UNL     1       5.520   0.350   0.984  1.00  0.00     0.058 C 
BRANCH  28  29
HETATM   29  C3  UNL     1       6.115   1.300   0.025  1.00  0.00     0.070 C 
BRANCH  29  30
HETATM   30  C2  UNL     1       5.416   2.632   0.062  1.00  0.00     0.172 C 
BRANCH  30  31
HETATM   31  O1  UNL     1       5.458   3.249   1.274  1.00  0.00    -0.396 OA
HETATM   32  C1  UNL     1       6.707   3.549   1.764  1.00  0.00     0.201 C 
ENDBRANCH  30  31
ENDBRANCH  29  30
ENDBRANCH  28  29
ENDBRANCH  26  28
ENDBRANCH   1  26
BRANCH  15  33
HETATM   33  C18 UNL     1      -5.490   1.934   0.336  1.00  0.00    -0.018 C 
HETATM   34  C19 UNL     1      -5.666   2.439  -1.078  1.00  0.00     0.010 C 
HETATM   35  C20 UNL     1      -4.569   2.909   0.993  1.00  0.00     0.010 C 
ENDBRANCH  15  33
TORSDOF 6
