REMARK  4 active torsions:
REMARK  status: ('A' for Active; 'I' for Inactive)
REMARK    1  A    between atoms: O1_3  and  C2_4 
REMARK    2  A    between atoms: C6_9  and  N2_10 
REMARK    3  A    between atoms: C6_9  and  C7_14 
REMARK       I    between atoms: C7_14  and  N3_16 
REMARK       I    between atoms: N3_16  and  C8_18 
REMARK    4  A    between atoms: N5_20  and  N6_22 
ROOT
HETATM    1  N1  UNL     1       3.402   3.294   1.166  1.00  0.00    -0.164 NA
HETATM    2  C1  UNL     1       2.762   2.349   1.355  1.00  0.00     0.234 C 
HETATM    3  O1  UNL     1       2.006   1.207   1.562  1.00  0.00    -0.242 OA
ENDROOT
BRANCH   3   4
HETATM    4  C2  UNL     1       2.167   0.163   0.634  1.00  0.00     0.116 C 
HETATM    5  C3  UNL     1       3.307  -0.476   0.452  1.00  0.00     0.087 C 
HETATM    6  C4  UNL     1       3.144  -1.500  -0.575  1.00  0.00     0.155 C 
HETATM    7  O2  UNL     1       3.989  -2.027  -1.289  1.00  0.00    -0.293 OA
HETATM    8  C5  UNL     1       1.684  -1.776  -0.570  1.00  0.00     0.139 C 
HETATM    9  C6  UNL     1       1.160  -0.380  -0.255  1.00  0.00     0.259 C 
BRANCH   9  10
HETATM   10  N2  UNL     1       1.235   0.383  -1.508  1.00  0.00    -0.055 N 
ATOM     11  H23 UNL     1       1.146   1.390  -1.370  1.00  0.00     0.276 HD
ATOM     12  H22 UNL     1       2.169   0.389  -1.918  1.00  0.00     0.276 HD
ATOM     13  H21 UNL     1       0.526   0.001  -2.134  1.00  0.00     0.276 HD
ENDBRANCH   9  10
BRANCH   9  14
HETATM   14  C7  UNL     1      -0.201  -0.394   0.257  1.00  0.00     0.267 C 
HETATM   15  O3  UNL     1      -0.493  -0.989   1.317  1.00  0.00    -0.270 OA
HETATM   16  N3  UNL     1      -1.232   0.278  -0.453  1.00  0.00    -0.297 N 
HETATM   17  C8  UNL     1      -2.574   0.303  -0.013  1.00  0.00     0.209 C 
ATOM     18  H3  UNL     1      -0.993   0.763  -1.318  1.00  0.00     0.171 HD
HETATM   19  N4  UNL     1      -2.898  -0.369   1.183  1.00  0.00    -0.062 NA
HETATM   20  N5  UNL     1      -3.467   0.919  -0.683  1.00  0.00    -0.280 N 
ATOM     21  H5  UNL     1      -3.182   1.389  -1.542  1.00  0.00     0.189 HD
BRANCH  20  22
HETATM   22  N6  UNL     1      -4.800   0.989  -0.316  1.00  0.00    -0.343 N 
ATOM     23  H62 UNL     1      -5.067   0.513   0.546  1.00  0.00     0.176 HD
ATOM     24  H61 UNL     1      -5.514   1.482  -0.852  1.00  0.00     0.176 HD
ENDBRANCH  20  22
ENDBRANCH   9  14
ENDBRANCH   3   4
TORSDOF 4
