REMARK  4 active torsions:
REMARK  status: ('A' for Active; 'I' for Inactive)
REMARK    1  A    between atoms: O1_2  and  N1_3 
REMARK       I    between atoms: N1_3  and  C3_5 
REMARK    2  A    between atoms: C3_5  and  C4_7 
REMARK    3  A    between atoms: C5_10  and  N3_11 
REMARK    4  A    between atoms: N6_21  and  N7_23 
ROOT
HETATM    1  C4  UNL     1      -0.269  -0.308   0.130  1.00  0.00     0.164 C 
HETATM    2  N2  UNL     1      -0.645  -0.270   1.422  1.00  0.00    -0.182 N 
ATOM      3  H2  UNL     1      -0.010  -0.705   2.091  1.00  0.00     0.184 HD
HETATM    4  C5  UNL     1      -1.778   0.284   1.937  1.00  0.00     0.680 C 
HETATM    5  N4  UNL     1      -2.968   0.425   1.306  1.00  0.00    -0.141 N 
ATOM      6  H4  UNL     1      -3.759   0.640   1.913  1.00  0.00     0.189 HD
HETATM    7  C6  UNL     1      -3.261   0.324   0.001  1.00  0.00     0.340 C 
HETATM    8  O3  UNL     1      -4.353   0.874  -0.394  1.00  0.00    -0.246 OA
HETATM    9  N5  UNL     1      -2.521  -0.299  -0.926  1.00  0.00    -0.291 N 
ATOM     10  H5  UNL     1      -3.017  -0.598  -1.766  1.00  0.00     0.172 HD
HETATM   11  C7  UNL     1      -1.192  -0.583  -0.888  1.00  0.00     0.157 C 
HETATM   12  N6  UNL     1      -0.659  -1.190  -1.885  1.00  0.00    -0.290 N 
ATOM     13  H6  UNL     1       0.333  -1.428  -1.893  1.00  0.00     0.188 HD
ENDROOT
BRANCH   1  14
HETATM   14  C3  UNL     1       1.086  -0.084  -0.286  1.00  0.00     0.297 C 
HETATM   15  N1  UNL     1       2.220   0.206   0.505  1.00  0.00    -0.226 N 
HETATM   16  C2  UNL     1       2.036   0.181   1.986  1.00  0.00     0.189 C 
HETATM   17  O2  UNL     1       1.303  -0.151  -1.549  1.00  0.00    -0.264 OA
BRANCH  15  18
HETATM   18  O1  UNL     1       3.453   0.457   0.107  1.00  0.00    -0.280 OA
HETATM   19  C1  UNL     1       3.845   0.711  -1.131  1.00  0.00     0.238 C 
ENDBRANCH  15  18
ENDBRANCH   1  14
BRANCH   4  20
HETATM   20  N3  UNL     1      -1.742   0.717   3.140  1.00  0.00    -0.234 N 
ATOM     21  H32 UNL     1      -0.846   0.611   3.615  1.00  0.00     0.174 HD
ATOM     22  H31 UNL     1      -2.590   1.132   3.526  1.00  0.00     0.174 HD
ENDBRANCH   4  20
BRANCH  12  23
HETATM   23  N7  UNL     1      -1.500  -1.515  -2.968  1.00  0.00    -0.344 N 
ATOM     24  H72 UNL     1      -2.490  -1.271  -2.945  1.00  0.00     0.176 HD
ATOM     25  H71 UNL     1      -1.076  -1.998  -3.761  1.00  0.00     0.176 HD
ENDBRANCH  12  23
TORSDOF 4
