REMARK  6 active torsions:
REMARK  status: ('A' for Active; 'I' for Inactive)
REMARK    1  A    between atoms: C2_5  and  C3_6 
REMARK    2  A    between atoms: C3_6  and  N3_7 
REMARK    3  A    between atoms: C3_6  and  C4_11 
REMARK       I    between atoms: C4_11  and  N4_13 
REMARK    4  A    between atoms: N4_13  and  N5_15 
REMARK    5  A    between atoms: N5_15  and  C5_17 
REMARK    6  A    between atoms: N7_21  and  O2_22 
ROOT
HETATM    1  C3  UNL     1      -0.305  -1.832  -0.034  1.00  0.00     0.328 C 
ENDROOT
BRANCH   1   2
HETATM    2  C2  UNL     1      -1.047  -0.554   0.103  1.00  0.00     0.086 A 
HETATM    3  N2  UNL     1      -2.388  -0.387  -0.100  1.00  0.00    -0.283 N 
HETATM    4  N1  UNL     1      -2.739   0.857   0.109  1.00  0.00    -0.212 N 
ATOM      5  H2  UNL     1      -3.029  -1.131  -0.377  1.00  0.00     0.188 HD
HETATM    6  C1  UNL     1      -4.091   1.432  -0.020  1.00  0.00     0.202 C 
HETATM    7  N7  UNL     1      -1.677   1.546   0.451  1.00  0.00    -0.157 N 
HETATM    8  C6  UNL     1      -0.613   0.701   0.456  1.00  0.00     0.174 A 
BRANCH   7   9
HETATM    9  O2  UNL     1      -1.616   2.884   0.764  1.00  0.00    -0.267 OA
ATOM     10  H2  UNL     1      -0.847   3.383   1.012  1.00  0.00     0.247 HD
ENDBRANCH   7   9
ENDBRANCH   1   2
BRANCH   1  11
HETATM   11  N3  UNL     1      -0.901  -2.819   0.829  1.00  0.00    -0.061 N 
ATOM     12  H33 UNL     1      -0.956  -2.504   1.798  1.00  0.00     0.275 HD
ATOM     13  H32 UNL     1      -1.900  -2.931   0.658  1.00  0.00     0.275 HD
ATOM     14  H31 UNL     1      -0.391  -3.697   0.735  1.00  0.00     0.275 HD
ENDBRANCH   1  11
BRANCH   1  15
HETATM   15  C4  UNL     1       1.135  -1.701   0.062  1.00  0.00     0.273 C 
HETATM   16  O1  UNL     1       1.819  -2.387   0.871  1.00  0.00    -0.269 OA
HETATM   17  N4  UNL     1       1.858  -0.791  -0.766  1.00  0.00    -0.266 N 
ATOM     18  H4  UNL     1       1.323  -0.215  -1.416  1.00  0.00     0.190 HD
BRANCH  17  19
HETATM   19  N5  UNL     1       3.234  -0.634  -0.750  1.00  0.00    -0.276 N 
ATOM     20  H5  UNL     1       3.820  -1.451  -0.921  1.00  0.00     0.189 HD
BRANCH  19  21
HETATM   21  C5  UNL     1       3.853   0.590  -0.511  1.00  0.00     0.199 C 
HETATM   22  N6  UNL     1       3.115   1.760  -0.262  1.00  0.00    -0.068 NA
HETATM   23  S1  UNL     1       5.485   0.685  -0.533  1.00  0.00    -0.043 SA
ENDBRANCH  19  21
ENDBRANCH  17  19
ENDBRANCH   1  15
TORSDOF 6
