REMARK  14 active torsions:
REMARK  status: ('A' for Active; 'I' for Inactive)
REMARK    1  A    between atoms: C4_4  and  C5_5 
REMARK    2  A    between atoms: C5_5  and  O1_6 
REMARK    3  A    between atoms: O1_6  and  C6_7 
REMARK       I    between atoms: C6_7  and  N1_9 
REMARK    4  A    between atoms: N1_9  and  N2_10 
REMARK    5  A    between atoms: N2_10  and  C7_12 
REMARK    6  A    between atoms: C8_13  and  N3_14 
REMARK    7  A    between atoms: N3_14  and  O3_16 
REMARK    8  A    between atoms: C9_20  and  N5_21 
REMARK    9  A    between atoms: N5_21  and  N6_23 
REMARK   10  A    between atoms: C10_28  and  N9_29 
REMARK   11  A    between atoms: N9_29  and  N10_31 
REMARK   12  A    between atoms: C11_34  and  O4_35 
REMARK   13  A    between atoms: N11_37  and  C12_38 
REMARK   14  A    between atoms: C12_38  and  O5_42 
ROOT
HETATM    1  C1  UNL     1      10.187   1.112   1.171  1.00  0.00     0.017 C 
HETATM    2  C2  UNL     1       9.325   1.355   0.343  1.00  0.00    -0.090 C 
HETATM    3  C3  UNL     1       8.255   1.588  -0.594  1.00  0.00     0.061 C 
HETATM    4  C4  UNL     1       7.333   0.696  -0.924  1.00  0.00     0.009 C 
ENDROOT
BRANCH   4   5
HETATM    5  C5  UNL     1       6.255   0.726  -1.780  1.00  0.00     0.210 C 
BRANCH   5   6
HETATM    6  O1  UNL     1       5.079   0.483  -0.902  1.00  0.00    -0.288 OA
BRANCH   6   7
HETATM    7  C6  UNL     1       3.780   0.206  -1.624  1.00  0.00     0.458 C 
HETATM    8  O2  UNL     1       4.042   0.196  -2.791  1.00  0.00    -0.219 OA
HETATM    9  N1  UNL     1       2.814   0.061  -0.710  1.00  0.00    -0.258 NA
BRANCH   9  10
HETATM   10  N2  UNL     1       1.858  -0.083   0.190  1.00  0.00    -0.221 N 
ATOM     11  H2  UNL     1       2.187   0.231   1.103  1.00  0.00     0.202 HD
BRANCH  10  12
HETATM   12  C7  UNL     1       0.534  -0.531   0.285  1.00  0.00     0.176 A 
HETATM   13  C8  UNL     1       0.051  -0.991   1.554  1.00  0.00     0.175 A 
HETATM   14  N4  UNL     1      -1.241  -1.224   1.558  1.00  0.00    -0.170 N 
HETATM   15  C9  UNL     1      -2.156  -1.099   0.582  1.00  0.00     0.713 A 
ATOM     16  H4  UNL     1      -1.611  -1.554   2.449  1.00  0.00     0.186 HD
HETATM   17  N11 UNL     1      -1.682  -0.685  -0.599  1.00  0.00    -0.070 N 
HETATM   18  C13 UNL     1      -0.357  -0.410  -0.720  1.00  0.00     0.302 A 
HETATM   19  O6  UNL     1       0.100  -0.023  -1.858  1.00  0.00    -0.264 OA
BRANCH  13  20
HETATM   20  N3  UNL     1       0.965  -1.264   2.584  1.00  0.00    -0.250 N 
ATOM     21  H3  UNL     1       0.679  -1.380   3.556  1.00  0.00     0.196 HD
BRANCH  20  22
HETATM   22  O3  UNL     1       2.243  -1.360   2.190  1.00  0.00    -0.288 OA
ATOM     23  H3  UNL     1       2.862  -1.545   2.887  1.00  0.00     0.244 HD
ENDBRANCH  20  22
ENDBRANCH  13  20
BRANCH  15  24
HETATM   24  N5  UNL     1      -3.258  -1.321   0.905  1.00  0.00    -0.106 N 
ATOM     25  H5  UNL     1      -3.114  -1.541   1.890  1.00  0.00     0.208 HD
BRANCH  24  26
HETATM   26  N6  UNL     1      -4.585  -1.474   0.823  1.00  0.00    -0.140 N 
HETATM   27  N7  UNL     1      -5.325  -2.458   0.472  1.00  0.00    -0.217 N 
HETATM   28  N8  UNL     1      -6.599  -2.175   0.624  1.00  0.00    -0.265 N 
ATOM     29  H7  UNL     1      -4.971  -3.347   0.120  1.00  0.00     0.210 HD
HETATM   30  C10 UNL     1      -6.738  -0.885   1.129  1.00  0.00     0.191 A 
ATOM     31  H8  UNL     1      -7.370  -2.806   0.405  1.00  0.00     0.190 HD
HETATM   32  C11 UNL     1      -5.444  -0.452   1.242  1.00  0.00     0.228 A 
BRANCH  30  33
HETATM   33  N9  UNL     1      -7.990  -0.271   1.336  1.00  0.00    -0.287 N 
ATOM     34  H9  UNL     1      -8.858  -0.802   1.264  1.00  0.00     0.188 HD
BRANCH  33  35
HETATM   35  N10 UNL     1      -7.997   1.126   1.651  1.00  0.00    -0.343 N 
ATOM     36 2H10 UNL     1      -7.120   1.643   1.719  1.00  0.00     0.176 HD
ATOM     37 1H10 UNL     1      -8.903   1.570   1.801  1.00  0.00     0.176 HD
ENDBRANCH  33  35
ENDBRANCH  30  33
BRANCH  32  38
HETATM   38  O4  UNL     1      -5.095   0.764   1.680  1.00  0.00    -0.341 OA
ATOM     39  H4  UNL     1      -5.678   1.458   1.964  1.00  0.00     0.219 HD
ENDBRANCH  32  38
ENDBRANCH  24  26
ENDBRANCH  15  24
BRANCH  17  40
HETATM   40  C12 UNL     1      -2.503  -0.474  -1.694  1.00  0.00     0.240 C 
HETATM   41  N12 UNL     1      -3.702  -0.185  -2.205  1.00  0.00    -0.364 N 
ATOM     42 2H12 UNL     1      -4.304  -0.077  -1.389  1.00  0.00     0.159 HD
ATOM     43 1H12 UNL     1      -4.307  -0.030  -3.012  1.00  0.00     0.159 HD
BRANCH  40  44
HETATM   44  O5  UNL     1      -1.648  -0.628  -2.853  1.00  0.00    -0.332 OA
ATOM     45  H5  UNL     1      -2.211  -0.483  -3.604  1.00  0.00     0.221 HD
ENDBRANCH  40  44
ENDBRANCH  17  40
ENDBRANCH  10  12
ENDBRANCH   9  10
ENDBRANCH   6   7
ENDBRANCH   5   6
ENDBRANCH   4   5
TORSDOF 14
