REMARK  11 active torsions:
REMARK  status: ('A' for Active; 'I' for Inactive)
REMARK    1  A    between atoms: O1_2  and  C2_3 
REMARK    2  A    between atoms: C3_8  and  N3_9 
REMARK    3  A    between atoms: N3_9  and  C4_11 
REMARK    4  A    between atoms: N5_15  and  N6_16 
REMARK    5  A    between atoms: N7_18  and  C6_20 
REMARK    6  A    between atoms: C7_21  and  C8_22 
REMARK    7  A    between atoms: C9_27  and  N9_28 
REMARK    8  A    between atoms: C10_33  and  N11_34 
REMARK    9  A    between atoms: C12_39  and  C13_40 
REMARK   10  A    between atoms: C13_40  and  N12_41 
REMARK   11  A    between atoms: C13_40  and  N13_45 
ROOT
HETATM    1  C4  UNL     1       0.606  -1.124  -0.781  1.00  0.00     0.175 A 
HETATM    2  N4  UNL     1      -0.053  -1.099   0.313  1.00  0.00    -0.354 N 
ATOM      3  H4  UNL     1       0.383  -1.192   1.231  1.00  0.00     0.163 HD
HETATM    4  C5  UNL     1      -1.463  -0.928   0.127  1.00  0.00     0.277 A 
HETATM    5  N5  UNL     1      -1.644  -0.843  -1.287  1.00  0.00    -0.222 N 
HETATM    6  C11 UNL     1      -0.328  -0.967  -1.869  1.00  0.00     0.308 A 
HETATM    7  O4  UNL     1      -0.083  -0.937  -3.125  1.00  0.00    -0.262 OA
ENDROOT
BRANCH   1   8
HETATM    8  N3  UNL     1       2.011  -1.277  -0.978  1.00  0.00    -0.321 N 
ATOM      9  H3  UNL     1       2.354  -2.047  -1.552  1.00  0.00     0.169 HD
BRANCH   8  10
HETATM   10  C3  UNL     1       2.933  -0.386  -0.395  1.00  0.00     0.148 A 
HETATM   11  N2  UNL     1       2.438   0.674   0.293  1.00  0.00    -0.281 N 
HETATM   12  N1  UNL     1       3.202   1.590   0.832  1.00  0.00    -0.263 N 
ATOM     13  H2  UNL     1       1.427   0.761   0.394  1.00  0.00     0.188 HD
HETATM   14  C2  UNL     1       4.534   1.498   0.713  1.00  0.00     0.238 A 
ATOM     15  H1  UNL     1       2.786   2.370   1.340  1.00  0.00     0.190 HD
HETATM   16  N14 UNL     1       5.047   0.483   0.053  1.00  0.00    -0.318 N 
HETATM   17  C12 UNL     1       4.277  -0.492  -0.522  1.00  0.00     0.116 A 
ATOM     18  H14 UNL     1       6.061   0.419  -0.034  1.00  0.00     0.169 HD
BRANCH  14  19
HETATM   19  O1  UNL     1       5.362   2.483   1.291  1.00  0.00    -0.326 OA
HETATM   20  C1  UNL     1       4.798   3.571   1.999  1.00  0.00     0.213 C 
ENDBRANCH  14  19
BRANCH  17  21
HETATM   21  C13 UNL     1       4.919  -1.636  -1.200  1.00  0.00     0.431 C 
BRANCH  21  22
HETATM   22  N12 UNL     1       4.389  -2.877  -0.709  1.00  0.00    -0.045 N 
ATOM     23 3H12 UNL     1       4.466  -2.946   0.306  1.00  0.00     0.277 HD
ATOM     24 2H12 UNL     1       3.373  -2.912  -0.788  1.00  0.00     0.277 HD
ATOM     25 1H12 UNL     1       4.832  -3.667  -1.177  1.00  0.00     0.277 HD
ENDBRANCH  21  22
BRANCH  21  26
HETATM   26  N13 UNL     1       6.367  -1.576  -1.016  1.00  0.00    -0.045 N 
ATOM     27 3H13 UNL     1       6.755  -0.683  -1.322  1.00  0.00     0.277 HD
ATOM     28 2H13 UNL     1       6.626  -1.521  -0.031  1.00  0.00     0.277 HD
ATOM     29 1H13 UNL     1       6.810  -2.366  -1.484  1.00  0.00     0.277 HD
ENDBRANCH  21  26
ENDBRANCH  17  21
ENDBRANCH   8  10
ENDBRANCH   1   8
BRANCH   5  30
HETATM   30  N6  UNL     1      -2.781  -0.679  -2.047  1.00  0.00    -0.235 N 
HETATM   31  N7  UNL     1      -3.933  -0.405  -1.762  1.00  0.00    -0.280 N 
ATOM     32  H7  UNL     1      -4.577  -0.349  -2.551  1.00  0.00     0.188 HD
ATOM     33  H6  UNL     1      -2.628  -0.814  -3.046  1.00  0.00     0.208 HD
BRANCH  31  34
HETATM   34  C6  UNL     1      -4.502  -0.155  -0.501  1.00  0.00     0.127 A 
HETATM   35  C7  UNL     1      -4.591   1.129  -0.006  1.00  0.00     0.157 A 
HETATM   36  N8  UNL     1      -5.144   1.323   1.203  1.00  0.00    -0.183 N 
HETATM   37  C9  UNL     1      -5.626   0.348   1.982  1.00  0.00     0.678 A 
ATOM     38  H8  UNL     1      -5.200   2.280   1.551  1.00  0.00     0.184 HD
HETATM   39  N10 UNL     1      -5.536  -0.898   1.492  1.00  0.00    -0.175 N 
HETATM   40  C10 UNL     1      -5.000  -1.171   0.301  1.00  0.00     0.145 A 
ATOM     41  H10 UNL     1      -5.893  -1.670   2.055  1.00  0.00     0.186 HD
BRANCH  35  42
HETATM   42  C8  UNL     1      -4.096   2.279  -0.782  1.00  0.00     0.230 C 
HETATM   43  O2  UNL     1      -3.581   2.185  -1.896  1.00  0.00    -0.643 OA
HETATM   44  O3  UNL     1      -4.213   3.550  -0.233  1.00  0.00    -0.643 OA
ENDBRANCH  35  42
BRANCH  37  45
HETATM   45  N9  UNL     1      -6.139   0.633   3.131  1.00  0.00    -0.234 N 
ATOM     46  H92 UNL     1      -6.207   1.580   3.503  1.00  0.00     0.174 HD
ATOM     47  H91 UNL     1      -6.506  -0.110   3.725  1.00  0.00     0.174 HD
ENDBRANCH  37  45
BRANCH  40  48
HETATM   48  N11 UNL     1      -4.938  -2.388  -0.134  1.00  0.00    -0.383 N 
ATOM     49 2H11 UNL     1      -4.528  -2.597  -1.044  1.00  0.00     0.157 HD
ATOM     50 1H11 UNL     1      -5.304  -3.135   0.456  1.00  0.00     0.157 HD
ENDBRANCH  40  48
ENDBRANCH  31  34
ENDBRANCH   5  30
TORSDOF 11
