REMARK  8 active torsions:
REMARK  status: ('A' for Active; 'I' for Inactive)
REMARK    1  A    between atoms: O1_2  and  C2_3 
REMARK    2  A    between atoms: C2_3  and  C3_5 
REMARK    3  A    between atoms: C4_8  and  N2_9 
REMARK    4  A    between atoms: C6_14  and  C7_15 
REMARK    5  A    between atoms: C9_22  and  N7_23 
REMARK    6  A    between atoms: N7_23  and  N8_25 
REMARK       I    between atoms: N8_25  and  C10_27 
REMARK       I    between atoms: C10_27  and  N9_29 
REMARK       I    between atoms: N9_29  and  C11_31 
REMARK    7  A    between atoms: C13_36  and  S1_37 
REMARK    8  A    between atoms: S1_37  and  C14_38 
ROOT
HETATM    1  C3  UNL     1      -0.463  -2.828   0.504  1.00  0.00     0.144 A 
HETATM    2  N1  UNL     1      -1.412  -1.893   0.321  1.00  0.00    -0.331 N 
ATOM      3  H1  UNL     1      -2.376  -2.193   0.178  1.00  0.00     0.168 HD
HETATM    4  C4  UNL     1      -1.136  -0.576   0.319  1.00  0.00     0.175 A 
HETATM    5  C9  UNL     1       0.151  -0.124   0.509  1.00  0.00     0.168 A 
HETATM    6  N10 UNL     1       1.112  -1.048   0.693  1.00  0.00    -0.331 N 
ATOM      7  H10 UNL     1       2.075  -0.744   0.835  1.00  0.00     0.168 HD
HETATM    8  C13 UNL     1       0.827  -2.375   0.694  1.00  0.00     0.111 A 
ENDROOT
BRANCH   4   9
HETATM    9  N2  UNL     1      -2.159   0.390   0.123  1.00  0.00    -0.218 N 
HETATM   10  N3  UNL     1      -3.083   0.654   1.025  1.00  0.00    -0.277 N 
HETATM   11  C5  UNL     1      -3.919   1.605   0.578  1.00  0.00     0.150 A 
ATOM     12  H3  UNL     1      -3.153   0.199   1.935  1.00  0.00     0.189 HD
HETATM   13  N4  UNL     1      -5.029   2.144   1.270  1.00  0.00    -0.080 NA
HETATM   14  C6  UNL     1      -3.474   1.949  -0.690  1.00  0.00     0.117 A 
HETATM   15  C8  UNL     1      -2.371   1.177  -0.957  1.00  0.00     0.141 A 
HETATM   16  N6  UNL     1      -1.624   1.130  -1.983  1.00  0.00    -0.383 N 
ATOM     17  H62 UNL     1      -0.804   0.556  -2.181  1.00  0.00     0.157 HD
ATOM     18  H61 UNL     1      -1.784   1.723  -2.797  1.00  0.00     0.157 HD
BRANCH  14  19
HETATM   19  C7  UNL     1      -4.091   2.940  -1.534  1.00  0.00     0.272 C 
HETATM   20  N5  UNL     1      -3.612   3.265  -2.819  1.00  0.00    -0.057 NA
HETATM   21  O3  UNL     1      -5.113   3.573  -1.140  1.00  0.00    -0.271 OA
ENDBRANCH  14  19
ENDBRANCH   4   9
BRANCH   5  22
HETATM   22  N7  UNL     1       0.391   1.150   0.503  1.00  0.00    -0.278 N 
ATOM     23  H7  UNL     1      -0.377   1.806   0.358  1.00  0.00     0.189 HD
BRANCH  22  24
HETATM   24  N8  UNL     1       1.701   1.643   0.694  1.00  0.00    -0.250 N 
HETATM   25  C10 UNL     1       2.303   2.347  -0.348  1.00  0.00     0.341 C 
HETATM   26  O4  UNL     1       1.611   2.497  -1.421  1.00  0.00    -0.245 OA
HETATM   27  N9  UNL     1       3.572   2.892  -0.323  1.00  0.00    -0.278 N 
HETATM   28  C11 UNL     1       4.476   2.841   0.733  1.00  0.00     0.221 C 
ATOM     29  H9  UNL     1       3.877   3.382  -1.164  1.00  0.00     0.173 HD
HETATM   30  C12 UNL     1       5.833   3.504   0.569  1.00  0.00     0.117 C 
HETATM   31  O5  UNL     1       4.317   2.300   1.847  1.00  0.00    -0.274 OA
ATOM     32  H8  UNL     1       2.195   1.488   1.573  1.00  0.00     0.192 HD
ENDBRANCH  22  24
ENDBRANCH   5  22
BRANCH   1  33
HETATM   33  C2  UNL     1      -0.789  -4.258   0.502  1.00  0.00     0.312 C 
HETATM   34  O2  UNL     1      -1.997  -4.582   0.321  1.00  0.00    -0.258 OA
BRANCH  33  35
HETATM   35  O1  UNL     1       0.146  -5.240   0.685  1.00  0.00    -0.321 OA
HETATM   36  C1  UNL     1      -0.244  -6.593   0.670  1.00  0.00     0.213 C 
ENDBRANCH  33  35
ENDBRANCH   1  33
BRANCH   8  37
HETATM   37  S1  UNL     1       2.123  -3.562   0.941  1.00  0.00    -0.041 SA
BRANCH  37  38
HETATM   38  C14 UNL     1       2.877  -4.072  -0.578  1.00  0.00     0.310 C 
HETATM   39  O6  UNL     1       2.272  -3.927  -1.620  1.00  0.00    -0.295 OA
ENDBRANCH  37  38
ENDBRANCH   8  37
TORSDOF 8
