REMARK  9 active torsions:
REMARK  status: ('A' for Active; 'I' for Inactive)
REMARK    1  A    between atoms: C2_2  and  S1_3 
REMARK    2  A    between atoms: S1_3  and  C3_6 
REMARK    3  A    between atoms: C6_12  and  N2_13 
REMARK       I    between atoms: N2_13  and  C7_15 
REMARK    4  A    between atoms: C7_15  and  C8_17 
REMARK    5  A    between atoms: C9_20  and  C10_21 
REMARK    6  A    between atoms: N4_22  and  N5_24 
REMARK    7  A    between atoms: N5_24  and  C11_26 
REMARK    8  A    between atoms: C14_33  and  O5_34 
REMARK    9  A    between atoms: N9_38  and  N10_39 
ROOT
HETATM    1  C8  UNL     1      -0.037  -0.591   1.487  1.00  0.00     0.214 A 
HETATM    2  N3  UNL     1       0.892  -0.715   0.607  1.00  0.00    -0.330 N 
ATOM      3  H3  UNL     1       0.640  -0.750  -0.381  1.00  0.00     0.168 HD
HETATM    4  C9  UNL     1       2.271  -0.805   0.978  1.00  0.00     0.103 A 
HETATM    5  C14 UNL     1       2.609  -0.759   2.265  1.00  0.00     0.185 A 
HETATM    6  N8  UNL     1       1.608  -0.623   3.238  1.00  0.00    -0.255 N 
ATOM      7  H8  UNL     1       1.861  -0.587   4.226  1.00  0.00     0.191 HD
HETATM    8  N9  UNL     1       0.249  -0.536   2.854  1.00  0.00    -0.178 N 
ENDROOT
BRANCH   1   9
HETATM    9  C7  UNL     1      -1.449  -0.502   1.055  1.00  0.00     0.293 C 
HETATM   10  N2  UNL     1      -1.730  -0.556  -0.301  1.00  0.00    -0.316 N 
ATOM     11  H2  UNL     1      -0.935  -0.655  -0.932  1.00  0.00     0.169 HD
HETATM   12  O4  UNL     1      -2.288  -0.385   1.944  1.00  0.00    -0.264 OA
BRANCH  10  13
HETATM   13  C6  UNL     1      -3.007  -0.488  -0.894  1.00  0.00     0.105 A 
HETATM   14  C5  UNL     1      -3.092  -0.557  -2.296  1.00  0.00     0.272 A 
HETATM   15  N1  UNL     1      -4.261  -0.498  -2.901  1.00  0.00    -0.330 N 
HETATM   16  O3  UNL     1      -1.997  -0.677  -2.926  1.00  0.00    -0.266 OA
HETATM   17  C4  UNL     1      -5.405  -0.373  -2.240  1.00  0.00     0.115 A 
ATOM     18  H1  UNL     1      -4.288  -0.551  -3.919  1.00  0.00     0.168 HD
HETATM   19  C3  UNL     1      -5.399  -0.299  -0.867  1.00  0.00     0.081 A 
HETATM   20  C15 UNL     1      -4.184  -0.357  -0.185  1.00  0.00     0.060 A 
BRANCH  19  21
HETATM   21  S1  UNL     1      -6.870  -0.133   0.070  1.00  0.00     0.197 S 
HETATM   22  O1  UNL     1      -6.668  -0.806   1.400  1.00  0.00    -0.218 OA
HETATM   23  O2  UNL     1      -8.025  -0.750  -0.667  1.00  0.00    -0.218 OA
BRANCH  21  24
HETATM   24  C2  UNL     1      -7.224   1.579   0.289  1.00  0.00     0.104 C 
HETATM   25  C1  UNL     1      -8.451   1.932   0.585  1.00  0.00     0.024 C 
ENDBRANCH  21  24
ENDBRANCH  19  21
ENDBRANCH  10  13
ENDBRANCH   1   9
BRANCH   8  26
HETATM   26  N10 UNL     1      -0.690  -0.404   3.853  1.00  0.00    -0.322 N 
ATOM     27 2H10 UNL     1      -1.670  -0.341   3.576  1.00  0.00     0.179 HD
ATOM     28 1H10 UNL     1      -0.481  -0.364   4.851  1.00  0.00     0.179 HD
ENDBRANCH   8  26
BRANCH   4  29
HETATM   29  C10 UNL     1       3.281  -0.945  -0.060  1.00  0.00     0.141 C 
HETATM   30  N4  UNL     1       4.526  -1.028   0.249  1.00  0.00    -0.307 N 
ATOM     31  H4  UNL     1       4.797  -0.995   1.232  1.00  0.00     0.186 HD
BRANCH  30  32
HETATM   32  N5  UNL     1       5.507  -1.161  -0.714  1.00  0.00    -0.272 N 
ATOM     33  H5  UNL     1       5.593  -2.033  -1.237  1.00  0.00     0.190 HD
BRANCH  32  34
HETATM   34  C11 UNL     1       6.391  -0.092  -0.976  1.00  0.00     0.190 C 
HETATM   35  N6  UNL     1       6.902   0.642  -0.075  1.00  0.00    -0.360 N 
HETATM   36  C12 UNL     1       7.756   1.636  -0.680  1.00  0.00     0.142 C 
ATOM     37  H6  UNL     1       6.734   0.544   0.926  1.00  0.00     0.162 HD
HETATM   38  C13 UNL     1       7.273   1.682  -2.101  1.00  0.00     0.142 C 
HETATM   39  N7  UNL     1       6.816   0.296  -2.277  1.00  0.00    -0.360 N 
ATOM     40  H7  UNL     1       6.806  -0.259  -3.133  1.00  0.00     0.162 HD
ENDBRANCH  32  34
ENDBRANCH  30  32
ENDBRANCH   4  29
BRANCH   5  41
HETATM   41  O5  UNL     1       3.968  -0.852   2.540  1.00  0.00    -0.343 OA
ATOM     42  H5  UNL     1       4.209  -0.819   3.458  1.00  0.00     0.219 HD
ENDBRANCH   5  41
TORSDOF 9
