REMARK  12 active torsions:
REMARK  status: ('A' for Active; 'I' for Inactive)
REMARK    1  A    between atoms: N1_1  and  C1_4 
REMARK    2  A    between atoms: N5_10  and  C2_11 
REMARK    3  A    between atoms: C3_14  and  N7_15 
REMARK    4  A    between atoms: N7_15  and  C4_17 
REMARK    5  A    between atoms: C4_17  and  C5_18 
REMARK    6  A    between atoms: C5_18  and  O1_19 
REMARK    7  A    between atoms: C6_23  and  N9_24 
REMARK    8  A    between atoms: N9_24  and  C7_26 
REMARK    9  A    between atoms: C10_29  and  N10_30 
REMARK   10  A    between atoms: C12_34  and  C13_35 
REMARK   11  A    between atoms: C13_35  and  N13_37 
REMARK   12  A    between atoms: N13_37  and  O2_39 
ROOT
HETATM    1  C2  UNL     1      -3.366   1.401  -0.352  1.00  0.00     0.748 A 
HETATM    2  N6  UNL     1      -4.524   0.719  -0.409  1.00  0.00    -0.019 N 
ATOM      3  H6  UNL     1      -5.398   1.246  -0.409  1.00  0.00     0.203 HD
HETATM    4  C3  UNL     1      -4.587  -0.642  -0.467  1.00  0.00     0.707 A 
HETATM    5  N8  UNL     1      -3.439  -1.315  -0.467  1.00  0.00    -0.021 N 
ATOM      6  H8  UNL     1      -3.465  -2.334  -0.510  1.00  0.00     0.203 HD
HETATM    7  C6  UNL     1      -2.229  -0.690  -0.411  1.00  0.00     0.711 A 
HETATM    8  N14 UNL     1      -2.240   0.644  -0.356  1.00  0.00    -0.019 N 
ATOM      9  H14 UNL     1      -1.342   1.126  -0.314  1.00  0.00     0.203 HD
ENDROOT
BRANCH   7  10
HETATM   10  N9  UNL     1      -1.185  -1.410  -0.415  1.00  0.00    -0.191 N 
ATOM     11  H9  UNL     1      -1.328  -2.419  -0.460  1.00  0.00     0.184 HD
BRANCH  10  12
HETATM   12  C7  UNL     1       0.137  -0.971  -0.365  1.00  0.00     0.049 A 
HETATM   13  C8  UNL     1       0.679  -0.283  -1.414  1.00  0.00     0.032 A 
HETATM   14  C9  UNL     1       1.993   0.176  -1.408  1.00  0.00     0.032 A 
HETATM   15  C10 UNL     1       2.762  -0.080  -0.300  1.00  0.00     0.039 A 
HETATM   16  C15 UNL     1       2.206  -0.778   0.761  1.00  0.00     0.032 A 
HETATM   17  C16 UNL     1       0.907  -1.223   0.737  1.00  0.00     0.032 A 
BRANCH  15  18
HETATM   18  N10 UNL     1       4.110   0.370  -0.252  1.00  0.00    -0.316 N 
HETATM   19  C11 UNL     1       4.560   1.636  -0.290  1.00  0.00     0.188 A 
HETATM   20  N11 UNL     1       5.897   1.664  -0.222  1.00  0.00    -0.348 N 
HETATM   21  C12 UNL     1       6.316   0.399  -0.139  1.00  0.00     0.092 A 
ATOM     22  H11 UNL     1       6.486   2.497  -0.232  1.00  0.00     0.167 HD
HETATM   23  C14 UNL     1       5.199  -0.401  -0.158  1.00  0.00     0.131 A 
BRANCH  21  24
HETATM   24  C13 UNL     1       7.702  -0.066  -0.045  1.00  0.00     0.164 C 
HETATM   25  N12 UNL     1       7.976  -1.446   0.037  1.00  0.00    -0.078 NA
BRANCH  24  26
HETATM   26  N13 UNL     1       8.678   0.754  -0.034  1.00  0.00    -0.253 N 
ATOM     27  H13 UNL     1       9.625   0.380   0.034  1.00  0.00     0.195 HD
BRANCH  26  28
HETATM   28  O2  UNL     1       8.519   2.105  -0.108  1.00  0.00    -0.288 OA
ATOM     29  H2  UNL     1       9.246   2.716  -0.100  1.00  0.00     0.244 HD
ENDBRANCH  26  28
ENDBRANCH  24  26
ENDBRANCH  21  24
ENDBRANCH  15  18
ENDBRANCH  10  12
ENDBRANCH   7  10
BRANCH   4  30
HETATM   30  N7  UNL     1      -5.727  -1.222  -0.519  1.00  0.00    -0.223 N 
ATOM     31  H7  UNL     1      -6.565  -0.640  -0.515  1.00  0.00     0.177 HD
BRANCH  30  32
HETATM   32  C4  UNL     1      -5.890  -2.651  -0.583  1.00  0.00     0.164 C 
BRANCH  32  33
HETATM   33  C5  UNL     1      -5.833  -3.296   0.785  1.00  0.00     0.184 C 
BRANCH  33  34
HETATM   34  O1  UNL     1      -6.837  -2.812   1.622  1.00  0.00    -0.399 OA
ATOM     35  H1  UNL     1      -6.801  -3.217   2.481  1.00  0.00     0.209 HD
ENDBRANCH  33  34
ENDBRANCH  32  33
ENDBRANCH  30  32
ENDBRANCH   4  30
BRANCH   1  36
HETATM   36  N5  UNL     1      -3.331   2.810  -0.292  1.00  0.00     0.105 N 
HETATM   37  C1  UNL     1      -3.500   3.587   0.772  1.00  0.00     0.726 A 
HETATM   38  N2  UNL     1      -3.394   4.893   0.424  1.00  0.00    -0.113 N 
HETATM   39  N3  UNL     1      -3.152   4.887  -0.892  1.00  0.00     0.009 NA
ATOM     40  H2  UNL     1      -3.480   5.706   1.034  1.00  0.00     0.203 HD
HETATM   41  N4  UNL     1      -3.117   3.611  -1.313  1.00  0.00    -0.190 N 
ATOM     42  H4  UNL     1      -2.951   3.311  -2.274  1.00  0.00     0.207 HD
BRANCH  37  43
HETATM   43  N1  UNL     1      -3.733   3.171   1.965  1.00  0.00    -0.231 N 
ATOM     44  H12 UNL     1      -3.863   3.768   2.782  1.00  0.00     0.174 HD
ATOM     45  H11 UNL     1      -3.813   2.188   2.227  1.00  0.00     0.174 HD
ENDBRANCH  37  43
ENDBRANCH   1  36
TORSDOF 12
