REMARK  9 active torsions:
REMARK  status: ('A' for Active; 'I' for Inactive)
REMARK    1  A    between atoms: C6_7  and  C7_8 
REMARK    2  A    between atoms: C18_29  and  O2_30 
REMARK    3  A    between atoms: O2_30  and  C19_31 
REMARK    4  A    between atoms: C19_31  and  C20_32 
REMARK    5  A    between atoms: C20_32  and  C21_33 
REMARK    6  A    between atoms: C21_33  and  C22_34 
REMARK    7  A    between atoms: C22_34  and  N5_35 
REMARK    8  A    between atoms: C25_38  and  C26_39 
REMARK    9  A    between atoms: C26_39  and  N6_40 
ROOT
HETATM    1  N1  UNL     1      -4.727  -2.238  -4.989  1.00  0.00    -0.102 NA
HETATM    2  C1  UNL     1      -5.382  -2.060  -3.736  1.00  0.00     0.062 A 
HETATM    3  C2  UNL     1      -4.822  -1.331  -2.703  1.00  0.00     0.042 A 
HETATM    4  C3  UNL     1      -5.503  -1.196  -1.525  1.00  0.00     0.008 A 
HETATM    5  C4  UNL     1      -6.756  -1.776  -1.354  1.00  0.00     0.047 A 
HETATM    6  C5  UNL     1      -7.293  -2.503  -2.412  1.00  0.00     0.048 A 
HETATM    7  C6  UNL     1      -6.620  -2.650  -3.593  1.00  0.00     0.074 A 
HETATM    8  N2  UNL     1      -7.491  -1.605  -0.246  1.00  0.00    -0.322 N 
ATOM      9  H2  UNL     1      -8.405  -2.050  -0.167  1.00  0.00     0.169 HD
HETATM   10  C8  UNL     1      -7.031  -0.859   0.746  1.00  0.00     0.259 A 
HETATM   11  O1  UNL     1      -7.701  -0.669   1.813  1.00  0.00    -0.267 OA
HETATM   12  C9  UNL     1      -5.808  -0.249   0.678  1.00  0.00     0.076 A 
HETATM   13  C10 UNL     1      -5.380   0.536   1.728  1.00  0.00     0.077 A 
HETATM   14  N3  UNL     1      -5.862   0.913   2.927  1.00  0.00    -0.353 N 
ATOM     15  H3  UNL     1      -6.762   0.624   3.309  1.00  0.00     0.166 HD
HETATM   16  C11 UNL     1      -4.987   1.727   3.551  1.00  0.00     0.045 A 
HETATM   17  C12 UNL     1      -4.987   2.382   4.771  1.00  0.00     0.030 A 
HETATM   18  C13 UNL     1      -3.953   3.175   5.193  1.00  0.00     0.002 A 
HETATM   19  C14 UNL     1      -2.849   3.338   4.368  1.00  0.00     0.001 A 
HETATM   20  C15 UNL     1      -2.820   2.698   3.144  1.00  0.00     0.016 A 
HETATM   21  C16 UNL     1      -3.876   1.908   2.751  1.00  0.00     0.020 A 
HETATM   22  C17 UNL     1      -4.084   1.167   1.580  1.00  0.00     0.074 A 
HETATM   23  N4  UNL     1      -3.363   0.975   0.488  1.00  0.00    -0.334 N 
ATOM     24  H4  UNL     1      -2.453   1.429   0.413  1.00  0.00     0.168 HD
HETATM   25  C18 UNL     1      -3.800   0.182  -0.552  1.00  0.00     0.155 A 
HETATM   26  C34 UNL     1      -5.019  -0.421  -0.475  1.00  0.00     0.045 A 
ENDROOT
BRANCH  25  27
HETATM   27  O2  UNL     1      -2.927   0.038  -1.606  1.00  0.00    -0.335 OA
BRANCH  27  28
HETATM   28  C19 UNL     1      -1.784  -0.867  -1.471  1.00  0.00     0.177 C 
BRANCH  28  29
HETATM   29  C20 UNL     1      -0.847  -0.491  -0.390  1.00  0.00     0.028 C 
BRANCH  29  30
HETATM   30  C21 UNL     1       0.304  -1.517  -0.341  1.00  0.00     0.021 C 
BRANCH  30  31
HETATM   31  C22 UNL     1       1.282  -1.131   0.749  1.00  0.00     0.117 C 
BRANCH  31  32
HETATM   32  N5  UNL     1       1.858   0.156   0.549  1.00  0.00    -0.412 N 
HETATM   33  C23 UNL     1       2.738   0.213  -0.569  1.00  0.00     0.117 C 
HETATM   34  C24 UNL     1       4.143  -0.194  -0.175  1.00  0.00     0.025 C 
HETATM   35  C25 UNL     1       4.610   0.683   0.973  1.00  0.00     0.017 C 
HETATM   36  C32 UNL     1       3.662   0.369   2.131  1.00  0.00     0.025 C 
HETATM   37  C33 UNL     1       2.288   0.842   1.722  1.00  0.00     0.117 C 
BRANCH  35  38
HETATM   38  C26 UNL     1       6.004   0.278   1.370  1.00  0.00     0.277 C 
BRANCH  38  39
HETATM   39  N6  UNL     1       6.864   0.436   0.244  1.00  0.00     0.088 N 
HETATM   40  C27 UNL     1       7.106   1.777  -0.184  1.00  0.00     0.272 C 
HETATM   41  C28 UNL     1       7.929   1.696  -1.458  1.00  0.00     0.030 C 
HETATM   42  C29 UNL     1       9.314   1.229  -1.074  1.00  0.00     0.003 C 
HETATM   43  C30 UNL     1       9.306   0.479   0.252  1.00  0.00     0.030 C 
HETATM   44  C31 UNL     1       8.051  -0.374   0.303  1.00  0.00     0.272 C 
ENDBRANCH  38  39
ENDBRANCH  35  38
ENDBRANCH  31  32
ENDBRANCH  30  31
ENDBRANCH  29  30
ENDBRANCH  28  29
ENDBRANCH  27  28
ENDBRANCH  25  27
BRANCH   7  45
HETATM   45  C7  UNL     1      -7.236  -3.443  -4.704  1.00  0.00     0.419 C 
HETATM   46  F1  UNL     1      -7.383  -2.601  -5.794  1.00  0.00    -0.166 F 
HETATM   47  F2  UNL     1      -8.484  -3.886  -4.355  1.00  0.00    -0.166 F 
HETATM   48  F3  UNL     1      -6.388  -4.461  -5.103  1.00  0.00    -0.166 F 
ENDBRANCH   7  45
TORSDOF 9
