REMARK  10 active torsions:
REMARK  status: ('A' for Active; 'I' for Inactive)
REMARK       I    between atoms: C1_2  and  N1_3 
REMARK    1  A    between atoms: C1_2  and  O5_37 
REMARK    2  A    between atoms: N1_3  and  C2_5 
REMARK    3  A    between atoms: C4_7  and  C5_8 
REMARK    4  A    between atoms: C9_16  and  C10_17 
REMARK    5  A    between atoms: C13_20  and  N3_21 
REMARK    6  A    between atoms: N3_21  and  C14_24 
REMARK    7  A    between atoms: C14_24  and  C15_25 
REMARK    8  A    between atoms: O5_37  and  C26_38 
REMARK    9  A    between atoms: C26_38  and  C27_39 
REMARK   10  A    between atoms: C32_44  and  C33_45 
ROOT
HETATM    1  C2  UNL     1      -3.599  -1.242   3.218  1.00  0.00     0.122 C 
HETATM    2  C3  UNL     1      -4.501  -2.254   3.782  1.00  0.00     0.046 C 
HETATM    3  C4  UNL     1      -3.802  -3.435   4.374  1.00  0.00     0.095 C 
HETATM    4  C6  UNL     1      -2.942  -4.133   3.329  1.00  0.00     0.073 C 
HETATM    5  C7  UNL     1      -2.070  -3.118   2.663  1.00  0.00     0.018 A 
HETATM    6  N2  UNL     1      -0.903  -3.516   2.073  1.00  0.00    -0.368 N 
ATOM      7  H2  UNL     1      -0.665  -4.508   2.095  1.00  0.00     0.165 HD
HETATM    8  C8  UNL     1      -0.058  -2.676   1.469  1.00  0.00     0.095 A 
HETATM    9  C9  UNL     1      -0.339  -1.329   1.417  1.00  0.00    -0.038 A 
HETATM   10  C24 UNL     1      -1.496  -0.873   1.991  1.00  0.00     0.020 A 
HETATM   11  C25 UNL     1      -2.368  -1.795   2.622  1.00  0.00    -0.012 A 
ENDROOT
BRANCH   9  12
HETATM   12  C10 UNL     1       0.587  -0.378   0.764  1.00  0.00     0.020 C 
HETATM   13  C11 UNL     1       0.663  -0.586  -0.733  1.00  0.00     0.011 C 
HETATM   14  C12 UNL     1       1.645   0.464  -1.268  1.00  0.00     0.034 C 
HETATM   15  C13 UNL     1       3.030   0.213  -0.711  1.00  0.00     0.186 C 
HETATM   16  C22 UNL     1       2.973  -0.859   0.335  1.00  0.00     0.034 C 
HETATM   17  C23 UNL     1       1.952  -0.386   1.384  1.00  0.00     0.011 C 
BRANCH  15  18
HETATM   18  N3  UNL     1       3.512   1.470  -0.181  1.00  0.00    -0.068 N 
ATOM     19  H32 UNL     1       3.593   2.162  -0.926  1.00  0.00     0.277 HD
ATOM     20  H31 UNL     1       2.794   1.913   0.392  1.00  0.00     0.277 HD
BRANCH  18  21
HETATM   21  C14 UNL     1       4.743   1.374   0.547  1.00  0.00     0.276 C 
BRANCH  21  22
HETATM   22  C15 UNL     1       5.883   1.025  -0.390  1.00  0.00     0.213 C 
HETATM   23  C16 UNL     1       6.195   1.886  -1.450  1.00  0.00    -0.150 C 
HETATM   24  C17 UNL     1       6.230   2.755  -2.551  1.00  0.00     0.082 C 
HETATM   25  C18 UNL     1       7.652   3.410  -2.510  1.00  0.00     0.011 C 
HETATM   26  C19 UNL     1       8.190   3.689  -1.170  1.00  0.00     0.003 C 
HETATM   27  C20 UNL     1       8.758   2.621  -0.287  1.00  0.00     0.026 C 
HETATM   28  C21 UNL     1       7.727   2.065   0.708  1.00  0.00     0.169 C 
HETATM   29  O4  UNL     1       7.043   0.947   0.452  1.00  0.00    -0.373 OA
ENDBRANCH  21  22
ENDBRANCH  18  21
ENDBRANCH  15  18
ENDBRANCH   9  12
BRANCH   1  30
HETATM   30  N1  UNL     1      -4.259  -0.429   2.199  1.00  0.00    -0.328 N 
HETATM   31  C1  UNL     1      -4.753  -0.985   1.004  1.00  0.00     0.361 C 
HETATM   32  O1  UNL     1      -4.666  -2.199   0.730  1.00  0.00    -0.238 OA
ATOM     33  H1  UNL     1      -4.365   0.573   2.359  1.00  0.00     0.165 HD
BRANCH  31  34
HETATM   34  O5  UNL     1      -5.370  -0.153   0.078  1.00  0.00    -0.299 OA
BRANCH  34  35
HETATM   35  C26 UNL     1      -5.896  -0.678  -1.146  1.00  0.00     0.220 C 
BRANCH  35  36
HETATM   36  C27 UNL     1      -6.477   0.423  -1.910  1.00  0.00    -0.019 A 
HETATM   37  C28 UNL     1      -6.429   1.700  -1.394  1.00  0.00     0.010 A 
HETATM   38  C29 UNL     1      -6.942   2.807  -2.038  1.00  0.00     0.001 A 
HETATM   39  C30 UNL     1      -7.537   2.630  -3.267  1.00  0.00     0.001 A 
HETATM   40  C31 UNL     1      -7.591   1.361  -3.793  1.00  0.00     0.017 A 
HETATM   41  C32 UNL     1      -7.078   0.264  -3.146  1.00  0.00     0.056 A 
BRANCH  41  42
HETATM   42  C33 UNL     1      -7.144  -1.096  -3.721  1.00  0.00     0.418 C 
HETATM   43  F1  UNL     1      -5.919  -1.666  -3.918  1.00  0.00    -0.166 F 
HETATM   44  F2  UNL     1      -7.990  -1.924  -2.977  1.00  0.00    -0.166 F 
HETATM   45  F3  UNL     1      -7.749  -0.987  -4.973  1.00  0.00    -0.166 F 
ENDBRANCH  41  42
ENDBRANCH  35  36
ENDBRANCH  34  35
ENDBRANCH  31  34
ENDBRANCH   1  30
BRANCH   3  46
HETATM   46  C5  UNL     1      -4.796  -4.405   4.869  1.00  0.00     0.177 C 
HETATM   47  O2  UNL     1      -6.023  -4.170   4.731  1.00  0.00    -0.648 OA
HETATM   48  O3  UNL     1      -4.371  -5.564   5.480  1.00  0.00    -0.648 OA
ENDBRANCH   3  46
TORSDOF 10
