REMARK  11 active torsions:
REMARK  status: ('A' for Active; 'I' for Inactive)
REMARK    1  A    between atoms: C2_2  and  C3_3 
REMARK    2  A    between atoms: C3_3  and  C4_4 
REMARK    3  A    between atoms: C4_4  and  C5_5 
REMARK    4  A    between atoms: C12_16  and  N2_17 
REMARK    5  A    between atoms: N2_17  and  C13_19 
REMARK    6  A    between atoms: C16_22  and  O1_23 
REMARK    7  A    between atoms: O1_23  and  C17_24 
REMARK    8  A    between atoms: C17_24  and  C18_25 
REMARK    9  A    between atoms: C21_28  and  N3_29 
REMARK   10  A    between atoms: C25_33  and  C26_34 
REMARK   11  A    between atoms: C26_34  and  N4_35 
ROOT
HETATM    1  C13 UNL     1      -3.006   0.679  -0.409  1.00  0.00     0.082 C 
HETATM    2  C14 UNL     1      -2.342   1.543  -1.441  1.00  0.00     0.027 C 
HETATM    3  C15 UNL     1      -1.054   2.136  -0.913  1.00  0.00     0.034 C 
HETATM    4  C16 UNL     1      -0.252   1.144  -0.091  1.00  0.00     0.122 C 
HETATM    5  C31 UNL     1      -0.726  -0.240  -0.477  1.00  0.00     0.034 C 
HETATM    6  C32 UNL     1      -2.123  -0.470   0.029  1.00  0.00     0.027 C 
ENDROOT
BRANCH   4   7
HETATM    7  O1  UNL     1      -0.460   1.447   1.222  1.00  0.00    -0.381 OA
BRANCH   7   8
HETATM    8  C17 UNL     1       0.685   1.712   1.945  1.00  0.00     0.214 C 
BRANCH   8   9
HETATM    9  C18 UNL     1       1.534   0.465   1.932  1.00  0.00     0.009 A 
HETATM   10  C19 UNL     1       2.686   0.234   1.226  1.00  0.00     0.033 A 
HETATM   11  C20 UNL     1       3.275  -0.965   1.377  1.00  0.00     0.025 A 
HETATM   12  C21 UNL     1       4.450  -1.427   0.764  1.00  0.00     0.044 A 
HETATM   13  C30 UNL     1       2.677  -1.854   2.221  1.00  0.00     0.086 A 
HETATM   14  C28 UNL     1       4.905  -2.696   1.042  1.00  0.00     0.047 A 
HETATM   15  C29 UNL     1       4.284  -3.579   1.899  1.00  0.00     0.091 A 
HETATM   16  N5  UNL     1       3.157  -3.111   2.476  1.00  0.00    -0.359 N 
ATOM     17  H5  UNL     1       2.647  -3.713   3.122  1.00  0.00     0.166 HD
HETATM   18  S1  UNL     1       1.311  -0.997   2.782  1.00  0.00    -0.074 SA
BRANCH  12  19
HETATM   19  N3  UNL     1       5.204  -0.613  -0.160  1.00  0.00    -0.380 N 
HETATM   20  C22 UNL     1       4.672  -0.120  -1.396  1.00  0.00     0.123 C 
HETATM   21  C23 UNL     1       5.150   1.251  -1.723  1.00  0.00     0.020 C 
HETATM   22  C24 UNL     1       6.129   1.845  -0.768  1.00  0.00     0.009 C 
HETATM   23  C25 UNL     1       7.203   0.810  -0.503  1.00  0.00     0.029 C 
HETATM   24  C27 UNL     1       6.563  -0.323   0.213  1.00  0.00     0.129 C 
BRANCH  23  25
HETATM   25  C26 UNL     1       8.344   1.347   0.317  1.00  0.00     0.235 C 
BRANCH  25  26
HETATM   26  N4  UNL     1       9.292   0.260   0.494  1.00  0.00    -0.079 N 
ATOM     27  H43 UNL     1       8.870  -0.577   0.896  1.00  0.00     0.274 HD
ATOM     28  H42 UNL     1       9.594  -0.155  -0.387  1.00  0.00     0.274 HD
ATOM     29  H41 UNL     1      10.066   0.624   1.050  1.00  0.00     0.274 HD
ENDBRANCH  25  26
ENDBRANCH  23  25
ENDBRANCH  12  19
ENDBRANCH   8   9
ENDBRANCH   7   8
ENDBRANCH   4   7
BRANCH   1  30
HETATM   30  N2  UNL     1      -4.327   0.294  -0.796  1.00  0.00    -0.384 N 
ATOM     31  H2  UNL     1      -5.067   0.939  -0.518  1.00  0.00     0.160 HD
BRANCH  30  32
HETATM   32  C12 UNL     1      -4.758  -0.847  -1.506  1.00  0.00     0.043 A 
HETATM   33  C11 UNL     1      -3.896  -1.303  -2.529  1.00  0.00     0.047 A 
HETATM   34  C10 UNL     1      -4.316  -2.243  -3.444  1.00  0.00     0.090 A 
HETATM   35  N1  UNL     1      -5.538  -2.748  -3.394  1.00  0.00    -0.365 N 
HETATM   36  C9  UNL     1      -6.382  -2.346  -2.439  1.00  0.00     0.047 A 
ATOM     37  H1  UNL     1      -5.834  -3.441  -4.081  1.00  0.00     0.165 HD
HETATM   38  C8  UNL     1      -7.648  -2.920  -2.378  1.00  0.00     0.056 A 
HETATM   39  C33 UNL     1      -6.012  -1.395  -1.470  1.00  0.00     0.037 A 
HETATM   40  C7  UNL     1      -8.541  -2.587  -1.401  1.00  0.00     0.059 A 
HETATM   41  C6  UNL     1      -8.140  -1.660  -0.473  1.00  0.00     0.075 A 
HETATM   42 CL2  UNL     1     -10.115  -3.332  -1.375  1.00  0.00    -0.082 Cl
HETATM   43  C5  UNL     1      -6.882  -1.049  -0.477  1.00  0.00     0.056 A 
HETATM   44 CL1  UNL     1      -9.253  -1.190   0.806  1.00  0.00    -0.081 Cl
BRANCH  43  45
HETATM   45  C4  UNL     1      -6.519  -0.247   0.657  1.00  0.00    -0.064 C 
BRANCH  45  46
HETATM   46  C3  UNL     1      -6.244   0.394   1.679  1.00  0.00    -0.101 C 
BRANCH  46  47
HETATM   47  C2  UNL     1      -5.935   1.138   2.899  1.00  0.00     0.090 C 
HETATM   48  C1  UNL     1      -6.245   2.595   2.628  1.00  0.00     0.018 C 
ENDBRANCH  46  47
ENDBRANCH  45  46
ENDBRANCH  43  45
ENDBRANCH  30  32
ENDBRANCH   1  30
TORSDOF 11
