REMARK  10 active torsions:
REMARK  status: ('A' for Active; 'I' for Inactive)
REMARK    1  A    between atoms: C2_2  and  O1_5 
REMARK    2  A    between atoms: O1_5  and  C5_6 
REMARK    3  A    between atoms: C5_6  and  C6_8 
REMARK    4  A    between atoms: C6_8  and  C7_9 
REMARK    5  A    between atoms: C7_9  and  C8_10 
REMARK    6  A    between atoms: C8_10  and  C9_11 
REMARK    7  A    between atoms: N1_14  and  C12_15 
REMARK    8  A    between atoms: C17_21  and  N2_22 
REMARK       I    between atoms: N2_22  and  C18_24 
REMARK       I    between atoms: C18_24  and  N3_26 
REMARK    9  A    between atoms: N3_26  and  C19_28 
REMARK   10  A    between atoms: C26_37  and  C27_38 
ROOT
HETATM    1  C19 UNL     1       4.249   0.313  -0.073  1.00  0.00     0.102 A 
HETATM    2  S1  UNL     1       5.220  -1.094  -0.102  1.00  0.00    -0.045 SA
HETATM    3  C20 UNL     1       6.759  -0.369  -0.063  1.00  0.00     0.120 A 
HETATM    4  C21 UNL     1       6.475   0.964  -0.028  1.00  0.00     0.006 A 
HETATM    5  C22 UNL     1       5.168   1.322  -0.034  1.00  0.00     0.088 A 
HETATM    6  C23 UNL     1       4.733   2.731   0.000  1.00  0.00     0.103 C 
HETATM    7  N4  UNL     1       4.373   3.842   0.020  1.00  0.00    -0.191 NA
HETATM    8  C24 UNL     1       7.733   1.832   0.012  1.00  0.00     0.046 C 
HETATM    9  C25 UNL     1       8.656   1.250   1.046  1.00  0.00     0.038 C 
HETATM   10  C26 UNL     1       9.075  -0.148   0.760  1.00  0.00     0.137 C 
HETATM   11  O4  UNL     1       8.107  -0.776  -0.059  1.00  0.00    -0.337 OA
ENDROOT
BRANCH   1  12
HETATM   12  N3  UNL     1       2.813   0.421  -0.088  1.00  0.00    -0.301 N 
HETATM   13  C18 UNL     1       2.042  -0.802  -0.118  1.00  0.00     0.325 C 
HETATM   14  N2  UNL     1       0.647  -0.687  -0.139  1.00  0.00    -0.306 N 
HETATM   15  O3  UNL     1       2.726  -1.843  -0.122  1.00  0.00    -0.247 OA
ATOM     16  H2  UNL     1       0.264   0.258  -0.133  1.00  0.00     0.170 HD
ATOM     17  H3  UNL     1       2.354   1.332  -0.078  1.00  0.00     0.171 HD
BRANCH  14  18
HETATM   18  C17 UNL     1      -0.278  -1.745  -0.167  1.00  0.00     0.064 A 
HETATM   19  C12 UNL     1      -1.650  -1.470  -0.151  1.00  0.00     0.059 A 
HETATM   20  C13 UNL     1      -2.553  -2.529  -0.211  1.00  0.00     0.033 A 
HETATM   21  C14 UNL     1      -2.167  -3.837  -0.285  1.00  0.00     0.026 A 
HETATM   22  C15 UNL     1      -0.827  -4.101  -0.299  1.00  0.00     0.036 A 
HETATM   23 CL1  UNL     1      -0.282  -5.784  -0.390  1.00  0.00    -0.084 Cl
HETATM   24  C16 UNL     1       0.088  -3.073  -0.242  1.00  0.00     0.055 A 
BRANCH  19  25
HETATM   25  N1  UNL     1      -2.146  -0.136  -0.043  1.00  0.00    -0.348 N 
HETATM   26  C11 UNL     1      -2.156   0.755   1.073  1.00  0.00     0.126 C 
HETATM   27  C10 UNL     1      -3.253   1.769   0.817  1.00  0.00     0.029 C 
HETATM   28  C9  UNL     1      -3.871   1.335  -0.486  1.00  0.00     0.041 C 
HETATM   29  C31 UNL     1      -2.775   0.567  -1.150  1.00  0.00     0.276 C 
HETATM   30  F1  UNL     1      -1.886   1.497  -1.663  1.00  0.00    -0.226 F 
BRANCH  28  31
HETATM   31  C8  UNL     1      -5.103   0.495  -0.173  1.00  0.00     0.010 C 
BRANCH  31  32
HETATM   32  C7  UNL     1      -5.767   0.030  -1.439  1.00  0.00     0.010 C 
BRANCH  32  33
HETATM   33  C6  UNL     1      -6.998  -0.797  -1.236  1.00  0.00     0.111 C 
BRANCH  33  34
HETATM   34  C5  UNL     1      -8.096  -0.104  -0.557  1.00  0.00     0.259 C 
HETATM   35  O2  UNL     1      -7.995   1.103  -0.244  1.00  0.00    -0.265 OA
BRANCH  34  36
HETATM   36  O1  UNL     1      -9.288  -0.753  -0.234  1.00  0.00    -0.311 OA
BRANCH  36  37
HETATM   37  C2  UNL     1     -10.357  -0.089   0.422  1.00  0.00     0.060 C 
HETATM   38  C1  UNL     1     -10.858   1.082  -0.395  1.00  0.00     0.045 C 
HETATM   39  C3  UNL     1      -9.984   0.404   1.789  1.00  0.00     0.045 C 
HETATM   40  C4  UNL     1     -11.493  -1.075   0.521  1.00  0.00     0.045 C 
ENDBRANCH  36  37
ENDBRANCH  34  36
ENDBRANCH  33  34
ENDBRANCH  32  33
ENDBRANCH  31  32
ENDBRANCH  28  31
ENDBRANCH  19  25
ENDBRANCH  14  18
ENDBRANCH   1  12
BRANCH  10  41
HETATM   41  C27 UNL     1      10.413  -0.287   0.120  1.00  0.00    -0.025 C 
HETATM   42  C28 UNL     1      10.522   0.418  -1.211  1.00  0.00     0.017 C 
HETATM   43  C29 UNL     1      11.530   0.215   1.005  1.00  0.00     0.017 C 
HETATM   44  C30 UNL     1      10.725  -1.763  -0.178  1.00  0.00     0.017 C 
ENDBRANCH  10  41
TORSDOF 10
