REMARK  8 active torsions:
REMARK  status: ('A' for Active; 'I' for Inactive)
REMARK    1  A    between atoms: O1_2  and  N1_3 
REMARK    2  A    between atoms: C2_5  and  C3_7 
REMARK    3  A    between atoms: C9_15  and  C10_16 
REMARK    4  A    between atoms: C15_22  and  C16_23 
REMARK    5  A    between atoms: C24_31  and  C25_32 
REMARK    6  A    between atoms: C25_32  and  C26_33 
REMARK    7  A    between atoms: C26_33  and  N3_34 
REMARK    8  A    between atoms: N3_34  and  C27_36 
ROOT
HETATM    1  C3  UNL     1      -6.485  -0.222  -2.373  1.00  0.00     0.034 A 
HETATM    2  C4  UNL     1      -5.453  -0.923  -1.773  1.00  0.00     0.054 A 
HETATM    3  C5  UNL     1      -4.511  -0.346  -0.958  1.00  0.00     0.080 A 
HETATM    4  C6  UNL     1      -4.579   1.036  -0.706  1.00  0.00     0.025 A 
HETATM    5  C7  UNL     1      -5.580   1.749  -1.282  1.00  0.00     0.148 A 
HETATM    6  F1  UNL     1      -5.660   3.097  -1.047  1.00  0.00    -0.204 F 
HETATM    7  C8  UNL     1      -6.512   1.129  -2.099  1.00  0.00     0.086 A 
HETATM    8 CL1  UNL     1      -7.784   2.093  -2.816  1.00  0.00    -0.080 Cl
HETATM    9  C9  UNL     1      -3.524   1.570   0.194  1.00  0.00     0.067 C 
HETATM   10  C14 UNL     1      -3.464   0.549   1.346  1.00  0.00     0.052 C 
HETATM   11  C15 UNL     1      -2.977  -0.784   0.898  1.00  0.00     0.163 C 
HETATM   12  O2  UNL     1      -3.486  -1.089  -0.372  1.00  0.00    -0.341 OA
ENDROOT
BRANCH  11  13
HETATM   13  C16 UNL     1      -1.529  -0.991   1.003  1.00  0.00    -0.028 A 
HETATM   14  C17 UNL     1      -0.955  -2.147   0.538  1.00  0.00     0.012 A 
HETATM   15  C18 UNL     1       0.410  -2.377   0.625  1.00  0.00     0.030 A 
HETATM   16  C19 UNL     1       1.240  -1.423   1.197  1.00  0.00     0.034 A 
HETATM   17  C20 UNL     1       0.667  -0.262   1.664  1.00  0.00    -0.031 A 
HETATM   18  N4  UNL     1       2.622  -1.599   1.323  1.00  0.00    -0.385 N 
HETATM   19  C21 UNL     1      -0.715  -0.049   1.566  1.00  0.00     0.019 A 
HETATM   20  C22 UNL     1       1.559   0.758   2.264  1.00  0.00     0.043 C 
HETATM   21  C23 UNL     1       2.715   0.197   3.015  1.00  0.00     0.030 C 
HETATM   22  C24 UNL     1       3.332  -1.033   2.439  1.00  0.00     0.083 C 
ATOM     23  H4  UNL     1       3.130  -2.133   0.618  1.00  0.00     0.160 HD
BRANCH  22  24
HETATM   24  C25 UNL     1       4.821  -0.902   2.193  1.00  0.00     0.044 C 
BRANCH  24  25
HETATM   25  C26 UNL     1       5.176   0.186   1.242  1.00  0.00     0.116 C 
BRANCH  25  26
HETATM   26  N3  UNL     1       6.606   0.248   1.074  1.00  0.00    -0.417 N 
ATOM     27  H3  UNL     1       7.161   1.032   1.418  1.00  0.00     0.153 HD
BRANCH  26  28
HETATM   28  C27 UNL     1       7.193  -0.858   0.396  1.00  0.00     0.076 C 
HETATM   29  C28 UNL     1       6.716  -1.029  -1.035  1.00  0.00     0.024 C 
HETATM   30  C29 UNL     1       7.114   0.182  -1.877  1.00  0.00     0.002 C 
HETATM   31  C30 UNL     1       8.609   0.330  -1.906  1.00  0.00     0.000 C 
HETATM   32  C31 UNL     1       9.139   0.427  -0.512  1.00  0.00     0.002 C 
HETATM   33  C32 UNL     1       8.704  -0.756   0.315  1.00  0.00     0.024 C 
ENDBRANCH  26  28
ENDBRANCH  25  26
ENDBRANCH  24  25
ENDBRANCH  22  24
ENDBRANCH  11  13
BRANCH   9  34
HETATM   34  C10 UNL     1      -3.856   2.875   0.824  1.00  0.00    -0.009 A 
HETATM   35  C11 UNL     1      -4.670   3.126   1.895  1.00  0.00     0.016 A 
HETATM   36  C12 UNL     1      -4.805   4.395   2.305  1.00  0.00     0.008 A 
HETATM   37  C13 UNL     1      -4.109   5.355   1.613  1.00  0.00     0.050 A 
HETATM   38  S1  UNL     1      -3.295   4.458   0.420  1.00  0.00    -0.106 SA
ENDBRANCH   9  34
BRANCH   1  39
HETATM   39  C2  UNL     1      -7.467  -0.868  -3.229  1.00  0.00     0.148 C 
HETATM   40  N1  UNL     1      -7.397  -2.128  -3.454  1.00  0.00    -0.253 N 
ATOM     41  H1  UNL     1      -6.640  -2.660  -3.025  1.00  0.00     0.195 HD
HETATM   42  N2  UNL     1      -8.513  -0.123  -3.819  1.00  0.00    -0.080 NA
BRANCH  40  43
HETATM   43  O1  UNL     1      -8.302  -2.795  -4.252  1.00  0.00    -0.284 OA
HETATM   44  C1  UNL     1      -9.368  -3.551  -3.692  1.00  0.00     0.237 C 
ENDBRANCH  40  43
ENDBRANCH   1  39
TORSDOF 8
