REMARK  9 active torsions:
REMARK  status: ('A' for Active; 'I' for Inactive)
REMARK    1  A    between atoms: C2_2  and  N1_3 
REMARK    2  A    between atoms: N1_3  and  C3_4 
REMARK       I    between atoms: N1_3  and  C5_6 
REMARK       I    between atoms: C5_6  and  N2_8 
REMARK    3  A    between atoms: N2_8  and  C6_10 
REMARK    4  A    between atoms: C9_13  and  N3_14 
REMARK       I    between atoms: N3_14  and  C10_16 
REMARK       I    between atoms: C10_16  and  N4_18 
REMARK    5  A    between atoms: N4_18  and  C11_20 
REMARK    6  A    between atoms: C16_29  and  C17_30 
REMARK    7  A    between atoms: C17_30  and  C20_33 
REMARK    8  A    between atoms: C22_37  and  C23_38 
REMARK    9  A    between atoms: C29_45  and  O3_46 
ROOT
HETATM    1  C11 UNL     1      -2.561  -0.338  -0.586  1.00  0.00     0.045 C 
HETATM    2  C12 UNL     1      -2.418  -1.242  -1.673  1.00  0.00     0.062 C 
HETATM    3  C13 UNL     1      -3.426  -1.802  -2.447  1.00  0.00     0.062 A 
HETATM    4  N5  UNL     1      -3.301  -2.491  -3.592  1.00  0.00    -0.350 N 
ATOM      5  H5  UNL     1      -2.417  -2.695  -4.059  1.00  0.00     0.166 HD
HETATM    6  C14 UNL     1      -4.517  -2.874  -4.034  1.00  0.00     0.181 A 
HETATM    7  N6  UNL     1      -5.495  -2.445  -3.182  1.00  0.00    -0.350 N 
ATOM      8  H6  UNL     1      -6.499  -2.599  -3.279  1.00  0.00     0.166 HD
HETATM    9  C15 UNL     1      -4.887  -1.791  -2.206  1.00  0.00     0.067 A 
HETATM   10  C16 UNL     1      -5.483  -1.180  -1.129  1.00  0.00    -0.015 C 
HETATM   11  C21 UNL     1      -4.997  -0.008  -0.512  1.00  0.00     0.020 C 
HETATM   12  C22 UNL     1      -3.710   0.424  -0.331  1.00  0.00    -0.026 C 
ENDROOT
BRANCH   1  13
HETATM   13  N4  UNL     1      -1.506  -0.297   0.328  1.00  0.00    -0.308 N 
HETATM   14  C10 UNL     1      -0.119  -0.403  -0.002  1.00  0.00     0.325 C 
HETATM   15  N3  UNL     1       0.924  -0.427   0.932  1.00  0.00    -0.306 N 
HETATM   16  O2  UNL     1       0.179  -0.482  -1.211  1.00  0.00    -0.247 OA
ATOM     17  H3  UNL     1       0.711  -0.420   1.929  1.00  0.00     0.171 HD
ATOM     18  H4  UNL     1      -1.745  -0.182   1.313  1.00  0.00     0.170 HD
BRANCH  15  19
HETATM   19  C9  UNL     1       2.297  -0.461   0.494  1.00  0.00     0.070 A 
HETATM   20  C8  UNL     1       2.646   0.258  -0.630  1.00  0.00     0.035 A 
HETATM   21  C7  UNL     1       3.963   0.353  -1.007  1.00  0.00     0.032 A 
HETATM   22  C6  UNL     1       4.993  -0.264  -0.280  1.00  0.00     0.039 A 
HETATM   23  C31 UNL     1       4.590  -0.965   0.819  1.00  0.00     0.068 A 
HETATM   24  C29 UNL     1       3.291  -1.089   1.236  1.00  0.00     0.097 A 
BRANCH  22  25
HETATM   25  N2  UNL     1       6.294  -0.020  -0.712  1.00  0.00    -0.309 N 
HETATM   26  C5  UNL     1       7.412  -0.878  -0.645  1.00  0.00     0.322 C 
HETATM   27  N1  UNL     1       8.686  -0.433  -1.129  1.00  0.00    -0.335 N 
HETATM   28  O1  UNL     1       7.287  -2.038  -0.158  1.00  0.00    -0.247 OA
ATOM     29  H2  UNL     1       6.460   0.895  -1.130  1.00  0.00     0.170 HD
BRANCH  27  30
HETATM   30  C2  UNL     1       8.849   0.896  -1.667  1.00  0.00     0.123 C 
HETATM   31  C1  UNL     1       9.170   1.882  -0.561  1.00  0.00     0.026 C 
ENDBRANCH  27  30
BRANCH  27  32
HETATM   32  C3  UNL     1       9.811  -1.347  -1.077  1.00  0.00     0.123 C 
HETATM   33  C4  UNL     1      10.504  -1.133   0.264  1.00  0.00     0.026 C 
ENDBRANCH  27  32
ENDBRANCH  22  25
BRANCH  24  34
HETATM   34  O3  UNL     1       2.928  -1.789   2.332  1.00  0.00    -0.354 OA
HETATM   35  C30 UNL     1       3.786  -2.493   3.188  1.00  0.00     0.210 C 
ENDBRANCH  24  34
ENDBRANCH  15  19
ENDBRANCH   1  13
BRANCH  12  36
HETATM   36  C23 UNL     1      -3.412   1.754   0.218  1.00  0.00     0.024 C 
HETATM   37  C24 UNL     1      -4.443   2.736  -0.305  1.00  0.00     0.039 C 
HETATM   38  C25 UNL     1      -4.241   4.095   0.387  1.00  0.00     0.272 C 
HETATM   39  N7  UNL     1      -4.697   3.958   1.764  1.00  0.00     0.084 N 
HETATM   40  C26 UNL     1      -3.861   4.782   2.601  1.00  0.00     0.309 C 
HETATM   41  C27 UNL     1      -4.750   2.583   2.158  1.00  0.00     0.272 C 
HETATM   42  C28 UNL     1      -3.530   1.842   1.724  1.00  0.00     0.039 C 
ENDBRANCH  12  36
BRANCH  10  43
HETATM   43  C17 UNL     1      -6.678  -1.809  -0.580  1.00  0.00     0.041 C 
HETATM   44  C18 UNL     1      -7.826  -1.960  -1.544  1.00  0.00     0.026 C 
HETATM   45  C19 UNL     1      -7.197  -0.901   0.551  1.00  0.00     0.026 C 
BRANCH  43  46
HETATM   46  C20 UNL     1      -6.390  -3.135   0.110  1.00  0.00     0.365 C 
HETATM   47  F1  UNL     1      -5.854  -4.083  -0.728  1.00  0.00    -0.213 F 
HETATM   48  F2  UNL     1      -5.490  -2.907   1.173  1.00  0.00    -0.213 F 
ENDBRANCH  43  46
ENDBRANCH  10  43
TORSDOF 9
