REMARK  11 active torsions:
REMARK  status: ('A' for Active; 'I' for Inactive)
REMARK    1  A    between atoms: C2_2  and  C4_4 
REMARK    2  A    between atoms: N3_9  and  C5_10 
REMARK    3  A    between atoms: C10_15  and  C11_16 
REMARK       I    between atoms: C11_16  and  N4_18 
REMARK    4  A    between atoms: N4_18  and  C12_20 
REMARK    5  A    between atoms: C12_20  and  C13_21 
REMARK    6  A    between atoms: C12_20  and  C26_41 
REMARK    7  A    between atoms: C16_24  and  N5_25 
REMARK       I    between atoms: N5_25  and  C17_27 
REMARK       I    between atoms: C17_27  and  N7_34 
REMARK    8  A    between atoms: N6_28  and  C18_30 
REMARK    9  A    between atoms: N7_34  and  C23_36 
REMARK   10  A    between atoms: C29_44  and  C30_45 
REMARK   11  A    between atoms: C30_45  and  N8_46 
ROOT
HETATM    1  C12 UNL     1      -0.842   0.617   0.679  1.00  0.00     0.122 C 
ENDROOT
BRANCH   1   2
HETATM    2  N4  UNL     1      -1.636   0.132  -0.438  1.00  0.00    -0.347 N 
HETATM    3  C11 UNL     1      -2.556  -0.947  -0.288  1.00  0.00     0.272 C 
HETATM    4  O1  UNL     1      -2.610  -1.416   0.880  1.00  0.00    -0.266 OA
ATOM      5  H4  UNL     1      -1.532   0.574  -1.351  1.00  0.00     0.163 HD
BRANCH   3   6
HETATM    6  C10 UNL     1      -3.374  -1.491  -1.321  1.00  0.00     0.149 A 
HETATM    7  C4  UNL     1      -2.966  -1.681  -2.649  1.00  0.00     0.065 A 
HETATM    8  N1  UNL     1      -4.060  -2.174  -3.289  1.00  0.00    -0.287 N 
HETATM    9  N2  UNL     1      -5.029  -2.277  -2.461  1.00  0.00    -0.235 N 
ATOM     10  H1  UNL     1      -4.101  -2.423  -4.277  1.00  0.00     0.188 HD
HETATM   11  N3  UNL     1      -4.658  -1.865  -1.220  1.00  0.00    -0.243 N 
ATOM     12  H2  UNL     1      -5.958  -2.623  -2.700  1.00  0.00     0.209 HD
BRANCH   7  13
HETATM   13  C2  UNL     1      -1.637  -1.430  -3.253  1.00  0.00     0.031 C 
HETATM   14  C1  UNL     1      -1.687  -2.057  -4.670  1.00  0.00     0.016 C 
HETATM   15  C3  UNL     1      -0.533  -2.161  -2.532  1.00  0.00     0.016 C 
ENDBRANCH   7  13
BRANCH  11  16
HETATM   16  C5  UNL     1      -5.561  -1.861  -0.144  1.00  0.00     0.014 C 
HETATM   17  C6  UNL     1      -5.552  -2.972   0.833  1.00  0.00     0.054 C 
HETATM   18  C7  UNL     1      -6.585  -2.530   1.868  1.00  0.00     0.006 C 
HETATM   19  C8  UNL     1      -6.985  -1.100   1.487  1.00  0.00     0.006 C 
HETATM   20  C9  UNL     1      -5.756  -0.629   0.655  1.00  0.00     0.054 C 
ENDBRANCH  11  16
ENDBRANCH   3   6
ENDBRANCH   1   2
BRANCH   1  21
HETATM   21  C13 UNL     1       0.621   0.500   0.432  1.00  0.00    -0.035 A 
HETATM   22  C14 UNL     1       1.412  -0.073   1.403  1.00  0.00     0.011 A 
HETATM   23  C15 UNL     1       2.777  -0.214   1.227  1.00  0.00     0.030 A 
HETATM   24  C16 UNL     1       3.414   0.207   0.085  1.00  0.00     0.049 A 
HETATM   25  C24 UNL     1       2.600   0.787  -0.891  1.00  0.00     0.030 A 
HETATM   26  C25 UNL     1       1.242   0.922  -0.706  1.00  0.00     0.011 A 
BRANCH  24  27
HETATM   27  N5  UNL     1       4.803   0.045  -0.137  1.00  0.00    -0.192 N 
HETATM   28  C17 UNL     1       5.691  -0.702   0.657  1.00  0.00     0.681 C 
HETATM   29  N6  UNL     1       6.277  -1.737   0.196  1.00  0.00    -0.218 N 
HETATM   30  N7  UNL     1       5.987  -0.349   2.000  1.00  0.00    -0.164 N 
ATOM     31  H6  UNL     1       6.902  -2.211   0.848  1.00  0.00     0.178 HD
HETATM   32  C22 UNL     1       6.003   1.033   2.419  1.00  0.00     0.174 C 
ATOM     33  H5  UNL     1       5.197   0.516  -0.951  1.00  0.00     0.184 HD
BRANCH  29  34
HETATM   34  C18 UNL     1       6.185  -2.325  -1.094  1.00  0.00     0.036 C 
HETATM   35  C19 UNL     1       4.766  -2.655  -1.440  1.00  0.00     0.038 C 
HETATM   36  C20 UNL     1       6.739  -1.348  -2.111  1.00  0.00     0.038 C 
HETATM   37  C21 UNL     1       7.040  -3.585  -1.205  1.00  0.00     0.038 C 
ENDBRANCH  29  34
BRANCH  30  38
HETATM   38  C23 UNL     1       6.280  -1.370   2.974  1.00  0.00     0.474 C 
HETATM   39  F1  UNL     1       7.371  -2.143   2.597  1.00  0.00    -0.190 F 
HETATM   40  F2  UNL     1       6.575  -0.858   4.224  1.00  0.00    -0.190 F 
ENDBRANCH  30  38
ENDBRANCH  24  27
ENDBRANCH   1  21
BRANCH   1  41
HETATM   41  C26 UNL     1      -1.257   2.002   1.053  1.00  0.00     0.013 C 
HETATM   42  C27 UNL     1      -1.071   2.938  -0.068  1.00  0.00     0.007 C 
HETATM   43  C28 UNL     1      -1.802   4.256   0.112  1.00  0.00     0.007 C 
HETATM   44  C29 UNL     1      -2.267   4.402   1.567  1.00  0.00     0.011 C 
HETATM   45  C31 UNL     1      -3.282   3.302   1.769  1.00  0.00     0.007 C 
HETATM   46  C32 UNL     1      -2.659   1.943   1.595  1.00  0.00     0.007 C 
BRANCH  44  47
HETATM   47  C30 UNL     1      -2.910   5.754   1.704  1.00  0.00     0.234 C 
BRANCH  47  48
HETATM   48  N8  UNL     1      -1.943   6.807   1.374  1.00  0.00    -0.079 N 
ATOM     49  H83 UNL     1      -1.091   6.731   1.930  1.00  0.00     0.274 HD
ATOM     50  H82 UNL     1      -1.531   6.672   0.451  1.00  0.00     0.274 HD
ATOM     51  H81 UNL     1      -2.379   7.724   1.467  1.00  0.00     0.274 HD
ENDBRANCH  47  48
ENDBRANCH  44  47
ENDBRANCH   1  41
TORSDOF 11
