REMARK  12 active torsions:
REMARK  status: ('A' for Active; 'I' for Inactive)
REMARK    1  A    between atoms: C2_2  and  C3_3 
REMARK    2  A    between atoms: C7_8  and  O2_9 
REMARK    3  A    between atoms: C11_14  and  O3_15 
REMARK    4  A    between atoms: O3_15  and  C12_16 
REMARK    5  A    between atoms: C12_16  and  C13_18 
REMARK    6  A    between atoms: C13_18  and  C14_19 
REMARK    7  A    between atoms: C14_19  and  C15_20 
REMARK    8  A    between atoms: C15_20  and  C16_21 
REMARK    9  A    between atoms: C16_21  and  C17_22 
REMARK   10  A    between atoms: C17_22  and  C18_23 
REMARK   11  A    between atoms: C21_26  and  O5_28 
REMARK   12  A    between atoms: C23_30  and  O6_31 
ROOT
HETATM    1  C3  UNL     1      -5.187  -1.908   0.512  1.00  0.00     0.017 C 
HETATM    2  C4  UNL     1      -3.993  -2.747   0.121  1.00  0.00     0.047 C 
HETATM    3  C5  UNL     1      -3.147  -1.523  -0.204  1.00  0.00     0.066 C 
HETATM    4  C6  UNL     1      -3.061  -1.395  -1.704  1.00  0.00     0.046 C 
HETATM    5  O1  UNL     1      -2.096  -1.237   0.537  1.00  0.00    -0.343 OA
HETATM    6  C7  UNL     1      -0.840  -1.602   0.453  1.00  0.00     0.175 C 
HETATM    7  C8  UNL     1      -0.593  -3.048   0.029  1.00  0.00     0.047 C 
HETATM    8  C9  UNL     1      -0.066  -3.911   1.154  1.00  0.00     0.015 C 
HETATM    9  C10 UNL     1       0.441  -3.022  -1.048  1.00  0.00     0.043 C 
HETATM   10  C11 UNL     1       1.217  -1.753  -0.707  1.00  0.00     0.144 C 
HETATM   11  C20 UNL     1       0.134  -0.812  -0.344  1.00  0.00     0.114 C 
HETATM   12  C21 UNL     1       0.579   0.515   0.129  1.00  0.00     0.091 C 
HETATM   13  C22 UNL     1       1.648   0.573   1.157  1.00  0.00     0.049 C 
HETATM   14  C23 UNL     1      -0.526   1.465   0.505  1.00  0.00     0.153 C 
HETATM   15  C24 UNL     1      -0.357   2.831  -0.092  1.00  0.00     0.039 C 
HETATM   16  C25 UNL     1      -1.664   3.582  -0.310  1.00  0.00    -0.015 C 
HETATM   17  C26 UNL     1      -2.149   4.107   1.022  1.00  0.00     0.010 C 
HETATM   18  C27 UNL     1      -2.670   2.891  -1.139  1.00  0.00     0.026 C 
HETATM   19  C28 UNL     1      -4.078   2.859  -0.647  1.00  0.00     0.101 C 
HETATM   20 CL1  UNL     1      -5.232   2.925  -2.032  1.00  0.00    -0.123 Cl
HETATM   21  C29 UNL     1      -4.508   1.758   0.221  1.00  0.00     0.101 C 
HETATM   22 CL2  UNL     1      -6.030   2.281   1.038  1.00  0.00    -0.123 Cl
HETATM   23  C30 UNL     1      -4.753   0.429  -0.453  1.00  0.00     0.030 C 
HETATM   24  C31 UNL     1      -4.321  -0.717   0.383  1.00  0.00     0.029 C 
ENDROOT
BRANCH  10  25
HETATM   25  O3  UNL     1       2.153  -2.102   0.235  1.00  0.00    -0.315 OA
BRANCH  25  26
HETATM   26  C12 UNL     1       3.517  -2.008  -0.142  1.00  0.00     0.259 C 
HETATM   27  O4  UNL     1       3.808  -1.616  -1.299  1.00  0.00    -0.265 OA
BRANCH  26  28
HETATM   28  C13 UNL     1       4.592  -2.355   0.778  1.00  0.00     0.111 C 
BRANCH  28  29
HETATM   29  C14 UNL     1       5.930  -2.108   0.163  1.00  0.00     0.010 C 
BRANCH  29  30
HETATM   30  C15 UNL     1       6.252  -0.707  -0.216  1.00  0.00     0.000 C 
BRANCH  30  31
HETATM   31  C16 UNL     1       6.204   0.223   0.984  1.00  0.00     0.000 C 
BRANCH  31  32
HETATM   32  C17 UNL     1       6.541   1.639   0.672  1.00  0.00    -0.000 C 
BRANCH  32  33
HETATM   33  C18 UNL     1       5.591   2.216  -0.322  1.00  0.00    -0.005 C 
HETATM   34  C19 UNL     1       6.004   3.663  -0.565  1.00  0.00     0.005 C 
ENDBRANCH  32  33
ENDBRANCH  31  32
ENDBRANCH  30  31
ENDBRANCH  29  30
ENDBRANCH  28  29
ENDBRANCH  26  28
ENDBRANCH  25  26
ENDBRANCH  10  25
BRANCH   6  35
HETATM   35  O2  UNL     1      -0.337  -1.552   1.787  1.00  0.00    -0.364 OA
ATOM     36  H2  UNL     1       0.573  -1.817   1.726  1.00  0.00     0.213 HD
ENDBRANCH   6  35
BRANCH  12  37
HETATM   37  O5  UNL     1       1.171   1.115  -1.025  1.00  0.00    -0.387 OA
ATOM     38  H5  UNL     1       1.457   1.968  -0.721  1.00  0.00     0.210 HD
ENDBRANCH  12  37
BRANCH  14  39
HETATM   39  O6  UNL     1      -0.681   1.596   1.878  1.00  0.00    -0.393 OA
ATOM     40  H6  UNL     1      -1.379   2.196   2.115  1.00  0.00     0.210 HD
ENDBRANCH  14  39
BRANCH   1  41
HETATM   41  C2  UNL     1      -6.370  -2.018  -0.341  1.00  0.00    -0.032 C 
HETATM   42  C1  UNL     1      -7.581  -2.103   0.152  1.00  0.00     0.007 C 
ENDBRANCH   1  41
TORSDOF 12
