REMARK  12 active torsions:
REMARK  status: ('A' for Active; 'I' for Inactive)
REMARK    1  A    between atoms: C2_2  and  C3_3 
REMARK    2  A    between atoms: C2_2  and  C26_34 
REMARK    3  A    between atoms: C3_3  and  O1_4 
REMARK    4  A    between atoms: C3_3  and  C4_6 
REMARK    5  A    between atoms: C4_6  and  C5_7 
REMARK    6  A    between atoms: C9_11  and  C10_12 
REMARK    7  A    between atoms: C10_12  and  S1_15 
REMARK    8  A    between atoms: S1_15  and  C11_16 
REMARK    9  A    between atoms: C14_19  and  C15_20 
REMARK   10  A    between atoms: C21_26  and  O2_27 
REMARK   11  A    between atoms: C28_36  and  O4_37 
REMARK   12  A    between atoms: C30_40  and  O5_41 
ROOT
HETATM    1  C5  UNL     1      -0.671  -0.491   0.928  1.00  0.00    -0.003 A 
HETATM    2  C6  UNL     1      -0.502  -1.664   1.681  1.00  0.00     0.022 A 
HETATM    3  C7  UNL     1       0.384  -2.586   1.291  1.00  0.00    -0.043 A 
HETATM    4  C8  UNL     1       1.165  -2.400   0.120  1.00  0.00     0.032 A 
HETATM    5  C9  UNL     1       1.049  -1.283  -0.645  1.00  0.00     0.072 A 
HETATM    6  C21 UNL     1       0.099  -0.332  -0.195  1.00  0.00     0.089 A 
HETATM    7  C22 UNL     1       2.068  -3.487  -0.240  1.00  0.00     0.161 C 
HETATM    8  O3  UNL     1       2.111  -3.797  -1.456  1.00  0.00    -0.292 OA
HETATM    9  C23 UNL     1       2.856  -4.144   0.837  1.00  0.00     0.084 C 
HETATM   10  C24 UNL     1       2.217  -3.840   2.167  1.00  0.00     0.012 C 
HETATM   11  C25 UNL     1       0.701  -3.880   2.009  1.00  0.00     0.040 C 
ENDROOT
BRANCH   1  12
HETATM   12  C4  UNL     1      -1.661   0.466   1.373  1.00  0.00     0.023 C 
BRANCH  12  13
HETATM   13  C3  UNL     1      -2.957   0.694   0.733  1.00  0.00     0.170 C 
BRANCH  13  14
HETATM   14  C2  UNL     1      -3.992  -0.286   0.564  1.00  0.00    -0.053 C 
HETATM   15  C1  UNL     1      -3.862  -1.561   0.855  1.00  0.00     0.017 C 
BRANCH  14  16
HETATM   16  C26 UNL     1      -5.353   0.064   0.019  1.00  0.00     0.025 C 
HETATM   17  C27 UNL     1      -6.190   0.709   1.105  1.00  0.00     0.041 C 
HETATM   18  C28 UNL     1      -7.667   0.635   0.735  1.00  0.00     0.121 C 
HETATM   19  C29 UNL     1      -7.876   0.776  -0.743  1.00  0.00     0.064 C 
HETATM   20  C30 UNL     1      -6.722   1.542  -1.414  1.00  0.00     0.127 C 
HETATM   21  C32 UNL     1      -5.431   0.697  -1.304  1.00  0.00     0.019 C 
HETATM   22  C33 UNL     1      -5.629  -0.349  -2.420  1.00  0.00     0.013 C 
BRANCH  18  23
HETATM   23  O4  UNL     1      -8.097  -0.661   1.101  1.00  0.00    -0.395 OA
ATOM     24  H4  UNL     1      -9.017  -0.707   0.870  1.00  0.00     0.210 HD
ENDBRANCH  18  23
BRANCH  20  25
HETATM   25  O5  UNL     1      -6.644   2.737  -0.760  1.00  0.00    -0.390 OA
HETATM   26  C31 UNL     1      -6.976   3.830  -1.531  1.00  0.00     0.202 C 
ENDBRANCH  20  25
ENDBRANCH  14  16
ENDBRANCH  13  14
BRANCH  13  27
HETATM   27  O1  UNL     1      -3.460   1.863   1.411  1.00  0.00    -0.387 OA
ATOM     28  H1  UNL     1      -2.775   2.512   1.523  1.00  0.00     0.210 HD
ENDBRANCH  13  27
ENDBRANCH  12  13
ENDBRANCH   1  12
BRANCH   6  29
HETATM   29  O2  UNL     1       0.010   0.807  -0.997  1.00  0.00    -0.359 OA
ATOM     30  H2  UNL     1       0.544   0.917  -1.775  1.00  0.00     0.217 HD
ENDBRANCH   6  29
BRANCH   5  31
HETATM   31  C10 UNL     1       1.804  -1.187  -1.892  1.00  0.00     0.327 C 
HETATM   32  F1  UNL     1       1.064  -1.615  -3.011  1.00  0.00    -0.187 F 
HETATM   33  F2  UNL     1       1.643   0.210  -2.181  1.00  0.00    -0.187 F 
BRANCH  31  34
HETATM   34  S1  UNL     1       3.505  -1.376  -1.997  1.00  0.00    -0.048 SA
BRANCH  34  35
HETATM   35  C11 UNL     1       4.744  -0.453  -1.290  1.00  0.00     0.006 A 
HETATM   36  C12 UNL     1       5.273   0.677  -1.923  1.00  0.00     0.019 A 
HETATM   37  C13 UNL     1       6.339   1.384  -1.427  1.00  0.00     0.009 A 
HETATM   38  C14 UNL     1       6.962   1.017  -0.254  1.00  0.00    -0.051 A 
HETATM   39  C19 UNL     1       6.457  -0.091   0.391  1.00  0.00     0.009 A 
HETATM   40  C20 UNL     1       5.396  -0.807  -0.089  1.00  0.00     0.019 A 
BRANCH  38  41
HETATM   41  C15 UNL     1       8.137   1.742   0.294  1.00  0.00    -0.024 C 
HETATM   42  C16 UNL     1       8.643   2.738  -0.700  1.00  0.00     0.019 C 
HETATM   43  C17 UNL     1       7.818   2.364   1.637  1.00  0.00     0.019 C 
HETATM   44  C18 UNL     1       9.291   0.758   0.537  1.00  0.00     0.019 C 
ENDBRANCH  38  41
ENDBRANCH  34  35
ENDBRANCH  31  34
ENDBRANCH   5  31
TORSDOF 12
