REMARK  12 active torsions:
REMARK  status: ('A' for Active; 'I' for Inactive)
REMARK    1  A    between atoms: C2_2  and  N1_4 
REMARK    2  A    between atoms: N1_4  and  C4_6 
REMARK    3  A    between atoms: C5_7  and  C6_8 
REMARK    4  A    between atoms: C6_8  and  C7_10 
REMARK    5  A    between atoms: C13_18  and  O2_19 
REMARK    6  A    between atoms: O2_19  and  C14_20 
REMARK    7  A    between atoms: C17_25  and  N4_26 
REMARK    8  A    between atoms: N4_26  and  C18_28 
REMARK    9  A    between atoms: C21_31  and  N5_32 
REMARK       I    between atoms: N5_32  and  C22_34 
REMARK   10  A    between atoms: C22_34  and  O4_36 
REMARK   11  A    between atoms: O4_36  and  C23_37 
REMARK   12  A    between atoms: C30_44  and  C31_45 
ROOT
HETATM    1  C4  UNL     1      -6.638   0.286  -0.361  1.00  0.00     0.061 A 
HETATM    2  C5  UNL     1      -7.423  -0.672   0.250  1.00  0.00     0.053 A 
HETATM    3  C10 UNL     1      -6.773  -1.870   0.642  1.00  0.00     0.106 A 
HETATM    4  N2  UNL     1      -5.485  -2.068   0.445  1.00  0.00    -0.364 N 
ATOM      5  H2  UNL     1      -5.063  -2.947   0.744  1.00  0.00     0.165 HD
HETATM    6  C11 UNL     1      -4.717  -1.135  -0.142  1.00  0.00     0.048 A 
HETATM    7  C12 UNL     1      -3.362  -1.423  -0.277  1.00  0.00     0.067 A 
HETATM    8  C13 UNL     1      -2.524  -0.512  -0.837  1.00  0.00     0.079 A 
HETATM    9  C29 UNL     1      -3.052   0.679  -1.255  1.00  0.00     0.054 A 
HETATM   10  C30 UNL     1      -4.434   1.029  -1.142  1.00  0.00     0.065 A 
HETATM   11  C32 UNL     1      -5.250   0.081  -0.572  1.00  0.00     0.034 A 
ENDROOT
BRANCH   8  12
HETATM   12  O2  UNL     1      -1.189  -0.762  -0.985  1.00  0.00    -0.311 OA
BRANCH  12  13
HETATM   13  C14 UNL     1      -0.199  -0.425  -0.086  1.00  0.00     0.081 A 
HETATM   14  C15 UNL     1      -0.438   0.146   1.137  1.00  0.00     0.054 A 
HETATM   15  C16 UNL     1       0.620   0.439   1.936  1.00  0.00     0.092 A 
HETATM   16  N3  UNL     1       1.896   0.187   1.571  1.00  0.00    -0.352 N 
HETATM   17  C17 UNL     1       2.201  -0.368   0.394  1.00  0.00     0.103 A 
ATOM     18  H3  UNL     1       2.650   0.428   2.214  1.00  0.00     0.166 HD
HETATM   19  C28 UNL     1       1.093  -0.669  -0.432  1.00  0.00     0.085 A 
BRANCH  17  20
HETATM   20  N4  UNL     1       3.346  -0.594   0.029  1.00  0.00    -0.372 N 
ATOM     21  H4  UNL     1       3.204  -1.008  -0.892  1.00  0.00     0.161 HD
BRANCH  20  22
HETATM   22  C18 UNL     1       4.694  -0.608   0.150  1.00  0.00     0.083 C 
HETATM   23  C19 UNL     1       5.289   0.022   1.379  1.00  0.00     0.027 C 
HETATM   24  C20 UNL     1       6.720  -0.463   1.531  1.00  0.00     0.027 C 
HETATM   25  C21 UNL     1       7.460  -0.262   0.248  1.00  0.00     0.086 C 
HETATM   26  C26 UNL     1       6.696   0.669  -0.674  1.00  0.00     0.027 C 
HETATM   27  C27 UNL     1       5.406   0.021  -1.067  1.00  0.00     0.027 C 
BRANCH  25  28
HETATM   28  N5  UNL     1       8.763   0.297   0.512  1.00  0.00    -0.332 N 
HETATM   29  C22 UNL     1       9.941  -0.378   0.114  1.00  0.00     0.361 C 
HETATM   30  O3  UNL     1       9.881  -1.498  -0.487  1.00  0.00    -0.238 OA
ATOM     31  H5  UNL     1       8.836   1.193   0.993  1.00  0.00     0.165 HD
BRANCH  29  32
HETATM   32  O4  UNL     1      11.203   0.139   0.353  1.00  0.00    -0.299 OA
BRANCH  32  33
HETATM   33  C23 UNL     1      12.390  -0.513  -0.029  1.00  0.00     0.125 C 
HETATM   34  C24 UNL     1      13.171   0.406  -0.932  1.00  0.00     0.040 C 
HETATM   35  C25 UNL     1      13.273  -0.826   1.169  1.00  0.00     0.040 C 
ENDBRANCH  32  33
ENDBRANCH  29  32
ENDBRANCH  25  28
ENDBRANCH  20  22
ENDBRANCH  17  20
ENDBRANCH  12  13
ENDBRANCH   8  12
BRANCH  10  36
HETATM   36  C31 UNL     1      -4.927   2.287  -1.611  1.00  0.00     0.418 C 
HETATM   37  F1  UNL     1      -3.670   2.916  -2.043  1.00  0.00    -0.166 F 
HETATM   38  F2  UNL     1      -5.155   3.339  -0.780  1.00  0.00    -0.166 F 
HETATM   39  F3  UNL     1      -5.359   2.348  -2.929  1.00  0.00    -0.166 F 
ENDBRANCH  10  36
BRANCH   1  40
HETATM   40  N1  UNL     1      -7.159   1.283  -0.853  1.00  0.00    -0.362 N 
ATOM     41  H1  UNL     1      -6.388   1.832  -1.234  1.00  0.00     0.165 HD
BRANCH  40  42
HETATM   42  C2  UNL     1      -8.314   2.017  -1.135  1.00  0.00    -0.021 C 
HETATM   43  C1  UNL     1      -8.733   3.127  -0.209  1.00  0.00     0.062 C 
HETATM   44  C3  UNL     1      -9.451   1.348  -1.872  1.00  0.00     0.062 C 
ENDBRANCH  40  42
ENDBRANCH   1  40
BRANCH   2  45
HETATM   45  C6  UNL     1      -8.792  -0.585   0.705  1.00  0.00     0.167 C 
HETATM   46  O1  UNL     1      -9.391   0.274   1.336  1.00  0.00    -0.292 OA
BRANCH  45  47
HETATM   47  C7  UNL     1      -9.672  -1.772   0.350  1.00  0.00     0.061 A 
HETATM   48  C8  UNL     1     -10.548  -2.259   1.512  1.00  0.00     0.013 A 
HETATM   49  C9  UNL     1     -11.123  -1.640   0.314  1.00  0.00     0.013 A 
ENDBRANCH  45  47
ENDBRANCH   2  45
TORSDOF 12
