REMARK  9 active torsions:
REMARK  status: ('A' for Active; 'I' for Inactive)
REMARK       I    between atoms: N1_2  and  C3_4 
REMARK    1  A    between atoms: C3_4  and  C4_6 
REMARK    2  A    between atoms: C4_6  and  N3_9 
REMARK    3  A    between atoms: N3_9  and  N4_10 
REMARK       I    between atoms: N3_9  and  C6_14 
REMARK    4  A    between atoms: N4_10  and  N5_11 
REMARK    5  A    between atoms: C6_14  and  C7_16 
REMARK    6  A    between atoms: C8_21  and  N8_22 
REMARK       I    between atoms: N8_22  and  C9_24 
REMARK    7  A    between atoms: C9_24  and  C10_26 
REMARK    8  A    between atoms: C14_33  and  N11_34 
REMARK    9  A    between atoms: N12_37  and  N13_38 
ROOT
HETATM    1  C4  UNL     1      -3.137   0.715   0.969  1.00  0.00     0.307 C 
HETATM    2  C5  UNL     1      -3.440   1.124   2.374  1.00  0.00     0.096 C 
HETATM    3  N2  UNL     1      -3.665   1.434   3.466  1.00  0.00    -0.194 NA
ENDROOT
BRANCH   1   4
HETATM    4  C3  UNL     1      -4.500   0.381   0.411  1.00  0.00     0.257 C 
HETATM    5  N1  UNL     1      -5.161  -0.793   0.799  1.00  0.00    -0.358 N 
HETATM    6  C1  UNL     1      -6.499  -1.029   0.209  1.00  0.00     0.152 C 
HETATM    7  C2  UNL     1      -4.616  -1.761   1.712  1.00  0.00     0.152 C 
HETATM    8  O1  UNL     1      -4.999   1.186  -0.398  1.00  0.00    -0.270 OA
ENDBRANCH   1   4
BRANCH   1   9
HETATM    9  N3  UNL     1      -2.617   1.851   0.268  1.00  0.00    -0.211 N 
HETATM   10  C6  UNL     1      -1.430   2.013  -0.456  1.00  0.00     0.309 C 
HETATM   11  O2  UNL     1      -1.191   3.161  -1.000  1.00  0.00    -0.262 OA
BRANCH   9  12
HETATM   12  N4  UNL     1      -3.497   3.001   0.360  1.00  0.00    -0.023 NA
BRANCH  12  13
HETATM   13  N5  UNL     1      -2.992   3.956   1.213  1.00  0.00    -0.328 N 
ATOM     14  H52 UNL     1      -2.108   3.853   1.711  1.00  0.00     0.174 HD
ATOM     15  H51 UNL     1      -3.611   4.764   1.278  1.00  0.00     0.174 HD
ENDBRANCH  12  13
ENDBRANCH   9  12
BRANCH  10  16
HETATM   16  C7  UNL     1      -0.440   0.973  -0.647  1.00  0.00     0.213 A 
HETATM   17  N6  UNL     1      -0.518  -0.256  -0.141  1.00  0.00    -0.278 N 
HETATM   18  N7  UNL     1       0.378  -1.175  -0.314  1.00  0.00    -0.281 N 
ATOM     19  H6  UNL     1      -1.337  -0.489   0.420  1.00  0.00     0.189 HD
HETATM   20  C8  UNL     1       1.520  -0.961  -1.055  1.00  0.00     0.169 A 
ATOM     21  H7  UNL     1       0.233  -2.090   0.113  1.00  0.00     0.188 HD
HETATM   22  C14 UNL     1       1.614   0.300  -1.586  1.00  0.00     0.168 A 
HETATM   23  N12 UNL     1       0.657   1.274  -1.395  1.00  0.00    -0.220 N 
BRANCH  20  24
HETATM   24  N8  UNL     1       2.347  -1.867  -1.188  1.00  0.00    -0.305 N 
HETATM   25  C9  UNL     1       3.545  -2.115  -1.781  1.00  0.00     0.260 C 
HETATM   26  O3  UNL     1       3.596  -2.649  -2.953  1.00  0.00    -0.267 OA
ATOM     27  H8  UNL     1       2.029  -2.700  -0.692  1.00  0.00     0.171 HD
BRANCH  25  28
HETATM   28  C10 UNL     1       4.863  -1.832  -1.213  1.00  0.00     0.066 A 
HETATM   29  C11 UNL     1       6.096  -2.047  -1.764  1.00  0.00     0.125 A 
HETATM   30  N9  UNL     1       6.987  -1.627  -0.864  1.00  0.00    -0.309 N 
HETATM   31  N10 UNL     1       6.371  -1.163   0.217  1.00  0.00    -0.307 N 
ATOM     32  H9  UNL     1       7.999  -1.658  -0.989  1.00  0.00     0.186 HD
HETATM   33  C12 UNL     1       7.026  -0.620   1.406  1.00  0.00     0.177 C 
HETATM   34  C13 UNL     1       5.059  -1.275   0.035  1.00  0.00     0.128 A 
ENDBRANCH  25  28
ENDBRANCH  20  24
BRANCH  22  35
HETATM   35  N11 UNL     1       2.565   0.694  -2.337  1.00  0.00    -0.381 N 
ATOM     36 2H11 UNL     1       3.273  -0.027  -2.478  1.00  0.00     0.157 HD
ATOM     37 1H11 UNL     1       2.635   1.632  -2.732  1.00  0.00     0.157 HD
ENDBRANCH  22  35
BRANCH  23  38
HETATM   38  N13 UNL     1       0.807   2.533  -1.957  1.00  0.00    -0.335 N 
ATOM     39 2H13 UNL     1       0.099   3.254  -1.816  1.00  0.00     0.177 HD
ATOM     40 1H13 UNL     1       1.629   2.759  -2.517  1.00  0.00     0.177 HD
ENDBRANCH  23  38
ENDBRANCH  10  16
ENDBRANCH   1   9
TORSDOF 9
