REMARK  7 active torsions:
REMARK  status: ('A' for Active; 'I' for Inactive)
REMARK    1  A    between atoms: C1_2  and  C2_4 
REMARK    2  A    between atoms: N4_9  and  C3_10 
REMARK    3  A    between atoms: C3_10  and  C4_11 
REMARK    4  A    between atoms: C4_11  and  C5_12 
REMARK    5  A    between atoms: C11_18  and  C12_19 
REMARK    6  A    between atoms: C17_32  and  N7_33 
REMARK    7  A    between atoms: N8_37  and  N9_38 
ROOT
HETATM    1  C12 UNL     1      -0.963   0.133  -0.595  1.00  0.00     0.194 C 
HETATM    2  C13 UNL     1       0.030  -0.460  -1.579  1.00  0.00     0.239 C 
HETATM    3  O2  UNL     1       0.765   0.309  -2.254  1.00  0.00    -0.272 OA
HETATM    4  N5  UNL     1       0.225  -1.827  -1.824  1.00  0.00    -0.290 N 
ATOM      5  H5  UNL     1       0.712  -2.123  -2.670  1.00  0.00     0.172 HD
HETATM    6  C14 UNL     1      -0.250  -2.809  -0.904  1.00  0.00     0.298 C 
HETATM    7  O3  UNL     1      -0.107  -4.045  -1.053  1.00  0.00    -0.264 OA
HETATM    8  C15 UNL     1      -0.926  -2.242   0.249  1.00  0.00     0.271 C 
HETATM    9  O4  UNL     1      -0.905  -2.847   1.343  1.00  0.00    -0.283 OA
HETATM   10  C16 UNL     1      -1.654  -0.938   0.156  1.00  0.00     0.291 C 
HETATM   11  N6  UNL     1      -2.855  -1.347  -0.711  1.00  0.00     0.001 N 
ATOM     12  H61 UNL     1      -2.798  -2.193  -1.278  1.00  0.00     0.284 HD
ATOM     13  H62 UNL     1      -3.088  -0.795  -1.536  1.00  0.00     0.284 HD
HETATM   14  C17 UNL     1      -3.715  -1.319   0.404  1.00  0.00     0.481 C 
HETATM   15  N8  UNL     1      -2.584  -0.776   1.153  1.00  0.00    -0.138 NA
ENDROOT
BRANCH   1  16
HETATM   16  C11 UNL     1      -0.345   1.281   0.095  1.00  0.00     0.080 A 
HETATM   17  C2  UNL     1      -0.261   2.577  -0.481  1.00  0.00     0.139 A 
HETATM   18  N2  UNL     1       0.381   3.408   0.374  1.00  0.00    -0.280 N 
HETATM   19  N3  UNL     1       0.685   2.735   1.404  1.00  0.00    -0.240 N 
ATOM     20  H2  UNL     1       0.583   4.395   0.218  1.00  0.00     0.189 HD
HETATM   21  N4  UNL     1       0.263   1.430   1.276  1.00  0.00    -0.278 N 
ATOM     22  H3  UNL     1       1.175   3.109   2.217  1.00  0.00     0.208 HD
BRANCH  17  23
HETATM   23  C1  UNL     1      -0.775   3.075  -1.737  1.00  0.00     0.284 C 
HETATM   24  N1  UNL     1      -0.378   4.396  -2.199  1.00  0.00    -0.056 NA
HETATM   25  O1  UNL     1      -1.550   2.496  -2.510  1.00  0.00    -0.269 OA
ENDBRANCH  17  23
BRANCH  21  26
HETATM   26  C3  UNL     1       0.659   0.540   2.315  1.00  0.00     0.155 C 
BRANCH  26  27
HETATM   27  C4  UNL     1       2.131   0.251   2.376  1.00  0.00     0.060 C 
BRANCH  27  28
HETATM   28  C5  UNL     1       2.794  -0.309   1.204  1.00  0.00    -0.057 A 
HETATM   29  C6  UNL     1       3.369   0.611   0.307  1.00  0.00     0.007 A 
HETATM   30  C7  UNL     1       4.023   0.122  -0.797  1.00  0.00     0.001 A 
HETATM   31  C8  UNL     1       4.148  -1.218  -1.074  1.00  0.00     0.000 A 
HETATM   32  C9  UNL     1       3.577  -2.123  -0.182  1.00  0.00     0.001 A 
HETATM   33  C10 UNL     1       2.918  -1.634   0.928  1.00  0.00     0.007 A 
ENDBRANCH  27  28
ENDBRANCH  26  27
ENDBRANCH  21  26
ENDBRANCH   1  16
BRANCH  15  34
HETATM   34  N9  UNL     1      -2.878   0.391   1.816  1.00  0.00    -0.357 NA
ATOM     35  H92 UNL     1      -2.088   0.770   2.339  1.00  0.00     0.171 HD
ATOM     36  H91 UNL     1      -3.569   0.511   2.557  1.00  0.00     0.171 HD
ENDBRANCH  15  34
BRANCH  14  37
HETATM   37  N7  UNL     1      -4.800  -0.352   0.200  1.00  0.00    -0.035 N 
ATOM     38  H73 UNL     1      -4.441   0.576  -0.024  1.00  0.00     0.278 HD
ATOM     39  H72 UNL     1      -5.309  -0.533  -0.665  1.00  0.00     0.278 HD
ATOM     40  H71 UNL     1      -5.423  -0.332   1.008  1.00  0.00     0.278 HD
ENDBRANCH  14  37
TORSDOF 7
