REMARK  8 active torsions:
REMARK  status: ('A' for Active; 'I' for Inactive)
REMARK    1  A    between atoms: N5_14  and  C6_15 
REMARK    2  A    between atoms: C6_15  and  C7_16 
REMARK    3  A    between atoms: C7_16  and  N6_17 
REMARK    4  A    between atoms: C7_16  and  C10_29 
REMARK    5  A    between atoms: N6_17  and  N7_18 
REMARK       I    between atoms: N7_18  and  C8_20 
REMARK    6  A    between atoms: C8_20  and  C9_22 
REMARK       I    between atoms: C9_22  and  N8_24 
REMARK    7  A    between atoms: N8_24  and  N9_26 
REMARK    8  A    between atoms: C10_29  and  C11_31 
REMARK       I    between atoms: C11_31  and  N10_33 
ROOT
HETATM    1  C7  UNL     1      -0.811  -0.553   0.175  1.00  0.00     0.199 C 
ENDROOT
BRANCH   1   2
HETATM    2  C6  UNL     1       0.369  -1.277   0.774  1.00  0.00     0.181 C 
BRANCH   2   3
HETATM    3  N5  UNL     1       1.533  -0.428   0.911  1.00  0.00    -0.284 N 
HETATM    4  N4  UNL     1       2.610  -0.649   0.045  1.00  0.00    -0.280 N 
HETATM    5  C5  UNL     1       3.754   0.184   0.116  1.00  0.00     0.164 A 
ATOM      6  H4  UNL     1       2.571  -1.408  -0.636  1.00  0.00     0.189 HD
HETATM    7  C4  UNL     1       3.717   1.179   1.065  1.00  0.00     0.095 A 
HETATM    8  N3  UNL     1       4.826   0.046  -0.678  1.00  0.00    -0.173 N 
HETATM    9  C3  UNL     1       4.831   2.024   1.156  1.00  0.00     0.139 A 
HETATM   10  N11 UNL     1       2.602   1.364   1.923  1.00  0.00    -0.347 N 
HETATM   11  N2  UNL     1       5.864   1.849   0.351  1.00  0.00    -0.200 N 
HETATM   12  C2  UNL     1       5.903   0.880  -0.574  1.00  0.00     0.679 A 
ATOM     13  H2  UNL     1       6.664   2.476   0.437  1.00  0.00     0.183 HD
HETATM   14  N1  UNL     1       6.947   0.781  -1.312  1.00  0.00    -0.230 N 
HETATM   15  C1  UNL     1       8.071   1.658  -1.191  1.00  0.00     0.165 C 
ATOM     16  H1  UNL     1       6.977   0.044  -2.017  1.00  0.00     0.177 HD
HETATM   17  C14 UNL     1       1.537   0.609   1.876  1.00  0.00     0.201 A 
ATOM     18  H11 UNL     1       2.634   2.120   2.607  1.00  0.00     0.167 HD
ATOM     19  H3  UNL     1       4.837  -0.698  -1.375  1.00  0.00     0.186 HD
ENDBRANCH   2   3
ENDBRANCH   1   2
BRANCH   1  20
HETATM   20  N6  UNL     1      -1.213   0.585   0.987  1.00  0.00    -0.123 NA
BRANCH  20  21
HETATM   21  N7  UNL     1      -2.023   1.447   0.274  1.00  0.00    -0.265 N 
HETATM   22  C8  UNL     1      -3.280   1.986   0.623  1.00  0.00     0.326 C 
HETATM   23  O1  UNL     1      -3.908   1.770   1.683  1.00  0.00    -0.261 OA
ATOM     24  H7  UNL     1      -1.661   1.735  -0.635  1.00  0.00     0.185 HD
BRANCH  22  25
HETATM   25  C9  UNL     1      -3.940   2.898  -0.343  1.00  0.00     0.328 C 
HETATM   26  O2  UNL     1      -3.379   3.211  -1.431  1.00  0.00    -0.261 OA
HETATM   27  N8  UNL     1      -5.209   3.428  -0.049  1.00  0.00    -0.268 N 
ATOM     28  H8  UNL     1      -5.682   3.188   0.822  1.00  0.00     0.190 HD
BRANCH  27  29
HETATM   29  N9  UNL     1      -5.813   4.291  -0.972  1.00  0.00    -0.342 N 
ATOM     30  H92 UNL     1      -5.327   4.521  -1.839  1.00  0.00     0.176 HD
ATOM     31  H91 UNL     1      -6.733   4.675  -0.759  1.00  0.00     0.176 HD
ENDBRANCH  27  29
ENDBRANCH  22  25
ENDBRANCH  20  21
ENDBRANCH   1  20
BRANCH   1  32
HETATM   32  C10 UNL     1      -1.947  -1.508   0.150  1.00  0.00     0.239 C 
HETATM   33  O3  UNL     1      -2.934  -1.290   0.885  1.00  0.00    -0.285 OA
BRANCH  32  34
HETATM   34  C11 UNL     1      -1.957  -2.670  -0.686  1.00  0.00     0.290 C 
HETATM   35  O4  UNL     1      -0.967  -2.946  -1.448  1.00  0.00    -0.264 OA
HETATM   36  N10 UNL     1      -3.046  -3.597  -0.740  1.00  0.00    -0.354 N 
HETATM   37  C12 UNL     1      -4.234  -3.411   0.035  1.00  0.00     0.152 C 
HETATM   38  C13 UNL     1      -2.973  -4.783  -1.608  1.00  0.00     0.152 C 
ENDBRANCH  32  34
ENDBRANCH   1  32
TORSDOF 8
