REMARK  7 active torsions:
REMARK  status: ('A' for Active; 'I' for Inactive)
REMARK       I    between atoms: N1_2  and  C2_4 
REMARK    1  A    between atoms: C2_4  and  C3_6 
REMARK    2  A    between atoms: C3_6  and  O2_7 
REMARK    3  A    between atoms: C3_6  and  C4_9 
REMARK    4  A    between atoms: C4_9  and  N2_10 
REMARK       I    between atoms: N2_10  and  C5_12 
REMARK    5  A    between atoms: C5_12  and  C6_14 
REMARK    6  A    between atoms: C6_14  and  N3_15 
REMARK    7  A    between atoms: N3_15  and  C7_17 
ROOT
HETATM    1  C7  UNL     1      -0.759   1.447  -1.629  1.00  0.00     0.684 A 
HETATM    2  N4  UNL     1      -0.611   0.257  -1.023  1.00  0.00    -0.184 N 
ATOM      3  H4  UNL     1       0.329  -0.128  -0.925  1.00  0.00     0.184 HD
HETATM    4  C8  UNL     1      -1.650  -0.449  -0.540  1.00  0.00     0.149 A 
HETATM    5  C9  UNL     1      -1.455  -1.673   0.078  1.00  0.00     0.281 A 
HETATM    6  O4  UNL     1      -0.279  -2.096   0.171  1.00  0.00    -0.265 OA
HETATM    7  N5  UNL     1      -2.520  -2.338   0.543  1.00  0.00    -0.269 N 
HETATM    8  C10 UNL     1      -2.328  -3.634   1.199  1.00  0.00     0.164 C 
HETATM    9  C11 UNL     1      -3.738  -1.809   0.399  1.00  0.00     0.331 A 
HETATM   10  O5  UNL     1      -4.716  -2.465   0.849  1.00  0.00    -0.246 OA
HETATM   11  N6  UNL     1      -3.995  -0.616  -0.196  1.00  0.00    -0.297 N 
HETATM   12  C12 UNL     1      -5.335  -0.109  -0.315  1.00  0.00     0.161 C 
HETATM   13  C13 UNL     1      -2.944   0.068  -0.669  1.00  0.00     0.140 A 
HETATM   14  C14 UNL     1      -3.102   1.280  -1.285  1.00  0.00     0.291 A 
HETATM   15  O6  UNL     1      -4.251   1.760  -1.410  1.00  0.00    -0.265 OA
HETATM   16  N7  UNL     1      -2.010   1.925  -1.742  1.00  0.00    -0.150 N 
HETATM   17  C15 UNL     1      -2.204   3.206  -2.390  1.00  0.00     0.179 C 
ENDROOT
BRANCH   1  18
HETATM   18  N3  UNL     1       0.222   2.112  -2.083  1.00  0.00    -0.217 N 
ATOM     19  H3  UNL     1       0.001   3.005  -2.524  1.00  0.00     0.178 HD
BRANCH  18  20
HETATM   20  C6  UNL     1       1.594   1.749  -2.044  1.00  0.00     0.240 C 
BRANCH  20  21
HETATM   21  C5  UNL     1       2.129   1.910  -0.679  1.00  0.00     0.235 C 
HETATM   22  N2  UNL     1       3.512   1.601  -0.386  1.00  0.00    -0.357 N 
ATOM     23  H2  UNL     1       4.108   1.271  -1.145  1.00  0.00     0.162 HD
HETATM   24  O3  UNL     1       1.359   2.321   0.222  1.00  0.00    -0.272 OA
BRANCH  22  25
HETATM   25  C4  UNL     1       4.080   1.738   0.919  1.00  0.00     0.164 C 
BRANCH  25  26
HETATM   26  C3  UNL     1       3.392   0.808   1.892  1.00  0.00     0.227 C 
BRANCH  26  27
HETATM   27  C2  UNL     1       3.716  -0.619   1.651  1.00  0.00     0.247 C 
HETATM   28  N1  UNL     1       3.274  -1.409   0.575  1.00  0.00    -0.363 N 
HETATM   29  C1  UNL     1       3.660  -2.815   0.435  1.00  0.00     0.149 C 
ATOM     30  H1  UNL     1       2.666  -0.990  -0.129  1.00  0.00     0.162 HD
HETATM   31  O1  UNL     1       4.477  -1.210   2.502  1.00  0.00    -0.271 OA
ENDBRANCH  26  27
BRANCH  26  32
HETATM   32  O2  UNL     1       4.003   1.102   3.154  1.00  0.00    -0.384 OA
ATOM     33  H2  UNL     1       3.795   2.016   3.308  1.00  0.00     0.210 HD
ENDBRANCH  26  32
ENDBRANCH  25  26
ENDBRANCH  22  25
ENDBRANCH  20  21
ENDBRANCH  18  20
ENDBRANCH   1  18
TORSDOF 7
