REMARK  7 active torsions:
REMARK  status: ('A' for Active; 'I' for Inactive)
REMARK    1  A    between atoms: N3_4  and  N4_6 
REMARK    2  A    between atoms: C2_8  and  C3_9 
REMARK    3  A    between atoms: N5_11  and  C5_12 
REMARK    4  A    between atoms: C5_12  and  C6_13 
REMARK    5  A    between atoms: C6_13  and  O1_14 
REMARK    6  A    between atoms: C8_17  and  C9_18 
REMARK    7  A    between atoms: N10_33  and  O5_34 
ROOT
HETATM    1  C9  UNL     1       1.133   0.581  -0.281  1.00  0.00     0.166 A 
HETATM    2  N6  UNL     1       1.450  -0.710  -0.385  1.00  0.00    -0.172 N 
ATOM      3  H6  UNL     1       0.702  -1.402  -0.433  1.00  0.00     0.186 HD
HETATM    4  C10 UNL     1       2.728  -1.125  -0.428  1.00  0.00     0.702 A 
HETATM    5  N7  UNL     1       3.008  -2.450  -0.534  1.00  0.00    -0.140 N 
ATOM      6  H7  UNL     1       2.252  -3.133  -0.581  1.00  0.00     0.189 HD
HETATM    7  C11 UNL     1       4.266  -2.847  -0.576  1.00  0.00     0.342 A 
HETATM    8  O2  UNL     1       4.531  -4.081  -0.675  1.00  0.00    -0.246 OA
HETATM    9  N8  UNL     1       5.322  -2.003  -0.520  1.00  0.00    -0.259 N 
ATOM     10  H8  UNL     1       6.284  -2.341  -0.556  1.00  0.00     0.175 HD
HETATM   11  C12 UNL     1       5.033  -0.697  -0.415  1.00  0.00     0.353 A 
HETATM   12  O3  UNL     1       5.964   0.159  -0.357  1.00  0.00    -0.245 OA
HETATM   13  N9  UNL     1       3.754  -0.254  -0.369  1.00  0.00    -0.040 N 
HETATM   14  C13 UNL     1       3.472   1.054  -0.265  1.00  0.00     0.377 A 
HETATM   15  O4  UNL     1       4.420   1.878  -0.209  1.00  0.00    -0.243 OA
HETATM   16  N10 UNL     1       2.174   1.457  -0.221  1.00  0.00    -0.153 N 
ENDROOT
BRANCH   1  17
HETATM   17  C8  UNL     1      -0.260   1.058  -0.193  1.00  0.00     0.040 A 
HETATM   18  C3  UNL     1      -1.379   0.439   0.276  1.00  0.00     0.012 A 
HETATM   19  C4  UNL     1      -2.428   1.386   0.164  1.00  0.00     0.104 A 
HETATM   20  N5  UNL     1      -1.974   2.521  -0.344  1.00  0.00    -0.363 N 
HETATM   21  C7  UNL     1      -0.667   2.331  -0.563  1.00  0.00     0.106 A 
BRANCH  18  22
HETATM   22  C2  UNL     1      -1.587  -0.868   0.836  1.00  0.00     0.121 C 
HETATM   23  N4  UNL     1      -0.717  -1.763   1.038  1.00  0.00    -0.309 N 
ATOM     24  H4  UNL     1       0.247  -1.551   0.781  1.00  0.00     0.186 HD
BRANCH  23  25
HETATM   25  N3  UNL     1      -0.976  -3.018   1.586  1.00  0.00    -0.276 N 
HETATM   26  C1  UNL     1      -1.828  -3.793   0.997  1.00  0.00     0.215 C 
HETATM   27  N1  UNL     1      -2.494  -3.394  -0.177  1.00  0.00    -0.065 NA
HETATM   28  N2  UNL     1      -2.127  -5.087   1.518  1.00  0.00    -0.065 NA
ATOM     29  H3  UNL     1      -0.502  -3.320   2.437  1.00  0.00     0.189 HD
ENDBRANCH  23  25
ENDBRANCH  18  22
BRANCH  20  30
HETATM   30  C5  UNL     1      -2.778   3.708  -0.596  1.00  0.00     0.153 C 
BRANCH  30  31
HETATM   31  C6  UNL     1      -2.799   4.624   0.603  1.00  0.00     0.184 C 
BRANCH  31  32
HETATM   32  O1  UNL     1      -3.604   5.727   0.233  1.00  0.00    -0.399 OA
ATOM     33  H1  UNL     1      -3.617   6.304   0.988  1.00  0.00     0.209 HD
ENDBRANCH  31  32
ENDBRANCH  30  31
ENDBRANCH  20  30
ENDBRANCH   1  17
BRANCH  16  34
HETATM   34  O5  UNL     1       1.952   2.786  -0.084  1.00  0.00    -0.277 OA
ATOM     35  H5  UNL     1       2.678   3.397  -0.042  1.00  0.00     0.245 HD
ENDBRANCH  16  34
TORSDOF 7
