REMARK  8 active torsions:
REMARK  status: ('A' for Active; 'I' for Inactive)
REMARK    1  A    between atoms: C2_2  and  O1_3 
REMARK    2  A    between atoms: C2_2  and  C3_5 
REMARK    3  A    between atoms: C3_5  and  O2_6 
REMARK    4  A    between atoms: C3_5  and  C4_8 
REMARK    5  A    between atoms: C3_5  and  N4_16 
REMARK    6  A    between atoms: C4_8  and  N1_9 
REMARK    7  A    between atoms: N5_21  and  O3_22 
REMARK    8  A    between atoms: C11_24  and  N6_25 
ROOT
HETATM    1  N4  UNL     1       0.123   0.898  -0.026  1.00  0.00    -0.229 N 
HETATM    2  C7  UNL     1      -1.178   0.650  -0.291  1.00  0.00     0.158 A 
HETATM    3  C8  UNL     1      -1.928  -0.575  -0.373  1.00  0.00     0.096 A 
HETATM    4  C9  UNL     1      -2.882  -0.856   0.570  1.00  0.00     0.054 A 
HETATM    5  C10 UNL     1      -3.654  -2.002   0.512  1.00  0.00     0.144 A 
HETATM    6  N5  UNL     1      -3.433  -2.848  -0.521  1.00  0.00    -0.064 N 
HETATM    7  C11 UNL     1      -2.507  -2.580  -1.441  1.00  0.00     0.702 A 
HETATM    8  N7  UNL     1      -1.759  -1.440  -1.357  1.00  0.00    -0.186 N 
ATOM      9  H7  UNL     1      -1.054  -1.252  -2.070  1.00  0.00     0.184 HD
HETATM   10  N8  UNL     1      -1.851   1.826  -0.515  1.00  0.00    -0.305 N 
HETATM   11  C12 UNL     1      -3.274   1.990  -0.834  1.00  0.00     0.161 C 
HETATM   12  C13 UNL     1      -0.955   2.790  -0.386  1.00  0.00     0.207 A 
HETATM   13  N9  UNL     1       0.205   2.249  -0.099  1.00  0.00    -0.246 N 
HETATM   14  C14 UNL     1       1.206   3.307   0.049  1.00  0.00     0.255 A 
HETATM   15  C15 UNL     1       0.486   4.570  -0.209  1.00  0.00     0.244 A 
HETATM   16  O4  UNL     1       0.952   5.747  -0.204  1.00  0.00    -0.271 OA
HETATM   17  N10 UNL     1      -0.862   4.229  -0.471  1.00  0.00    -0.296 N 
ATOM     18  H10 UNL     1      -1.623   4.876  -0.680  1.00  0.00     0.172 HD
ENDROOT
BRANCH   1  19
HETATM   19  C3  UNL     1       1.206  -0.021   0.258  1.00  0.00     0.198 C 
BRANCH  19  20
HETATM   20  C2  UNL     1       1.143  -0.829   1.482  1.00  0.00     0.173 C 
HETATM   21  C1  UNL     1       0.513  -2.140   1.544  1.00  0.00     0.044 C 
BRANCH  20  22
HETATM   22  O1  UNL     1       0.798   0.012   2.552  1.00  0.00    -0.391 OA
ATOM     23  H1  UNL     1       1.209   0.867   2.512  1.00  0.00     0.210 HD
ENDBRANCH  20  22
ENDBRANCH  19  20
BRANCH  19  24
HETATM   24  O2  UNL     1       2.309   0.880   0.561  1.00  0.00    -0.366 OA
ATOM     25  H2  UNL     1       2.350   1.403  -0.231  1.00  0.00     0.212 HD
ENDBRANCH  19  24
BRANCH  19  26
HETATM   26  C4  UNL     1       1.769  -0.677  -0.966  1.00  0.00     0.215 C 
BRANCH  26  27
HETATM   27  N1  UNL     1       3.141  -1.093  -0.717  1.00  0.00    -0.283 N 
HETATM   28  C5  UNL     1       4.299  -0.443  -0.898  1.00  0.00     0.130 A 
HETATM   29  C6  UNL     1       5.342  -1.266  -0.512  1.00  0.00     0.127 A 
HETATM   30  N2  UNL     1       4.760  -2.406  -0.105  1.00  0.00    -0.296 N 
HETATM   31  N3  UNL     1       3.471  -2.274  -0.237  1.00  0.00    -0.241 N 
ATOM     32  H2  UNL     1       5.244  -3.232   0.247  1.00  0.00     0.187 HD
ATOM     33  H3  UNL     1       2.796  -3.000   0.003  1.00  0.00     0.208 HD
ENDBRANCH  26  27
ENDBRANCH  19  26
ENDBRANCH   1  19
BRANCH   7  34
HETATM   34  N6  UNL     1      -2.312  -3.396  -2.414  1.00  0.00    -0.232 N 
ATOM     35  H62 UNL     1      -2.871  -4.247  -2.477  1.00  0.00     0.174 HD
ATOM     36  H61 UNL     1      -1.603  -3.191  -3.118  1.00  0.00     0.174 HD
ENDBRANCH   7  34
BRANCH   6  37
HETATM   37  O3  UNL     1      -4.222  -3.985  -0.549  1.00  0.00    -0.270 OA
ATOM     38  H3  UNL     1      -4.067  -4.579  -1.274  1.00  0.00     0.245 HD
ENDBRANCH   6  37
TORSDOF 8
