REMARK  4 active torsions:
REMARK  status: ('A' for Active; 'I' for Inactive)
REMARK    1  A    between atoms: N1_2  and  C2_5 
REMARK    2  A    between atoms: C2_5  and  C3_6 
REMARK    3  A    between atoms: C3_6  and  N2_7 
REMARK    4  A    between atoms: C11_18  and  O1_19 
ROOT
HETATM    1  N2  UNL     1       1.256  -0.334   0.482  1.00  0.00     0.097 N 
HETATM    2  C4  UNL     1       0.439   0.661   1.095  1.00  0.00     0.274 C 
HETATM    3  C5  UNL     1      -0.699   1.117   0.173  1.00  0.00     0.042 C 
HETATM    4  C6  UNL     1      -1.716   0.021   0.104  1.00  0.00    -0.008 C 
HETATM    5  C7  UNL     1      -2.682   0.072   1.254  1.00  0.00     0.039 C 
HETATM    6  C8  UNL     1      -3.632   1.231   0.980  1.00  0.00     0.233 C 
HETATM    7  N3  UNL     1      -4.623   0.728   0.038  1.00  0.00    -0.075 N 
ATOM      8  H31 UNL     1      -5.137   1.483  -0.416  1.00  0.00     0.277 HD
ATOM      9  H32 UNL     1      -5.406   0.278   0.511  1.00  0.00     0.277 HD
HETATM   10  C9  UNL     1      -3.997  -0.143  -0.913  1.00  0.00     0.233 C 
HETATM   11  C10 UNL     1      -2.537   0.224  -1.178  1.00  0.00     0.039 C 
HETATM   12  C11 UNL     1      -0.967  -1.285   0.037  1.00  0.00     0.159 C 
HETATM   13  C12 UNL     1       0.458  -1.122  -0.446  1.00  0.00     0.248 C 
HETATM   14  C13 UNL     1       1.051  -2.527  -0.502  1.00  0.00     0.045 C 
ENDROOT
BRANCH  12  15
HETATM   15  O1  UNL     1      -0.941  -1.950   1.245  1.00  0.00    -0.393 OA
ATOM     16  H1  UNL     1      -0.469  -2.773   1.203  1.00  0.00     0.210 HD
ENDBRANCH  12  15
BRANCH   1  17
HETATM   17  C3  UNL     1       2.395   0.225  -0.184  1.00  0.00     0.300 C 
BRANCH  17  18
HETATM   18  C2  UNL     1       3.385   0.811   0.792  1.00  0.00     0.262 C 
BRANCH  18  19
HETATM   19  N1  UNL     1       4.513   1.373   0.097  1.00  0.00    -0.077 N 
HETATM   20  C1  UNL     1       5.359   0.414  -0.541  1.00  0.00     0.267 C 
ATOM     21  H12 UNL     1       5.058   1.963   0.726  1.00  0.00     0.276 HD
ATOM     22  H11 UNL     1       4.201   2.073  -0.576  1.00  0.00     0.276 HD
ENDBRANCH  18  19
ENDBRANCH  17  18
ENDBRANCH   1  17
TORSDOF 4
