REMARK  5 active torsions:
REMARK  status: ('A' for Active; 'I' for Inactive)
REMARK    1  A    between atoms: C5_5  and  O1_6 
REMARK    2  A    between atoms: C5_5  and  C6_8 
REMARK    3  A    between atoms: C6_8  and  N1_9 
REMARK    4  A    between atoms: C12_17  and  C13_18 
REMARK    5  A    between atoms: C13_18  and  O2_19 
ROOT
HETATM    1  C1  UNL     1       4.331  -0.189  -0.522  1.00  0.00     0.010 C 
HETATM    2  C2  UNL     1       2.874  -0.564  -0.713  1.00  0.00    -0.012 C 
HETATM    3  C3  UNL     1       2.296   0.422  -1.670  1.00  0.00     0.008 C 
HETATM    4  C4  UNL     1       0.861   0.749  -1.496  1.00  0.00     0.044 C 
HETATM    5  C5  UNL     1       0.164  -0.465  -0.865  1.00  0.00     0.090 C 
HETATM    6  C11 UNL     1       0.680  -0.511   0.533  1.00  0.00     0.050 C 
HETATM    7  C12 UNL     1       2.194  -0.692   0.586  1.00  0.00     0.016 C 
ENDROOT
BRANCH   5   8
HETATM    8  O1  UNL     1       0.549  -1.575  -1.660  1.00  0.00    -0.384 OA
ATOM      9  H1  UNL     1       0.118  -2.326  -1.270  1.00  0.00     0.211 HD
ENDBRANCH   5   8
BRANCH   5  10
HETATM   10  C6  UNL     1      -1.306  -0.383  -0.983  1.00  0.00     0.100 C 
BRANCH  10  11
HETATM   11  N1  UNL     1      -2.044   0.548  -0.273  1.00  0.00    -0.368 N 
HETATM   12  C7  UNL     1      -2.308   0.449   1.096  1.00  0.00     0.082 C 
HETATM   13  C8  UNL     1      -3.402  -0.566   1.428  1.00  0.00     0.158 C 
HETATM   14  N2  UNL     1      -4.504  -0.339   0.553  1.00  0.00    -0.415 N 
HETATM   15  C9  UNL     1      -4.469   0.889  -0.189  1.00  0.00     0.134 C 
ATOM     16  H2  UNL     1      -5.269  -1.007   0.460  1.00  0.00     0.153 HD
HETATM   17  C10 UNL     1      -3.185   1.040  -0.994  1.00  0.00     0.146 C 
ENDBRANCH  10  11
ENDBRANCH   5  10
BRANCH   7  18
HETATM   18  C13 UNL     1       2.725   0.159   1.708  1.00  0.00     0.169 C 
BRANCH  18  19
HETATM   19  O2  UNL     1       4.042  -0.081   2.044  1.00  0.00    -0.400 OA
ATOM     20  H2  UNL     1       4.377   0.456   2.752  1.00  0.00     0.209 HD
ENDBRANCH  18  19
ENDBRANCH   7  18
TORSDOF 5
