REMARK  5 active torsions:
REMARK  status: ('A' for Active; 'I' for Inactive)
REMARK    1  A    between atoms: O1_1  and  C1_3 
REMARK    2  A    between atoms: C1_3  and  C2_4 
REMARK    3  A    between atoms: C3_5  and  N1_6 
REMARK    4  A    between atoms: C12_15  and  C13_16 
REMARK    5  A    between atoms: C13_16  and  O2_17 
ROOT
HETATM    1  C2  UNL     1      -0.317  -0.949  -0.234  1.00  0.00     0.083 C 
HETATM    2  C3  UNL     1       0.366   0.183  -0.928  1.00  0.00     0.262 C 
HETATM    3  C8  UNL     1      -0.696   1.200  -1.122  1.00  0.00     0.220 C 
HETATM    4  C9  UNL     1      -0.856   2.276  -0.120  1.00  0.00     0.035 C 
HETATM    5  C10 UNL     1      -1.527   1.859   1.149  1.00  0.00     0.005 C 
HETATM    6  C11 UNL     1      -1.741   0.401   1.320  1.00  0.00     0.042 C 
HETATM    7  C12 UNL     1      -1.703  -0.424   0.055  1.00  0.00     0.154 C 
HETATM    8  N2  UNL     1      -1.960   0.431  -1.098  1.00  0.00    -0.057 N 
ATOM      9  H21 UNL     1      -2.208  -0.048  -1.964  1.00  0.00     0.278 HD
ATOM     10  H22 UNL     1      -2.818   0.982  -1.064  1.00  0.00     0.278 HD
ENDROOT
BRANCH   2  11
HETATM   11  N1  UNL     1       1.654   0.567  -0.572  1.00  0.00     0.095 N 
HETATM   12  C4  UNL     1       2.645  -0.482  -0.878  1.00  0.00     0.273 C 
HETATM   13  C5  UNL     1       3.926   0.149  -0.322  1.00  0.00     0.032 C 
HETATM   14  C6  UNL     1       3.373   0.537   1.045  1.00  0.00     0.032 C 
HETATM   15  C7  UNL     1       1.975   1.083   0.686  1.00  0.00     0.273 C 
ENDBRANCH   2  11
BRANCH   1  16
HETATM   16  C1  UNL     1      -0.409  -2.175  -1.106  1.00  0.00     0.173 C 
BRANCH  16  17
HETATM   17  O1  UNL     1      -1.006  -3.264  -0.475  1.00  0.00    -0.400 OA
ATOM     18  H1  UNL     1      -1.064  -4.037  -1.025  1.00  0.00     0.209 HD
ENDBRANCH  16  17
ENDBRANCH   1  16
BRANCH   7  19
HETATM   19  C13 UNL     1      -2.774  -1.461   0.169  1.00  0.00     0.203 C 
BRANCH  19  20
HETATM   20  O2  UNL     1      -3.986  -0.738   0.358  1.00  0.00    -0.398 OA
ATOM     21  H2  UNL     1      -4.667  -1.397   0.430  1.00  0.00     0.209 HD
ENDBRANCH  19  20
ENDBRANCH   7  19
TORSDOF 5
