REMARK  7 active torsions:
REMARK  status: ('A' for Active; 'I' for Inactive)
REMARK    1  A    between atoms: C3_3  and  C4_4 
REMARK    2  A    between atoms: C7_8  and  C8_9 
REMARK    3  A    between atoms: C8_9  and  O2_10 
REMARK    4  A    between atoms: C9_12  and  C10_13 
REMARK    5  A    between atoms: C10_13  and  C11_14 
REMARK    6  A    between atoms: C12_15  and  O3_16 
REMARK    7  A    between atoms: C14_19  and  O4_20 
ROOT
HETATM    1  C4  UNL     1       2.935  -0.539   0.097  1.00  0.00     0.090 A 
HETATM    2  O1  UNL     1       2.610  -1.323  -0.932  1.00  0.00    -0.292 OA
HETATM    3  C5  UNL     1       1.441  -1.901  -0.719  1.00  0.00     0.159 A 
HETATM    4  C6  UNL     1       0.951  -1.489   0.482  1.00  0.00     0.033 A 
HETATM    5  C7  UNL     1       1.916  -0.618   1.022  1.00  0.00     0.034 A 
HETATM    6  C9  UNL     1      -0.434  -1.812   0.827  1.00  0.00    -0.059 C 
HETATM    7  C17 UNL     1      -0.979  -3.017   0.198  1.00  0.00     0.079 C 
HETATM    8  C18 UNL     1      -0.359  -3.330  -1.096  1.00  0.00     0.067 C 
HETATM    9  N1  UNL     1       0.735  -2.849  -1.534  1.00  0.00    -0.349 N 
ATOM     10  H1  UNL     1       1.102  -3.131  -2.443  1.00  0.00     0.167 HD
ENDROOT
BRANCH   6  11
HETATM   11  C10 UNL     1      -1.365  -0.649   0.906  1.00  0.00     0.045 C 
BRANCH  11  12
HETATM   12  C11 UNL     1      -1.544   0.236  -0.264  1.00  0.00     0.050 C 
HETATM   13  C12 UNL     1      -2.491   1.413   0.102  1.00  0.00     0.127 C 
HETATM   14  C13 UNL     1      -2.967   2.130  -1.130  1.00  0.00     0.066 C 
HETATM   15  C14 UNL     1      -3.820   1.218  -2.025  1.00  0.00     0.152 C 
HETATM   16  C15 UNL     1      -3.604  -0.129  -1.418  1.00  0.00     0.180 A 
HETATM   17  O5  UNL     1      -2.972  -1.177  -1.893  1.00  0.00    -0.372 OA
HETATM   18  C16 UNL     1      -2.067  -0.274  -1.521  1.00  0.00     0.160 A 
BRANCH  13  19
HETATM   19  O3  UNL     1      -1.784   2.367   0.839  1.00  0.00    -0.395 OA
ATOM     20  H3  UNL     1      -2.363   3.086   1.063  1.00  0.00     0.210 HD
ENDBRANCH  13  19
BRANCH  15  21
HETATM   21  O4  UNL     1      -3.281   1.299  -3.307  1.00  0.00    -0.393 OA
ATOM     22  H4  UNL     1      -3.808   0.735  -3.860  1.00  0.00     0.210 HD
ENDBRANCH  15  21
ENDBRANCH  11  12
ENDBRANCH   6  11
BRANCH   5  23
HETATM   23  C8  UNL     1       1.924   0.042   2.313  1.00  0.00     0.146 C 
BRANCH  23  24
HETATM   24  O2  UNL     1       0.880  -0.157   3.166  1.00  0.00    -0.372 OA
ATOM     25  H2  UNL     1       0.885   0.275   4.012  1.00  0.00     0.216 HD
ENDBRANCH  23  24
ENDBRANCH   5  23
BRANCH   1  26
HETATM   26  C3  UNL     1       4.184   0.192   0.071  1.00  0.00     0.034 C 
HETATM   27  C2  UNL     1       4.685   1.018   0.921  1.00  0.00    -0.028 C 
HETATM   28  C1  UNL     1       6.027   1.674   0.686  1.00  0.00     0.036 C 
ENDBRANCH   1  26
TORSDOF 7
