REMARK  7 active torsions:
REMARK  status: ('A' for Active; 'I' for Inactive)
REMARK    1  A    between atoms: O1_1  and  C1_3 
REMARK    2  A    between atoms: C1_3  and  C2_4 
REMARK    3  A    between atoms: C4_7  and  O3_8 
REMARK    4  A    between atoms: C7_12  and  C8_13 
REMARK    5  A    between atoms: C11_16  and  O4_17 
REMARK    6  A    between atoms: C13_21  and  C14_22 
REMARK    7  A    between atoms: N1_23  and  C15_25 
ROOT
HETATM    1  C2  UNL     1      -1.245  -2.436  -0.533  1.00  0.00    -0.029 C 
HETATM    2  C3  UNL     1      -1.308  -2.943   0.683  1.00  0.00     0.143 C 
HETATM    3  O2  UNL     1      -0.322  -2.704   1.642  1.00  0.00    -0.332 OA
HETATM    4  C4  UNL     1       0.957  -2.365   1.221  1.00  0.00     0.271 C 
HETATM    5  C5  UNL     1       1.108  -1.734  -0.099  1.00  0.00     0.079 C 
HETATM    6  C6  UNL     1       1.682  -0.369   0.053  1.00  0.00    -0.067 C 
HETATM    7  C7  UNL     1       2.934  -0.045   0.282  1.00  0.00     0.040 C 
HETATM    8  C12 UNL     1       0.589   0.608  -0.103  1.00  0.00     0.045 C 
HETATM    9  C13 UNL     1      -0.404  -0.131  -0.934  1.00  0.00     0.037 C 
HETATM   10  C18 UNL     1      -0.119  -1.589  -0.929  1.00  0.00     0.040 C 
ENDROOT
BRANCH   7  11
HETATM   11  C8  UNL     1       3.453   1.293   0.424  1.00  0.00     0.078 A 
HETATM   12  C9  UNL     1       2.830   2.350   1.045  1.00  0.00     0.042 A 
HETATM   13  C10 UNL     1       3.733   3.413   0.915  1.00  0.00     0.067 A 
HETATM   14  C11 UNL     1       4.829   2.942   0.233  1.00  0.00     0.183 A 
HETATM   15  O5  UNL     1       4.619   1.695  -0.033  1.00  0.00    -0.288 OA
BRANCH  14  16
HETATM   16  O4  UNL     1       5.992   3.634  -0.137  1.00  0.00    -0.341 OA
ATOM     17  H4  UNL     1       6.750   3.308  -0.609  1.00  0.00     0.220 HD
ENDBRANCH  14  16
ENDBRANCH   7  11
BRANCH   4  18
HETATM   18  O3  UNL     1       1.740  -3.537   1.335  1.00  0.00    -0.370 OA
ATOM     19  H3  UNL     1       2.615  -3.305   1.047  1.00  0.00     0.212 HD
ENDBRANCH   4  18
BRANCH   9  20
HETATM   20  C14 UNL     1      -1.750   0.223  -0.425  1.00  0.00     0.061 C 
HETATM   21  N1  UNL     1      -2.408   1.198  -0.882  1.00  0.00    -0.397 N 
ATOM     22  H1  UNL     1      -1.973   1.742  -1.627  1.00  0.00     0.159 HD
BRANCH  21  23
HETATM   23  C15 UNL     1      -3.694   1.606  -0.456  1.00  0.00     0.080 A 
HETATM   24  C16 UNL     1      -3.761   2.866   0.340  1.00  0.00     0.027 A 
HETATM   25  C17 UNL     1      -4.124   1.513   0.957  1.00  0.00     0.027 A 
ENDBRANCH  21  23
ENDBRANCH   9  20
BRANCH   1  26
HETATM   26  C1  UNL     1      -2.320  -2.723  -1.508  1.00  0.00     0.200 C 
BRANCH  26  27
HETATM   27  O1  UNL     1      -1.770  -3.378  -2.633  1.00  0.00    -0.397 OA
ATOM     28  H1  UNL     1      -2.460  -3.562  -3.259  1.00  0.00     0.209 HD
ENDBRANCH  26  27
ENDBRANCH   1  26
TORSDOF 7
