REMARK  7 active torsions:
REMARK  status: ('A' for Active; 'I' for Inactive)
REMARK    1  A    between atoms: O1_1  and  C1_3 
REMARK    2  A    between atoms: C2_4  and  C3_5 
REMARK    3  A    between atoms: C3_5  and  C4_6 
REMARK    4  A    between atoms: C6_13  and  N4_14 
REMARK    5  A    between atoms: N4_14  and  C7_16 
REMARK    6  A    between atoms: C7_16  and  C8_17 
REMARK    7  A    between atoms: N7_27  and  C13_28 
ROOT
HETATM    1  C4  UNL     1       0.404  -2.387   0.765  1.00  0.00     0.031 A 
HETATM    2  C5  UNL     1      -0.304  -3.372   1.413  1.00  0.00     0.124 A 
HETATM    3  N1  UNL     1      -1.602  -2.962   1.547  1.00  0.00    -0.288 N 
ATOM      4  H1  UNL     1      -2.351  -3.494   1.990  1.00  0.00     0.188 HD
HETATM    5  N2  UNL     1      -1.725  -1.767   1.009  1.00  0.00    -0.164 N 
HETATM    6  N3  UNL     1      -2.590  -0.806   0.771  1.00  0.00    -0.109 N 
ATOM      7  H3  UNL     1      -3.576  -0.826   1.031  1.00  0.00     0.208 HD
HETATM    8  C6  UNL     1      -1.973   0.214   0.128  1.00  0.00     0.696 A 
HETATM    9  N5  UNL     1      -0.690  -0.169  -0.015  1.00  0.00    -0.171 N 
ATOM     10  H5  UNL     1       0.040   0.385  -0.464  1.00  0.00     0.186 HD
HETATM   11  C11 UNL     1      -0.513  -1.388   0.521  1.00  0.00     0.172 A 
ENDROOT
BRANCH   1  12
HETATM   12  C3  UNL     1       1.686  -2.461   0.474  1.00  0.00     0.051 C 
BRANCH  12  13
HETATM   13  C2  UNL     1       2.345  -1.342  -0.226  1.00  0.00     0.087 A 
HETATM   14  C1  UNL     1       3.068  -0.356   0.390  1.00  0.00     0.172 A 
HETATM   15  N7  UNL     1       3.527   0.504  -0.563  1.00  0.00    -0.298 N 
HETATM   16  C12 UNL     1       3.073   0.021  -1.730  1.00  0.00     0.181 A 
HETATM   17  N6  UNL     1       2.355  -1.099  -1.531  1.00  0.00    -0.329 N 
HETATM   18  S1  UNL     1       3.374   0.728  -3.173  1.00  0.00    -0.040 SA
ATOM     19  H6  UNL     1       1.901  -1.660  -2.252  1.00  0.00     0.168 HD
BRANCH  14  20
HETATM   20  O1  UNL     1       3.301  -0.243   1.758  1.00  0.00    -0.344 OA
ATOM     21  H1  UNL     1       3.803   0.441   2.185  1.00  0.00     0.219 HD
ENDBRANCH  14  20
BRANCH  15  22
HETATM   22  C13 UNL     1       4.325   1.660  -0.279  1.00  0.00     0.094 A 
HETATM   23  C14 UNL     1       5.747   1.764  -0.647  1.00  0.00     0.028 A 
HETATM   24  C15 UNL     1       5.371   1.466   0.791  1.00  0.00     0.028 A 
ENDBRANCH  15  22
ENDBRANCH  12  13
ENDBRANCH   1  12
BRANCH   8  25
HETATM   25  N4  UNL     1      -2.490   1.324  -0.269  1.00  0.00    -0.224 N 
ATOM     26  H4  UNL     1      -1.898   2.006  -0.743  1.00  0.00     0.177 HD
BRANCH  25  27
HETATM   27  C7  UNL     1      -3.876   1.627  -0.062  1.00  0.00     0.142 C 
BRANCH  27  28
HETATM   28  C8  UNL     1      -4.719   1.274  -1.280  1.00  0.00     0.004 A 
HETATM   29  C9  UNL     1      -6.186   1.559  -1.149  1.00  0.00     0.007 A 
HETATM   30  C10 UNL     1      -5.679   0.121  -1.145  1.00  0.00     0.007 A 
ENDBRANCH  27  28
ENDBRANCH  25  27
ENDBRANCH   8  25
TORSDOF 7
