REMARK  6 active torsions:
REMARK  status: ('A' for Active; 'I' for Inactive)
REMARK    1  A    between atoms: N1_1  and  C1_4 
REMARK    2  A    between atoms: N4_11  and  C4_12 
REMARK    3  A    between atoms: C4_12  and  C5_13 
REMARK    4  A    between atoms: C5_13  and  C6_14 
REMARK    5  A    between atoms: C13_21  and  N5_22 
REMARK    6  A    between atoms: C16_25  and  O1_26 
ROOT
HETATM    1  C1  UNL     1      -3.224   2.075  -2.746  1.00  0.00     0.678 A 
HETATM    2  N2  UNL     1      -2.040   2.684  -2.842  1.00  0.00    -0.188 N 
ATOM      3  H2  UNL     1      -1.896   3.352  -3.599  1.00  0.00     0.184 HD
HETATM    4  C2  UNL     1      -1.020   2.454  -1.978  1.00  0.00     0.098 A 
HETATM    5  C3  UNL     1       0.246   2.935  -1.854  1.00  0.00     0.140 A 
HETATM    6  N3  UNL     1       0.791   2.345  -0.803  1.00  0.00    -0.307 N 
ATOM      7  H3  UNL     1       1.741   2.516  -0.473  1.00  0.00     0.186 HD
HETATM    8  N4  UNL     1      -0.080   1.483  -0.222  1.00  0.00    -0.287 N 
HETATM    9  C12 UNL     1      -1.199   1.548  -0.940  1.00  0.00     0.124 A 
HETATM   10  C13 UNL     1      -2.398   0.934  -0.842  1.00  0.00     0.150 A 
HETATM   11  N6  UNL     1      -3.394   1.213  -1.756  1.00  0.00    -0.175 N 
ATOM     12  H6  UNL     1      -4.292   0.738  -1.665  1.00  0.00     0.186 HD
ENDROOT
BRANCH   8  13
HETATM   13  C4  UNL     1       0.349   0.697   0.879  1.00  0.00     0.150 C 
BRANCH  13  14
HETATM   14  C5  UNL     1       1.162  -0.514   0.461  1.00  0.00     0.026 C 
BRANCH  14  15
HETATM   15  C6  UNL     1       2.403  -0.214  -0.283  1.00  0.00    -0.013 C 
HETATM   16  C7  UNL     1       3.054  -1.571  -0.599  1.00  0.00     0.005 C 
HETATM   17  C8  UNL     1       4.452  -1.346  -1.126  1.00  0.00     0.000 C 
HETATM   18  C9  UNL     1       5.338  -0.974   0.056  1.00  0.00     0.000 C 
HETATM   19  C10 UNL     1       4.501  -0.269   1.085  1.00  0.00     0.000 C 
HETATM   20  C11 UNL     1       3.425   0.590   0.425  1.00  0.00     0.005 C 
ENDBRANCH  14  15
ENDBRANCH  13  14
ENDBRANCH   8  13
BRANCH  10  21
HETATM   21  N5  UNL     1      -2.702   0.047   0.202  1.00  0.00    -0.362 N 
HETATM   22  C14 UNL     1      -3.334   0.472   1.462  1.00  0.00     0.127 C 
HETATM   23  C15 UNL     1      -3.745  -0.773   2.170  1.00  0.00     0.053 C 
HETATM   24  C16 UNL     1      -3.769  -1.841   1.091  1.00  0.00     0.137 C 
HETATM   25  C17 UNL     1      -2.573  -1.375   0.249  1.00  0.00     0.156 C 
BRANCH  24  26
HETATM   26  O1  UNL     1      -3.573  -3.100   1.608  1.00  0.00    -0.394 OA
ATOM     27  H1  UNL     1      -3.588  -3.768   0.933  1.00  0.00     0.210 HD
ENDBRANCH  24  26
ENDBRANCH  10  21
BRANCH   1  28
HETATM   28  N1  UNL     1      -4.190   2.323  -3.606  1.00  0.00    -0.234 N 
ATOM     29  H12 UNL     1      -4.059   2.987  -4.369  1.00  0.00     0.174 HD
ATOM     30  H11 UNL     1      -5.095   1.858  -3.533  1.00  0.00     0.174 HD
ENDBRANCH   1  28
TORSDOF 6
