REMARK  6 active torsions:
REMARK  status: ('A' for Active; 'I' for Inactive)
REMARK    1  A    between atoms: O1_2  and  N1_3 
REMARK       I    between atoms: N1_3  and  C2_5 
REMARK       I    between atoms: C2_5  and  N2_7 
REMARK    2  A    between atoms: N2_7  and  C3_9 
REMARK    3  A    between atoms: C3_9  and  O3_10 
REMARK    4  A    between atoms: C3_9  and  C4_12 
REMARK    5  A    between atoms: C6_15  and  N4_16 
REMARK    6  A    between atoms: N7_25  and  N8_26 
ROOT
HETATM    1  C4  UNL     1      -1.076   0.070   0.213  1.00  0.00     0.152 A 
HETATM    2  C5  UNL     1      -1.756  -0.753  -0.698  1.00  0.00     0.124 A 
HETATM    3  N3  UNL     1      -1.056  -1.454  -1.712  1.00  0.00    -0.096 NA
HETATM    4  C6  UNL     1      -3.121  -0.916  -0.653  1.00  0.00     0.141 A 
HETATM    5  N5  UNL     1      -3.813  -0.271   0.285  1.00  0.00    -0.174 N 
ATOM      6  H5  UNL     1      -4.826  -0.382   0.330  1.00  0.00     0.186 HD
HETATM    7  C7  UNL     1      -3.186   0.531   1.180  1.00  0.00     0.699 A 
HETATM    8  N6  UNL     1      -3.848   1.149   2.081  1.00  0.00    -0.233 N 
ATOM      9  H61 UNL     1      -3.376   1.753   2.754  1.00  0.00     0.174 HD
ATOM     10  H62 UNL     1      -4.861   1.042   2.132  1.00  0.00     0.174 HD
HETATM   11  N7  UNL     1      -1.822   0.675   1.111  1.00  0.00    -0.087 N 
ENDROOT
BRANCH   1  12
HETATM   12  C3  UNL     1       0.365   0.184   0.096  1.00  0.00     0.176 C 
BRANCH  12  13
HETATM   13  N2  UNL     1       1.293   0.864   0.845  1.00  0.00    -0.286 N 
HETATM   14  C2  UNL     1       2.684   0.880   0.615  1.00  0.00     0.345 C 
HETATM   15  N1  UNL     1       3.430   0.258  -0.375  1.00  0.00    -0.217 N 
HETATM   16  O2  UNL     1       3.365   1.587   1.466  1.00  0.00    -0.245 OA
ATOM     17  H1  UNL     1       2.978  -0.315  -1.088  1.00  0.00     0.199 HD
ATOM     18  H2  UNL     1       0.946   1.405   1.637  1.00  0.00     0.172 HD
BRANCH  15  19
HETATM   19  O1  UNL     1       4.804   0.434  -0.372  1.00  0.00    -0.281 OA
HETATM   20  C1  UNL     1       5.386  -0.548  -1.157  1.00  0.00     0.237 C 
ENDBRANCH  15  19
ENDBRANCH  12  13
BRANCH  12  21
HETATM   21  O3  UNL     1       0.872  -0.485  -0.902  1.00  0.00    -0.344 OA
ATOM     22  H3  UNL     1       0.230  -0.956  -1.420  1.00  0.00     0.219 HD
ENDBRANCH  12  21
ENDBRANCH   1  12
BRANCH  11  23
HETATM   23  N8  UNL     1      -1.273   1.547   2.063  1.00  0.00    -0.324 N 
ATOM     24  H82 UNL     1      -0.260   1.654   2.012  1.00  0.00     0.178 HD
ATOM     25  H81 UNL     1      -1.852   2.016   2.760  1.00  0.00     0.178 HD
ENDBRANCH  11  23
BRANCH   4  26
HETATM   26  N4  UNL     1      -3.712  -1.690  -1.521  1.00  0.00    -0.383 N 
ATOM     27  H42 UNL     1      -3.182  -2.184  -2.239  1.00  0.00     0.157 HD
ATOM     28  H41 UNL     1      -4.724  -1.811  -1.488  1.00  0.00     0.157 HD
ENDBRANCH   4  26
TORSDOF 6
