REMARK  6 active torsions:
REMARK  status: ('A' for Active; 'I' for Inactive)
REMARK    1  A    between atoms: N1_1  and  C1_4 
REMARK    2  A    between atoms: N5_12  and  C4_14 
REMARK    3  A    between atoms: C4_14  and  C5_19 
REMARK    4  A    between atoms: N6_15  and  O1_17 
REMARK    5  A    between atoms: C5_19  and  N7_20 
REMARK    6  A    between atoms: C5_19  and  C6_24 
ROOT
HETATM    1  C1  UNL     1       3.337  -1.840   0.133  1.00  0.00     0.692 A 
HETATM    2  N2  UNL     1       3.938  -0.733   0.642  1.00  0.00    -0.131 N 
ATOM      3  H2  UNL     1       4.917  -0.779   0.925  1.00  0.00     0.205 HD
HETATM    4  N3  UNL     1       3.278   0.397   0.776  1.00  0.00    -0.270 N 
ATOM      5  H3  UNL     1       3.759   1.209   1.162  1.00  0.00     0.189 HD
HETATM    6  C2  UNL     1       1.984   0.512   0.418  1.00  0.00     0.176 A 
HETATM    7  N4  UNL     1       1.319   1.789   0.593  1.00  0.00    -0.077 NA
HETATM    8  C3  UNL     1       1.338  -0.576  -0.099  1.00  0.00     0.165 A 
HETATM    9  N5  UNL     1       0.144  -0.580  -0.462  1.00  0.00    -0.325 N 
ATOM     10  H5  UNL     1      -0.109  -1.504  -0.813  1.00  0.00     0.169 HD
HETATM   11  N9  UNL     1       2.067  -1.738  -0.222  1.00  0.00    -0.172 N 
ATOM     12  H9  UNL     1       1.604  -2.562  -0.606  1.00  0.00     0.186 HD
ENDROOT
BRANCH   9  13
HETATM   13  C4  UNL     1      -0.930   0.257  -0.539  1.00  0.00     0.144 C 
HETATM   14  N6  UNL     1      -0.893   1.207  -1.438  1.00  0.00    -0.238 N 
ATOM     15  H6  UNL     1      -0.077   1.293  -2.044  1.00  0.00     0.197 HD
BRANCH  14  16
HETATM   16  O1  UNL     1      -1.927   2.084  -1.577  1.00  0.00    -0.189 OA
HETATM   17  S1  UNL     1      -1.716   3.722  -1.036  1.00  0.00     0.125 SA
ENDBRANCH  14  16
BRANCH  13  18
HETATM   18  C5  UNL     1      -2.170   0.204   0.259  1.00  0.00     0.340 C 
BRANCH  18  19
HETATM   19  N7  UNL     1      -1.822   0.240   1.664  1.00  0.00    -0.060 N 
ATOM     20  H73 UNL     1      -1.162  -0.494   1.921  1.00  0.00     0.275 HD
ATOM     21  H72 UNL     1      -1.240   1.043   1.901  1.00  0.00     0.275 HD
ATOM     22  H71 UNL     1      -2.679   0.203   2.216  1.00  0.00     0.275 HD
ENDBRANCH  18  19
BRANCH  18  23
HETATM   23  C6  UNL     1      -3.049  -0.928  -0.072  1.00  0.00     0.269 C 
HETATM   24  N8  UNL     1      -3.557  -1.235  -1.331  1.00  0.00    -0.060 NA
HETATM   25  O2  UNL     1      -3.369  -1.690   0.885  1.00  0.00    -0.274 OA
ENDBRANCH  18  23
ENDBRANCH  13  18
ENDBRANCH   9  13
BRANCH   1  26
HETATM   26  N1  UNL     1       4.006  -2.944   0.010  1.00  0.00    -0.233 N 
ATOM     27  H12 UNL     1       4.985  -3.023   0.284  1.00  0.00     0.174 HD
ATOM     28  H11 UNL     1       3.555  -3.775  -0.372  1.00  0.00     0.174 HD
ENDBRANCH   1  26
TORSDOF 6
