REMARK  7 active torsions:
REMARK  status: ('A' for Active; 'I' for Inactive)
REMARK    1  A    between atoms: N2_3  and  C2_5 
REMARK    2  A    between atoms: C3_8  and  N4_9 
REMARK    3  A    between atoms: C5_16  and  C6_17 
REMARK    4  A    between atoms: N7_18  and  C7_20 
REMARK    5  A    between atoms: C7_20  and  O1_21 
REMARK    6  A    between atoms: C7_20  and  C8_23 
REMARK    7  A    between atoms: C8_23  and  N8_24 
ROOT
HETATM    1  N1  UNL     1      -2.350   4.118  -1.637  1.00  0.00    -0.172 NA
HETATM    2  C1  UNL     1      -1.777   3.143  -1.325  1.00  0.00     0.183 C 
HETATM    3  N2  UNL     1      -1.087   1.997  -0.941  1.00  0.00    -0.278 N 
ATOM      4  H2  UNL     1      -0.072   1.966  -1.032  1.00  0.00     0.179 HD
ENDROOT
BRANCH   3   5
HETATM    5  C2  UNL     1      -1.715   0.975  -0.472  1.00  0.00     0.144 A 
HETATM    6  N3  UNL     1      -3.048   0.997  -0.345  1.00  0.00    -0.175 N 
HETATM    7  C3  UNL     1      -3.754  -0.040   0.138  1.00  0.00     0.678 A 
ATOM      8  H3  UNL     1      -3.550   1.839  -0.628  1.00  0.00     0.186 HD
HETATM    9  N5  UNL     1      -3.126  -1.166   0.520  1.00  0.00    -0.178 N 
HETATM   10  C4  UNL     1      -1.782  -1.203   0.397  1.00  0.00     0.147 A 
ATOM     11  H5  UNL     1      -3.646  -1.962   0.889  1.00  0.00     0.185 HD
HETATM   12  N6  UNL     1      -1.084  -2.392   0.797  1.00  0.00    -0.081 NA
HETATM   13  C5  UNL     1      -1.023  -0.165  -0.091  1.00  0.00     0.066 A 
BRANCH   7  14
HETATM   14  N4  UNL     1      -5.035   0.035   0.240  1.00  0.00    -0.234 N 
ATOM     15  H42 UNL     1      -5.511   0.889  -0.050  1.00  0.00     0.174 HD
ATOM     16  H41 UNL     1      -5.571  -0.752   0.606  1.00  0.00     0.174 HD
ENDBRANCH   7  14
BRANCH  13  17
HETATM   17  C6  UNL     1       0.412  -0.275  -0.194  1.00  0.00     0.104 C 
HETATM   18  N7  UNL     1       1.168   0.661  -0.642  1.00  0.00    -0.370 N 
ATOM     19  H7  UNL     1       0.741   1.536  -0.945  1.00  0.00     0.161 HD
BRANCH  18  20
HETATM   20  C7  UNL     1       2.589   0.519  -0.731  1.00  0.00     0.262 C 
BRANCH  20  21
HETATM   21  O1  UNL     1       2.918  -0.424  -1.730  1.00  0.00    -0.374 OA
ATOM     22  H1  UNL     1       3.861  -0.518  -1.789  1.00  0.00     0.212 HD
ENDBRANCH  20  21
BRANCH  20  23
HETATM   23  C8  UNL     1       3.213  -0.016   0.553  1.00  0.00     0.337 C 
HETATM   24  C9  UNL     1       3.004   0.853   1.682  1.00  0.00     0.097 C 
HETATM   25  N9  UNL     1       2.824   1.551   2.571  1.00  0.00    -0.195 NA
BRANCH  23  26
HETATM   26  N8  UNL     1       4.644  -0.100   0.303  1.00  0.00    -0.058 N 
ATOM     27  H83 UNL     1       4.880  -0.650  -0.523  1.00  0.00     0.276 HD
ATOM     28  H82 UNL     1       5.054   0.780  -0.012  1.00  0.00     0.276 HD
ATOM     29  H81 UNL     1       5.061  -0.458   1.162  1.00  0.00     0.276 HD
ENDBRANCH  23  26
ENDBRANCH  20  23
ENDBRANCH  18  20
ENDBRANCH  13  17
ENDBRANCH   3   5
TORSDOF 7
