REMARK  4 active torsions:
REMARK  status: ('A' for Active; 'I' for Inactive)
REMARK    1  A    between atoms: N1_1  and  C1_4 
REMARK       I    between atoms: N6_15  and  C5_17 
REMARK       I    between atoms: C5_17  and  N7_18 
REMARK       I    between atoms: C5_17  and  N8_22 
REMARK    2  A    between atoms: N8_22  and  N9_23 
REMARK    3  A    between atoms: N9_23  and  C6_24 
REMARK    4  A    between atoms: C7_26  and  N10_27 
ROOT
HETATM    1  C1  UNL     1       3.677   0.675  -0.645  1.00  0.00     0.692 C 
HETATM    2  N2  UNL     1       3.593  -0.663  -0.857  1.00  0.00    -0.021 N 
ATOM      3  H2  UNL     1       4.375  -1.105  -1.340  1.00  0.00     0.203 HD
HETATM    4  C2  UNL     1       2.563  -1.469  -0.485  1.00  0.00     0.721 A 
HETATM    5  N3  UNL     1       2.658  -2.800  -0.369  1.00  0.00    -0.184 N 
ATOM      6  H3  UNL     1       3.500  -3.351  -0.536  1.00  0.00     0.185 HD
HETATM    7  C3  UNL     1       1.464  -3.290   0.003  1.00  0.00     0.216 A 
HETATM    8  N4  UNL     1       0.635  -2.212   0.114  1.00  0.00    -0.273 N 
ATOM      9  H4  UNL     1      -0.349  -2.244   0.382  1.00  0.00     0.189 HD
HETATM   10  N5  UNL     1       1.311  -1.127  -0.181  1.00  0.00    -0.065 N 
HETATM   11  C4  UNL     1       0.720   0.104  -0.136  1.00  0.00     0.188 C 
HETATM   12  N6  UNL     1      -0.503   0.099  -0.201  1.00  0.00    -0.329 N 
ATOM     13  H6  UNL     1      -0.863  -0.852  -0.277  1.00  0.00     0.164 HD
HETATM   14  C5  UNL     1      -1.550   1.040  -0.200  1.00  0.00     0.412 C 
HETATM   15  N7  UNL     1      -1.996   1.285   1.205  1.00  0.00    -0.041 N 
ATOM     16  H71 UNL     1      -2.755   1.967   1.206  1.00  0.00     0.278 HD
ATOM     17  H72 UNL     1      -1.225   1.565   1.811  1.00  0.00     0.278 HD
ATOM     18  H73 UNL     1      -2.252   0.422   1.685  1.00  0.00     0.278 HD
HETATM   19  N8  UNL     1      -2.717   0.406  -0.888  1.00  0.00    -0.005 NA
HETATM   20  C7  UNL     1       1.429   1.267  -0.019  1.00  0.00     0.161 C 
HETATM   21  N11 UNL     1       2.712   1.560  -0.362  1.00  0.00    -0.173 N 
ATOM     22  H11 UNL     1       2.963   2.547  -0.408  1.00  0.00     0.186 HD
ENDROOT
BRANCH  20  23
HETATM   23  N10 UNL     1       0.807   2.239   0.497  1.00  0.00    -0.382 N 
ATOM     24 2H10 UNL     1      -0.155   2.019   0.754  1.00  0.00     0.157 HD
ATOM     25 1H10 UNL     1       1.336   3.107   0.584  1.00  0.00     0.157 HD
ENDBRANCH  20  23
BRANCH  19  26
HETATM   26  N9  UNL     1      -3.619  -0.081  -0.045  1.00  0.00    -0.301 NA
BRANCH  26  27
HETATM   27  C6  UNL     1      -4.506  -0.570   0.791  1.00  0.00     0.461 C 
HETATM   28  O1  UNL     1      -4.540  -1.575   1.508  1.00  0.00    -0.267 OA
ENDBRANCH  26  27
ENDBRANCH  19  26
BRANCH   1  29
HETATM   29  N1  UNL     1       4.882   1.166  -0.717  1.00  0.00    -0.234 N 
ATOM     30  H12 UNL     1       5.617   0.492  -0.932  1.00  0.00     0.174 HD
ATOM     31  H11 UNL     1       4.945   2.172  -0.558  1.00  0.00     0.174 HD
ENDBRANCH   1  29
TORSDOF 4
