REMARK  8 active torsions:
REMARK  status: ('A' for Active; 'I' for Inactive)
REMARK    1  A    between atoms: C2_2  and  N3_8 
REMARK    2  A    between atoms: N1_3  and  N2_5 
REMARK       I    between atoms: N3_8  and  C3_10 
REMARK       I    between atoms: C3_10  and  N4_11 
REMARK       I    between atoms: C3_10  and  N5_15 
REMARK    3  A    between atoms: N5_15  and  N6_17 
REMARK    4  A    between atoms: N7_19  and  N8_21 
REMARK    5  A    between atoms: N8_21  and  N9_22 
REMARK    6  A    between atoms: N8_21  and  N10_25 
REMARK    7  A    between atoms: N10_25  and  C4_27 
REMARK    8  A    between atoms: N12_32  and  N13_33 
ROOT
HETATM    1  N6  UNL     1       0.978   0.879  -0.665  1.00  0.00    -0.227 N 
ATOM      2  H6  UNL     1       0.427   1.684  -0.963  1.00  0.00     0.209 HD
HETATM    3  N7  UNL     1       0.455  -0.133  -0.090  1.00  0.00    -0.192 N 
ATOM      4  H7  UNL     1       1.023  -0.929   0.201  1.00  0.00     0.213 HD
ENDROOT
BRANCH   3   5
HETATM    5  N8  UNL     1      -0.923  -0.109   0.126  1.00  0.00    -0.120 N 
BRANCH   5   6
HETATM    6  N9  UNL     1      -1.572   0.839   0.890  1.00  0.00    -0.308 N 
ATOM      7  H92 UNL     1      -1.012   1.570   1.328  1.00  0.00     0.180 HD
ATOM      8  H91 UNL     1      -2.580   0.857   1.048  1.00  0.00     0.180 HD
ENDBRANCH   5   6
BRANCH   5   9
HETATM    9  N10 UNL     1      -1.695  -1.117  -0.477  1.00  0.00    -0.243 N 
ATOM     10  H10 UNL     1      -1.215  -1.879  -0.957  1.00  0.00     0.192 HD
BRANCH   9  11
HETATM   11  C4  UNL     1      -3.105  -1.120  -0.447  1.00  0.00     0.190 C 
HETATM   12  N11 UNL     1      -3.771  -1.895   0.317  1.00  0.00    -0.369 N 
HETATM   13  C5  UNL     1      -5.186  -1.965   0.410  1.00  0.00     0.143 C 
ATOM     14  H11 UNL     1      -3.237  -2.523   0.917  1.00  0.00     0.161 HD
HETATM   15  C6  UNL     1      -5.844  -0.707  -0.037  1.00  0.00     0.171 C 
HETATM   16  N12 UNL     1      -5.240  -0.194  -1.245  1.00  0.00    -0.259 N 
HETATM   17  C7  UNL     1      -3.830  -0.196  -1.300  1.00  0.00     0.306 C 
HETATM   18  O1  UNL     1      -3.225   0.572  -2.057  1.00  0.00    -0.262 OA
BRANCH  16  19
HETATM   19  N13 UNL     1      -6.026   0.269  -2.278  1.00  0.00    -0.340 N 
ATOM     20 2H13 UNL     1      -7.045   0.270  -2.238  1.00  0.00     0.177 HD
ATOM     21 1H13 UNL     1      -5.600   0.631  -3.131  1.00  0.00     0.177 HD
ENDBRANCH  16  19
ENDBRANCH   9  11
ENDBRANCH   5   9
ENDBRANCH   3   5
BRANCH   1  22
HETATM   22  N5  UNL     1       2.378   0.804  -0.860  1.00  0.00    -0.274 N 
HETATM   23  C3  UNL     1       3.251   1.595  -0.046  1.00  0.00     0.403 C 
HETATM   24  N3  UNL     1       4.619   1.349  -0.385  1.00  0.00    -0.335 N 
HETATM   25  N4  UNL     1       2.966   1.548   1.371  1.00  0.00    -0.039 N 
ATOM     26  H3  UNL     1       5.077   2.065  -0.949  1.00  0.00     0.164 HD
ATOM     27  H43 UNL     1       3.275   0.660   1.766  1.00  0.00     0.279 HD
ATOM     28  H42 UNL     1       3.578   2.188   1.878  1.00  0.00     0.279 HD
ATOM     29  H41 UNL     1       1.991   1.723   1.613  1.00  0.00     0.279 HD
ATOM     30  H5  UNL     1       2.763   0.189  -1.577  1.00  0.00     0.186 HD
BRANCH  24  31
HETATM   31  C2  UNL     1       5.407   0.239  -0.034  1.00  0.00     0.090 C 
HETATM   32  C1  UNL     1       6.915   0.410  -0.210  1.00  0.00     0.090 C 
HETATM   33  N1  UNL     1       5.067  -0.886   0.410  1.00  0.00    -0.296 N 
ATOM     34  H1  UNL     1       5.858  -1.507   0.582  1.00  0.00     0.187 HD
BRANCH  33  35
HETATM   35  N2  UNL     1       3.861  -1.452   0.711  1.00  0.00    -0.344 N 
ATOM     36  H22 UNL     1       3.085  -0.814   0.532  1.00  0.00     0.176 HD
ATOM     37  H21 UNL     1       3.585  -2.365   1.071  1.00  0.00     0.176 HD
ENDBRANCH  33  35
ENDBRANCH  24  31
ENDBRANCH   1  22
TORSDOF 8
