REMARK  10 active torsions:
REMARK  status: ('A' for Active; 'I' for Inactive)
REMARK    1  A    between atoms: C1_4  and  N2_5 
REMARK    2  A    between atoms: C1_4  and  C2_11 
REMARK    3  A    between atoms: N2_5  and  N3_7 
REMARK    4  A    between atoms: N3_7  and  N4_8 
REMARK    5  A    between atoms: N7_20  and  C7_21 
REMARK    6  A    between atoms: C7_21  and  C8_22 
REMARK    7  A    between atoms: C8_22  and  O1_23 
REMARK    8  A    between atoms: C9_25  and  C10_26 
REMARK       I    between atoms: C10_26  and  N8_28 
REMARK    9  A    between atoms: N8_28  and  N9_30 
REMARK   10  A    between atoms: N9_30  and  N10_31 
ROOT
HETATM    1  C2  UNL     1      -1.397   0.436   0.082  1.00  0.00     0.042 A 
HETATM    2  C3  UNL     1      -0.670   1.633   0.215  1.00  0.00     0.106 A 
HETATM    3  N5  UNL     1       0.653   1.649   0.368  1.00  0.00    -0.349 N 
ATOM      4  H5  UNL     1       1.132   2.545   0.459  1.00  0.00     0.167 HD
HETATM    5  C4  UNL     1       1.368   0.520   0.405  1.00  0.00     0.136 A 
HETATM    6  C5  UNL     1       0.687  -0.666   0.280  1.00  0.00     0.094 A 
HETATM    7  N6  UNL     1       1.593  -1.625   0.352  1.00  0.00    -0.348 N 
ATOM      8  H6  UNL     1       1.398  -2.624   0.291  1.00  0.00     0.167 HD
HETATM    9  C6  UNL     1       2.814  -1.079   0.518  1.00  0.00     0.185 A 
HETATM   10  N7  UNL     1       2.677   0.253   0.551  1.00  0.00    -0.325 N 
HETATM   11  C9  UNL     1      -0.704  -0.745   0.118  1.00  0.00     0.079 A 
ENDROOT
BRANCH   1  12
HETATM   12  C1  UNL     1      -2.799   0.545  -0.183  1.00  0.00     0.124 C 
HETATM   13  N1  UNL     1      -3.611  -0.382  -0.472  1.00  0.00    -0.384 N 
ATOM     14  H12 UNL     1      -4.610  -0.304  -0.661  1.00  0.00     0.157 HD
ATOM     15  H11 UNL     1      -3.185  -1.308  -0.518  1.00  0.00     0.157 HD
BRANCH  12  16
HETATM   16  N2  UNL     1      -3.406   1.864  -0.118  1.00  0.00    -0.269 N 
ATOM     17  H2  UNL     1      -3.663   2.331  -0.987  1.00  0.00     0.185 HD
BRANCH  16  18
HETATM   18  N3  UNL     1      -3.647   2.507   1.082  1.00  0.00    -0.028 NA
BRANCH  18  19
HETATM   19  N4  UNL     1      -3.932   3.835   0.866  1.00  0.00    -0.329 N 
ATOM     20  H42 UNL     1      -3.958   4.270  -0.056  1.00  0.00     0.174 HD
ATOM     21  H41 UNL     1      -4.110   4.309   1.751  1.00  0.00     0.174 HD
ENDBRANCH  18  19
ENDBRANCH  16  18
ENDBRANCH  12  16
ENDBRANCH   1  12
BRANCH  11  22
HETATM   22  C10 UNL     1      -1.302  -2.056   0.120  1.00  0.00     0.272 C 
HETATM   23  O2  UNL     1      -2.343  -2.307   0.756  1.00  0.00    -0.266 OA
HETATM   24  N8  UNL     1      -0.737  -3.161  -0.615  1.00  0.00    -0.250 N 
ATOM     25  H8  UNL     1       0.113  -2.999  -1.154  1.00  0.00     0.187 HD
BRANCH  24  26
HETATM   26  N9  UNL     1      -1.292  -4.435  -0.626  1.00  0.00    -0.027 NA
BRANCH  26  27
HETATM   27  N10 UNL     1      -0.417  -5.367  -0.057  1.00  0.00    -0.329 N 
ATOM     28 2H10 UNL     1       0.503  -5.127   0.312  1.00  0.00     0.174 HD
ATOM     29 1H10 UNL     1      -0.824  -6.302  -0.065  1.00  0.00     0.174 HD
ENDBRANCH  26  27
ENDBRANCH  24  26
ENDBRANCH  11  22
BRANCH  10  30
HETATM   30  C7  UNL     1       3.753   1.197   0.713  1.00  0.00     0.157 C 
BRANCH  30  31
HETATM   31  C8  UNL     1       4.284   1.568  -0.672  1.00  0.00     0.184 C 
BRANCH  31  32
HETATM   32  O1  UNL     1       5.332   2.481  -0.546  1.00  0.00    -0.399 OA
ATOM     33  H1  UNL     1       5.662   2.712  -1.407  1.00  0.00     0.209 HD
ENDBRANCH  31  32
ENDBRANCH  30  31
ENDBRANCH  10  30
TORSDOF 10
