REMARK  6 active torsions:
REMARK  status: ('A' for Active; 'I' for Inactive)
REMARK    1  A    between atoms: C2_4  and  N2_5 
REMARK    2  A    between atoms: C2_4  and  C4_16 
REMARK       I    between atoms: N2_5  and  C3_7 
REMARK       I    between atoms: C3_7  and  N3_8 
REMARK       I    between atoms: C3_7  and  N4_12 
REMARK    3  A    between atoms: N4_12  and  N5_13 
REMARK    4  A    between atoms: C4_16  and  N6_17 
REMARK    5  A    between atoms: C4_16  and  C5_21 
REMARK    6  A    between atoms: C5_21  and  N7_22 
ROOT
HETATM    1  C4  UNL     1      -0.800  -0.464   0.444  1.00  0.00     0.289 C 
ENDROOT
BRANCH   1   2
HETATM    2  C2  UNL     1      -2.118  -0.767  -0.150  1.00  0.00     0.111 C 
HETATM    3  N1  UNL     1      -2.356  -0.914  -1.338  1.00  0.00    -0.382 N 
HETATM    4  C1  UNL     1      -1.811  -0.923  -2.605  1.00  0.00     0.147 C 
ATOM      5  H1  UNL     1      -3.353  -1.107  -1.431  1.00  0.00     0.160 HD
BRANCH   2   6
HETATM    6  N2  UNL     1      -3.261  -0.900   0.747  1.00  0.00    -0.337 N 
HETATM    7  C3  UNL     1      -4.482  -0.238   0.349  1.00  0.00     0.397 C 
HETATM    8  N3  UNL     1      -5.540  -0.471   1.336  1.00  0.00    -0.042 N 
HETATM    9  N4  UNL     1      -4.317   1.205   0.291  1.00  0.00    -0.093 NA
ATOM     10  H33 UNL     1      -5.687  -1.466   1.506  1.00  0.00     0.278 HD
ATOM     11  H32 UNL     1      -5.249  -0.197   2.275  1.00  0.00     0.278 HD
ATOM     12  H31 UNL     1      -6.402  -0.004   1.055  1.00  0.00     0.278 HD
ATOM     13  H2  UNL     1      -3.201  -1.435   1.614  1.00  0.00     0.164 HD
BRANCH   9  14
HETATM   14  N5  UNL     1      -5.512   1.823  -0.103  1.00  0.00    -0.345 N 
ATOM     15  H52 UNL     1      -6.371   1.316  -0.316  1.00  0.00     0.172 HD
ATOM     16  H51 UNL     1      -5.396   2.836  -0.144  1.00  0.00     0.172 HD
ENDBRANCH   9  14
ENDBRANCH   2   6
ENDBRANCH   1   2
BRANCH   1  17
HETATM   17  N6  UNL     1      -0.984   0.898   0.987  1.00  0.00    -0.064 N 
ATOM     18  H63 UNL     1      -1.313   1.585   0.309  1.00  0.00     0.275 HD
ATOM     19  H62 UNL     1      -1.772   0.998   1.627  1.00  0.00     0.275 HD
ATOM     20  H61 UNL     1      -0.074   1.107   1.397  1.00  0.00     0.275 HD
ENDBRANCH   1  17
BRANCH   1  21
HETATM   21  C5  UNL     1       0.328  -0.514  -0.454  1.00  0.00     0.126 C 
BRANCH  21  22
HETATM   22  N7  UNL     1       1.661  -0.269   0.028  1.00  0.00    -0.272 N 
HETATM   23  N8  UNL     1       2.469  -1.118  -0.661  1.00  0.00    -0.270 N 
HETATM   24  C6  UNL     1       3.821  -1.504  -0.733  1.00  0.00     0.203 C 
ATOM     25  H8  UNL     1       1.921  -1.642  -1.343  1.00  0.00     0.190 HD
HETATM   26  N9  UNL     1       4.008  -2.926  -0.963  1.00  0.00    -0.062 NA
HETATM   27  N10 UNL     1       4.950  -0.886  -0.643  1.00  0.00    -0.362 N 
HETATM   28  C7  UNL     1       5.283   0.479  -0.426  1.00  0.00     0.150 C 
ATOM     29  H10 UNL     1       5.761  -1.495  -0.748  1.00  0.00     0.162 HD
HETATM   30  C8  UNL     1       4.406   1.143   0.613  1.00  0.00     0.254 C 
HETATM   31  N11 UNL     1       3.241   1.565  -0.090  1.00  0.00    -0.051 N 
HETATM   32  C9  UNL     1       2.014   1.000   0.434  1.00  0.00     0.301 C 
ATOM     33 2H11 UNL     1       3.186   2.583  -0.120  1.00  0.00     0.279 HD
ATOM     34 1H11 UNL     1       3.331   1.371  -1.087  1.00  0.00     0.279 HD
HETATM   35  C10 UNL     1       2.009   1.300   1.924  1.00  0.00     0.065 C 
ENDBRANCH  21  22
ENDBRANCH   1  21
TORSDOF 6
