REMARK  9 active torsions:
REMARK  status: ('A' for Active; 'I' for Inactive)
REMARK    1  A    between atoms: C2_2  and  C3_3 
REMARK    2  A    between atoms: C5_6  and  C6_7 
REMARK    3  A    between atoms: C7_10  and  S1_11 
REMARK    4  A    between atoms: S1_11  and  C8_12 
REMARK    5  A    between atoms: C10_14  and  N2_15 
REMARK    6  A    between atoms: N2_15  and  N3_17 
REMARK    7  A    between atoms: C11_25  and  C12_26 
REMARK    8  A    between atoms: C12_26  and  O3_27 
REMARK    9  A    between atoms: C13_29  and  O4_30 
ROOT
HETATM    1  C8  UNL     1      -2.883  -0.120  -0.783  1.00  0.00     0.088 C 
HETATM    2  C9  UNL     1      -3.247   0.414   0.574  1.00  0.00     0.073 C 
HETATM    3  C10 UNL     1      -3.197  -0.788   1.485  1.00  0.00     0.301 C 
HETATM    4  N5  UNL     1      -2.494  -1.823   0.773  1.00  0.00    -0.046 N 
ATOM      5  H51 UNL     1      -2.729  -2.768   1.077  1.00  0.00     0.280 HD
ATOM      6  H52 UNL     1      -1.499  -1.874   0.993  1.00  0.00     0.280 HD
HETATM    7  C11 UNL     1      -2.768  -1.575  -0.596  1.00  0.00     0.226 C 
ENDROOT
BRANCH   1   8
HETATM    8  S1  UNL     1      -1.642   0.772  -1.642  1.00  0.00    -0.122 SA
BRANCH   8   9
HETATM    9  C7  UNL     1      -0.054   0.922  -0.943  1.00  0.00     0.043 C 
HETATM   10  C5  UNL     1       0.955   1.583  -1.521  1.00  0.00     0.124 C 
HETATM   11  N1  UNL     1       2.118   1.547  -0.736  1.00  0.00    -0.359 N 
HETATM   12  C4  UNL     1       3.419   1.550  -0.138  1.00  0.00     0.160 C 
HETATM   13  C14 UNL     1       1.607   1.303   0.631  1.00  0.00     0.149 C 
HETATM   14  C3  UNL     1       2.887   0.619   0.888  1.00  0.00    -0.041 C 
HETATM   15  C13 UNL     1       0.433   0.381   0.335  1.00  0.00     0.187 C 
BRANCH  10  16
HETATM   16  C6  UNL     1       0.873   2.277  -2.833  1.00  0.00     0.227 C 
HETATM   17  O1  UNL     1      -0.186   2.275  -3.486  1.00  0.00    -0.643 OA
HETATM   18  O2  UNL     1       1.966   2.936  -3.353  1.00  0.00    -0.643 OA
ENDBRANCH  10  16
BRANCH  14  19
HETATM   19  C2  UNL     1       3.403  -0.341   1.631  1.00  0.00    -0.024 C 
HETATM   20  C1  UNL     1       4.846  -0.656   1.497  1.00  0.00     0.036 C 
ENDBRANCH  14  19
BRANCH  15  21
HETATM   21  O4  UNL     1       0.892  -0.935   0.211  1.00  0.00    -0.388 OA
ATOM     22  H4  UNL     1       1.207  -1.284   1.036  1.00  0.00     0.210 HD
ENDBRANCH  15  21
ENDBRANCH   8   9
ENDBRANCH   1   8
BRANCH   7  23
HETATM   23  C12 UNL     1      -1.944  -2.321  -1.596  1.00  0.00     0.198 C 
BRANCH  23  24
HETATM   24  O3  UNL     1      -2.152  -3.695  -1.377  1.00  0.00    -0.399 OA
ATOM     25  H3  UNL     1      -1.628  -4.169  -2.012  1.00  0.00     0.209 HD
ENDBRANCH  23  24
ENDBRANCH   7  23
BRANCH   3  26
HETATM   26  N2  UNL     1      -2.647  -0.540   2.777  1.00  0.00    -0.292 N 
ATOM     27  H2  UNL     1      -2.193  -1.290   3.298  1.00  0.00     0.184 HD
BRANCH  26  28
HETATM   28  N3  UNL     1      -2.728   0.595   3.256  1.00  0.00    -0.252 N 
HETATM   29  N4  UNL     1      -2.375   1.588   3.897  1.00  0.00    -0.331 N 
ATOM     30  H42 UNL     1      -1.468   1.247   4.215  1.00  0.00     0.178 HD
ATOM     31  H41 UNL     1      -2.442   2.526   4.293  1.00  0.00     0.178 HD
ATOM     32  H3  UNL     1      -3.642   0.892   2.914  1.00  0.00     0.207 HD
ENDBRANCH  26  28
ENDBRANCH   3  26
TORSDOF 9
