REMARK  8 active torsions:
REMARK  status: ('A' for Active; 'I' for Inactive)
REMARK    1  A    between atoms: C2_2  and  C3_3 
REMARK    2  A    between atoms: C4_4  and  C5_5 
REMARK    3  A    between atoms: C5_5  and  O1_6 
REMARK    4  A    between atoms: C8_10  and  O3_11 
REMARK    5  A    between atoms: C10_14  and  C12_16 
REMARK    6  A    between atoms: C17_21  and  C18_22 
REMARK    7  A    between atoms: C18_22  and  O4_23 
REMARK    8  A    between atoms: C20_26  and  O5_27 
ROOT
HETATM    1  C3  UNL     1       2.329  -0.681  -0.811  1.00  0.00    -0.024 C 
HETATM    2  C4  UNL     1       2.741   0.633  -0.272  1.00  0.00     0.177 C 
HETATM    3  O2  UNL     1       1.656   1.474   0.018  1.00  0.00    -0.371 OA
HETATM    4  C7  UNL     1       0.500   0.869  -0.215  1.00  0.00     0.159 C 
HETATM    5  C8  UNL     1      -0.724   1.549   0.475  1.00  0.00     0.153 C 
HETATM    6  C9  UNL     1      -1.681   0.437   0.130  1.00  0.00     0.036 C 
HETATM    7  C10 UNL     1      -3.109   0.646   0.152  1.00  0.00    -0.037 C 
HETATM    8  C11 UNL     1      -3.726   1.185   1.424  1.00  0.00     0.015 C 
HETATM    9  C14 UNL     1      -3.801  -0.655  -0.206  1.00  0.00     0.010 C 
HETATM   10  C15 UNL     1      -2.953  -1.784  -0.609  1.00  0.00     0.002 C 
HETATM   11  C16 UNL     1      -1.551  -1.901  -0.137  1.00  0.00     0.013 C 
HETATM   12  C17 UNL     1      -1.049  -0.761   0.710  1.00  0.00    -0.004 C 
HETATM   13  C19 UNL     1       0.409  -0.428   0.569  1.00  0.00     0.061 C 
HETATM   14  C20 UNL     1       1.358  -1.433   0.107  1.00  0.00     0.157 C 
ENDROOT
BRANCH   2  15
HETATM   15  C5  UNL     1       3.621   0.652   0.930  1.00  0.00     0.203 C 
BRANCH  15  16
HETATM   16  O1  UNL     1       3.992   1.960   1.218  1.00  0.00    -0.393 OA
HETATM   17  C6  UNL     1       4.695   2.633   0.273  1.00  0.00     0.201 C 
ENDBRANCH  15  16
ENDBRANCH   2  15
BRANCH   1  18
HETATM   18  C2  UNL     1       3.347  -1.504  -1.439  1.00  0.00    -0.023 C 
HETATM   19  C1  UNL     1       4.531  -2.002  -0.733  1.00  0.00     0.036 C 
ENDBRANCH   1  18
BRANCH  14  20
HETATM   20  O5  UNL     1       2.075  -1.985   1.196  1.00  0.00    -0.391 OA
ATOM     21  H5  UNL     1       1.473  -2.451   1.765  1.00  0.00     0.210 HD
ENDBRANCH  14  20
BRANCH   5  22
HETATM   22  O3  UNL     1      -0.892   2.715  -0.222  1.00  0.00    -0.393 OA
ATOM     23  H3  UNL     1      -1.637   3.129   0.198  1.00  0.00     0.210 HD
ENDBRANCH   5  22
BRANCH  12  24
HETATM   24  C18 UNL     1      -1.263  -1.154   2.116  1.00  0.00     0.174 C 
BRANCH  24  25
HETATM   25  O4  UNL     1      -2.560  -1.437   2.511  1.00  0.00    -0.400 OA
ATOM     26  H4  UNL     1      -2.698  -1.690   3.416  1.00  0.00     0.209 HD
ENDBRANCH  24  25
ENDBRANCH  12  24
BRANCH   7  27
HETATM   27  C12 UNL     1      -3.534   1.668  -0.907  1.00  0.00     0.005 C 
HETATM   28  C13 UNL     1      -3.206   1.307  -2.290  1.00  0.00     0.006 C 
ENDBRANCH   7  27
TORSDOF 8
