REMARK  6 active torsions:
REMARK  status: ('A' for Active; 'I' for Inactive)
REMARK    1  A    between atoms: S1_2  and  C2_3 
REMARK    2  A    between atoms: C2_3  and  C3_4 
REMARK    3  A    between atoms: C6_13  and  C7_14 
REMARK    4  A    between atoms: C7_14  and  C8_15 
REMARK    5  A    between atoms: C9_16  and  N3_17 
REMARK    6  A    between atoms: C12_22  and  N5_23 
ROOT
HETATM    1  C8  UNL     1      -1.446  -0.015  -0.415  1.00  0.00     0.032 A 
HETATM    2  C9  UNL     1      -2.036   0.592   0.681  1.00  0.00     0.130 A 
HETATM    3  N4  UNL     1      -2.765   1.737   0.559  1.00  0.00    -0.176 N 
ATOM      4  H4  UNL     1      -3.185   2.164   1.385  1.00  0.00     0.186 HD
HETATM    5  C12 UNL     1      -2.928   2.296  -0.629  1.00  0.00     0.677 A 
HETATM    6  N6  UNL     1      -2.366   1.717  -1.691  1.00  0.00    -0.195 N 
ATOM      7  H6  UNL     1      -2.501   2.159  -2.600  1.00  0.00     0.184 HD
HETATM    8  C13 UNL     1      -1.633   0.590  -1.645  1.00  0.00     0.036 A 
HETATM    9  C14 UNL     1      -1.043   0.034  -2.906  1.00  0.00     0.070 C 
ENDROOT
BRANCH   1  10
HETATM   10  C7  UNL     1      -0.588  -1.166  -0.218  1.00  0.00     0.036 C 
BRANCH  10  11
HETATM   11  C6  UNL     1       0.768  -1.221  -0.697  1.00  0.00     0.056 A 
HETATM   12  C3  UNL     1       1.783  -0.384  -0.336  1.00  0.00     0.036 A 
HETATM   13  N1  UNL     1       3.003  -0.628  -0.854  1.00  0.00    -0.335 N 
HETATM   14  C4  UNL     1       3.284  -1.643  -1.700  1.00  0.00     0.178 A 
ATOM     15  H1  UNL     1       3.766  -0.004  -0.589  1.00  0.00     0.168 HD
HETATM   16  S2  UNL     1       4.778  -1.878  -2.286  1.00  0.00    -0.040 SA
HETATM   17  N2  UNL     1       2.302  -2.474  -2.062  1.00  0.00    -0.299 N 
HETATM   18  C5  UNL     1       1.089  -2.260  -1.570  1.00  0.00     0.259 A 
ATOM     19  H2  UNL     1       2.480  -3.251  -2.699  1.00  0.00     0.171 HD
HETATM   20  O1  UNL     1       0.189  -3.097  -1.951  1.00  0.00    -0.267 OA
BRANCH  12  21
HETATM   21  C2  UNL     1       1.568   0.769   0.583  1.00  0.00     0.131 C 
BRANCH  21  22
HETATM   22  S1  UNL     1       3.112   1.622   0.843  1.00  0.00    -0.168 SA
HETATM   23  C1  UNL     1       4.332   0.769   1.824  1.00  0.00     0.090 C 
ENDBRANCH  21  22
ENDBRANCH  12  21
ENDBRANCH  10  11
ENDBRANCH   1  10
BRANCH   2  24
HETATM   24  N3  UNL     1      -2.063   0.069   2.001  1.00  0.00    -0.375 N 
HETATM   25  C10 UNL     1      -2.778  -1.150   2.260  1.00  0.00     0.150 C 
HETATM   26  C11 UNL     1      -1.426   0.771   3.068  1.00  0.00     0.150 C 
ENDBRANCH   2  24
BRANCH   5  27
HETATM   27  N5  UNL     1      -3.631   3.395  -0.711  1.00  0.00    -0.234 N 
ATOM     28  H52 UNL     1      -4.061   3.838   0.101  1.00  0.00     0.174 HD
ATOM     29  H51 UNL     1      -3.757   3.826  -1.627  1.00  0.00     0.174 HD
ENDBRANCH   5  27
TORSDOF 6
