REMARK  9 active torsions:
REMARK  status: ('A' for Active; 'I' for Inactive)
REMARK    1  A    between atoms: C2_2  and  O1_3 
REMARK    2  A    between atoms: C2_2  and  C3_5 
REMARK    3  A    between atoms: C3_5  and  O2_6 
REMARK    4  A    between atoms: O2_6  and  C4_7 
REMARK    5  A    between atoms: C9_12  and  O3_13 
REMARK    6  A    between atoms: C14_19  and  C15_20 
REMARK    7  A    between atoms: C15_20  and  O4_21 
REMARK    8  A    between atoms: C18_26  and  C19_27 
REMARK    9  A    between atoms: C19_27  and  O6_28 
ROOT
HETATM    1  C4  UNL     1      -2.635   0.356  -0.121  1.00  0.00     0.177 C 
HETATM    2  C5  UNL     1      -1.770   0.115  -1.368  1.00  0.00     0.040 C 
HETATM    3  C6  UNL     1      -0.586   1.048  -1.229  1.00  0.00     0.019 C 
HETATM    4  C7  UNL     1       0.373   0.566  -0.175  1.00  0.00     0.012 C 
HETATM    5  C8  UNL     1      -0.431   0.113   0.987  1.00  0.00     0.020 C 
HETATM    6  C9  UNL     1      -1.745   0.019   1.019  1.00  0.00     0.069 C 
HETATM    7  C10 UNL     1       1.104  -0.644  -0.729  1.00  0.00     0.003 C 
HETATM    8  C11 UNL     1       1.785  -1.461   0.316  1.00  0.00     0.010 C 
HETATM    9  C12 UNL     1       3.233  -1.829  -0.044  1.00  0.00     0.037 C 
HETATM   10  C13 UNL     1       4.046  -0.592  -0.261  1.00  0.00    -0.053 C 
HETATM   11  C14 UNL     1       5.328  -0.472  -0.081  1.00  0.00     0.004 C 
HETATM   12  C16 UNL     1       3.200   0.575  -0.741  1.00  0.00     0.151 C 
HETATM   13  C17 UNL     1       2.186  -0.109  -1.653  1.00  0.00     0.042 C 
HETATM   14  O5  UNL     1       2.627   1.093   0.391  1.00  0.00    -0.373 OA
HETATM   15  C18 UNL     1       1.362   1.605   0.250  1.00  0.00     0.158 C 
ENDROOT
BRANCH  15  16
HETATM   16  C19 UNL     1       1.418   2.833  -0.586  1.00  0.00     0.197 C 
BRANCH  16  17
HETATM   17  O6  UNL     1       2.265   3.742   0.099  1.00  0.00    -0.398 OA
ATOM     18  H6  UNL     1       2.301   4.527  -0.435  1.00  0.00     0.209 HD
ENDBRANCH  16  17
ENDBRANCH  15  16
BRANCH   6  19
HETATM   19  O3  UNL     1      -2.385  -0.426   2.187  1.00  0.00    -0.363 OA
ATOM     20  H3  UNL     1      -1.816  -0.642   2.916  1.00  0.00     0.217 HD
ENDBRANCH   6  19
BRANCH   1  21
HETATM   21  O2  UNL     1      -3.742  -0.498  -0.133  1.00  0.00    -0.377 OA
BRANCH  21  22
HETATM   22  C3  UNL     1      -4.913   0.211  -0.018  1.00  0.00     0.199 C 
BRANCH  22  23
HETATM   23  C2  UNL     1      -6.064  -0.802  -0.040  1.00  0.00     0.138 C 
HETATM   24  C1  UNL     1      -7.392  -0.127   0.212  1.00  0.00     0.041 C 
BRANCH  23  25
HETATM   25  O1  UNL     1      -6.067  -1.524  -1.221  1.00  0.00    -0.394 OA
ATOM     26  H1  UNL     1      -5.232  -1.948  -1.379  1.00  0.00     0.210 HD
ENDBRANCH  23  25
ENDBRANCH  22  23
ENDBRANCH  21  22
ENDBRANCH   1  21
BRANCH  11  27
HETATM   27  C15 UNL     1       6.176  -1.567   0.373  1.00  0.00     0.191 C 
BRANCH  27  28
HETATM   28  O4  UNL     1       6.820  -1.254   1.589  1.00  0.00    -0.397 OA
ATOM     29  H4  UNL     1       7.373  -1.968   1.885  1.00  0.00     0.209 HD
ENDBRANCH  27  28
ENDBRANCH  11  27
TORSDOF 9
