REMARK  6 active torsions:
REMARK  status: ('A' for Active; 'I' for Inactive)
REMARK    1  A    between atoms: N1_1  and  C1_4 
REMARK    2  A    between atoms: C3_9  and  C4_10 
REMARK    3  A    between atoms: C4_10  and  C6_18 
REMARK    4  A    between atoms: N4_11  and  N5_13 
REMARK       I    between atoms: N5_13  and  C5_15 
REMARK    5  A    between atoms: C6_18  and  O3_20 
REMARK    6  A    between atoms: O3_20  and  N7_21 
ROOT
HETATM    1  C4  UNL     1       0.141   0.431  -0.158  1.00  0.00     0.144 C 
HETATM    2  N4  UNL     1       0.944  -0.597  -0.348  1.00  0.00    -0.290 N 
ATOM      3  H4  UNL     1       0.482  -1.501  -0.452  1.00  0.00     0.187 HD
ENDROOT
BRANCH   1   4
HETATM    4  C3  UNL     1      -1.284   0.147  -0.121  1.00  0.00     0.108 A 
HETATM    5  C2  UNL     1      -1.706  -1.196  -0.289  1.00  0.00     0.150 A 
HETATM    6  N2  UNL     1      -3.003  -1.533  -0.267  1.00  0.00    -0.178 N 
HETATM    7  N3  UNL     1      -0.731  -2.203  -0.485  1.00  0.00    -0.081 NA
HETATM    8  C1  UNL     1      -3.945  -0.623  -0.086  1.00  0.00     0.680 A 
ATOM      9  H2  UNL     1      -3.268  -2.510  -0.392  1.00  0.00     0.185 HD
HETATM   10  N8  UNL     1      -3.632   0.660   0.079  1.00  0.00    -0.155 N 
HETATM   11  C7  UNL     1      -2.306   1.024   0.059  1.00  0.00     0.275 A 
ATOM     12  H8  UNL     1      -4.361   1.360   0.218  1.00  0.00     0.187 HD
HETATM   13  O4  UNL     1      -2.105   2.229   0.220  1.00  0.00    -0.267 OA
BRANCH   8  14
HETATM   14  N1  UNL     1      -5.188  -0.967  -0.068  1.00  0.00    -0.234 N 
ATOM     15  H12 UNL     1      -5.428  -1.950  -0.194  1.00  0.00     0.174 HD
ATOM     16  H11 UNL     1      -5.915  -0.265   0.072  1.00  0.00     0.174 HD
ENDBRANCH   8  14
ENDBRANCH   1   4
BRANCH   1  17
HETATM   17  C6  UNL     1       0.786   1.681  -0.015  1.00  0.00     0.333 C 
HETATM   18  O2  UNL     1       0.240   2.774   0.170  1.00  0.00    -0.256 OA
BRANCH  17  19
HETATM   19  O3  UNL     1       2.200   1.746  -0.083  1.00  0.00    -0.201 OA
BRANCH  19  20
HETATM   20  N7  UNL     1       2.860   2.968   0.055  1.00  0.00    -0.302 N 
ATOM     21  H72 UNL     1       2.306   3.811   0.205  1.00  0.00     0.184 HD
ATOM     22  H71 UNL     1       3.878   3.015   0.006  1.00  0.00     0.184 HD
ENDBRANCH  19  20
ENDBRANCH  17  19
ENDBRANCH   1  17
BRANCH   2  23
HETATM   23  N5  UNL     1       2.287  -0.622  -0.424  1.00  0.00    -0.253 N 
HETATM   24  C5  UNL     1       3.174  -1.083   0.588  1.00  0.00     0.347 C 
HETATM   25  N6  UNL     1       4.577  -1.060   0.388  1.00  0.00    -0.038 NA
HETATM   26  O1  UNL     1       2.755  -1.526   1.690  1.00  0.00    -0.249 OA
ATOM     27  H5  UNL     1       2.708  -0.279  -1.287  1.00  0.00     0.191 HD
ENDBRANCH   2  23
TORSDOF 6
