REMARK  7 active torsions:
REMARK  status: ('A' for Active; 'I' for Inactive)
REMARK    1  A    between atoms: N1_1  and  C1_4 
REMARK    2  A    between atoms: C2_7  and  N3_8 
REMARK    3  A    between atoms: N3_8  and  C3_10 
REMARK    4  A    between atoms: N5_14  and  N6_15 
REMARK    5  A    between atoms: C5_17  and  C6_18 
REMARK    6  A    between atoms: C6_18  and  N7_19 
REMARK    7  A    between atoms: C8_27  and  N10_28 
ROOT
HETATM    1  N3  UNL     1      -1.703   1.394  -0.739  1.00  0.00    -0.178 N 
ATOM      2  H3  UNL     1      -1.837   2.267  -1.250  1.00  0.00     0.185 HD
ENDROOT
BRANCH   1   3
HETATM    3  C2  UNL     1      -2.844   0.582  -0.423  1.00  0.00     0.712 A 
HETATM    4  N2  UNL     1      -4.087   0.945  -0.787  1.00  0.00    -0.021 N 
HETATM    5  C1  UNL     1      -5.155   0.184  -0.490  1.00  0.00     0.705 A 
ATOM      6  H2  UNL     1      -4.222   1.816  -1.299  1.00  0.00     0.203 HD
HETATM    7  N11 UNL     1      -5.035  -0.973   0.181  1.00  0.00    -0.022 N 
HETATM    8  C8  UNL     1      -3.779  -1.353   0.555  1.00  0.00     0.705 A 
ATOM      9  H11 UNL     1      -5.850  -1.545   0.402  1.00  0.00     0.203 HD
HETATM   10  N9  UNL     1      -2.719  -0.577   0.249  1.00  0.00    -0.021 N 
ATOM     11  H9  UNL     1      -1.789  -0.880   0.538  1.00  0.00     0.203 HD
BRANCH   5  12
HETATM   12  N1  UNL     1      -6.328   0.567  -0.856  1.00  0.00    -0.234 N 
ATOM     13  H12 UNL     1      -6.419   1.446  -1.366  1.00  0.00     0.174 HD
ATOM     14  H11 UNL     1      -7.138  -0.010  -0.631  1.00  0.00     0.174 HD
ENDBRANCH   5  12
BRANCH   8  15
HETATM   15  N10 UNL     1      -3.666  -2.466   1.200  1.00  0.00    -0.234 N 
ATOM     16 2H10 UNL     1      -2.727  -2.750   1.480  1.00  0.00     0.174 HD
ATOM     17 1H10 UNL     1      -4.468  -3.053   1.431  1.00  0.00     0.174 HD
ENDBRANCH   8  15
ENDBRANCH   1   3
BRANCH   1  18
HETATM   18  C3  UNL     1      -0.393   1.009  -0.356  1.00  0.00     0.111 C 
HETATM   19  N4  UNL     1       0.088   1.264   0.809  1.00  0.00    -0.359 N 
HETATM   20  C4  UNL     1       1.454   0.817   1.088  1.00  0.00     0.288 C 
ATOM     21  H4  UNL     1      -0.461   1.759   1.512  1.00  0.00     0.162 HD
HETATM   22  N5  UNL     1       2.298   1.076  -0.062  1.00  0.00    -0.220 N 
HETATM   23  N8  UNL     1       1.751   0.981  -1.346  1.00  0.00    -0.114 NA
HETATM   24  C7  UNL     1       0.467   0.286  -1.322  1.00  0.00     0.213 C 
BRANCH  22  25
HETATM   25  N6  UNL     1       3.630   1.413   0.107  1.00  0.00    -0.299 N 
HETATM   26  C5  UNL     1       4.557   0.557   0.375  1.00  0.00     0.108 C 
ATOM     27  H6  UNL     1       3.893   2.394   0.014  1.00  0.00     0.187 HD
BRANCH  26  28
HETATM   28  C6  UNL     1       4.277  -0.887   0.527  1.00  0.00     0.275 C 
BRANCH  28  29
HETATM   29  N7  UNL     1       5.493  -1.663   0.403  1.00  0.00    -0.075 N 
ATOM     30  H73 UNL     1       5.981  -1.463  -0.470  1.00  0.00     0.274 HD
ATOM     31  H72 UNL     1       6.210  -1.347   1.056  1.00  0.00     0.274 HD
ATOM     32  H71 UNL     1       5.300  -2.659   0.508  1.00  0.00     0.274 HD
ENDBRANCH  28  29
ENDBRANCH  26  28
ENDBRANCH  22  25
ENDBRANCH   1  18
TORSDOF 7
