REMARK  7 active torsions:
REMARK  status: ('A' for Active; 'I' for Inactive)
REMARK    1  A    between atoms: C3_4  and  C4_5 
REMARK    2  A    between atoms: C4_5  and  N2_6 
REMARK    3  A    between atoms: C7_9  and  C9_12 
REMARK    4  A    between atoms: C9_12  and  C10_13 
REMARK    5  A    between atoms: C10_13  and  C11_14 
REMARK    6  A    between atoms: C11_14  and  N4_15 
REMARK    7  A    between atoms: N4_15  and  C12_16 
ROOT
HETATM    1  N1  UNL     1      -4.419  -2.715  -2.029  1.00  0.00    -0.191 NA
HETATM    2  C1  UNL     1      -4.747  -1.748  -1.461  1.00  0.00     0.101 C 
HETATM    3  C2  UNL     1      -5.169  -0.533  -0.707  1.00  0.00     0.070 A 
HETATM    4  C3  UNL     1      -4.246   0.421  -0.371  1.00  0.00     0.037 A 
HETATM    5  S1  UNL     1      -5.205   1.568   0.507  1.00  0.00    -0.092 SA
HETATM    6  C23 UNL     1      -6.720   0.793   0.401  1.00  0.00    -0.009 A 
HETATM    7  C24 UNL     1      -6.443  -0.347  -0.311  1.00  0.00    -0.023 A 
HETATM    8  C25 UNL     1      -7.670  -1.238  -0.522  1.00  0.00     0.041 C 
HETATM    9  C26 UNL     1      -8.352  -1.392   0.809  1.00  0.00     0.005 C 
HETATM   10  C27 UNL     1      -8.633  -0.127   1.530  1.00  0.00     0.005 C 
HETATM   11  C28 UNL     1      -8.137   1.111   0.845  1.00  0.00     0.046 C 
ENDROOT
BRANCH   4  12
HETATM   12  C4  UNL     1      -2.811   0.599  -0.764  1.00  0.00     0.080 C 
BRANCH  12  13
HETATM   13  N2  UNL     1      -2.010  -0.512  -0.509  1.00  0.00    -0.291 NA
HETATM   14  C5  UNL     1      -1.267  -0.767  -1.774  1.00  0.00     0.096 C 
HETATM   15  C6  UNL     1       0.216  -0.754  -1.496  1.00  0.00     0.039 C 
HETATM   16  C7  UNL     1       0.614   0.588  -0.890  1.00  0.00     0.051 C 
HETATM   17  C8  UNL     1       0.190   1.716  -1.704  1.00  0.00     0.069 C 
HETATM   18  C21 UNL     1      -0.053   0.645   0.434  1.00  0.00     0.039 C 
HETATM   19  N3  UNL     1      -0.120   2.638  -2.355  1.00  0.00    -0.196 NA
HETATM   20  C22 UNL     1      -1.131  -0.386   0.589  1.00  0.00     0.096 C 
BRANCH  16  21
HETATM   21  C9  UNL     1       2.130   0.694  -0.840  1.00  0.00     0.030 C 
BRANCH  21  22
HETATM   22  C10 UNL     1       2.532   2.004  -0.239  1.00  0.00     0.061 C 
BRANCH  22  23
HETATM   23  C11 UNL     1       4.077   2.092  -0.215  1.00  0.00     0.155 C 
BRANCH  23  24
HETATM   24  N4  UNL     1       4.703   1.124   0.452  1.00  0.00    -0.421 NA
BRANCH  24  25
HETATM   25  C12 UNL     1       5.332   0.275   0.984  1.00  0.00     0.119 A 
HETATM   26  C13 UNL     1       4.859  -0.440   2.102  1.00  0.00     0.062 A 
HETATM   27  C14 UNL     1       5.637  -1.414   2.665  1.00  0.00     0.091 A 
HETATM   28  N5  UNL     1       6.855  -1.714   2.181  1.00  0.00    -0.365 N 
HETATM   29  C15 UNL     1       7.344  -1.053   1.111  1.00  0.00     0.047 A 
ATOM     30  H5  UNL     1       7.412  -2.444   2.625  1.00  0.00     0.165 HD
HETATM   31  C16 UNL     1       8.587  -1.402   0.649  1.00  0.00     0.054 A 
HETATM   32  C20 UNL     1       6.602  -0.077   0.518  1.00  0.00     0.031 A 
HETATM   33  C17 UNL     1       9.086  -0.739  -0.444  1.00  0.00     0.036 A 
HETATM   34 CL1  UNL     1      10.672  -1.120  -1.100  1.00  0.00    -0.084 Cl
HETATM   35  C18 UNL     1       8.356   0.247  -1.058  1.00  0.00     0.025 A 
HETATM   36  C19 UNL     1       7.097   0.600  -0.589  1.00  0.00     0.019 A 
ENDBRANCH  24  25
ENDBRANCH  23  24
ENDBRANCH  22  23
ENDBRANCH  21  22
ENDBRANCH  16  21
ENDBRANCH  12  13
ENDBRANCH   4  12
TORSDOF 7
