REMARK  6 active torsions:
REMARK  status: ('A' for Active; 'I' for Inactive)
REMARK    1  A    between atoms: C2_2  and  C3_3 
REMARK    2  A    between atoms: C3_3  and  C4_4 
REMARK    3  A    between atoms: C4_4  and  N1_5 
REMARK    4  A    between atoms: C17_20  and  O2_21 
REMARK    5  A    between atoms: C22_26  and  O3_27 
REMARK    6  A    between atoms: C23_29  and  O4_30 
ROOT
HETATM    1  N1  UNL     1       3.748  -0.211  -0.871  1.00  0.00     0.102 N 
HETATM    2  C5  UNL     1       3.764  -1.307  -1.832  1.00  0.00     0.311 C 
HETATM    3  C6  UNL     1       2.406  -1.637  -1.383  1.00  0.00    -0.000 C 
HETATM    4  C7  UNL     1       1.190  -2.110  -1.472  1.00  0.00     0.022 C 
HETATM    5 CL1  UNL     1       0.716  -2.845  -3.023  1.00  0.00    -0.088 Cl
HETATM    6  C8  UNL     1       0.153  -2.075  -0.409  1.00  0.00     0.086 C 
HETATM    7  C9  UNL     1       0.683  -1.388   0.792  1.00  0.00    -0.065 C 
HETATM    8  C10 UNL     1      -0.321  -1.240   1.868  1.00  0.00    -0.061 C 
HETATM    9  C11 UNL     1       0.090  -0.576   3.096  1.00  0.00     0.043 C 
HETATM   10  C12 UNL     1      -1.139   0.254   3.459  1.00  0.00     0.084 C 
HETATM   11  C13 UNL     1      -2.242  -0.539   2.800  1.00  0.00     0.139 C 
HETATM   12  O1  UNL     1      -3.258  -0.759   3.386  1.00  0.00    -0.297 OA
HETATM   13  C14 UNL     1      -1.748  -0.883   1.471  1.00  0.00     0.119 C 
HETATM   14  C15 UNL     1      -1.870   0.256   0.558  1.00  0.00    -0.022 A 
HETATM   15  C16 UNL     1      -1.074   1.310   0.140  1.00  0.00    -0.017 A 
HETATM   16  C17 UNL     1      -1.540   2.265  -0.744  1.00  0.00     0.075 A 
HETATM   17  C19 UNL     1      -2.801   2.200  -1.234  1.00  0.00     0.049 A 
HETATM   18  C20 UNL     1      -3.630   1.152  -0.839  1.00  0.00    -0.020 A 
HETATM   19  C21 UNL     1      -4.901   1.090  -1.362  1.00  0.00     0.051 A 
HETATM   20  C22 UNL     1      -5.762   0.073  -1.032  1.00  0.00     0.099 A 
HETATM   21  C23 UNL     1      -5.334  -0.889  -0.167  1.00  0.00     0.102 A 
HETATM   22  C25 UNL     1      -4.050  -0.812   0.352  1.00  0.00     0.052 A 
HETATM   23  C26 UNL     1      -3.162   0.188   0.051  1.00  0.00    -0.015 A 
HETATM   24  C27 UNL     1       0.308   1.725   0.349  1.00  0.00     0.043 C 
HETATM   25  C28 UNL     1       1.270   0.792  -0.380  1.00  0.00     0.016 C 
HETATM   26  C29 UNL     1       1.658  -0.298   0.542  1.00  0.00     0.053 C 
HETATM   27  C30 UNL     1       2.884  -1.017  -0.075  1.00  0.00     0.263 C 
ENDROOT
BRANCH   1  28
HETATM   28  C4  UNL     1       5.036   0.067  -0.271  1.00  0.00     0.277 C 
BRANCH  28  29
HETATM   29  C3  UNL     1       5.970   0.647  -1.297  1.00  0.00     0.056 C 
BRANCH  29  30
HETATM   30  C2  UNL     1       7.306   0.935  -0.711  1.00  0.00    -0.035 C 
HETATM   31  C1  UNL     1       7.591   0.661   0.557  1.00  0.00     0.007 C 
ENDBRANCH  29  30
ENDBRANCH  28  29
ENDBRANCH   1  28
BRANCH  16  32
HETATM   32  O2  UNL     1      -0.693   3.288  -1.118  1.00  0.00    -0.355 OA
HETATM   33  C18 UNL     1      -1.111   4.292  -2.019  1.00  0.00     0.210 C 
ENDBRANCH  16  32
BRANCH  21  34
HETATM   34  O4  UNL     1      -6.147  -1.918   0.193  1.00  0.00    -0.353 OA
HETATM   35  C24 UNL     1      -6.000  -2.999   1.009  1.00  0.00     0.210 C 
ENDBRANCH  21  34
BRANCH  20  36
HETATM   36  O3  UNL     1      -7.065   0.018  -1.574  1.00  0.00    -0.358 OA
ATOM     37  H3  UNL     1      -7.661  -0.686  -1.346  1.00  0.00     0.217 HD
ENDBRANCH  20  36
TORSDOF 6
