REMARK  8 active torsions:
REMARK  status: ('A' for Active; 'I' for Inactive)
REMARK    1  A    between atoms: C2_2  and  O1_3 
REMARK    2  A    between atoms: O1_3  and  C3_4 
REMARK    3  A    between atoms: C3_4  and  C4_6 
REMARK    4  A    between atoms: C4_6  and  C5_7 
REMARK    5  A    between atoms: C5_7  and  C6_8 
REMARK    6  A    between atoms: C6_8  and  C8_10 
REMARK    7  A    between atoms: C20_24  and  O5_25 
REMARK    8  A    between atoms: C20_24  and  C21_27 
ROOT
HETATM    1  C8  UNL     1      -1.461   0.510   0.326  1.00  0.00     0.068 C 
HETATM    2  C9  UNL     1      -1.449   1.603   1.361  1.00  0.00     0.132 C 
HETATM    3  O3  UNL     1      -2.353   1.884   2.100  1.00  0.00    -0.298 OA
HETATM    4  C10 UNL     1      -0.199   2.445   1.516  1.00  0.00     0.079 C 
HETATM    5  C11 UNL     1       0.870   1.573   0.928  1.00  0.00     0.018 C 
HETATM    6  C12 UNL     1       0.735   0.101   1.380  1.00  0.00    -0.028 C 
HETATM    7  C13 UNL     1       0.498   0.178   2.873  1.00  0.00     0.016 C 
HETATM    8  C14 UNL     1       2.070  -0.479   1.190  1.00  0.00     0.024 C 
HETATM    9  C15 UNL     1       2.510  -1.632   2.021  1.00  0.00     0.014 C 
HETATM   10  C16 UNL     1       3.684  -2.294   1.264  1.00  0.00     0.036 C 
HETATM   11  C17 UNL     1       4.517  -1.274   0.563  1.00  0.00    -0.064 C 
HETATM   12  C18 UNL     1       5.728  -0.938   0.915  1.00  0.00     0.057 C 
HETATM   13  C19 UNL     1       6.450   0.064   0.166  1.00  0.00     0.184 C 
HETATM   14  O4  UNL     1       7.705   0.179   0.298  1.00  0.00    -0.290 OA
HETATM   15  C20 UNL     1       5.758   0.957  -0.752  1.00  0.00     0.135 C 
HETATM   16  C22 UNL     1       4.266   0.772  -0.806  1.00  0.00     0.065 C 
HETATM   17  C23 UNL     1       3.827  -0.634  -0.628  1.00  0.00     0.006 C 
HETATM   18  C24 UNL     1       4.016  -1.499  -1.834  1.00  0.00     0.025 C 
HETATM   19  C25 UNL     1       2.375  -0.710  -0.237  1.00  0.00    -0.066 C 
HETATM   20  C26 UNL     1       1.396  -1.008  -1.037  1.00  0.00    -0.022 C 
HETATM   21  C27 UNL     1      -0.017  -1.150  -0.683  1.00  0.00     0.038 C 
HETATM   22  C28 UNL     1      -0.428  -0.540   0.638  1.00  0.00    -0.022 C 
HETATM   23  C29 UNL     1      -0.967  -1.658   1.522  1.00  0.00     0.017 C 
ENDROOT
BRANCH   1  24
HETATM   24  C6  UNL     1      -2.857   0.136   0.107  1.00  0.00    -0.003 C 
HETATM   25  C7  UNL     1      -3.247  -1.053  -0.633  1.00  0.00     0.011 C 
BRANCH  24  26
HETATM   26  C5  UNL     1      -3.590   1.346  -0.402  1.00  0.00     0.038 C 
BRANCH  26  27
HETATM   27  C4  UNL     1      -5.028   1.449  -0.303  1.00  0.00     0.056 C 
BRANCH  27  28
HETATM   28  C3  UNL     1      -5.996   0.650  -1.005  1.00  0.00     0.279 C 
HETATM   29  O2  UNL     1      -5.887  -0.115  -1.985  1.00  0.00    -0.261 OA
BRANCH  28  30
HETATM   30  O1  UNL     1      -7.358   0.703  -0.534  1.00  0.00    -0.319 OA
BRANCH  30  31
HETATM   31  C2  UNL     1      -8.384  -0.030  -1.134  1.00  0.00     0.174 C 
HETATM   32  C1  UNL     1      -9.655   0.318  -0.340  1.00  0.00     0.034 C 
ENDBRANCH  30  31
ENDBRANCH  28  30
ENDBRANCH  27  28
ENDBRANCH  26  27
ENDBRANCH  24  26
ENDBRANCH   1  24
BRANCH  15  33
HETATM   33  O5  UNL     1       5.995   2.278  -0.309  1.00  0.00    -0.381 OA
ATOM     34  H5  UNL     1       5.543   2.861  -0.908  1.00  0.00     0.211 HD
ENDBRANCH  15  33
BRANCH  15  35
HETATM   35  C21 UNL     1       6.408   0.865  -2.115  1.00  0.00     0.161 C 
HETATM   36 CL1  UNL     1       8.109   1.356  -1.928  1.00  0.00    -0.127 Cl
ENDBRANCH  15  35
TORSDOF 8
