REMARK  10 active torsions:
REMARK  status: ('A' for Active; 'I' for Inactive)
REMARK    1  A    between atoms: C1_2  and  C2_4 
REMARK    2  A    between atoms: C4_10  and  N4_11 
REMARK    3  A    between atoms: N4_11  and  C5_13 
REMARK    4  A    between atoms: C5_13  and  O2_14 
REMARK    5  A    between atoms: C5_13  and  C6_16 
REMARK    6  A    between atoms: C6_16  and  N5_17 
REMARK    7  A    between atoms: C8_19  and  C9_20 
REMARK       I    between atoms: C9_20  and  N6_22 
REMARK    8  A    between atoms: C13_37  and  O4_38 
REMARK    9  A    between atoms: C15_41  and  N13_42 
REMARK   10  A    between atoms: N13_42  and  O5_43 
ROOT
HETATM    1  N4  UNL     1      -1.187  -0.021  -0.905  1.00  0.00    -0.361 N 
ATOM      2  H4  UNL     1      -1.325   0.453  -1.798  1.00  0.00     0.162 HD
ENDROOT
BRANCH   1   3
HETATM    3  C4  UNL     1      -2.314  -0.298  -0.097  1.00  0.00     0.059 A 
HETATM    4  C3  UNL     1      -3.590   0.026  -0.512  1.00  0.00     0.091 A 
HETATM    5  N3  UNL     1      -3.831   0.608  -1.695  1.00  0.00    -0.297 N 
HETATM    6  C14 UNL     1      -4.650  -0.255   0.312  1.00  0.00     0.073 A 
HETATM    7  N2  UNL     1      -5.032   0.918  -2.099  1.00  0.00    -0.292 N 
ATOM      8  H3  UNL     1      -3.041   0.818  -2.306  1.00  0.00     0.187 HD
HETATM    9  C2  UNL     1      -6.154   0.681  -1.355  1.00  0.00     0.158 A 
ATOM     10  H2  UNL     1      -5.139   1.358  -3.013  1.00  0.00     0.187 HD
HETATM   11  C15 UNL     1      -5.961   0.083  -0.127  1.00  0.00     0.188 A 
HETATM   12  C13 UNL     1      -4.454  -0.853   1.537  1.00  0.00     0.081 A 
HETATM   13  C12 UNL     1      -3.179  -1.170   1.937  1.00  0.00     0.040 A 
HETATM   14  C11 UNL     1      -2.098  -0.908   1.150  1.00  0.00     0.034 A 
BRANCH   9  15
HETATM   15  C1  UNL     1      -7.443   1.056  -1.877  1.00  0.00     0.286 C 
HETATM   16  N1  UNL     1      -8.672   0.885  -1.252  1.00  0.00    -0.056 NA
HETATM   17  O1  UNL     1      -7.456   1.605  -3.040  1.00  0.00    -0.269 OA
ENDBRANCH   9  15
BRANCH  11  18
HETATM   18  N13 UNL     1      -6.854  -0.184   0.631  1.00  0.00    -0.280 NA
BRANCH  18  19
HETATM   19  O5  UNL     1      -7.972  -0.331   1.180  1.00  0.00    -0.218 OA
ATOM     20  H5  UNL     1      -8.678  -0.542   1.779  1.00  0.00     0.261 HD
ENDBRANCH  18  19
ENDBRANCH  11  18
BRANCH  12  21
HETATM   21  O4  UNL     1      -5.551  -1.119   2.335  1.00  0.00    -0.360 OA
ATOM     22  H4  UNL     1      -6.433  -0.900   2.058  1.00  0.00     0.217 HD
ENDBRANCH  12  21
ENDBRANCH   1   3
BRANCH   1  23
HETATM   23  C5  UNL     1       0.161  -0.388  -0.507  1.00  0.00     0.238 C 
BRANCH  23  24
HETATM   24  O2  UNL     1       0.329  -1.754  -0.384  1.00  0.00    -0.375 OA
ATOM     25  H2  UNL     1       1.211  -1.994  -0.124  1.00  0.00     0.212 HD
ENDBRANCH  23  24
BRANCH  23  26
HETATM   26  C6  UNL     1       1.168   0.255  -1.404  1.00  0.00     0.203 C 
BRANCH  26  27
HETATM   27  N5  UNL     1       2.508  -0.121  -0.994  1.00  0.00    -0.283 N 
HETATM   28  C7  UNL     1       3.291   0.536  -0.102  1.00  0.00     0.148 A 
HETATM   29  C8  UNL     1       4.493  -0.126   0.024  1.00  0.00     0.134 A 
HETATM   30  N11 UNL     1       4.401  -1.183  -0.810  1.00  0.00    -0.280 N 
HETATM   31  N12 UNL     1       3.217  -1.157  -1.400  1.00  0.00    -0.240 N 
ATOM     32  H11 UNL     1       5.125  -1.886  -0.961  1.00  0.00     0.189 HD
ATOM     33  H12 UNL     1       2.895  -1.847  -2.079  1.00  0.00     0.208 HD
BRANCH  29  34
HETATM   34  C9  UNL     1       5.632   0.217   0.867  1.00  0.00     0.277 C 
HETATM   35  O3  UNL     1       5.538   1.245   1.584  1.00  0.00    -0.265 OA
HETATM   36  N6  UNL     1       6.813  -0.543   0.909  1.00  0.00    -0.291 N 
HETATM   37  C10 UNL     1       7.966  -0.104   0.550  1.00  0.00     0.212 C 
ATOM     38  H6  UNL     1       6.751  -1.504   1.246  1.00  0.00     0.172 HD
HETATM   39  N7  UNL     1       8.345   1.170   0.048  1.00  0.00    -0.256 N 
HETATM   40  N10 UNL     1       9.164  -0.863   0.589  1.00  0.00    -0.256 N 
HETATM   41  N8  UNL     1       9.703   1.138  -0.274  1.00  0.00    -0.006 NA
ATOM     42  H7  UNL     1       7.727   1.975  -0.059  1.00  0.00     0.187 HD
HETATM   43  N9  UNL     1      10.227  -0.058   0.156  1.00  0.00    -0.006 NA
ATOM     44  H10 UNL     1       9.240  -1.836   0.884  1.00  0.00     0.187 HD
ENDBRANCH  29  34
ENDBRANCH  26  27
ENDBRANCH  23  26
ENDBRANCH   1  23
TORSDOF 10
