REMARK  11 active torsions:
REMARK  status: ('A' for Active; 'I' for Inactive)
REMARK    1  A    between atoms: C3_4  and  O1_5 
REMARK    2  A    between atoms: O1_5  and  C4_6 
REMARK    3  A    between atoms: C4_6  and  C5_7 
REMARK    4  A    between atoms: C5_7  and  C6_8 
REMARK    5  A    between atoms: C6_8  and  C7_9 
REMARK    6  A    between atoms: N2_10  and  N3_12 
REMARK    7  A    between atoms: N3_12  and  C8_14 
REMARK    8  A    between atoms: C12_27  and  N9_28 
REMARK    9  A    between atoms: N9_28  and  N10_29 
REMARK   10  A    between atoms: C13_33  and  O3_34 
REMARK   11  A    between atoms: C14_36  and  O4_37 
ROOT
HETATM    1  C1  UNL     1      -0.754  -3.364   1.332  1.00  0.00     0.313 C 
HETATM    2  N1  UNL     1      -0.581  -1.954   1.104  1.00  0.00     0.117 N 
HETATM    3  C2  UNL     1       0.801  -1.650   0.695  1.00  0.00     0.340 C 
HETATM    4  C3  UNL     1       0.909  -0.160   0.847  1.00  0.00     0.091 C 
HETATM    5  C9  UNL     1      -0.156   0.588   0.555  1.00  0.00     0.146 C 
HETATM    6  N5  UNL     1      -1.385  -0.001   0.105  1.00  0.00    -0.267 N 
HETATM    7  N6  UNL     1      -2.390   0.873  -0.237  1.00  0.00    -0.294 N 
ATOM      8  H6  UNL     1      -2.207   1.863  -0.397  1.00  0.00     0.184 HD
HETATM    9  C10 UNL     1      -3.700   0.326  -0.356  1.00  0.00     0.197 C 
HETATM   10  C11 UNL     1      -4.416   0.326   0.976  1.00  0.00     0.204 C 
HETATM   11  N7  UNL     1      -5.074   1.551   1.285  1.00  0.00    -0.333 N 
ATOM     12  H7  UNL     1      -5.691   1.639   2.092  1.00  0.00     0.180 HD
HETATM   13  N8  UNL     1      -4.837   2.601   0.446  1.00  0.00    -0.296 N 
ATOM     14  H8  UNL     1      -4.739   3.552   0.801  1.00  0.00     0.184 HD
HETATM   15  C12 UNL     1      -4.732   2.315  -0.941  1.00  0.00     0.356 C 
HETATM   16  O2  UNL     1      -4.507   0.997  -1.262  1.00  0.00    -0.313 OA
HETATM   17  C13 UNL     1      -3.675  -1.130  -0.825  1.00  0.00     0.209 C 
HETATM   18  C14 UNL     1      -2.842  -1.936   0.150  1.00  0.00     0.206 C 
HETATM   19  C15 UNL     1      -1.436  -1.443   0.058  1.00  0.00     0.374 C 
ENDROOT
BRANCH   4  20
HETATM   20  O1  UNL     1       2.091   0.367   1.276  1.00  0.00    -0.352 OA
BRANCH  20  21
HETATM   21  C4  UNL     1       3.366  -0.060   0.899  1.00  0.00     0.175 C 
BRANCH  21  22
HETATM   22  C5  UNL     1       3.569   0.067  -0.615  1.00  0.00     0.032 C 
BRANCH  22  23
HETATM   23  C6  UNL     1       4.959  -0.404  -0.996  1.00  0.00     0.048 C 
BRANCH  23  24
HETATM   24  C7  UNL     1       6.023   0.379  -0.337  1.00  0.00     0.080 C 
HETATM   25  N2  UNL     1       6.899   1.024  -1.020  1.00  0.00    -0.314 N 
ATOM     26  H2  UNL     1       6.869   1.002  -2.039  1.00  0.00     0.185 HD
BRANCH  25  27
HETATM   27  N3  UNL     1       7.893   1.755  -0.366  1.00  0.00    -0.279 N 
ATOM     28  H3  UNL     1       7.866   2.774  -0.404  1.00  0.00     0.189 HD
BRANCH  27  29
HETATM   29  C8  UNL     1       8.941   1.119   0.351  1.00  0.00     0.199 C 
HETATM   30  N4  UNL     1       9.913   1.923   0.989  1.00  0.00    -0.068 NA
HETATM   31  S1  UNL     1       9.000  -0.530   0.422  1.00  0.00    -0.043 SA
ENDBRANCH  27  29
ENDBRANCH  25  27
ENDBRANCH  23  24
ENDBRANCH  22  23
ENDBRANCH  21  22
ENDBRANCH  20  21
ENDBRANCH   4  20
BRANCH  18  32
HETATM   32  O4  UNL     1      -2.951  -3.278  -0.284  1.00  0.00    -0.389 OA
ATOM     33  H4  UNL     1      -2.429  -3.784   0.328  1.00  0.00     0.210 HD
ENDBRANCH  18  32
BRANCH  17  34
HETATM   34  O3  UNL     1      -4.965  -1.620  -0.900  1.00  0.00    -0.388 OA
ATOM     35  H3  UNL     1      -4.949  -2.524  -1.191  1.00  0.00     0.210 HD
ENDBRANCH  17  34
BRANCH  15  36
HETATM   36  N9  UNL     1      -5.948   2.730  -1.623  1.00  0.00    -0.093 NA
BRANCH  36  37
HETATM   37  N10 UNL     1      -7.071   2.057  -1.114  1.00  0.00    -0.344 N 
ATOM     38 2H10 UNL     1      -7.023   1.369  -0.363  1.00  0.00     0.172 HD
ATOM     39 1H10 UNL     1      -7.924   2.348  -1.592  1.00  0.00     0.172 HD
ENDBRANCH  36  37
ENDBRANCH  15  36
TORSDOF 11
