REMARK  15 active torsions:
REMARK  status: ('A' for Active; 'I' for Inactive)
REMARK    1  A    between atoms: N1_1  and  C1_5 
REMARK    2  A    between atoms: C3_7  and  N2_8 
REMARK    3  A    between atoms: C4_12  and  O1_13 
REMARK    4  A    between atoms: O1_13  and  C5_14 
REMARK    5  A    between atoms: C6_15  and  N3_16 
REMARK    6  A    between atoms: C8_21  and  N4_22 
REMARK    7  A    between atoms: C9_26  and  O2_27 
REMARK    8  A    between atoms: O2_27  and  C10_28 
REMARK    9  A    between atoms: C10_28  and  C11_29 
REMARK   10  A    between atoms: C11_29  and  O3_30 
REMARK   11  A    between atoms: C12_33  and  O5_34 
REMARK   12  A    between atoms: C13_36  and  C14_37 
REMARK   13  A    between atoms: C14_37  and  O6_38 
REMARK   14  A    between atoms: C16_42  and  N5_43 
REMARK   15  A    between atoms: C17_48  and  O9_49 
ROOT
HETATM    1  C5  UNL     1       1.386  -0.086   0.758  1.00  0.00     0.185 C 
HETATM    2  C6  UNL     1       0.806   1.221   1.142  1.00  0.00     0.216 C 
HETATM    3  C7  UNL     1      -0.391   1.686   0.379  1.00  0.00     0.070 C 
HETATM    4  C8  UNL     1      -1.604   1.110   1.052  1.00  0.00     0.214 C 
HETATM    5  C9  UNL     1      -1.920  -0.189   0.280  1.00  0.00     0.160 C 
HETATM    6  C15 UNL     1      -0.912  -1.169   0.805  1.00  0.00     0.069 C 
HETATM    7  C16 UNL     1       0.453  -1.137   0.260  1.00  0.00     0.216 C 
ENDROOT
BRANCH   1   8
HETATM    8  O1  UNL     1       2.420   0.115  -0.152  1.00  0.00    -0.350 OA
BRANCH   8   9
HETATM    9  C4  UNL     1       3.669  -0.138   0.340  1.00  0.00     0.293 C 
HETATM   10  C3  UNL     1       4.280  -1.304  -0.401  1.00  0.00     0.240 C 
HETATM   11  C2  UNL     1       5.248  -0.850  -1.468  1.00  0.00     0.075 C 
HETATM   12  C1  UNL     1       6.350  -0.029  -0.834  1.00  0.00     0.240 C 
HETATM   13  C17 UNL     1       5.840   0.667   0.396  1.00  0.00     0.290 C 
HETATM   14  O8  UNL     1       4.506   0.970   0.353  1.00  0.00    -0.328 OA
BRANCH  10  15
HETATM   15  N2  UNL     1       4.982  -2.212   0.520  1.00  0.00    -0.070 N 
ATOM     16  H23 UNL     1       5.423  -2.994   0.036  1.00  0.00     0.274 HD
ATOM     17  H22 UNL     1       5.826  -1.794   0.912  1.00  0.00     0.274 HD
ATOM     18  H21 UNL     1       4.328  -2.519   1.241  1.00  0.00     0.274 HD
ENDBRANCH  10  15
BRANCH  12  19
HETATM   19  N1  UNL     1       6.921   0.862  -1.801  1.00  0.00    -0.070 N 
ATOM     20  H13 UNL     1       7.244   0.367  -2.632  1.00  0.00     0.274 HD
ATOM     21  H12 UNL     1       6.214   1.449  -2.243  1.00  0.00     0.274 HD
ATOM     22  H11 UNL     1       7.664   1.415  -1.374  1.00  0.00     0.274 HD
ENDBRANCH  12  19
BRANCH  13  23
HETATM   23  O9  UNL     1       6.536   1.887   0.485  1.00  0.00    -0.369 OA
ATOM     24  H9  UNL     1       6.214   2.327   1.263  1.00  0.00     0.212 HD
ENDBRANCH  13  23
ENDBRANCH   8   9
ENDBRANCH   1   8
BRANCH   2  25
HETATM   25  N3  UNL     1       1.843   2.248   0.939  1.00  0.00    -0.072 N 
ATOM     26  H33 UNL     1       2.710   2.039   1.433  1.00  0.00     0.274 HD
ATOM     27  H32 UNL     1       2.223   2.246  -0.007  1.00  0.00     0.274 HD
ATOM     28  H31 UNL     1       1.443   3.148   1.204  1.00  0.00     0.274 HD
ENDBRANCH   2  25
BRANCH   7  29
HETATM   29  N5  UNL     1       0.565  -1.279  -1.178  1.00  0.00    -0.072 N 
ATOM     30  H53 UNL     1       0.425  -0.390  -1.658  1.00  0.00     0.274 HD
ATOM     31  H52 UNL     1       1.527  -1.459  -1.467  1.00  0.00     0.274 HD
ATOM     32  H51 UNL     1      -0.073  -1.998  -1.519  1.00  0.00     0.274 HD
ENDBRANCH   7  29
BRANCH   4  33
HETATM   33  N4  UNL     1      -2.709   2.003   1.113  1.00  0.00    -0.072 N 
ATOM     34  H43 UNL     1      -2.436   2.881   1.555  1.00  0.00     0.274 HD
ATOM     35  H42 UNL     1      -2.945   2.346   0.182  1.00  0.00     0.274 HD
ATOM     36  H41 UNL     1      -3.533   1.612   1.570  1.00  0.00     0.274 HD
ENDBRANCH   4  33
BRANCH   5  37
HETATM   37  O2  UNL     1      -3.189  -0.613   0.549  1.00  0.00    -0.323 OA
BRANCH  37  38
HETATM   38  C10 UNL     1      -4.116  -0.693  -0.423  1.00  0.00     0.308 C 
HETATM   39  O4  UNL     1      -4.391   0.507  -1.075  1.00  0.00    -0.298 OA
HETATM   40  C12 UNL     1      -5.712   0.830  -0.875  1.00  0.00     0.294 C 
HETATM   41  C13 UNL     1      -5.955   0.143   0.477  1.00  0.00     0.206 C 
HETATM   42  O7  UNL     1      -5.329  -1.052   0.247  1.00  0.00    -0.318 OA
BRANCH  38  43
HETATM   43  C11 UNL     1      -3.958  -1.746  -1.468  1.00  0.00     0.266 C 
BRANCH  43  44
HETATM   44  O3  UNL     1      -2.797  -1.651  -2.215  1.00  0.00    -0.393 OA
ATOM     45  H3  UNL     1      -2.696  -2.322  -2.880  1.00  0.00     0.209 HD
ENDBRANCH  43  44
ENDBRANCH  38  43
BRANCH  40  46
HETATM   46  O5  UNL     1      -5.944   2.174  -0.689  1.00  0.00    -0.368 OA
ATOM     47  H5  UNL     1      -6.857   2.397  -0.551  1.00  0.00     0.212 HD
ENDBRANCH  40  46
BRANCH  41  48
HETATM   48  C14 UNL     1      -7.452   0.018   0.629  1.00  0.00     0.201 C 
BRANCH  48  49
HETATM   49  O6  UNL     1      -7.805  -0.806   1.686  1.00  0.00    -0.398 OA
ATOM     50  H6  UNL     1      -8.747  -0.885   1.782  1.00  0.00     0.209 HD
ENDBRANCH  48  49
ENDBRANCH  41  48
ENDBRANCH  37  38
ENDBRANCH   5  37
TORSDOF 15
