REMARK  15 active torsions:
REMARK  status: ('A' for Active; 'I' for Inactive)
REMARK    1  A    between atoms: O1_2  and  C2_3 
REMARK    2  A    between atoms: C3_4  and  N1_5 
REMARK    3  A    between atoms: C5_10  and  N2_11 
REMARK    4  A    between atoms: C7_16  and  O2_17 
REMARK    5  A    between atoms: O2_17  and  C8_18 
REMARK    6  A    between atoms: C9_19  and  N3_20 
REMARK    7  A    between atoms: C11_25  and  N4_26 
REMARK    8  A    between atoms: C12_30  and  N5_31 
REMARK    9  A    between atoms: N5_31  and  C13_34 
REMARK   10  A    between atoms: C13_34  and  C14_35 
REMARK   11  A    between atoms: C14_35  and  N6_36 
REMARK   12  A    between atoms: C15_40  and  N7_41 
REMARK   13  A    between atoms: C17_45  and  N9_46 
REMARK   14  A    between atoms: N10_49  and  N11_50 
REMARK   15  A    between atoms: C18_53  and  O3_54 
ROOT
HETATM    1  C8  UNL     1       0.323  -0.600   0.590  1.00  0.00     0.202 C 
HETATM    2  C9  UNL     1       0.526  -0.021   1.947  1.00  0.00     0.220 C 
HETATM    3  C10 UNL     1       1.938   0.152   2.405  1.00  0.00     0.071 C 
HETATM    4  C11 UNL     1       2.838   0.805   1.385  1.00  0.00     0.222 C 
HETATM    5  C12 UNL     1       2.215   0.957   0.054  1.00  0.00     0.266 C 
HETATM    6  C15 UNL     1       1.365  -0.218  -0.412  1.00  0.00     0.079 C 
ENDROOT
BRANCH   1   7
HETATM    7  O2  UNL     1      -0.967  -0.123   0.213  1.00  0.00    -0.370 OA
BRANCH   7   8
HETATM    8  C7  UNL     1      -1.899  -1.113   0.051  1.00  0.00     0.155 C 
HETATM    9  C6  UNL     1      -2.215  -1.191  -1.427  1.00  0.00     0.067 C 
HETATM   10  C5  UNL     1      -3.234  -0.176  -1.872  1.00  0.00     0.188 C 
HETATM   11  C4  UNL     1      -4.637  -0.559  -1.557  1.00  0.00     0.068 C 
HETATM   12  C3  UNL     1      -5.104  -0.198  -0.193  1.00  0.00     0.216 C 
HETATM   13  C2  UNL     1      -3.950   0.207   0.665  1.00  0.00     0.182 C 
HETATM   14  C18 UNL     1      -3.113  -1.025   0.905  1.00  0.00     0.178 C 
BRANCH  10  15
HETATM   15  N2  UNL     1      -3.138  -0.177  -3.350  1.00  0.00    -0.075 N 
ATOM     16  H23 UNL     1      -3.427  -1.057  -3.777  1.00  0.00     0.274 HD
ATOM     17  H22 UNL     1      -3.834   0.414  -3.805  1.00  0.00     0.274 HD
ATOM     18  H21 UNL     1      -2.176   0.086  -3.566  1.00  0.00     0.274 HD
ENDBRANCH  10  15
BRANCH  12  19
HETATM   19  N1  UNL     1      -6.183   0.765  -0.191  1.00  0.00    -0.072 N 
ATOM     20  H13 UNL     1      -6.491   0.962   0.761  1.00  0.00     0.274 HD
ATOM     21  H12 UNL     1      -5.843   1.690  -0.453  1.00  0.00     0.274 HD
ATOM     22  H11 UNL     1      -6.971   0.488  -0.777  1.00  0.00     0.274 HD
ENDBRANCH  12  19
BRANCH  13  23
HETATM   23  O1  UNL     1      -4.527   0.592   1.904  1.00  0.00    -0.386 OA
HETATM   24  C1  UNL     1      -4.197   1.877   2.262  1.00  0.00     0.202 C 
ENDBRANCH  13  23
BRANCH  14  25
HETATM   25  O3  UNL     1      -2.773  -1.068   2.237  1.00  0.00    -0.390 OA
ATOM     26  H3  UNL     1      -2.246  -1.844   2.388  1.00  0.00     0.210 HD
ENDBRANCH  14  25
ENDBRANCH   7   8
ENDBRANCH   1   7
BRANCH   2  27
HETATM   27  N3  UNL     1      -0.121   1.271   2.102  1.00  0.00    -0.072 N 
ATOM     28  H33 UNL     1       0.180   1.922   1.376  1.00  0.00     0.274 HD
ATOM     29  H32 UNL     1      -1.113   1.215   1.871  1.00  0.00     0.274 HD
ATOM     30  H31 UNL     1       0.018   1.668   3.031  1.00  0.00     0.274 HD
ENDBRANCH   2  27
BRANCH   6  31
HETATM   31  N7  UNL     1       2.086  -1.253  -1.067  1.00  0.00    -0.219 N 
HETATM   32  C16 UNL     1       2.546  -1.116  -2.356  1.00  0.00     0.226 A 
HETATM   33  N8  UNL     1       3.189  -2.222  -2.744  1.00  0.00    -0.183 N 
HETATM   34  C17 UNL     1       3.155  -3.073  -1.730  1.00  0.00     0.713 A 
ATOM     35  H8  UNL     1       3.625  -2.381  -3.652  1.00  0.00     0.185 HD
HETATM   36  N10 UNL     1       2.481  -2.458  -0.732  1.00  0.00    -0.020 N 
BRANCH  34  37
HETATM   37  N9  UNL     1       3.656  -4.273  -1.662  1.00  0.00    -0.231 N 
ATOM     38  H92 UNL     1       4.164  -4.737  -2.415  1.00  0.00     0.174 HD
ATOM     39  H91 UNL     1       3.630  -4.928  -0.881  1.00  0.00     0.174 HD
ENDBRANCH  34  37
BRANCH  36  40
HETATM   40  N11 UNL     1       2.258  -3.060   0.484  1.00  0.00    -0.309 N 
ATOM     41 2H11 UNL     1       1.750  -2.596   1.237  1.00  0.00     0.179 HD
ATOM     42 1H11 UNL     1       2.565  -3.997   0.745  1.00  0.00     0.179 HD
ENDBRANCH  36  40
ENDBRANCH   6  31
BRANCH   5  43
HETATM   43  N5  UNL     1       3.183   1.313  -0.934  1.00  0.00    -0.062 N 
ATOM     44  H52 UNL     1       3.892   0.587  -1.038  1.00  0.00     0.278 HD
ATOM     45  H51 UNL     1       2.784   1.283  -1.872  1.00  0.00     0.278 HD
BRANCH  43  46
HETATM   46  C13 UNL     1       3.791   2.616  -0.654  1.00  0.00     0.260 C 
BRANCH  46  47
HETATM   47  C14 UNL     1       4.798   2.996  -1.693  1.00  0.00     0.257 C 
BRANCH  47  48
HETATM   48  N6  UNL     1       5.852   2.027  -1.753  1.00  0.00    -0.078 N 
ATOM     49  H63 UNL     1       6.285   1.882  -0.841  1.00  0.00     0.274 HD
ATOM     50  H62 UNL     1       5.492   1.085  -1.902  1.00  0.00     0.274 HD
ATOM     51  H61 UNL     1       6.539   2.286  -2.461  1.00  0.00     0.274 HD
ENDBRANCH  47  48
ENDBRANCH  46  47
ENDBRANCH  43  46
ENDBRANCH   5  43
BRANCH   4  52
HETATM   52  N4  UNL     1       4.156   0.186   1.369  1.00  0.00    -0.073 N 
ATOM     53  H43 UNL     1       4.580   0.185   2.297  1.00  0.00     0.274 HD
ATOM     54  H42 UNL     1       4.095  -0.822   1.223  1.00  0.00     0.274 HD
ATOM     55  H41 UNL     1       4.764   0.627   0.679  1.00  0.00     0.274 HD
ENDBRANCH   4  52
TORSDOF 15
