REMARK  12 active torsions:
REMARK  status: ('A' for Active; 'I' for Inactive)
REMARK    1  A    between atoms: C3_11  and  N5_12 
REMARK    2  A    between atoms: N5_12  and  N6_14 
REMARK    3  A    between atoms: N6_14  and  C4_16 
REMARK    4  A    between atoms: C4_16  and  C14_41 
REMARK    5  A    between atoms: C6_20  and  N8_21 
REMARK    6  A    between atoms: C9_31  and  O2_32 
REMARK    7  A    between atoms: O2_32  and  C10_33 
REMARK    8  A    between atoms: C10_33  and  C11_35 
REMARK    9  A    between atoms: C11_35  and  O4_36 
REMARK   10  A    between atoms: C14_41  and  O5_42 
REMARK   11  A    between atoms: C14_41  and  C15_44 
REMARK   12  A    between atoms: C15_44  and  O6_45 
ROOT
HETATM    1  C4  UNL     1      -0.375   0.161   0.436  1.00  0.00     0.109 C 
HETATM    2  C5  UNL     1       0.246  -1.059  -0.005  1.00  0.00     0.109 A 
HETATM    3  N7  UNL     1      -0.450  -2.210   0.384  1.00  0.00    -0.187 N 
ATOM      4  H7  UNL     1      -1.444  -2.145   0.603  1.00  0.00     0.184 HD
HETATM    5  C6  UNL     1       0.160  -3.381   0.472  1.00  0.00     0.677 A 
HETATM    6  N9  UNL     1       1.456  -3.494   0.189  1.00  0.00    -0.184 N 
ATOM      7  H9  UNL     1       1.916  -4.401   0.267  1.00  0.00     0.184 HD
HETATM    8  C7  UNL     1       2.172  -2.399  -0.205  1.00  0.00     0.146 A 
HETATM    9  C8  UNL     1       3.479  -2.551  -0.586  1.00  0.00     0.278 A 
HETATM   10  O1  UNL     1       4.021  -3.692  -0.465  1.00  0.00    -0.265 OA
HETATM   11  N10 UNL     1       4.118  -1.489  -1.067  1.00  0.00    -0.287 N 
ATOM     12  H10 UNL     1       5.093  -1.576  -1.355  1.00  0.00     0.172 HD
HETATM   13  C9  UNL     1       3.498  -0.303  -1.179  1.00  0.00     0.236 A 
HETATM   14  N11 UNL     1       2.201  -0.089  -0.815  1.00  0.00    -0.313 N 
HETATM   15  C12 UNL     1       1.564   1.152  -1.196  1.00  0.00     0.160 C 
HETATM   16  C13 UNL     1       1.548  -1.171  -0.306  1.00  0.00     0.100 A 
ENDROOT
BRANCH   1  17
HETATM   17  N6  UNL     1      -1.583   0.439   0.205  1.00  0.00    -0.282 N 
ATOM     18  H6  UNL     1      -1.857   1.342   0.592  1.00  0.00     0.187 HD
BRANCH  17  19
HETATM   19  N5  UNL     1      -2.593  -0.177  -0.432  1.00  0.00    -0.129 N 
ATOM     20  H5  UNL     1      -2.344  -0.657  -1.297  1.00  0.00     0.205 HD
BRANCH  19  21
HETATM   21  C3  UNL     1      -3.850  -0.241  -0.089  1.00  0.00     0.728 A 
HETATM   22  N1  UNL     1      -4.806  -0.877  -0.778  1.00  0.00    -0.112 N 
HETATM   23  C1  UNL     1      -4.652  -1.614  -2.032  1.00  0.00     0.198 C 
HETATM   24  N2  UNL     1      -5.940  -0.727  -0.126  1.00  0.00    -0.116 N 
HETATM   25  C2  UNL     1      -5.715  -0.000   0.975  1.00  0.00     0.705 A 
ATOM     26  H2  UNL     1      -6.843  -1.104  -0.413  1.00  0.00     0.206 HD
HETATM   27  N3  UNL     1      -6.626   0.339   1.855  1.00  0.00    -0.233 N 
HETATM   28  N4  UNL     1      -4.410   0.299   0.991  1.00  0.00    -0.018 N 
ATOM     29  H32 UNL     1      -7.620   0.111   1.843  1.00  0.00     0.174 HD
ATOM     30  H31 UNL     1      -6.455   0.893   2.694  1.00  0.00     0.174 HD
ATOM     31  H4  UNL     1      -3.929   0.845   1.706  1.00  0.00     0.203 HD
ENDBRANCH  19  21
ENDBRANCH  17  19
ENDBRANCH   1  17
BRANCH   1  32
HETATM   32  C14 UNL     1       0.187   0.906   1.580  1.00  0.00     0.097 C 
BRANCH  32  33
HETATM   33  O5  UNL     1       1.487   0.742   1.938  1.00  0.00    -0.360 OA
ATOM     34  H5  UNL     1       1.849   1.221   2.674  1.00  0.00     0.217 HD
ENDBRANCH  32  33
BRANCH  32  35
HETATM   35  C15 UNL     1      -0.338   2.279   1.818  1.00  0.00     0.230 C 
BRANCH  35  36
HETATM   36  O6  UNL     1      -1.636   2.515   1.483  1.00  0.00    -0.394 OA
ATOM     37  H6  UNL     1      -1.971   3.391   1.635  1.00  0.00     0.209 HD
ENDBRANCH  35  36
ENDBRANCH  32  35
ENDBRANCH   1  32
BRANCH   5  38
HETATM   38  N8  UNL     1      -0.537  -4.439   0.844  1.00  0.00    -0.234 N 
ATOM     39  H82 UNL     1      -1.530  -4.352   1.061  1.00  0.00     0.174 HD
ATOM     40  H81 UNL     1      -0.067  -5.342   0.912  1.00  0.00     0.174 HD
ENDBRANCH   5  38
BRANCH  13  41
HETATM   41  O2  UNL     1       4.241   0.753  -1.699  1.00  0.00    -0.244 OA
BRANCH  41  42
HETATM   42  C10 UNL     1       4.964   1.560  -0.817  1.00  0.00     0.289 C 
HETATM   43  O3  UNL     1       4.908   1.290   0.409  1.00  0.00    -0.262 OA
BRANCH  42  44
HETATM   44  C11 UNL     1       5.780   2.698  -1.257  1.00  0.00     0.275 C 
BRANCH  44  45
HETATM   45  O4  UNL     1       6.380   3.312  -0.175  1.00  0.00    -0.391 OA
ATOM     46  H4  UNL     1       6.908   4.049  -0.460  1.00  0.00     0.210 HD
ENDBRANCH  44  45
ENDBRANCH  42  44
ENDBRANCH  41  42
ENDBRANCH  13  41
TORSDOF 12
