REMARK  9 active torsions:
REMARK  status: ('A' for Active; 'I' for Inactive)
REMARK    1  A    between atoms: C1_4  and  O1_6 
REMARK    2  A    between atoms: O1_6  and  N3_7 
REMARK    3  A    between atoms: C2_9  and  C3_10 
REMARK    4  A    between atoms: C2_9  and  C9_26 
REMARK    5  A    between atoms: C3_10  and  C4_11 
REMARK    6  A    between atoms: C4_11  and  C5_13 
REMARK    7  A    between atoms: C6_16  and  N5_17 
REMARK    8  A    between atoms: C10_31  and  N10_32 
REMARK    9  A    between atoms: N10_32  and  C11_34 
ROOT
HETATM    1  N3  UNL     1      -1.488   2.561  -0.493  1.00  0.00    -0.257 N 
ATOM      2  H3  UNL     1      -2.447   2.858  -0.674  1.00  0.00     0.194 HD
HETATM    3  C2  UNL     1      -1.287   1.319  -0.548  1.00  0.00     0.092 C 
ENDROOT
BRANCH   3   4
HETATM    4  C3  UNL     1      -2.396   0.400  -0.857  1.00  0.00     0.149 C 
BRANCH   4   5
HETATM    5  C4  UNL     1      -2.694  -0.542   0.245  1.00  0.00     0.184 C 
HETATM    6  O2  UNL     1      -2.038  -0.470   1.323  1.00  0.00    -0.290 OA
BRANCH   5   7
HETATM    7  C5  UNL     1      -3.738  -1.534   0.063  1.00  0.00     0.125 A 
HETATM    8  N4  UNL     1      -4.423  -1.594  -1.086  1.00  0.00    -0.186 N 
HETATM    9  C6  UNL     1      -5.396  -2.505  -1.276  1.00  0.00     0.679 A 
ATOM     10  H4  UNL     1      -4.203  -0.935  -1.833  1.00  0.00     0.184 HD
HETATM   11  N6  UNL     1      -5.725  -3.392  -0.329  1.00  0.00    -0.155 N 
HETATM   12  C7  UNL     1      -5.063  -3.368   0.839  1.00  0.00     0.286 A 
ATOM     13  H6  UNL     1      -6.466  -4.074  -0.492  1.00  0.00     0.187 HD
HETATM   14  O3  UNL     1      -5.381  -4.206   1.722  1.00  0.00    -0.266 OA
HETATM   15  C8  UNL     1      -4.062  -2.438   1.048  1.00  0.00     0.145 A 
HETATM   16  N7  UNL     1      -3.358  -2.407   2.282  1.00  0.00    -0.094 NA
BRANCH   9  17
HETATM   17  N5  UNL     1      -6.025  -2.523  -2.395  1.00  0.00    -0.234 N 
ATOM     18  H52 UNL     1      -5.774  -1.847  -3.117  1.00  0.00     0.174 HD
ATOM     19  H51 UNL     1      -6.762  -3.213  -2.539  1.00  0.00     0.174 HD
ENDBRANCH   9  17
ENDBRANCH   5   7
ENDBRANCH   4   5
ENDBRANCH   3   4
BRANCH   3  20
HETATM   20  C9  UNL     1       0.031   0.766  -0.302  1.00  0.00     0.191 A 
HETATM   21  N8  UNL     1       0.434  -0.527  -0.335  1.00  0.00    -0.275 N 
HETATM   22  N9  UNL     1       1.720  -0.612  -0.051  1.00  0.00    -0.262 N 
ATOM     23  H8  UNL     1      -0.170  -1.321  -0.549  1.00  0.00     0.189 HD
HETATM   24  C10 UNL     1       2.152   0.625   0.166  1.00  0.00     0.259 A 
ATOM     25  H9  UNL     1       2.277  -1.466  -0.007  1.00  0.00     0.190 HD
HETATM   26  O5  UNL     1       1.140   1.433   0.014  1.00  0.00    -0.257 OA
BRANCH  24  27
HETATM   27  N10 UNL     1       3.465   1.078   0.508  1.00  0.00    -0.153 N 
ATOM     28  H10 UNL     1       3.659   2.070   0.646  1.00  0.00     0.188 HD
BRANCH  27  29
HETATM   29  C11 UNL     1       4.491   0.106   0.650  1.00  0.00     0.692 A 
HETATM   30  N11 UNL     1       5.739   0.490   0.971  1.00  0.00    -0.163 N 
HETATM   31  C12 UNL     1       6.768  -0.350   1.125  1.00  0.00     0.210 A 
ATOM     32  H11 UNL     1       5.912   1.486   1.106  1.00  0.00     0.187 HD
HETATM   33  N12 UNL     1       8.065   0.082   1.462  1.00  0.00    -0.062 NA
HETATM   34  N13 UNL     1       6.512  -1.677   0.940  1.00  0.00    -0.282 N 
HETATM   35  C13 UNL     1       5.269  -2.082   0.619  1.00  0.00     0.341 A 
ATOM     36  H13 UNL     1       7.261  -2.361   1.045  1.00  0.00     0.173 HD
HETATM   37  O4  UNL     1       5.100  -3.323   0.462  1.00  0.00    -0.246 OA
HETATM   38  N14 UNL     1       4.268  -1.190   0.475  1.00  0.00    -0.141 N 
ATOM     39  H14 UNL     1       3.332  -1.514   0.230  1.00  0.00     0.189 HD
ENDBRANCH  27  29
ENDBRANCH  24  27
ENDBRANCH   3  20
BRANCH   1  40
HETATM   40  O1  UNL     1      -0.615   3.554  -0.229  1.00  0.00    -0.204 OA
BRANCH  40  41
HETATM   41  C1  UNL     1      -0.401   4.652  -1.068  1.00  0.00     0.249 C 
HETATM   42  N1  UNL     1      -0.527   4.418  -2.333  1.00  0.00    -0.366 N 
ATOM     43  H12 UNL     1      -0.371   5.219  -2.945  1.00  0.00     0.159 HD
ATOM     44  H11 UNL     1      -0.763   3.513  -2.739  1.00  0.00     0.159 HD
HETATM   45  N2  UNL     1      -0.076   5.898  -0.509  1.00  0.00    -0.055 NA
ENDBRANCH  40  41
ENDBRANCH   1  40
TORSDOF 9
