REMARK  14 active torsions:
REMARK  status: ('A' for Active; 'I' for Inactive)
REMARK    1  A    between atoms: N1_1  and  C1_5 
REMARK    2  A    between atoms: C1_5  and  C2_6 
REMARK    3  A    between atoms: C4_11  and  N3_12 
REMARK    4  A    between atoms: N3_12  and  N4_14 
REMARK    5  A    between atoms: N6_19  and  N7_21 
REMARK    6  A    between atoms: C6_24  and  C7_25 
REMARK    7  A    between atoms: C9_28  and  O3_29 
REMARK    8  A    between atoms: C11_33  and  O5_34 
REMARK    9  A    between atoms: C12_36  and  O6_37 
REMARK   10  A    between atoms: O6_37  and  C13_38 
REMARK   11  A    between atoms: C13_38  and  C14_39 
REMARK   12  A    between atoms: C14_39  and  O7_40 
REMARK   13  A    between atoms: C14_39  and  C15_42 
REMARK   14  A    between atoms: C15_42  and  O8_43 
ROOT
HETATM    1  C2  UNL     1      -1.248  -3.134   0.126  1.00  0.00     0.088 A 
HETATM    2  C3  UNL     1      -2.586  -3.425   0.152  1.00  0.00     0.272 A 
HETATM    3  O1  UNL     1      -2.976  -4.629   0.360  1.00  0.00    -0.267 OA
HETATM    4  N2  UNL     1      -3.585  -2.554  -0.024  1.00  0.00    -0.153 N 
ATOM      5  H2  UNL     1      -4.567  -2.828   0.006  1.00  0.00     0.187 HD
HETATM    6  C4  UNL     1      -3.189  -1.282  -0.244  1.00  0.00     0.709 A 
HETATM    7  N5  UNL     1      -1.898  -0.921  -0.283  1.00  0.00    -0.106 N 
HETATM    8  C5  UNL     1      -1.629   0.423  -0.490  1.00  0.00     0.163 A 
HETATM    9  N6  UNL     1      -2.567   1.159  -0.810  1.00  0.00    -0.290 N 
ATOM     10  H6  UNL     1      -3.397   0.567  -0.844  1.00  0.00     0.188 HD
HETATM   11  C6  UNL     1      -0.274   0.762  -0.483  1.00  0.00     0.106 A 
HETATM   12  C12 UNL     1       0.758  -0.152  -0.311  1.00  0.00     0.204 A 
HETATM   13  O9  UNL     1       0.357  -1.429  -0.128  1.00  0.00    -0.268 OA
HETATM   14  C16 UNL     1      -0.895  -1.794  -0.107  1.00  0.00     0.188 A 
ENDROOT
BRANCH  11  15
HETATM   15  C7  UNL     1       0.033   2.205  -0.379  1.00  0.00     0.131 A 
HETATM   16  O2  UNL     1       0.747   2.861  -1.212  1.00  0.00    -0.316 OA
HETATM   17  C8  UNL     1       0.958   4.150  -1.062  1.00  0.00     0.183 A 
HETATM   18  C9  UNL     1       0.441   4.901  -0.015  1.00  0.00     0.141 A 
HETATM   19  C10 UNL     1      -0.329   4.232   0.922  1.00  0.00     0.242 A 
HETATM   20  O4  UNL     1      -0.816   4.852   1.901  1.00  0.00    -0.282 OA
HETATM   21  C11 UNL     1      -0.526   2.882   0.729  1.00  0.00     0.154 A 
BRANCH  18  22
HETATM   22  O3  UNL     1       0.658   6.264   0.101  1.00  0.00    -0.355 OA
ATOM     23  H3  UNL     1       0.304   6.778   0.817  1.00  0.00     0.218 HD
ENDBRANCH  18  22
BRANCH  21  24
HETATM   24  O5  UNL     1      -1.298   2.217   1.684  1.00  0.00    -0.355 OA
ATOM     25  H5  UNL     1      -1.674   2.672   2.429  1.00  0.00     0.218 HD
ENDBRANCH  21  24
ENDBRANCH  11  15
BRANCH  12  26
HETATM   26  O6  UNL     1       2.022   0.211  -0.330  1.00  0.00    -0.327 OA
BRANCH  26  27
HETATM   27  C13 UNL     1       3.209   0.509   0.121  1.00  0.00     0.211 C 
BRANCH  27  28
HETATM   28  C14 UNL     1       4.104  -0.569   0.749  1.00  0.00     0.166 C 
BRANCH  28  29
HETATM   29  O7  UNL     1       5.256   0.109   1.237  1.00  0.00    -0.391 OA
ATOM     30  H7  UNL     1       5.810  -0.558   1.626  1.00  0.00     0.210 HD
ENDBRANCH  28  29
BRANCH  28  31
HETATM   31  C15 UNL     1       4.708  -1.401  -0.421  1.00  0.00     0.198 C 
BRANCH  31  32
HETATM   32  O8  UNL     1       5.733  -2.211   0.070  1.00  0.00    -0.398 OA
ATOM     33  H8  UNL     1       6.101  -2.718  -0.644  1.00  0.00     0.209 HD
ENDBRANCH  31  32
ENDBRANCH  28  31
ENDBRANCH  27  28
ENDBRANCH  26  27
ENDBRANCH  12  26
BRANCH   9  34
HETATM   34  N7  UNL     1      -2.969   2.385  -1.130  1.00  0.00    -0.344 N 
ATOM     35  H72 UNL     1      -2.120   2.949  -1.087  1.00  0.00     0.176 HD
ATOM     36  H71 UNL     1      -3.744   2.993  -1.394  1.00  0.00     0.176 HD
ENDBRANCH   9  34
BRANCH   6  37
HETATM   37  N3  UNL     1      -4.114  -0.369  -0.408  1.00  0.00    -0.138 N 
ATOM     38  H3  UNL     1      -3.839   0.598  -0.582  1.00  0.00     0.205 HD
BRANCH  37  39
HETATM   39  N4  UNL     1      -5.454  -0.693  -0.350  1.00  0.00    -0.331 N 
ATOM     40  H42 UNL     1      -5.712  -1.664  -0.176  1.00  0.00     0.177 HD
ATOM     41  H41 UNL     1      -6.174   0.018  -0.478  1.00  0.00     0.177 HD
ENDBRANCH  37  39
ENDBRANCH   6  37
BRANCH   1  42
HETATM   42  C1  UNL     1      -0.302  -4.188   0.484  1.00  0.00     0.278 C 
BRANCH  42  43
HETATM   43  N1  UNL     1      -0.279  -5.315  -0.466  1.00  0.00    -0.075 N 
ATOM     44  H13 UNL     1      -1.216  -5.700  -0.590  1.00  0.00     0.274 HD
ATOM     45  H12 UNL     1      -0.104  -4.982  -1.414  1.00  0.00     0.274 HD
ATOM     46  H11 UNL     1       0.382  -6.051  -0.216  1.00  0.00     0.274 HD
ENDBRANCH  42  43
ENDBRANCH   1  42
TORSDOF 14
