REMARK  11 active torsions:
REMARK  status: ('A' for Active; 'I' for Inactive)
REMARK    1  A    between atoms: C2_2  and  C4_4 
REMARK    2  A    between atoms: C2_2  and  C5_8 
REMARK    3  A    between atoms: C5_8  and  O2_10 
REMARK    4  A    between atoms: O2_10  and  C6_11 
REMARK    5  A    between atoms: C6_11  and  O3_12 
REMARK    6  A    between atoms: C8_17  and  C9_18 
REMARK    7  A    between atoms: C8_17  and  C10_21 
REMARK    8  A    between atoms: C11_25  and  C12_26 
REMARK    9  A    between atoms: C13_29  and  O13_30 
REMARK   10  A    between atoms: C14_32  and  N2_33 
REMARK   11  A    between atoms: C15_37  and  O14_38 
ROOT
HETATM    1  C6  UNL     1      -0.719  -0.768  -0.512  1.00  0.00     0.319 C 
HETATM    2  O4  UNL     1       0.499  -0.684   0.195  1.00  0.00    -0.288 OA
HETATM    3  C7  UNL     1       1.522  -0.525  -0.693  1.00  0.00     0.233 C 
HETATM    4  O5  UNL     1       1.976   0.758  -0.657  1.00  0.00    -0.295 OA
HETATM    5  C8  UNL     1       2.968   1.069   0.208  1.00  0.00     0.351 C 
HETATM    6  O10 UNL     1       3.739   0.126   0.750  1.00  0.00    -0.319 OA
HETATM    7  C11 UNL     1       3.418  -1.174   0.768  1.00  0.00     0.261 C 
HETATM    8  C13 UNL     1       2.572  -1.568  -0.419  1.00  0.00     0.222 C 
HETATM    9  C14 UNL     1       0.978  -0.793  -2.077  1.00  0.00     0.284 C 
HETATM   10  C15 UNL     1      -0.468  -0.317  -1.890  1.00  0.00     0.247 C 
ENDROOT
BRANCH   8  11
HETATM   11  O13 UNL     1       1.978  -2.792  -0.117  1.00  0.00    -0.387 OA
ATOM     12  H13 UNL     1       2.641  -3.450   0.056  1.00  0.00     0.210 HD
ENDBRANCH   8  11
BRANCH   9  13
HETATM   13  N2  UNL     1       1.652  -0.111  -3.128  1.00  0.00    -0.067 N 
ATOM     14  H23 UNL     1       1.669   0.892  -2.944  1.00  0.00     0.275 HD
ATOM     15  H22 UNL     1       2.651  -0.314  -3.096  1.00  0.00     0.275 HD
ATOM     16  H21 UNL     1       1.285  -0.292  -4.062  1.00  0.00     0.275 HD
ENDBRANCH   9  13
BRANCH   1  17
HETATM   17  O2  UNL     1      -1.621  -0.058   0.252  1.00  0.00    -0.255 OA
BRANCH  17  18
HETATM   18  C5  UNL     1      -2.966  -0.056  -0.029  1.00  0.00     0.276 C 
HETATM   19  O1  UNL     1      -3.313  -0.732  -1.008  1.00  0.00    -0.264 OA
BRANCH  18  20
HETATM   20  C2  UNL     1      -3.985   0.682   0.746  1.00  0.00     0.072 C 
HETATM   21  C1  UNL     1      -5.341   0.438   0.133  1.00  0.00     0.031 C 
HETATM   22  C3  UNL     1      -4.070   0.155   2.185  1.00  0.00     0.031 C 
BRANCH  20  23
HETATM   23  C4  UNL     1      -3.732   2.131   0.760  1.00  0.00     0.072 C 
HETATM   24  N1  UNL     1      -3.998   2.821  -0.281  1.00  0.00    -0.410 N 
ATOM     25  H12 UNL     1      -4.381   2.357  -1.105  1.00  0.00     0.155 HD
ATOM     26  H11 UNL     1      -3.823   3.826  -0.271  1.00  0.00     0.155 HD
ENDBRANCH  20  23
ENDBRANCH  18  20
ENDBRANCH  17  18
ENDBRANCH   1  17
BRANCH   1  27
HETATM   27  O3  UNL     1      -0.992  -2.156  -0.535  1.00  0.00    -0.341 OA
ATOM     28  H3  UNL     1      -0.371  -2.645  -1.061  1.00  0.00     0.215 HD
ENDBRANCH   1  27
BRANCH   5  29
HETATM   29  C9  UNL     1       3.891   2.024  -0.522  1.00  0.00     0.251 C 
HETATM   30  O6  UNL     1       3.699   2.399  -1.690  1.00  0.00    -0.643 OA
HETATM   31  O7  UNL     1       5.011   2.507   0.143  1.00  0.00    -0.643 OA
ENDBRANCH   5  29
BRANCH   5  32
HETATM   32  C10 UNL     1       2.374   1.898   1.292  1.00  0.00     0.251 C 
HETATM   33  O8  UNL     1       3.134   2.303   2.202  1.00  0.00    -0.643 OA
HETATM   34  O9  UNL     1       1.037   2.243   1.348  1.00  0.00    -0.643 OA
ENDBRANCH   5  32
BRANCH   7  35
HETATM   35  C12 UNL     1       2.840  -1.669   2.049  1.00  0.00     0.206 C 
HETATM   36  O11 UNL     1       2.652  -0.943   3.058  1.00  0.00    -0.646 OA
HETATM   37  O12 UNL     1       2.469  -3.000   2.195  1.00  0.00    -0.646 OA
ENDBRANCH   7  35
BRANCH  10  38
HETATM   38  O14 UNL     1      -1.170  -1.034  -2.888  1.00  0.00    -0.385 OA
ATOM     39  H14 UNL     1      -1.008  -0.743  -3.778  1.00  0.00     0.210 HD
ENDBRANCH  10  38
TORSDOF 11
