REMARK  10 active torsions:
REMARK  status: ('A' for Active; 'I' for Inactive)
REMARK    1  A    between atoms: C4_12  and  C5_13 
REMARK    2  A    between atoms: C5_13  and  O2_14 
REMARK    3  A    between atoms: C5_13  and  O3_16 
REMARK    4  A    between atoms: C6_21  and  N6_22 
REMARK    5  A    between atoms: N6_22  and  C7_24 
REMARK    6  A    between atoms: C7_24  and  C8_25 
REMARK    7  A    between atoms: C8_25  and  N7_26 
REMARK    8  A    between atoms: N7_26  and  C9_28 
REMARK    9  A    between atoms: C12_35  and  O4_36 
REMARK   10  A    between atoms: C12_35  and  C13_38 
ROOT
HETATM    1  N1  UNL     1      -4.933  -0.020  -4.404  1.00  0.00    -0.234 N 
ATOM      2  H11 UNL     1      -4.188   0.017  -5.100  1.00  0.00     0.174 HD
ATOM      3  H12 UNL     1      -5.897  -0.094  -4.730  1.00  0.00     0.174 HD
HETATM    4  C1  UNL     1      -4.662   0.025  -3.129  1.00  0.00     0.692 A 
HETATM    5  N2  UNL     1      -5.644  -0.024  -2.211  1.00  0.00    -0.168 N 
ATOM      6  H2  UNL     1      -6.614  -0.098  -2.517  1.00  0.00     0.186 HD
HETATM    7  C2  UNL     1      -5.362   0.024  -0.878  1.00  0.00     0.228 A 
HETATM    8  C3  UNL     1      -6.342  -0.025   0.073  1.00  0.00     0.294 A 
HETATM    9  O1  UNL     1      -7.546  -0.117  -0.325  1.00  0.00    -0.264 OA
HETATM   10  N3  UNL     1      -6.018   0.025   1.368  1.00  0.00    -0.305 N 
ATOM     11  H3  UNL     1      -6.759  -0.011   2.068  1.00  0.00     0.170 HD
HETATM   12  C4  UNL     1      -4.740   0.122   1.772  1.00  0.00     0.155 A 
HETATM   13  N4  UNL     1      -3.789   0.169   0.823  1.00  0.00    -0.262 N 
ATOM     14  H4  UNL     1      -2.811   0.244   1.104  1.00  0.00     0.189 HD
HETATM   15  N5  UNL     1      -4.085   0.121  -0.463  1.00  0.00    -0.062 N 
HETATM   16  C6  UNL     1      -3.093   0.171  -1.394  1.00  0.00     0.716 A 
HETATM   17  N10 UNL     1      -3.387   0.123  -2.698  1.00  0.00    -0.021 N 
ATOM     18  H10 UNL     1      -2.631   0.161  -3.382  1.00  0.00     0.203 HD
ENDROOT
BRANCH  16  19
HETATM   19  N6  UNL     1      -1.900   0.263  -0.950  1.00  0.00    -0.222 N 
ATOM     20  H6  UNL     1      -1.753   0.294   0.059  1.00  0.00     0.177 HD
BRANCH  19  21
HETATM   21  C7  UNL     1      -0.761   0.324  -1.814  1.00  0.00     0.157 C 
BRANCH  21  22
HETATM   22  C8  UNL     1       0.503   0.081  -0.989  1.00  0.00     0.141 C 
BRANCH  22  23
HETATM   23  N7  UNL     1       1.647   0.141  -1.843  1.00  0.00    -0.374 N 
ATOM     24  H7  UNL     1       1.532   0.325  -2.840  1.00  0.00     0.161 HD
BRANCH  23  25
HETATM   25  C9  UNL     1       2.947  -0.056  -1.300  1.00  0.00     0.118 A 
HETATM   26  C10 UNL     1       3.310  -0.312   0.004  1.00  0.00     0.141 A 
HETATM   27  N8  UNL     1       4.675  -0.438   0.109  1.00  0.00    -0.330 N 
HETATM   28  C11 UNL     1       5.131  -0.257  -1.128  1.00  0.00     0.151 A 
HETATM   29  C14 UNL     1       5.648  -0.709   1.121  1.00  0.00     0.192 C 
HETATM   30  N9  UNL     1       4.131  -0.030  -1.984  1.00  0.00    -0.322 N 
HETATM   31  S1  UNL     1       6.910  -0.390  -1.030  1.00  0.00    -0.043 SA
ATOM     32  H9  UNL     1       4.234   0.136  -2.985  1.00  0.00     0.169 HD
HETATM   33  C12 UNL     1       6.961  -0.038   0.792  1.00  0.00     0.219 C 
BRANCH  33  34
HETATM   34  O4  UNL     1       6.962   1.316   1.024  1.00  0.00    -0.368 OA
ATOM     35  H4  UNL     1       6.988   1.496   1.956  1.00  0.00     0.212 HD
ENDBRANCH  33  34
BRANCH  33  36
HETATM   36  C13 UNL     1       8.092  -0.745   1.408  1.00  0.00     0.222 C 
HETATM   37  O5  UNL     1       8.212  -1.972   1.277  1.00  0.00    -0.645 OA
HETATM   38  O6  UNL     1       9.020  -0.029   2.133  1.00  0.00    -0.645 OA
ENDBRANCH  33  36
ENDBRANCH  23  25
ENDBRANCH  22  23
ENDBRANCH  21  22
ENDBRANCH  19  21
ENDBRANCH  16  19
BRANCH  12  39
HETATM   39  C5  UNL     1      -4.401   0.176   3.231  1.00  0.00     0.325 C 
BRANCH  39  40
HETATM   40  O2  UNL     1      -5.253   1.054   3.882  1.00  0.00    -0.365 OA
ATOM     41  H2  UNL     1      -5.038   1.088   4.807  1.00  0.00     0.213 HD
ENDBRANCH  39  40
BRANCH  39  42
HETATM   42  O3  UNL     1      -4.506  -1.100   3.783  1.00  0.00    -0.365 OA
ATOM     43  H3  UNL     1      -4.291  -1.066   4.708  1.00  0.00     0.213 HD
ENDBRANCH  39  42
ENDBRANCH  12  39
TORSDOF 10
