REMARK  2 active torsions:
REMARK  status: ('A' for Active; 'I' for Inactive)
REMARK    1  A    between atoms: C1_2  and  C2_4 
REMARK    2  A    between atoms: N4_11  and  C4_13 
ROOT
HETATM    1  C2  UNL     1       2.502   0.243   0.810  1.00  0.00     0.167 A 
HETATM    2  N2  UNL     1       2.845   0.437   2.093  1.00  0.00    -0.233 N 
ATOM      3  H2  UNL     1       3.798   0.491   2.453  1.00  0.00     0.197 HD
HETATM    4  O2  UNL     1       1.770   0.543   2.794  1.00  0.00    -0.155 OA
HETATM    5  N3  UNL     1       0.699   0.433   2.069  1.00  0.00    -0.223 N 
ATOM      6  H3  UNL     1      -0.268   0.481   2.389  1.00  0.00     0.198 HD
HETATM    7  C3  UNL     1       1.127   0.242   0.809  1.00  0.00     0.163 A 
HETATM    8  N4  UNL     1       0.399   0.084  -0.239  1.00  0.00    -0.328 N 
ATOM      9  H4  UNL     1       0.852  -0.052  -1.142  1.00  0.00     0.169 HD
ENDROOT
BRANCH   1  10
HETATM   10  C1  UNL     1       3.439   0.076  -0.290  1.00  0.00     0.287 C 
HETATM   11  N1  UNL     1       2.998  -0.127  -1.631  1.00  0.00    -0.056 NA
HETATM   12  O1  UNL     1       4.673   0.108  -0.077  1.00  0.00    -0.269 OA
ENDBRANCH   1  10
BRANCH   8  13
HETATM   13  C4  UNL     1      -1.024   0.094  -0.172  1.00  0.00     0.095 C 
HETATM   14  N5  UNL     1      -1.763   1.033   0.314  1.00  0.00    -0.293 N 
HETATM   15  N6  UNL     1      -3.120   0.710   0.217  1.00  0.00    -0.140 NA
ATOM     16  H5  UNL     1      -1.404   1.899   0.717  1.00  0.00     0.183 HD
HETATM   17  C5  UNL     1      -3.211  -0.243  -0.874  1.00  0.00     0.142 C 
HETATM   18  C6  UNL     1      -1.903  -1.020  -0.671  1.00  0.00     0.095 C 
ENDBRANCH   8  13
TORSDOF 2
