REMARK  6 active torsions:
REMARK  status: ('A' for Active; 'I' for Inactive)
REMARK    1  A    between atoms: C3_3  and  N1_4 
REMARK       I    between atoms: N1_4  and  C4_5 
REMARK    2  A    between atoms: C4_5  and  C5_7 
REMARK    3  A    between atoms: C5_7  and  N2_8 
REMARK    4  A    between atoms: C5_7  and  C12_17 
REMARK    5  A    between atoms: C6_10  and  C7_11 
REMARK    6  A    between atoms: C7_11  and  N3_12 
ROOT
HETATM    1  C1  UNL     1       6.036   1.001   0.769  1.00  0.00     0.019 C 
HETATM    2  C2  UNL     1       5.148   1.486   0.112  1.00  0.00    -0.058 C 
HETATM    3  C3  UNL     1       4.046   2.104  -0.685  1.00  0.00     0.249 C 
ENDROOT
BRANCH   3   4
HETATM    4  N1  UNL     1       2.870   1.407  -0.612  1.00  0.00    -0.373 NA
HETATM    5  C4  UNL     1       1.681   0.703  -0.539  1.00  0.00     0.315 C 
HETATM    6  O1  UNL     1       0.675   1.081  -1.195  1.00  0.00    -0.255 OA
BRANCH   5   7
HETATM    7  C5  UNL     1       1.527  -0.519   0.326  1.00  0.00     0.192 C 
BRANCH   7   8
HETATM    8  N2  UNL     1       0.385  -0.689   1.070  1.00  0.00    -0.386 N 
HETATM    9  C6  UNL     1      -0.903  -0.992   0.818  1.00  0.00     0.086 C 
ATOM     10  H2  UNL     1       0.556  -0.551   2.066  1.00  0.00     0.159 HD
BRANCH   9  11
HETATM   11  C7  UNL     1      -1.821  -0.083   0.072  1.00  0.00     0.316 C 
BRANCH  11  12
HETATM   12  N3  UNL     1      -3.193  -0.614   0.053  1.00  0.00     0.093 N 
HETATM   13  C8  UNL     1      -3.857  -0.564   1.314  1.00  0.00     0.273 C 
HETATM   14  C9  UNL     1      -4.222   0.921   1.432  1.00  0.00     0.032 C 
HETATM   15  C10 UNL     1      -4.597   1.285   0.035  1.00  0.00     0.032 C 
HETATM   16  C11 UNL     1      -3.992   0.211  -0.824  1.00  0.00     0.273 C 
ENDBRANCH  11  12
ENDBRANCH   9  11
ENDBRANCH   7   8
BRANCH   7  17
HETATM   17  C12 UNL     1       1.862  -1.792  -0.467  1.00  0.00     0.019 A 
HETATM   18  C13 UNL     1       3.261  -1.855  -1.017  1.00  0.00     0.007 A 
HETATM   19  C14 UNL     1       2.069  -1.810  -1.909  1.00  0.00     0.007 A 
ENDBRANCH   7  17
ENDBRANCH   5   7
ENDBRANCH   3   4
TORSDOF 6
