REMARK  9 active torsions:
REMARK  status: ('A' for Active; 'I' for Inactive)
REMARK    1  A    between atoms: C3_3  and  N1_4 
REMARK    2  A    between atoms: N1_4  and  C6_7 
REMARK    3  A    between atoms: C6_7  and  C7_8 
REMARK    4  A    between atoms: C7_8  and  O1_9 
REMARK    5  A    between atoms: C7_8  and  C8_11 
REMARK    6  A    between atoms: C8_11  and  C9_12 
REMARK    7  A    between atoms: C9_12  and  O2_13 
REMARK    8  A    between atoms: C9_12  and  C10_15 
REMARK    9  A    between atoms: C10_15  and  S1_16 
ROOT
HETATM    1  C1  UNL     1      -5.928   0.153   1.023  1.00  0.00     0.113 C 
HETATM    2  C2  UNL     1      -4.631   0.059   0.333  1.00  0.00    -0.081 C 
HETATM    3  C3  UNL     1      -3.561  -0.003  -0.221  1.00  0.00     0.115 C 
ENDROOT
BRANCH   3   4
HETATM    4  N1  UNL     1      -2.293  -0.059  -0.856  1.00  0.00    -0.008 N 
HETATM    5  C4  UNL     1      -2.441  -1.086  -1.900  1.00  0.00     0.290 C 
HETATM    6  C5  UNL     1      -2.046   1.183  -1.534  1.00  0.00     0.290 C 
BRANCH   4   7
HETATM    7  C6  UNL     1      -1.318  -0.423   0.111  1.00  0.00     0.284 C 
BRANCH   7   8
HETATM    8  C7  UNL     1       0.066   0.099  -0.195  1.00  0.00     0.147 C 
BRANCH   8   9
HETATM    9  O1  UNL     1       0.561  -0.357  -1.401  1.00  0.00    -0.394 OA
ATOM     10  H1  UNL     1       1.431  -0.029  -1.593  1.00  0.00     0.210 HD
ENDBRANCH   8   9
BRANCH   8  11
HETATM   11  C8  UNL     1       1.029  -0.318   0.887  1.00  0.00     0.066 C 
BRANCH  11  12
HETATM   12  C9  UNL     1       2.406   0.231   0.534  1.00  0.00     0.132 C 
BRANCH  12  13
HETATM   13  O2  UNL     1       2.856  -0.253  -0.679  1.00  0.00    -0.395 OA
ATOM     14  H2  UNL     1       3.714   0.089  -0.899  1.00  0.00     0.210 HD
ENDBRANCH  12  13
BRANCH  12  15
HETATM   15  C10 UNL     1       3.428  -0.148   1.583  1.00  0.00     0.139 C 
BRANCH  15  16
HETATM   16  S1  UNL     1       4.991   0.522   1.103  1.00  0.00     0.013 S 
HETATM   17  C11 UNL     1       5.550  -0.077  -0.453  1.00  0.00     0.127 C 
HETATM   18  O3  UNL     1       5.014   2.186   1.187  1.00  0.00    -0.258 OA
ENDBRANCH  15  16
ENDBRANCH  12  15
ENDBRANCH  11  12
ENDBRANCH   8  11
ENDBRANCH   7   8
ENDBRANCH   4   7
ENDBRANCH   3   4
TORSDOF 9
