REMARK  8 active torsions:
REMARK  status: ('A' for Active; 'I' for Inactive)
REMARK    1  A    between atoms: N1_6  and  C6_7 
REMARK    2  A    between atoms: C6_7  and  O1_8 
REMARK    3  A    between atoms: C6_7  and  C7_10 
REMARK    4  A    between atoms: C7_10  and  C8_11 
REMARK    5  A    between atoms: C7_10  and  N3_17 
REMARK    6  A    between atoms: C8_11  and  N2_12 
REMARK    7  A    between atoms: N2_12  and  C9_14 
REMARK    8  A    between atoms: N3_17  and  C12_19 
ROOT
HETATM    1  C7  UNL     1       0.428  -1.496   0.511  1.00  0.00     0.080 C 
ENDROOT
BRANCH   1   2
HETATM    2  C6  UNL     1      -0.925  -0.960   0.561  1.00  0.00     0.163 C 
BRANCH   2   3
HETATM    3  N1  UNL     1      -1.560   0.045  -0.199  1.00  0.00    -0.356 N 
HETATM    4  C2  UNL     1      -2.939   0.475   0.140  1.00  0.00     0.082 C 
HETATM    5  C1  UNL     1      -2.994   1.079   1.516  1.00  0.00     0.032 C 
HETATM    6  C3  UNL     1      -3.340   1.472  -0.896  1.00  0.00     0.026 C 
HETATM    7  C4  UNL     1      -2.494   1.046  -2.081  1.00  0.00     0.022 C 
HETATM    8  C5  UNL     1      -1.173   0.792  -1.340  1.00  0.00     0.125 C 
ENDBRANCH   2   3
BRANCH   2   9
HETATM    9  O1  UNL     1      -1.640  -1.556   1.499  1.00  0.00    -0.345 OA
ATOM     10  H1  UNL     1      -1.212  -2.233   2.011  1.00  0.00     0.219 HD
ENDBRANCH   2   9
ENDBRANCH   1   2
BRANCH   1  11
HETATM   11  C8  UNL     1       1.436  -0.938  -0.407  1.00  0.00     0.176 C 
BRANCH  11  12
HETATM   12  N2  UNL     1       1.759   0.438  -0.189  1.00  0.00    -0.412 N 
ATOM     13  H2  UNL     1       1.311   0.973   0.555  1.00  0.00     0.153 HD
BRANCH  12  14
HETATM   14  C9  UNL     1       2.715   1.029  -1.034  1.00  0.00     0.077 A 
HETATM   15  C10 UNL     1       4.138   0.428  -0.977  1.00  0.00     0.027 A 
HETATM   16  C11 UNL     1       3.875   1.818  -0.400  1.00  0.00     0.027 A 
ENDBRANCH  12  14
ENDBRANCH  11  12
ENDBRANCH   1  11
BRANCH   1  17
HETATM   17  N3  UNL     1       0.458  -2.956   0.589  1.00  0.00    -0.333 N 
ATOM     18  H3  UNL     1       0.085  -3.480  -0.203  1.00  0.00     0.168 HD
BRANCH  17  19
HETATM   19  C12 UNL     1       0.966  -3.694   1.682  1.00  0.00     0.353 C 
HETATM   20  O2  UNL     1       1.432  -3.058   2.672  1.00  0.00    -0.283 OA
ENDBRANCH  17  19
ENDBRANCH   1  17
TORSDOF 8
