REMARK  6 active torsions:
REMARK  status: ('A' for Active; 'I' for Inactive)
REMARK    1  A    between atoms: C2_2  and  O1_3 
REMARK    2  A    between atoms: C2_2  and  C3_5 
REMARK    3  A    between atoms: C3_5  and  N1_7 
REMARK    4  A    between atoms: S1_14  and  C8_15 
REMARK    5  A    between atoms: C8_15  and  C9_16 
REMARK    6  A    between atoms: C9_16  and  N3_17 
ROOT
HETATM    1  N1  UNL     1      -1.363   0.014   0.651  1.00  0.00    -0.365 N 
ATOM      2  H1  UNL     1      -0.997   0.845   1.116  1.00  0.00     0.162 HD
HETATM    3  C5  UNL     1      -0.653  -1.032   0.747  1.00  0.00     0.126 C 
HETATM    4  N2  UNL     1      -0.897  -2.317   0.215  1.00  0.00    -0.371 N 
ATOM      5  H2  UNL     1      -1.813  -2.631  -0.107  1.00  0.00     0.161 HD
HETATM    6  C6  UNL     1       0.275  -3.129   0.176  1.00  0.00     0.131 C 
HETATM    7  C7  UNL     1       1.020  -2.944   1.500  1.00  0.00     0.091 C 
HETATM    8  S1  UNL     1       0.867  -1.144   1.598  1.00  0.00    -0.150 SA
ENDROOT
BRANCH   1   9
HETATM    9  C3  UNL     1      -2.611   0.176  -0.026  1.00  0.00     0.107 C 
HETATM   10  C4  UNL     1      -2.515  -0.386  -1.408  1.00  0.00     0.035 C 
BRANCH   9  11
HETATM   11  C2  UNL     1      -2.913   1.653  -0.156  1.00  0.00     0.136 C 
HETATM   12  C1  UNL     1      -4.256   1.841  -0.831  1.00  0.00     0.041 C 
BRANCH  11  13
HETATM   13  O1  UNL     1      -2.998   2.264   1.095  1.00  0.00    -0.394 OA
ATOM     14  H1  UNL     1      -2.156   2.146   1.518  1.00  0.00     0.210 HD
ENDBRANCH  11  13
ENDBRANCH   9  11
ENDBRANCH   1   9
BRANCH   8  15
HETATM   15  C8  UNL     1       2.140  -0.494   0.541  1.00  0.00     0.101 C 
BRANCH  15  16
HETATM   16  C9  UNL     1       1.827   0.942   0.216  1.00  0.00     0.281 C 
BRANCH  16  17
HETATM   17  N3  UNL     1       2.834   1.527  -0.642  1.00  0.00     0.080 N 
HETATM   18  C10 UNL     1       4.101   1.679   0.051  1.00  0.00     0.309 C 
HETATM   19  C11 UNL     1       3.097   0.704  -1.809  1.00  0.00     0.309 C 
ENDBRANCH  16  17
ENDBRANCH  15  16
ENDBRANCH   8  15
TORSDOF 6
