REMARK  7 active torsions:
REMARK  status: ('A' for Active; 'I' for Inactive)
REMARK    1  A    between atoms: C2_2  and  C3_3 
REMARK       I    between atoms: C3_3  and  N1_5 
REMARK    2  A    between atoms: N1_5  and  C4_7 
REMARK    3  A    between atoms: C7_10  and  C8_11 
REMARK    4  A    between atoms: C12_17  and  O2_18 
REMARK    5  A    between atoms: C15_21  and  N2_22 
REMARK    6  A    between atoms: C18_25  and  N3_26 
REMARK    7  A    between atoms: C23_33  and  O3_34 
ROOT
HETATM    1  C4  UNL     1       1.763   2.142  -1.130  1.00  0.00     0.069 A 
HETATM    2  C5  UNL     1       0.801   1.410  -0.495  1.00  0.00     0.047 A 
HETATM    3  C6  UNL     1       0.507   0.101  -0.799  1.00  0.00     0.007 A 
HETATM    4  C7  UNL     1      -0.471  -0.598  -0.126  1.00  0.00     0.017 A 
HETATM    5  C15 UNL     1      -0.758  -1.894  -0.426  1.00  0.00     0.087 A 
HETATM    6  C18 UNL     1      -0.024  -2.528  -1.460  1.00  0.00     0.131 A 
HETATM    7  N4  UNL     1       0.946  -1.851  -2.137  1.00  0.00    -0.335 N 
HETATM    8  C20 UNL     1       1.658  -2.511  -3.203  1.00  0.00     0.158 C 
HETATM    9  C21 UNL     1       1.212  -0.553  -1.813  1.00  0.00     0.049 A 
HETATM   10  C22 UNL     1       2.185   0.180  -2.456  1.00  0.00     0.069 A 
HETATM   11  C23 UNL     1       2.474   1.497  -2.144  1.00  0.00     0.094 A 
ENDROOT
BRANCH   4  12
HETATM   12  C8  UNL     1      -1.207   0.063   0.940  1.00  0.00    -0.019 A 
HETATM   13  C9  UNL     1      -2.219   0.940   0.626  1.00  0.00     0.033 A 
HETATM   14  C10 UNL     1      -2.929   1.565   1.633  1.00  0.00     0.036 A 
HETATM   15 BR1  UNL     1      -4.339   2.792   1.235  1.00  0.00    -0.049 Br
HETATM   16  C11 UNL     1      -2.590   1.279   2.960  1.00  0.00     0.084 A 
HETATM   17 CL1  UNL     1      -3.488   2.065   4.245  1.00  0.00    -0.080 Cl
HETATM   18  C12 UNL     1      -1.579   0.403   3.288  1.00  0.00     0.092 A 
HETATM   19  C14 UNL     1      -0.891  -0.203   2.261  1.00  0.00     0.051 A 
BRANCH  18  20
HETATM   20  O2  UNL     1      -1.303   0.170   4.625  1.00  0.00    -0.354 OA
HETATM   21  C13 UNL     1      -0.297  -0.701   5.073  1.00  0.00     0.210 C 
ENDBRANCH  18  20
ENDBRANCH   4  12
BRANCH   5  22
HETATM   22  N2  UNL     1      -1.759  -2.582   0.298  1.00  0.00    -0.374 N 
HETATM   23  C16 UNL     1      -3.199  -2.989   0.476  1.00  0.00     0.143 A 
HETATM   24  C17 UNL     1      -2.125  -3.419   1.408  1.00  0.00     0.143 A 
ENDBRANCH   5  22
BRANCH   6  25
HETATM   25  N3  UNL     1      -0.361  -3.718  -1.633  1.00  0.00    -0.379 N 
HETATM   26  C19 UNL     1      -0.102  -4.843  -2.390  1.00  0.00     0.147 C 
ATOM     27  H3  UNL     1      -1.102  -3.942  -0.969  1.00  0.00     0.160 HD
ENDBRANCH   6  25
BRANCH   1  28
HETATM   28  N1  UNL     1       2.098   3.490  -0.867  1.00  0.00    -0.321 N 
HETATM   29  C3  UNL     1       1.535   4.352   0.064  1.00  0.00     0.245 C 
HETATM   30  O1  UNL     1       0.611   4.038   0.832  1.00  0.00    -0.268 OA
ATOM     31  H1  UNL     1       2.851   3.879  -1.435  1.00  0.00     0.169 HD
BRANCH  29  32
HETATM   32  C2  UNL     1       2.031   5.726   0.183  1.00  0.00     0.064 C 
HETATM   33  C1  UNL     1       1.524   6.584   1.056  1.00  0.00     0.017 C 
ENDBRANCH  29  32
ENDBRANCH   1  28
BRANCH  11  34
HETATM   34  O3  UNL     1       3.479   2.143  -2.861  1.00  0.00    -0.358 OA
ATOM     35  H3  UNL     1       3.963   1.704  -3.551  1.00  0.00     0.217 HD
ENDBRANCH  11  34
TORSDOF 7
