REMARK  2 active torsions:
REMARK  status: ('A' for Active; 'I' for Inactive)
REMARK    1  A    between atoms: C3_5  and  C4_6 
REMARK    2  A    between atoms: N5_24  and  O1_26 
ROOT
HETATM    1  C1  UNL     1      -0.176  -3.097  -1.166  1.00  0.00     0.066 C 
HETATM    2  C2  UNL     1       0.347  -1.734  -0.871  1.00  0.00     0.022 C 
HETATM    3  N1  UNL     1       1.546  -1.342  -1.094  1.00  0.00    -0.362 N 
ATOM      4  H1  UNL     1       2.283  -1.919  -1.501  1.00  0.00     0.161 HD
HETATM    5  C3  UNL     1       1.703   0.023  -0.690  1.00  0.00     0.336 C 
HETATM    6  N4  UNL     1       0.700   0.161   0.336  1.00  0.00    -0.029 N 
ATOM      7  H41 UNL     1       0.475   1.116   0.613  1.00  0.00     0.281 HD
ATOM      8  H42 UNL     1       0.978  -0.131   1.273  1.00  0.00     0.281 HD
HETATM    9  C8  UNL     1      -0.396  -0.606  -0.279  1.00  0.00     0.205 C 
HETATM   10  C9  UNL     1      -1.053   0.286  -1.280  1.00  0.00     0.052 C 
HETATM   11  C10 UNL     1      -2.558   0.201  -1.053  1.00  0.00     0.012 C 
HETATM   12  C11 UNL     1      -2.926   0.705   0.318  1.00  0.00    -0.043 C 
HETATM   13  C12 UNL     1      -4.404   0.447   0.524  1.00  0.00     0.015 C 
HETATM   14  C13 UNL     1      -2.714   2.210   0.322  1.00  0.00     0.015 C 
HETATM   15  C14 UNL     1      -2.152   0.047   1.422  1.00  0.00     0.066 C 
HETATM   16  C15 UNL     1      -1.299  -1.024   0.815  1.00  0.00     0.052 C 
HETATM   17  N5  UNL     1      -1.359  -2.238   1.232  1.00  0.00    -0.275 N 
ATOM     18  H5  UNL     1      -0.775  -2.961   0.811  1.00  0.00     0.193 HD
ENDROOT
BRANCH   5  19
HETATM   19  C4  UNL     1       3.045   0.305  -0.179  1.00  0.00     0.061 A 
HETATM   20  C5  UNL     1       3.843   1.380  -0.472  1.00  0.00     0.057 A 
HETATM   21  C6  UNL     1       5.041   1.291   0.208  1.00  0.00     0.063 A 
HETATM   22  N2  UNL     1       6.162   2.167   0.214  1.00  0.00    -0.101 NA
HETATM   23  C7  UNL     1       4.955   0.120   0.932  1.00  0.00     0.114 A 
HETATM   24  N3  UNL     1       3.745  -0.454   0.682  1.00  0.00    -0.364 N 
ATOM     25  H3  UNL     1       3.418  -1.331   1.088  1.00  0.00     0.165 HD
ENDBRANCH   5  19
BRANCH  17  26
HETATM   26  O1  UNL     1      -2.222  -2.545   2.252  1.00  0.00    -0.290 OA
ATOM     27  H1  UNL     1      -2.266  -3.442   2.560  1.00  0.00     0.244 HD
ENDBRANCH  17  26
TORSDOF 2
