REMARK  2 active torsions:
REMARK  status: ('A' for Active; 'I' for Inactive)
REMARK    1  A    between atoms: N1_1  and  C1_4 
REMARK    2  A    between atoms: C5_14  and  C6_15 
ROOT
HETATM    1  C1  UNL     1      -3.238  -0.685   0.008  1.00  0.00     0.677 A 
HETATM    2  N2  UNL     1      -3.723   0.542  -0.162  1.00  0.00    -0.180 N 
ATOM      3  H2  UNL     1      -4.727   0.692  -0.260  1.00  0.00     0.185 HD
HETATM    4  C2  UNL     1      -2.872   1.582  -0.203  1.00  0.00     0.145 A 
HETATM    5  S1  UNL     1      -3.432   3.094  -0.409  1.00  0.00    -0.057 SA
HETATM    6  C3  UNL     1      -1.493   1.420  -0.074  1.00  0.00     0.100 A 
HETATM    7  N3  UNL     1      -0.459   2.276  -0.080  1.00  0.00    -0.345 N 
ATOM      8  H3  UNL     1      -0.513   3.289  -0.191  1.00  0.00     0.167 HD
HETATM    9  C4  UNL     1       0.669   1.545   0.089  1.00  0.00     0.089 A 
HETATM   10  S2  UNL     1       2.366   1.589   0.222  1.00  0.00    -0.073 SA
HETATM   11  C5  UNL     1       2.679  -0.077   0.425  1.00  0.00     0.020 A 
HETATM   12  C7  UNL     1       1.426  -0.623   0.381  1.00  0.00     0.075 A 
HETATM   13  N4  UNL     1       1.305  -2.070   0.525  1.00  0.00    -0.100 NA
HETATM   14  C8  UNL     1       0.386   0.210   0.208  1.00  0.00     0.053 A 
HETATM   15  C9  UNL     1      -1.019   0.156   0.099  1.00  0.00     0.094 A 
HETATM   16  N5  UNL     1      -1.923  -0.838   0.131  1.00  0.00    -0.189 N 
ATOM     17  H5  UNL     1      -1.572  -1.787   0.260  1.00  0.00     0.184 HD
ENDROOT
BRANCH   1  18
HETATM   18  N1  UNL     1      -4.028  -1.723   0.054  1.00  0.00    -0.234 N 
ATOM     19  H12 UNL     1      -5.037  -1.606  -0.040  1.00  0.00     0.174 HD
ATOM     20  H11 UNL     1      -3.656  -2.664   0.184  1.00  0.00     0.174 HD
ENDBRANCH   1  18
BRANCH  11  21
HETATM   21  C6  UNL     1       3.998  -0.790   0.608  1.00  0.00     0.134 C 
HETATM   22  S3  UNL     1       5.287   0.493   0.576  1.00  0.00    -0.092 SA
ENDBRANCH  11  21
TORSDOF 2
