REMARK  18 active torsions:
REMARK  status: ('A' for Active; 'I' for Inactive)
REMARK    1  A    between atoms: C2_2  and  N1_3 
REMARK    2  A    between atoms: C2_2  and  C3_7 
REMARK    3  A    between atoms: C3_7  and  N2_8 
REMARK    4  A    between atoms: C3_7  and  C4_12 
REMARK    5  A    between atoms: C4_12  and  N3_13 
REMARK    6  A    between atoms: C4_12  and  C5_17 
REMARK    7  A    between atoms: C5_17  and  C6_18 
REMARK    8  A    between atoms: C7_20  and  C8_21 
REMARK    9  A    between atoms: C8_21  and  N4_22 
REMARK       I    between atoms: N4_22  and  C9_24 
REMARK   10  A    between atoms: C10_29  and  O2_30 
REMARK   11  A    between atoms: C11_32  and  O3_33 
REMARK   12  A    between atoms: O3_33  and  C12_34 
REMARK   13  A    between atoms: C12_34  and  C13_35 
REMARK       I    between atoms: C13_35  and  N7_37 
REMARK   14  A    between atoms: N7_37  and  C14_39 
REMARK   15  A    between atoms: C14_39  and  C15_40 
REMARK   16  A    between atoms: C14_39  and  C17_44 
REMARK   17  A    between atoms: C15_40  and  C16_41 
REMARK   18  A    between atoms: C17_44  and  C18_46 
ROOT
HETATM    1  C6  UNL     1      -2.077   0.880  -0.186  1.00  0.00     0.265 C 
HETATM    2  O1  UNL     1      -1.898   1.780  -1.229  1.00  0.00    -0.351 OA
HETATM    3  C7  UNL     1      -1.294   1.216  -2.313  1.00  0.00     0.176 C 
HETATM    4  C10 UNL     1       0.023   0.632  -1.935  1.00  0.00     0.204 C 
HETATM    5  C11 UNL     1      -0.182  -0.359  -0.813  1.00  0.00     0.294 C 
HETATM    6  O9  UNL     1      -0.926   0.259   0.190  1.00  0.00    -0.329 OA
ENDROOT
BRANCH   1   7
HETATM    7  C5  UNL     1      -3.269   0.031  -0.440  1.00  0.00     0.096 C 
BRANCH   7   8
HETATM    8  C4  UNL     1      -3.647  -0.965   0.590  1.00  0.00     0.220 C 
BRANCH   8   9
HETATM    9  C3  UNL     1      -3.976  -0.412   1.940  1.00  0.00     0.243 C 
BRANCH   9  10
HETATM   10  C2  UNL     1      -4.673  -1.487   2.772  1.00  0.00     0.211 C 
HETATM   11  C1  UNL     1      -4.925  -0.943   4.157  1.00  0.00     0.042 C 
BRANCH  10  12
HETATM   12  N1  UNL     1      -5.990  -1.614   2.160  1.00  0.00    -0.073 N 
ATOM     13  H13 UNL     1      -6.645  -2.172   2.707  1.00  0.00     0.274 HD
ATOM     14  H12 UNL     1      -6.532  -0.750   2.169  1.00  0.00     0.274 HD
ATOM     15  H11 UNL     1      -5.820  -1.982   1.224  1.00  0.00     0.274 HD
ENDBRANCH  10  12
ENDBRANCH   9  10
BRANCH   9  16
HETATM   16  N2  UNL     1      -4.834   0.733   1.861  1.00  0.00    -0.071 N 
ATOM     17  H23 UNL     1      -5.761   0.503   1.504  1.00  0.00     0.274 HD
ATOM     18  H22 UNL     1      -5.118   1.073   2.780  1.00  0.00     0.274 HD
ATOM     19  H21 UNL     1      -4.369   1.451   1.305  1.00  0.00     0.274 HD
ENDBRANCH   9  16
ENDBRANCH   8   9
BRANCH   8  20
HETATM   20  N3  UNL     1      -2.774  -2.098   0.750  1.00  0.00    -0.073 N 
ATOM     21  H33 UNL     1      -1.940  -1.873   1.292  1.00  0.00     0.274 HD
ATOM     22  H32 UNL     1      -3.163  -2.804   1.375  1.00  0.00     0.274 HD
ATOM     23  H31 UNL     1      -2.550  -2.475  -0.171  1.00  0.00     0.274 HD
ENDBRANCH   8  20
ENDBRANCH   7   8
ENDBRANCH   1   7
BRANCH   3  24
HETATM   24  C8  UNL     1      -1.234   2.165  -3.492  1.00  0.00     0.157 C 
BRANCH  24  25
HETATM   25  N4  UNL     1      -0.539   3.373  -3.264  1.00  0.00    -0.362 N 
HETATM   26  C9  UNL     1      -0.418   4.344  -4.282  1.00  0.00     0.181 C 
HETATM   27  N5  UNL     1       0.369   4.148  -5.307  1.00  0.00    -0.374 N 
HETATM   28  N6  UNL     1      -1.174   5.534  -4.163  1.00  0.00    -0.064 NA
ATOM     29  H52 UNL     1       0.914   3.290  -5.393  1.00  0.00     0.158 HD
ATOM     30  H51 UNL     1       0.456   4.849  -6.042  1.00  0.00     0.158 HD
ATOM     31  H4  UNL     1      -0.118   3.547  -2.351  1.00  0.00     0.162 HD
ENDBRANCH  24  25
ENDBRANCH   3  24
BRANCH   5  32
HETATM   32  O3  UNL     1       1.049  -0.680  -0.224  1.00  0.00    -0.349 OA
BRANCH  32  33
HETATM   33  C12 UNL     1       1.198  -2.027  -0.135  1.00  0.00     0.273 C 
BRANCH  33  34
HETATM   34  C13 UNL     1       2.549  -2.402   0.392  1.00  0.00     0.242 C 
HETATM   35  O4  UNL     1       2.747  -3.628   0.597  1.00  0.00    -0.271 OA
HETATM   36  N7  UNL     1       3.555  -1.461   0.649  1.00  0.00    -0.347 N 
ATOM     37  H7  UNL     1       3.364  -0.475   0.469  1.00  0.00     0.163 HD
BRANCH  36  38
HETATM   38  C14 UNL     1       4.862  -1.840   1.163  1.00  0.00     0.174 C 
BRANCH  38  39
HETATM   39  C15 UNL     1       5.398  -0.837   2.115  1.00  0.00     0.133 C 
BRANCH  39  40
HETATM   40  C16 UNL     1       5.608   0.522   1.549  1.00  0.00     0.233 C 
HETATM   41  N8  UNL     1       5.996   1.608   2.363  1.00  0.00    -0.062 NA
HETATM   42  O5  UNL     1       5.433   0.690   0.325  1.00  0.00    -0.277 OA
ENDBRANCH  39  40
ENDBRANCH  38  39
BRANCH  38  43
HETATM   43  C17 UNL     1       5.792  -2.141   0.072  1.00  0.00     0.247 C 
HETATM   44  O6  UNL     1       5.324  -2.039  -1.130  1.00  0.00    -0.283 OA
BRANCH  43  45
HETATM   45  C18 UNL     1       7.153  -2.529   0.227  1.00  0.00     0.249 C 
HETATM   46  O7  UNL     1       7.758  -2.656   1.284  1.00  0.00    -0.642 OA
HETATM   47  O8  UNL     1       7.903  -2.800  -0.946  1.00  0.00    -0.642 OA
ENDBRANCH  43  45
ENDBRANCH  38  43
ENDBRANCH  36  38
ENDBRANCH  33  34
ENDBRANCH  32  33
ENDBRANCH   5  32
BRANCH   4  48
HETATM   48  O2  UNL     1       0.820   1.662  -1.374  1.00  0.00    -0.388 OA
ATOM     49  H2  UNL     1       1.660   1.290  -1.133  1.00  0.00     0.210 HD
ENDBRANCH   4  48
TORSDOF 18
