REMARK  20 active torsions:
REMARK  status: ('A' for Active; 'I' for Inactive)
REMARK    1  A    between atoms: O1_2  and  C2_3 
REMARK    2  A    between atoms: C2_3  and  O2_4 
REMARK    3  A    between atoms: C2_3  and  C3_6 
REMARK    4  A    between atoms: C3_6  and  N1_7 
REMARK    5  A    between atoms: C3_6  and  C7_17 
REMARK       I    between atoms: N1_7  and  C4_9 
REMARK    6  A    between atoms: C4_9  and  C5_11 
REMARK    7  A    between atoms: C5_11  and  N2_13 
REMARK       I    between atoms: C7_17  and  N3_19 
REMARK       I    between atoms: N3_19  and  C8_21 
REMARK    8  A    between atoms: C8_21  and  C9_23 
REMARK    9  A    between atoms: C9_23  and  N4_25 
REMARK   10  A    between atoms: N4_25  and  C11_27 
REMARK   11  A    between atoms: C11_27  and  O6_28 
REMARK   12  A    between atoms: C11_27  and  N5_30 
REMARK   13  A    between atoms: N5_30  and  C12_32 
REMARK   14  A    between atoms: C12_32  and  C13_33 
REMARK   15  A    between atoms: C12_32  and  C15_37 
REMARK   16  A    between atoms: C13_33  and  C14_34 
REMARK   17  A    between atoms: C15_37  and  O8_38 
REMARK   18  A    between atoms: C15_37  and  N7_40 
REMARK   19  A    between atoms: N7_40  and  C16_42 
REMARK   20  A    between atoms: C16_42  and  C18_44 
ROOT
HETATM    1  C9  UNL     1       0.020   1.067  -0.716  1.00  0.00     0.169 C 
HETATM    2  C10 UNL     1       0.312   1.362  -2.200  1.00  0.00     0.042 C 
ENDROOT
BRANCH   1   3
HETATM    3  C8  UNL     1       1.126   0.221  -0.259  1.00  0.00     0.246 C 
HETATM    4  N3  UNL     1       2.436   0.778  -0.278  1.00  0.00    -0.294 N 
HETATM    5  C7  UNL     1       3.558  -0.009   0.155  1.00  0.00     0.252 C 
ATOM      6  H3  UNL     1       2.578   1.736  -0.599  1.00  0.00     0.171 HD
HETATM    7  O4  UNL     1       3.361  -1.179   0.549  1.00  0.00    -0.271 OA
HETATM    8  O5  UNL     1       0.969  -0.944   0.138  1.00  0.00    -0.271 OA
BRANCH   5   9
HETATM    9  C3  UNL     1       4.933   0.557   0.135  1.00  0.00     0.232 C 
BRANCH   9  10
HETATM   10  C2  UNL     1       5.270   1.054  -1.243  1.00  0.00     0.288 C 
BRANCH  10  11
HETATM   11  O1  UNL     1       6.541   1.612  -1.247  1.00  0.00    -0.364 OA
HETATM   12  C1  UNL     1       6.469   2.989  -1.548  1.00  0.00     0.204 C 
ENDBRANCH  10  11
BRANCH  10  13
HETATM   13  O2  UNL     1       5.127   0.027  -2.176  1.00  0.00    -0.369 OA
ATOM     14  H2  UNL     1       4.257  -0.355  -2.173  1.00  0.00     0.212 HD
ENDBRANCH  10  13
ENDBRANCH   9  10
BRANCH   9  15
HETATM   15  N1  UNL     1       5.845  -0.448   0.617  1.00  0.00    -0.342 N 
HETATM   16  C4  UNL     1       6.515  -0.250   1.839  1.00  0.00     0.248 C 
HETATM   17  O3  UNL     1       6.325   0.783   2.504  1.00  0.00    -0.271 OA
ATOM     18  H1  UNL     1       6.004  -1.298   0.076  1.00  0.00     0.163 HD
BRANCH  16  19
HETATM   19  C5  UNL     1       7.465  -1.250   2.384  1.00  0.00     0.270 C 
HETATM   20  C6  UNL     1       8.794  -0.589   2.681  1.00  0.00     0.050 C 
BRANCH  19  21
HETATM   21  N2  UNL     1       7.651  -2.377   1.525  1.00  0.00    -0.067 N 
ATOM     22  H23 UNL     1       6.757  -2.812   1.298  1.00  0.00     0.275 HD
ATOM     23  H22 UNL     1       7.934  -2.079   0.591  1.00  0.00     0.275 HD
ATOM     24  H21 UNL     1       8.304  -3.065   1.900  1.00  0.00     0.275 HD
ENDBRANCH  19  21
ENDBRANCH  16  19
ENDBRANCH   9  15
ENDBRANCH   5   9
ENDBRANCH   1   3
BRANCH   1  25
HETATM   25  N4  UNL     1      -1.282   0.531  -0.664  1.00  0.00    -0.368 N 
ATOM     26  H4  UNL     1      -1.806   0.366  -1.524  1.00  0.00     0.158 HD
BRANCH  25  27
HETATM   27  C11 UNL     1      -1.855   0.224   0.591  1.00  0.00     0.319 C 
BRANCH  27  28
HETATM   28  O6  UNL     1      -2.023   1.368   1.401  1.00  0.00    -0.360 OA
ATOM     29  H6  UNL     1      -2.408   1.162   2.245  1.00  0.00     0.214 HD
ENDBRANCH  27  28
BRANCH  27  30
HETATM   30  N5  UNL     1      -3.025  -0.580   0.609  1.00  0.00    -0.369 N 
ATOM     31  H5  UNL     1      -2.996  -1.541   0.950  1.00  0.00     0.158 HD
BRANCH  30  32
HETATM   32  C12 UNL     1      -4.254  -0.001   0.132  1.00  0.00     0.163 C 
BRANCH  32  33
HETATM   33  C13 UNL     1      -4.245   0.371  -1.275  1.00  0.00     0.132 C 
BRANCH  33  34
HETATM   34  C14 UNL     1      -5.469   1.000  -1.828  1.00  0.00     0.233 C 
HETATM   35  N6  UNL     1      -6.212   1.921  -1.041  1.00  0.00    -0.062 NA
HETATM   36  O7  UNL     1      -5.889   0.755  -2.986  1.00  0.00    -0.277 OA
ENDBRANCH  33  34
ENDBRANCH  32  33
BRANCH  32  37
HETATM   37  C15 UNL     1      -5.406  -0.765   0.663  1.00  0.00     0.135 C 
BRANCH  37  38
HETATM   38  O8  UNL     1      -5.312  -1.130   1.911  1.00  0.00    -0.348 OA
ATOM     39  H8  UNL     1      -6.051  -1.620   2.252  1.00  0.00     0.219 HD
ENDBRANCH  37  38
BRANCH  37  40
HETATM   40  N7  UNL     1      -6.585  -1.177   0.066  1.00  0.00    -0.359 N 
ATOM     41  H7  UNL     1      -6.733  -0.940  -0.915  1.00  0.00     0.162 HD
BRANCH  40  42
HETATM   42  C16 UNL     1      -7.635  -1.934   0.757  1.00  0.00     0.180 C 
HETATM   43  C17 UNL     1      -7.803  -3.307   0.146  1.00  0.00     0.043 C 
BRANCH  42  44
HETATM   44  C18 UNL     1      -8.919  -1.199   0.701  1.00  0.00     0.196 C 
HETATM   45  O9  UNL     1      -8.978  -0.082   0.100  1.00  0.00    -0.646 OA
HETATM   46  O10 UNL     1     -10.080  -1.658   1.270  1.00  0.00    -0.646 OA
ENDBRANCH  42  44
ENDBRANCH  40  42
ENDBRANCH  37  40
ENDBRANCH  32  37
ENDBRANCH  30  32
ENDBRANCH  27  30
ENDBRANCH  25  27
ENDBRANCH   1  25
TORSDOF 20
