REMARK  6 active torsions:
REMARK  status: ('A' for Active; 'I' for Inactive)
REMARK    1  A    between atoms: N2_3  and  C2_5 
REMARK    2  A    between atoms: C2_5  and  C3_6 
REMARK    3  A    between atoms: C2_5  and  C8_21 
REMARK    4  A    between atoms: C10_27  and  S2_28 
REMARK    5  A    between atoms: S2_28  and  C11_29 
REMARK    6  A    between atoms: C11_29  and  C12_30 
ROOT
HETATM    1  N1  UNL     1      -2.530  -3.660  -0.059  1.00  0.00    -0.172 NA
HETATM    2  C1  UNL     1      -1.919  -2.696   0.158  1.00  0.00     0.182 C 
HETATM    3  N2  UNL     1      -1.179  -1.529   0.446  1.00  0.00    -0.293 N 
ATOM      4  H2  UNL     1      -0.255  -1.649   0.861  1.00  0.00     0.178 HD
ENDROOT
BRANCH   3   5
HETATM    5  C2  UNL     1      -1.619  -0.207   0.204  1.00  0.00     0.076 C 
BRANCH   5   6
HETATM    6  C3  UNL     1      -2.797   0.061  -0.629  1.00  0.00     0.090 A 
HETATM    7  N3  UNL     1      -3.872   0.700  -0.144  1.00  0.00    -0.333 N 
HETATM    8  C4  UNL     1      -5.078   0.874  -0.615  1.00  0.00     0.144 A 
ATOM      9  H3  UNL     1      -3.718   1.133   0.767  1.00  0.00     0.168 HD
HETATM   10  N4  UNL     1      -6.070   1.475  -0.007  1.00  0.00    -0.380 N 
HETATM   11  S1  UNL     1      -5.378   0.165  -2.155  1.00  0.00    -0.034 SA
ATOM     12  H42 UNL     1      -5.892   1.895   0.905  1.00  0.00     0.158 HD
ATOM     13  H41 UNL     1      -7.012   1.611  -0.375  1.00  0.00     0.158 HD
HETATM   14  C5  UNL     1      -3.989  -0.638  -2.746  1.00  0.00     0.107 A 
HETATM   15  N5  UNL     1      -3.637  -1.301  -3.878  1.00  0.00    -0.345 N 
HETATM   16  C7  UNL     1      -2.838  -0.588  -1.886  1.00  0.00     0.096 A 
HETATM   17  C6  UNL     1      -2.329  -1.655  -3.754  1.00  0.00     0.182 A 
ATOM     18  H5  UNL     1      -4.242  -1.498  -4.675  1.00  0.00     0.167 HD
HETATM   19  N6  UNL     1      -1.875  -1.248  -2.615  1.00  0.00    -0.348 N 
ATOM     20  H6  UNL     1      -0.918  -1.398  -2.295  1.00  0.00     0.167 HD
ENDBRANCH   5   6
BRANCH   5  21
HETATM   21  C8  UNL     1      -0.714   0.912   0.565  1.00  0.00     0.184 A 
HETATM   22  N7  UNL     1       0.575   0.621  -0.123  1.00  0.00    -0.360 N 
HETATM   23  C9  UNL     1       1.490   0.660   0.768  1.00  0.00     0.121 A 
ATOM     24  H7  UNL     1       0.703   0.427  -1.116  1.00  0.00     0.162 HD
HETATM   25  N8  UNL     1       2.841   0.450   0.617  1.00  0.00    -0.322 N 
HETATM   26  C14 UNL     1       0.992   0.979   2.000  1.00  0.00     0.098 A 
HETATM   27  C10 UNL     1       3.713   0.540   1.596  1.00  0.00     0.149 A 
ATOM     28  H8  UNL     1       3.187   0.210  -0.312  1.00  0.00     0.169 HD
HETATM   29  N9  UNL     1       3.219   0.868   2.837  1.00  0.00    -0.303 N 
HETATM   30  C13 UNL     1       1.907   1.081   3.042  1.00  0.00     0.263 A 
ATOM     31  H9  UNL     1       3.865   0.952   3.622  1.00  0.00     0.171 HD
HETATM   32  O3  UNL     1       1.516   1.383   4.206  1.00  0.00    -0.267 OA
HETATM   33  C15 UNL     1      -0.318   1.144   1.944  1.00  0.00     0.072 A 
HETATM   34  N10 UNL     1      -1.189   1.508   3.025  1.00  0.00    -0.103 NA
BRANCH  27  35
HETATM   35  S2  UNL     1       5.454   0.115   1.440  1.00  0.00    -0.083 SA
BRANCH  35  36
HETATM   36  C11 UNL     1       5.739  -0.832  -0.074  1.00  0.00     0.195 C 
BRANCH  36  37
HETATM   37  C12 UNL     1       5.570  -0.087  -1.312  1.00  0.00     0.182 C 
HETATM   38  O1  UNL     1       5.478   1.188  -1.263  1.00  0.00    -0.647 OA
HETATM   39  O2  UNL     1       5.509  -0.688  -2.524  1.00  0.00    -0.647 OA
ENDBRANCH  36  37
ENDBRANCH  35  36
ENDBRANCH  27  35
ENDBRANCH   5  21
ENDBRANCH   3   5
TORSDOF 6
