REMARK  7 active torsions:
REMARK  status: ('A' for Active; 'I' for Inactive)
REMARK    1  A    between atoms: C2_2  and  O1_4 
REMARK    2  A    between atoms: O1_4  and  N1_5 
REMARK       I    between atoms: N1_5  and  C4_7 
REMARK       I    between atoms: C4_7  and  N2_9 
REMARK    3  A    between atoms: N2_9  and  N3_11 
REMARK       I    between atoms: N3_11  and  C5_13 
REMARK    4  A    between atoms: C5_13  and  C6_15 
REMARK    5  A    between atoms: C6_15  and  C7_17 
REMARK    6  A    between atoms: C7_17  and  C8_18 
REMARK    7  A    between atoms: N6_24  and  C10_26 
ROOT
HETATM    1  C8  UNL     1      -0.445   0.962   1.013  1.00  0.00     0.149 A 
HETATM    2  N4  UNL     1      -0.245   0.208   2.098  1.00  0.00    -0.280 N 
ATOM      3  H4  UNL     1       0.551   0.282   2.732  1.00  0.00     0.189 HD
HETATM    4  N5  UNL     1      -1.236  -0.643   2.218  1.00  0.00    -0.263 N 
ATOM      5  H5  UNL     1      -1.345  -1.341   2.954  1.00  0.00     0.190 HD
HETATM    6  C9  UNL     1      -2.106  -0.423   1.167  1.00  0.00     0.242 A 
HETATM    7  N6  UNL     1      -3.125  -1.061   1.004  1.00  0.00    -0.328 N 
ATOM      8  H6  UNL     1      -3.138  -1.717   1.785  1.00  0.00     0.165 HD
HETATM    9  O9  UNL     1      -1.563   0.565   0.477  1.00  0.00    -0.263 OA
ENDROOT
BRANCH   1  10
HETATM   10  C7  UNL     1       0.466   2.064   0.516  1.00  0.00     0.175 C 
BRANCH  10  11
HETATM   11  C6  UNL     1       1.106   1.489  -0.690  1.00  0.00     0.225 C 
HETATM   12  O4  UNL     1       0.311   0.986  -1.548  1.00  0.00    -0.287 OA
BRANCH  11  13
HETATM   13  C5  UNL     1       2.511   1.461  -0.945  1.00  0.00     0.306 C 
HETATM   14  N3  UNL     1       3.027   0.924  -2.145  1.00  0.00    -0.259 N 
ATOM     15  H3  UNL     1       2.379   0.566  -2.847  1.00  0.00     0.190 HD
HETATM   16  O3  UNL     1       3.319   1.919  -0.090  1.00  0.00    -0.263 OA
BRANCH  14  17
HETATM   17  N2  UNL     1       4.416   0.869  -2.400  1.00  0.00    -0.247 N 
HETATM   18  C4  UNL     1       5.197  -0.122  -1.720  1.00  0.00     0.359 C 
HETATM   19  N1  UNL     1       6.586  -0.284  -1.885  1.00  0.00    -0.209 N 
HETATM   20  O2  UNL     1       4.610  -0.921  -0.907  1.00  0.00    -0.243 OA
ATOM     21  H1  UNL     1       7.093   0.330  -2.522  1.00  0.00     0.200 HD
ATOM     22  H2  UNL     1       4.853   1.520  -3.053  1.00  0.00     0.192 HD
BRANCH  19  23
HETATM   23  O1  UNL     1       7.257  -1.248  -1.205  1.00  0.00    -0.240 OA
BRANCH  23  24
HETATM   24  C2  UNL     1       8.165  -1.028  -0.195  1.00  0.00     0.063 C 
HETATM   25  C1  UNL     1       7.719  -0.840   1.030  1.00  0.00     0.048 C 
HETATM   26  C3  UNL     1       9.623  -1.008  -0.476  1.00  0.00     0.078 C 
ENDBRANCH  23  24
ENDBRANCH  19  23
ENDBRANCH  14  17
ENDBRANCH  11  13
ENDBRANCH  10  11
ENDBRANCH   1  10
BRANCH   7  27
HETATM   27  C10 UNL     1      -4.263  -1.347   0.307  1.00  0.00     0.229 A 
HETATM   28  C11 UNL     1      -5.512  -1.487   1.173  1.00  0.00     0.112 A 
HETATM   29  C12 UNL     1      -6.100  -0.432   0.273  1.00  0.00     0.228 A 
HETATM   30  O5  UNL     1      -4.902  -0.357  -0.410  1.00  0.00    -0.336 OA
HETATM   31  C13 UNL     1      -7.243  -0.928  -0.543  1.00  0.00     0.270 C 
HETATM   32  C15 UNL     1      -6.463   0.839   0.957  1.00  0.00     0.270 C 
HETATM   33  O6  UNL     1      -7.035  -1.831  -1.394  1.00  0.00    -0.269 OA
HETATM   34  N7  UNL     1      -8.568  -0.440  -0.420  1.00  0.00    -0.276 N 
HETATM   35  C14 UNL     1      -8.818   0.682   0.389  1.00  0.00     0.329 C 
ATOM     36  H7  UNL     1      -9.333  -0.899  -0.914  1.00  0.00     0.173 HD
HETATM   37  O7  UNL     1     -10.011   1.113   0.492  1.00  0.00    -0.247 OA
HETATM   38  N8  UNL     1      -7.767   1.329   1.083  1.00  0.00    -0.276 N 
ATOM     39  H8  UNL     1      -7.958   2.143   1.668  1.00  0.00     0.173 HD
HETATM   40  O8  UNL     1      -5.511   1.510   1.451  1.00  0.00    -0.269 OA
ENDBRANCH   7  27
TORSDOF 7
