REMARK  3 active torsions:
REMARK  status: ('A' for Active; 'I' for Inactive)
REMARK    1  A    between atoms: N2_3  and  C2_5 
REMARK    2  A    between atoms: C2_5  and  N3_7 
REMARK    3  A    between atoms: C6_11  and  N4_12 
ROOT
HETATM    1  N1  UNL     1       5.247   0.032  -1.291  1.00  0.00    -0.172 NA
HETATM    2  C1  UNL     1       4.260   0.089  -0.692  1.00  0.00     0.184 C 
HETATM    3  N2  UNL     1       3.033   0.143   0.032  1.00  0.00    -0.270 N 
ATOM      4  H2  UNL     1       2.989   0.645   0.919  1.00  0.00     0.180 HD
ENDROOT
BRANCH   3   5
HETATM    5  C2  UNL     1       1.888  -0.489  -0.468  1.00  0.00     0.183 C 
HETATM    6  S1  UNL     1       1.984  -1.286  -1.891  1.00  0.00    -0.040 SA
BRANCH   5   7
HETATM    7  N3  UNL     1       0.664  -0.459   0.215  1.00  0.00    -0.356 N 
HETATM    8  C3  UNL     1       0.456   0.202   1.465  1.00  0.00     0.125 C 
HETATM    9  C4  UNL     1      -0.671   1.244   1.346  1.00  0.00     0.022 C 
HETATM   10  C5  UNL     1      -1.876   0.422   0.864  1.00  0.00     0.036 C 
HETATM   11  C6  UNL     1      -1.537  -0.021  -0.536  1.00  0.00     0.201 C 
HETATM   12  C7  UNL     1      -0.508  -1.149  -0.388  1.00  0.00     0.158 C 
BRANCH  11  13
HETATM   13  N4  UNL     1      -2.688  -0.447  -1.283  1.00  0.00    -0.073 N 
ATOM     14  H43 UNL     1      -3.197  -1.176  -0.783  1.00  0.00     0.274 HD
ATOM     15  H42 UNL     1      -3.404   0.279  -1.294  1.00  0.00     0.274 HD
ATOM     16  H41 UNL     1      -2.459  -0.747  -2.231  1.00  0.00     0.274 HD
ENDBRANCH  11  13
ENDBRANCH   5   7
ENDBRANCH   3   5
TORSDOF 3
