REMARK  6 active torsions:
REMARK  status: ('A' for Active; 'I' for Inactive)
REMARK    1  A    between atoms: C2_2  and  O1_3 
REMARK    2  A    between atoms: O1_3  and  C3_4 
REMARK    3  A    between atoms: C3_4  and  C4_6 
REMARK    4  A    between atoms: C7_11  and  C8_12 
REMARK    5  A    between atoms: C14_19  and  N3_20 
REMARK    6  A    between atoms: N4_25  and  C16_26 
ROOT
HETATM    1  C8  UNL     1      -0.919  -0.542  -0.592  1.00  0.00     0.070 A 
HETATM    2  C9  UNL     1      -1.673   0.590  -0.787  1.00  0.00     0.086 A 
HETATM    3  C10 UNL     1      -1.358   1.550  -1.859  1.00  0.00     0.102 C 
HETATM    4  N2  UNL     1      -1.115   2.292  -2.748  1.00  0.00    -0.191 NA
HETATM    5  C11 UNL     1      -2.862   0.592  -0.053  1.00  0.00     0.030 A 
HETATM    6  C12 UNL     1      -3.952   1.373   0.172  1.00  0.00    -0.007 A 
HETATM    7  C13 UNL     1      -4.190   2.750  -0.433  1.00  0.00     0.052 C 
HETATM    8  C14 UNL     1      -4.910   0.891   1.034  1.00  0.00     0.152 A 
HETATM    9  S1  UNL     1      -4.256  -0.623   1.497  1.00  0.00    -0.047 SA
HETATM   10  C15 UNL     1      -2.815  -0.594   0.597  1.00  0.00     0.091 A 
HETATM   11  N4  UNL     1      -1.649  -1.297   0.284  1.00  0.00    -0.339 N 
ENDROOT
BRANCH   1  12
HETATM   12  C7  UNL     1       0.524  -0.749  -0.825  1.00  0.00     0.023 A 
HETATM   13  C5  UNL     1       1.308  -1.846  -0.963  1.00  0.00     0.019 A 
HETATM   14  N1  UNL     1       2.618  -1.616  -0.776  1.00  0.00    -0.354 N 
HETATM   15  C6  UNL     1       0.825  -3.189  -1.454  1.00  0.00     0.069 C 
HETATM   16  C4  UNL     1       2.747  -0.325  -0.507  1.00  0.00     0.115 A 
ATOM     17  H1  UNL     1       3.370  -2.303  -0.831  1.00  0.00     0.166 HD
HETATM   18  C18 UNL     1       1.476   0.266  -0.519  1.00  0.00    -0.015 A 
HETATM   19  C19 UNL     1       1.280   1.646  -0.113  1.00  0.00     0.052 C 
BRANCH  16  20
HETATM   20  C3  UNL     1       4.022   0.329  -0.265  1.00  0.00     0.310 C 
HETATM   21  O2  UNL     1       5.084  -0.378  -0.294  1.00  0.00    -0.258 OA
BRANCH  20  22
HETATM   22  O1  UNL     1       4.202   1.660  -0.007  1.00  0.00    -0.317 OA
BRANCH  22  23
HETATM   23  C2  UNL     1       5.483   2.193   0.211  1.00  0.00     0.175 C 
HETATM   24  C1  UNL     1       6.128   1.516   1.418  1.00  0.00     0.034 C 
ENDBRANCH  22  23
ENDBRANCH  20  22
ENDBRANCH  16  20
ENDBRANCH   1  12
BRANCH  11  25
HETATM   25  C16 UNL     1      -1.485  -2.574   0.885  1.00  0.00     0.125 C 
HETATM   26  C17 UNL     1      -2.303  -3.632   0.148  1.00  0.00     0.027 C 
ENDBRANCH  11  25
BRANCH   8  27
HETATM   27  N3  UNL     1      -6.144   1.474   1.443  1.00  0.00    -0.108 N 
HETATM   28  O3  UNL     1      -6.852   0.854   2.241  1.00  0.00    -0.531 OA
HETATM   29  O4  UNL     1      -6.527   2.675   0.967  1.00  0.00    -0.531 OA
ENDBRANCH   8  27
TORSDOF 6
