REMARK  3 active torsions:
REMARK  status: ('A' for Active; 'I' for Inactive)
REMARK    1  A    between atoms: S1_2  and  C2_3 
REMARK    2  A    between atoms: C2_3  and  N1_4 
REMARK    3  A    between atoms: C3_6  and  C4_7 
ROOT
HETATM    1  C4  UNL     1      -0.631  -0.130   0.023  1.00  0.00    -0.003 C 
HETATM    2  C5  UNL     1      -1.343   0.530  -1.146  1.00  0.00     0.042 C 
HETATM    3  C6  UNL     1      -2.542   1.297  -0.689  1.00  0.00     0.233 C 
HETATM    4  N2  UNL     1      -3.139   0.780   0.516  1.00  0.00    -0.071 N 
ATOM      5  H21 UNL     1      -3.987   0.257   0.299  1.00  0.00     0.277 HD
ATOM      6  H22 UNL     1      -3.540   1.537   1.070  1.00  0.00     0.277 HD
HETATM    7  C7  UNL     1      -2.250  -0.012   1.316  1.00  0.00     0.188 C 
HETATM    8  C8  UNL     1      -0.834   0.585   1.314  1.00  0.00     0.048 C 
HETATM    9  C9  UNL     1      -1.633  -1.167   0.550  1.00  0.00     0.048 C 
ENDROOT
BRANCH   1  10
HETATM   10  C3  UNL     1       0.688  -0.653  -0.316  1.00  0.00     0.070 C 
HETATM   11  N1  UNL     1       1.357  -0.079  -1.223  1.00  0.00    -0.373 N 
ATOM     12  H1  UNL     1       0.902   0.726  -1.654  1.00  0.00     0.164 HD
BRANCH  11  13
HETATM   13  C2  UNL     1       2.634  -0.384  -1.726  1.00  0.00     0.132 C 
BRANCH  13  14
HETATM   14  S1  UNL     1       3.579  -1.270  -0.473  1.00  0.00    -0.129 SA
HETATM   15  C1  UNL     1       3.978  -0.276   0.965  1.00  0.00     0.096 C 
ENDBRANCH  13  14
ENDBRANCH  11  13
ENDBRANCH   1  10
TORSDOF 3
