REMARK  14 active torsions:
REMARK  status: ('A' for Active; 'I' for Inactive)
REMARK    1  A    between atoms: C2_2  and  O2_4 
REMARK    2  A    between atoms: O2_4  and  C3_5 
REMARK    3  A    between atoms: C3_5  and  C4_6 
REMARK    4  A    between atoms: C4_6  and  C5_7 
REMARK    5  A    between atoms: C5_7  and  O3_8 
REMARK    6  A    between atoms: O3_8  and  C6_9 
REMARK    7  A    between atoms: C7_10  and  O4_11 
REMARK    8  A    between atoms: O4_11  and  C8_12 
REMARK    9  A    between atoms: C15_21  and  O7_22 
REMARK   10  A    between atoms: C17_26  and  O9_27 
REMARK   11  A    between atoms: C18_29  and  O10_30 
REMARK   12  A    between atoms: C19_36  and  O13_37 
REMARK   13  A    between atoms: O13_37  and  C20_38 
REMARK   14  A    between atoms: C23_42  and  N2_43 
ROOT
HETATM    1  O3  UNL     1       0.479   2.649  -1.343  1.00  0.00    -0.373 OA
ENDROOT
BRANCH   1   2
HETATM    2  C5  UNL     1      -0.821   2.566  -1.399  1.00  0.00     0.233 C 
BRANCH   2   3
HETATM    3  C4  UNL     1      -1.634   1.675  -0.487  1.00  0.00     0.203 C 
HETATM    4  N1  UNL     1      -1.475   1.916   0.907  1.00  0.00    -0.231 N 
HETATM    5  O11 UNL     1      -0.718   1.096   1.602  1.00  0.00    -0.110 OA
ATOM      6  H1  UNL     1      -1.938   2.706   1.356  1.00  0.00     0.194 HD
HETATM    7  O12 UNL     1      -0.645  -0.143   1.261  1.00  0.00    -0.156 OA
HETATM    8  C19 UNL     1      -1.640  -0.489   0.370  1.00  0.00     0.453 C 
HETATM    9  O15 UNL     1      -1.488   0.319  -0.741  1.00  0.00    -0.300 OA
BRANCH   3  10
HETATM   10  C3  UNL     1      -3.133   1.942  -0.882  1.00  0.00     0.244 C 
BRANCH  10  11
HETATM   11  O2  UNL     1      -4.013   1.136  -0.201  1.00  0.00    -0.317 OA
BRANCH  11  12
HETATM   12  C2  UNL     1      -5.366   1.202  -0.391  1.00  0.00     0.254 C 
HETATM   13  C1  UNL     1      -6.327   0.318   0.356  1.00  0.00     0.126 C 
HETATM   14  O1  UNL     1      -5.812   2.035  -1.223  1.00  0.00    -0.266 OA
ENDBRANCH  11  12
ENDBRANCH  10  11
ENDBRANCH   3  10
BRANCH   8  15
HETATM   15  O13 UNL     1      -1.653  -1.808  -0.023  1.00  0.00    -0.304 OA
BRANCH  15  16
HETATM   16  C20 UNL     1      -2.793  -2.478   0.353  1.00  0.00     0.295 C 
HETATM   17  O14 UNL     1      -3.459  -3.063  -0.749  1.00  0.00    -0.359 OA
HETATM   18  C21 UNL     1      -4.384  -3.924  -0.142  1.00  0.00     0.173 C 
HETATM   19  C22 UNL     1      -3.742  -4.468   1.108  1.00  0.00     0.064 C 
HETATM   20  C23 UNL     1      -2.407  -3.729   1.108  1.00  0.00     0.240 C 
BRANCH  20  21
HETATM   21  N2  UNL     1      -1.501  -4.493   0.239  1.00  0.00    -0.070 N 
ATOM     22  H23 UNL     1      -1.897  -4.686  -0.681  1.00  0.00     0.274 HD
ATOM     23  H22 UNL     1      -0.697  -3.951  -0.076  1.00  0.00     0.274 HD
ATOM     24  H21 UNL     1      -1.240  -5.337   0.749  1.00  0.00     0.274 HD
ENDBRANCH  20  21
ENDBRANCH  15  16
ENDBRANCH   8  15
ENDBRANCH   2   3
ENDBRANCH   1   2
BRANCH   1  25
HETATM   25  C6  UNL     1       1.239   3.091  -0.349  1.00  0.00     0.208 C 
HETATM   26  C7  UNL     1       2.392   2.241   0.115  1.00  0.00     0.294 C 
HETATM   27  O8  UNL     1       2.609   2.592   1.469  1.00  0.00    -0.356 OA
HETATM   28  C16 UNL     1       2.540   3.958   1.670  1.00  0.00     0.205 C 
HETATM   29  C17 UNL     1       2.950   4.708   0.423  1.00  0.00     0.173 C 
HETATM   30  C18 UNL     1       1.913   4.452  -0.644  1.00  0.00     0.182 C 
BRANCH  26  31
HETATM   31  O4  UNL     1       2.278   0.897  -0.094  1.00  0.00    -0.328 OA
BRANCH  31  32
HETATM   32  C8  UNL     1       3.247   0.336  -0.867  1.00  0.00     0.271 C 
HETATM   33  C9  UNL     1       4.117  -0.586  -0.135  1.00  0.00     0.102 C 
HETATM   34  C10 UNL     1       3.752  -1.918   0.378  1.00  0.00     0.092 C 
HETATM   35  C11 UNL     1       3.555  -1.924   1.853  1.00  0.00     0.049 C 
HETATM   36  O5  UNL     1       4.472  -3.057  -0.038  1.00  0.00    -0.373 OA
HETATM   37  C15 UNL     1       2.382  -2.166  -0.302  1.00  0.00     0.185 C 
HETATM   38  C12 UNL     1       3.728  -3.602  -1.257  1.00  0.00     0.208 C 
HETATM   39  C13 UNL     1       3.309  -2.328  -1.610  1.00  0.00    -0.003 C 
HETATM   40  C14 UNL     1       3.250  -1.438  -2.491  1.00  0.00     0.145 C 
HETATM   41  O6  UNL     1       2.630  -0.122  -2.141  1.00  0.00    -0.332 OA
BRANCH  37  42
HETATM   42  O7  UNL     1       1.843  -3.376  -0.024  1.00  0.00    -0.388 OA
ATOM     43  H7  UNL     1       1.003  -3.528  -0.441  1.00  0.00     0.210 HD
ENDBRANCH  37  42
ENDBRANCH  31  32
ENDBRANCH  26  31
BRANCH  29  44
HETATM   44  O9  UNL     1       2.987   6.088   0.652  1.00  0.00    -0.391 OA
ATOM     45  H9  UNL     1       3.245   6.559  -0.132  1.00  0.00     0.210 HD
ENDBRANCH  29  44
BRANCH  30  46
HETATM   46  O10 UNL     1       0.931   5.427  -0.476  1.00  0.00    -0.390 OA
ATOM     47  H10 UNL     1       1.345   6.263  -0.657  1.00  0.00     0.210 HD
ENDBRANCH  30  46
ENDBRANCH   1  25
TORSDOF 14
