REMARK  17 active torsions:
REMARK  status: ('A' for Active; 'I' for Inactive)
REMARK    1  A    between atoms: C2_2  and  C3_3 
REMARK    2  A    between atoms: C3_3  and  O2_5 
REMARK    3  A    between atoms: O2_5  and  C4_6 
REMARK    4  A    between atoms: C5_8  and  N1_9 
REMARK    5  A    between atoms: C5_8  and  O4_13 
REMARK    6  A    between atoms: C6_15  and  O5_16 
REMARK    7  A    between atoms: O5_16  and  C7_17 
REMARK    8  A    between atoms: C8_22  and  O6_23 
REMARK    9  A    between atoms: O6_23  and  C9_24 
REMARK   10  A    between atoms: C11_27  and  O8_28 
REMARK   11  A    between atoms: O8_28  and  C12_29 
REMARK   12  A    between atoms: C15_33  and  O10_34 
REMARK   13  A    between atoms: O10_34  and  C16_35 
REMARK   14  A    between atoms: C18_38  and  O12_39 
REMARK   15  A    between atoms: O12_39  and  C19_40 
REMARK   16  A    between atoms: C21_43  and  O14_44 
REMARK   17  A    between atoms: O14_44  and  C22_45 
ROOT
HETATM    1  C4  UNL     1      -2.339   1.063  -0.420  1.00  0.00     0.306 C 
HETATM    2  O3  UNL     1      -3.711   1.012  -0.639  1.00  0.00    -0.297 OA
HETATM    3  C5  UNL     1      -4.420   0.549   0.424  1.00  0.00     0.365 C 
HETATM    4  C6  UNL     1      -3.996  -0.768   0.981  1.00  0.00     0.256 C 
HETATM    5  C8  UNL     1      -2.556  -1.112   0.843  1.00  0.00     0.202 C 
HETATM    6  C11 UNL     1      -1.727  -0.212  -0.022  1.00  0.00     0.212 C 
ENDROOT
BRANCH   6   7
HETATM    7  O8  UNL     1      -0.483   0.057   0.554  1.00  0.00    -0.346 OA
BRANCH   7   8
HETATM    8  C12 UNL     1       0.583  -0.478  -0.158  1.00  0.00     0.293 C 
HETATM    9  O9  UNL     1       1.144  -1.485   0.637  1.00  0.00    -0.351 OA
HETATM   10  C13 UNL     1       2.332  -1.976   0.098  1.00  0.00     0.152 C 
HETATM   11  C14 UNL     1       2.765  -3.110   1.004  1.00  0.00     0.042 C 
HETATM   12  C15 UNL     1       3.406  -0.914  -0.013  1.00  0.00     0.192 C 
HETATM   13  C18 UNL     1       2.762   0.378   0.440  1.00  0.00     0.198 C 
HETATM   14  C21 UNL     1       1.590   0.606  -0.501  1.00  0.00     0.219 C 
BRANCH  12  15
HETATM   15  O10 UNL     1       4.589  -1.224   0.660  1.00  0.00    -0.311 OA
BRANCH  15  16
HETATM   16  C16 UNL     1       5.822  -1.369  -0.005  1.00  0.00     0.255 C 
HETATM   17  C17 UNL     1       7.083  -1.698   0.697  1.00  0.00     0.126 C 
HETATM   18  O11 UNL     1       5.875  -1.216  -1.260  1.00  0.00    -0.266 OA
ENDBRANCH  15  16
ENDBRANCH  12  15
BRANCH  13  19
HETATM   19  O12 UNL     1       3.616   1.439   0.609  1.00  0.00    -0.311 OA
BRANCH  19  20
HETATM   20  C19 UNL     1       3.902   2.106   1.771  1.00  0.00     0.255 C 
HETATM   21  C20 UNL     1       4.847   3.248   1.847  1.00  0.00     0.126 C 
HETATM   22  O13 UNL     1       3.342   1.734   2.819  1.00  0.00    -0.266 OA
ENDBRANCH  19  20
ENDBRANCH  13  19
BRANCH  14  23
HETATM   23  O14 UNL     1       1.988   0.353  -1.830  1.00  0.00    -0.308 OA
BRANCH  23  24
HETATM   24  C22 UNL     1       1.923   1.294  -2.813  1.00  0.00     0.255 C 
HETATM   25  C23 UNL     1       2.369   0.924  -4.182  1.00  0.00     0.126 C 
HETATM   26  O15 UNL     1       1.492   2.442  -2.537  1.00  0.00    -0.266 OA
ENDBRANCH  23  24
ENDBRANCH  14  23
ENDBRANCH   7   8
ENDBRANCH   6   7
BRANCH   1  27
HETATM   27  O2  UNL     1      -2.139   2.103   0.521  1.00  0.00    -0.287 OA
BRANCH  27  28
HETATM   28  C3  UNL     1      -1.622   3.331   0.224  1.00  0.00     0.260 C 
HETATM   29  O1  UNL     1      -1.291   3.597  -0.962  1.00  0.00    -0.265 OA
BRANCH  28  30
HETATM   30  C2  UNL     1      -1.417   4.412   1.241  1.00  0.00     0.107 C 
HETATM   31  C1  UNL     1      -2.123   5.682   0.752  1.00  0.00     0.015 C 
ENDBRANCH  28  30
ENDBRANCH  27  28
ENDBRANCH   1  27
BRANCH   5  32
HETATM   32  O6  UNL     1      -2.485  -2.468   0.419  1.00  0.00    -0.311 OA
BRANCH  32  33
HETATM   33  C9  UNL     1      -1.909  -3.490   1.112  1.00  0.00     0.255 C 
HETATM   34  C10 UNL     1      -1.875  -4.897   0.598  1.00  0.00     0.126 C 
HETATM   35  O7  UNL     1      -1.387  -3.238   2.224  1.00  0.00    -0.266 OA
ENDBRANCH  32  33
ENDBRANCH   5  32
BRANCH   4  36
HETATM   36  O5  UNL     1      -4.875  -1.834   0.642  1.00  0.00    -0.309 OA
BRANCH  36  37
HETATM   37  C7  UNL     1      -5.182  -2.259  -0.611  1.00  0.00     0.225 C 
HETATM   38  N2  UNL     1      -4.590  -1.734  -1.599  1.00  0.00    -0.368 N 
ATOM     39  H22 UNL     1      -3.889  -1.002  -1.480  1.00  0.00     0.159 HD
ATOM     40  H21 UNL     1      -4.821  -2.053  -2.540  1.00  0.00     0.159 HD
HETATM   41  N3  UNL     1      -6.156  -3.276  -0.777  1.00  0.00    -0.057 NA
ENDBRANCH  36  37
ENDBRANCH   4  36
BRANCH   3  42
HETATM   42  N1  UNL     1      -4.390   1.619   1.439  1.00  0.00    -0.018 N 
ATOM     43  H13 UNL     1      -3.446   1.921   1.682  1.00  0.00     0.281 HD
ATOM     44  H12 UNL     1      -4.723   2.518   1.090  1.00  0.00     0.281 HD
ATOM     45  H11 UNL     1      -4.922   1.272   2.237  1.00  0.00     0.281 HD
ENDBRANCH   3  42
BRANCH   3  46
HETATM   46  O4  UNL     1      -5.787   0.479   0.059  1.00  0.00    -0.342 OA
ATOM     47  H4  UNL     1      -6.283   0.155   0.802  1.00  0.00     0.215 HD
ENDBRANCH   3  46
TORSDOF 17
