REMARK  16 active torsions:
REMARK  status: ('A' for Active; 'I' for Inactive)
REMARK    1  A    between atoms: C2_2  and  O2_4 
REMARK    2  A    between atoms: O2_4  and  C3_5 
REMARK    3  A    between atoms: C4_6  and  O3_7 
REMARK    4  A    between atoms: O3_7  and  C5_8 
REMARK    5  A    between atoms: C7_11  and  O5_12 
REMARK    6  A    between atoms: O5_12  and  C8_13 
REMARK    7  A    between atoms: C10_16  and  N1_17 
REMARK    8  A    between atoms: N1_17  and  O7_18 
REMARK    9  A    between atoms: N1_17  and  C11_20 
REMARK   10  A    between atoms: C13_22  and  O8_23 
REMARK   11  A    between atoms: O8_23  and  C14_24 
REMARK   12  A    between atoms: C16_33  and  N5_34 
REMARK   13  A    between atoms: C17_39  and  O10_40 
REMARK   14  A    between atoms: O10_40  and  C18_41 
REMARK   15  A    between atoms: C20_44  and  O12_45 
REMARK   16  A    between atoms: O12_45  and  C21_46 
ROOT
HETATM    1  C3  UNL     1      -2.628  -0.173  -0.071  1.00  0.00     0.196 C 
HETATM    2  C4  UNL     1      -2.005   1.187  -0.096  1.00  0.00     0.196 C 
HETATM    3  C7  UNL     1      -0.697   1.192   0.676  1.00  0.00     0.192 C 
HETATM    4  C10 UNL     1       0.199   0.143   0.052  1.00  0.00     0.180 C 
HETATM    5  C17 UNL     1      -0.471  -1.187   0.361  1.00  0.00     0.192 C 
HETATM    6  C20 UNL     1      -1.676  -1.265  -0.535  1.00  0.00     0.196 C 
ENDROOT
BRANCH   4   7
HETATM    7  N1  UNL     1       1.553   0.209   0.507  1.00  0.00    -0.234 N 
BRANCH   7   8
HETATM    8  O7  UNL     1       1.874   0.058   1.797  1.00  0.00    -0.285 OA
ATOM      9  H7  UNL     1       2.774   0.102   2.099  1.00  0.00     0.245 HD
ENDBRANCH   7   8
BRANCH   7  10
HETATM   10  C11 UNL     1       2.605   0.441  -0.422  1.00  0.00     0.146 C 
HETATM   11  C12 UNL     1       3.886   0.497   0.044  1.00  0.00     0.094 C 
HETATM   12  C13 UNL     1       5.078   0.390  -0.638  1.00  0.00     0.150 C 
HETATM   13  C15 UNL     1       5.248   0.786  -1.970  1.00  0.00     0.293 C 
HETATM   14  O9  UNL     1       6.439   0.912  -2.321  1.00  0.00    -0.265 OA
HETATM   15  N4  UNL     1       4.297   1.042  -2.903  1.00  0.00    -0.154 N 
HETATM   16  C16 UNL     1       2.986   0.773  -2.830  1.00  0.00     0.680 C 
ATOM     17  H4  UNL     1       4.617   1.492  -3.761  1.00  0.00     0.187 HD
HETATM   18  N6  UNL     1       2.250   0.593  -1.731  1.00  0.00    -0.175 N 
ATOM     19  H6  UNL     1       1.244   0.564  -1.899  1.00  0.00     0.186 HD
BRANCH  12  20
HETATM   20  O8  UNL     1       6.195  -0.121  -0.035  1.00  0.00    -0.276 OA
BRANCH  20  21
HETATM   21  C14 UNL     1       6.217  -0.567   1.261  1.00  0.00     0.230 C 
HETATM   22  N2  UNL     1       5.341  -1.471   1.599  1.00  0.00    -0.368 N 
ATOM     23  H22 UNL     1       4.697  -1.785   0.873  1.00  0.00     0.159 HD
ATOM     24  H21 UNL     1       5.357  -1.803   2.563  1.00  0.00     0.159 HD
HETATM   25  N3  UNL     1       7.113  -0.131   2.270  1.00  0.00    -0.056 NA
ENDBRANCH  20  21
ENDBRANCH  12  20
BRANCH  16  26
HETATM   26  N5  UNL     1       2.407   0.687  -3.986  1.00  0.00    -0.234 N 
ATOM     27  H52 UNL     1       2.969   0.825  -4.826  1.00  0.00     0.174 HD
ATOM     28  H51 UNL     1       1.409   0.482  -3.930  1.00  0.00     0.174 HD
ENDBRANCH  16  26
ENDBRANCH   7  10
ENDBRANCH   4   7
BRANCH   3  29
HETATM   29  O5  UNL     1      -0.122   2.437   0.798  1.00  0.00    -0.311 OA
BRANCH  29  30
HETATM   30  C8  UNL     1       0.116   3.130   1.959  1.00  0.00     0.255 C 
HETATM   31  C9  UNL     1       0.751   4.470   1.882  1.00  0.00     0.126 C 
HETATM   32  O6  UNL     1      -0.221   2.587   3.042  1.00  0.00    -0.266 OA
ENDBRANCH  29  30
ENDBRANCH   3  29
BRANCH   5  33
HETATM   33  O10 UNL     1       0.372  -2.270   0.328  1.00  0.00    -0.311 OA
BRANCH  33  34
HETATM   34  C18 UNL     1       0.637  -3.083   1.434  1.00  0.00     0.255 C 
HETATM   35  C19 UNL     1       1.539  -4.242   1.399  1.00  0.00     0.126 C 
HETATM   36  O11 UNL     1       0.034  -2.739   2.476  1.00  0.00    -0.266 OA
ENDBRANCH  33  34
ENDBRANCH   5  33
BRANCH   2  37
HETATM   37  O3  UNL     1      -2.877   2.074   0.581  1.00  0.00    -0.311 OA
BRANCH  37  38
HETATM   38  C5  UNL     1      -3.457   3.170  -0.016  1.00  0.00     0.255 C 
HETATM   39  C6  UNL     1      -4.358   4.006   0.848  1.00  0.00     0.126 C 
HETATM   40  O4  UNL     1      -3.230   3.429  -1.206  1.00  0.00    -0.266 OA
ENDBRANCH  37  38
ENDBRANCH   2  37
BRANCH   6  41
HETATM   41  O12 UNL     1      -2.382  -2.495  -0.354  1.00  0.00    -0.311 OA
BRANCH  41  42
HETATM   42  C21 UNL     1      -2.643  -3.332  -1.411  1.00  0.00     0.255 C 
HETATM   43  C22 UNL     1      -3.372  -4.592  -1.193  1.00  0.00     0.126 C 
HETATM   44  O13 UNL     1      -2.266  -3.030  -2.557  1.00  0.00    -0.266 OA
ENDBRANCH  41  42
ENDBRANCH   6  41
BRANCH   1  45
HETATM   45  O2  UNL     1      -3.802  -0.140  -0.851  1.00  0.00    -0.311 OA
BRANCH  45  46
HETATM   46  C2  UNL     1      -5.010  -0.396  -0.215  1.00  0.00     0.255 C 
HETATM   47  C1  UNL     1      -6.301  -0.388  -0.933  1.00  0.00     0.126 C 
HETATM   48  O1  UNL     1      -5.054  -0.652   1.031  1.00  0.00    -0.266 OA
ENDBRANCH  45  46
ENDBRANCH   1  45
TORSDOF 16
