REMARK  3 active torsions:
REMARK  status: ('A' for Active; 'I' for Inactive)
REMARK    1  A    between atoms: C6_6  and  C8_8 
REMARK    2  A    between atoms: C11_15  and  C12_16 
REMARK    3  A    between atoms: C12_16  and  N1_17 
ROOT
HETATM    1  C1  UNL     1       2.475  -0.769  -1.135  1.00  0.00     0.016 C 
HETATM    2  C2  UNL     1       1.562  -0.469   0.030  1.00  0.00    -0.029 C 
HETATM    3  C3  UNL     1       2.397  -0.223   1.266  1.00  0.00     0.016 C 
HETATM    4  C4  UNL     1       0.631  -1.658   0.198  1.00  0.00     0.011 C 
HETATM    5  C5  UNL     1      -0.566  -1.199   0.961  1.00  0.00     0.022 C 
HETATM    6  C6  UNL     1      -1.492  -0.310   0.155  1.00  0.00     0.091 C 
HETATM    7  C7  UNL     1      -2.294  -1.239  -0.759  1.00  0.00     0.028 C 
HETATM    8  C9  UNL     1      -0.699   0.670  -0.626  1.00  0.00     0.131 C 
HETATM    9  C10 UNL     1      -1.249   2.061  -0.655  1.00  0.00     0.054 C 
HETATM   10  F4  UNL     1      -0.657   0.238  -1.961  1.00  0.00    -0.241 F 
HETATM   11  C11 UNL     1       0.719   0.715  -0.187  1.00  0.00     0.122 C 
ENDROOT
BRANCH   6  12
HETATM   12  C8  UNL     1      -2.459   0.280   1.134  1.00  0.00     0.398 C 
HETATM   13  F1  UNL     1      -3.128  -0.809   1.720  1.00  0.00    -0.170 F 
HETATM   14  F2  UNL     1      -3.446   1.038   0.553  1.00  0.00    -0.170 F 
HETATM   15  F3  UNL     1      -1.835   0.926   2.186  1.00  0.00    -0.170 F 
ENDBRANCH   6  12
BRANCH  11  16
HETATM   16  C12 UNL     1       1.306   1.883   0.032  1.00  0.00    -0.069 C 
BRANCH  16  17
HETATM   17  N1  UNL     1       1.904   3.006  -0.159  1.00  0.00    -0.369 N 
ATOM     18  H12 UNL     1       1.946   2.923  -1.175  1.00  0.00     0.165 HD
ATOM     19  H11 UNL     1       2.356   3.905   0.010  1.00  0.00     0.165 HD
ENDBRANCH  16  17
ENDBRANCH  11  16
TORSDOF 3
