REMARK  1 active torsions:
REMARK  status: ('A' for Active; 'I' for Inactive)
REMARK    1  A    between atoms: C2_2  and  N1_5 
ROOT
HETATM    1  N1  UNL     1       0.602   0.094   0.350  1.00  0.00    -0.286 N 
HETATM    2  C4  UNL     1       0.069  -0.763   1.354  1.00  0.00     0.223 C 
HETATM    3  C5  UNL     1      -1.385  -0.308   1.342  1.00  0.00     0.283 C 
HETATM    4  F2  UNL     1      -2.204  -1.348   1.729  1.00  0.00    -0.202 F 
HETATM    5  F3  UNL     1      -1.529   0.756   2.225  1.00  0.00    -0.202 F 
HETATM    6  C6  UNL     1      -1.572   0.111  -0.083  1.00  0.00     0.110 C 
HETATM    7  C7  UNL     1      -2.388  -0.950  -0.763  1.00  0.00     0.041 C 
HETATM    8  C8  UNL     1      -2.219   1.484  -0.149  1.00  0.00     0.041 C 
HETATM    9  N2  UNL     1      -0.258   0.174  -0.706  1.00  0.00    -0.125 NA
ENDROOT
BRANCH   1  10
HETATM   10  C2  UNL     1       1.986   0.026   0.109  1.00  0.00     0.181 C 
HETATM   11  C1  UNL     1       2.478   1.429  -0.228  1.00  0.00     0.077 C 
HETATM   12  C3  UNL     1       2.452  -0.983  -0.892  1.00  0.00     0.077 C 
HETATM   13  F1  UNL     1       2.596  -0.328   1.312  1.00  0.00    -0.219 F 
ENDBRANCH   1  10
TORSDOF 1
