REMARK  5 active torsions:
REMARK  status: ('A' for Active; 'I' for Inactive)
REMARK    1  A    between atoms: O1_2  and  C2_3 
REMARK    2  A    between atoms: C2_3  and  C3_4 
REMARK    3  A    between atoms: C6_9  and  C7_10 
REMARK    4  A    between atoms: C7_10  and  C8_15 
REMARK    5  A    between atoms: N2_11  and  O2_13 
ROOT
HETATM    1  C3  UNL     1      -2.659  -0.075  -0.419  1.00  0.00     0.017 A 
HETATM    2  C4  UNL     1      -1.416  -0.119   0.167  1.00  0.00     0.045 A 
HETATM    3  C5  UNL     1      -0.235  -0.371  -0.551  1.00  0.00     0.060 A 
HETATM    4  N1  UNL     1       0.953  -0.397   0.089  1.00  0.00    -0.352 N 
ATOM      5  H1  UNL     1       0.973  -0.231   1.095  1.00  0.00     0.166 HD
HETATM    6  C6  UNL     1       2.111  -0.634  -0.551  1.00  0.00     0.073 A 
HETATM    7  C14 UNL     1       2.055  -0.853  -1.903  1.00  0.00     0.120 A 
HETATM    8  N3  UNL     1       0.878  -0.835  -2.587  1.00  0.00    -0.362 N 
ATOM      9  H3  UNL     1       0.858  -1.000  -3.593  1.00  0.00     0.165 HD
HETATM   10  C15 UNL     1      -0.262  -0.594  -1.905  1.00  0.00     0.062 A 
HETATM   11  C16 UNL     1      -1.489  -0.558  -2.513  1.00  0.00     0.074 A 
HETATM   12  C17 UNL     1      -2.655  -0.307  -1.794  1.00  0.00     0.128 A 
HETATM   13  F1  UNL     1      -3.803  -0.329  -2.482  1.00  0.00    -0.205 F 
ENDROOT
BRANCH   6  14
HETATM   14  C7  UNL     1       3.391  -0.679   0.132  1.00  0.00     0.064 C 
HETATM   15  N2  UNL     1       3.366  -0.534   1.430  1.00  0.00    -0.271 N 
ATOM     16  H2  UNL     1       4.258  -0.563   1.923  1.00  0.00     0.194 HD
BRANCH  15  17
HETATM   17  O2  UNL     1       2.253  -0.349   2.170  1.00  0.00    -0.290 OA
ATOM     18  H2  UNL     1       2.235  -0.244   3.114  1.00  0.00     0.244 HD
ENDBRANCH  15  17
BRANCH  14  19
HETATM   19  C8  UNL     1       4.692  -0.851  -0.575  1.00  0.00     0.040 C 
HETATM   20  C9  UNL     1       4.945   0.287  -1.466  1.00  0.00     0.011 C 
HETATM   21  C10 UNL     1       6.037   1.227  -1.066  1.00  0.00     0.001 C 
HETATM   22  C11 UNL     1       7.231   0.404  -0.631  1.00  0.00     0.000 C 
HETATM   23  C12 UNL     1       6.784  -0.217   0.689  1.00  0.00     0.001 C 
HETATM   24  C13 UNL     1       5.757  -1.237   0.386  1.00  0.00     0.011 C 
ENDBRANCH  14  19
ENDBRANCH   6  14
BRANCH   1  25
HETATM   25  C2  UNL     1      -3.911   0.152   0.330  1.00  0.00     0.090 C 
HETATM   26  C18 UNL     1      -4.777  -1.127   0.329  1.00  0.00     0.043 C 
HETATM   27  C19 UNL     1      -5.859  -0.873   1.360  1.00  0.00     0.003 C 
HETATM   28  C20 UNL     1      -6.815   0.131   0.742  1.00  0.00     0.000 C 
HETATM   29  C21 UNL     1      -6.219   0.775  -0.491  1.00  0.00     0.003 C 
HETATM   30  C22 UNL     1      -4.807   1.214  -0.284  1.00  0.00     0.043 C 
BRANCH  25  31
HETATM   31  O1  UNL     1      -3.689   0.394   1.658  1.00  0.00    -0.380 OA
HETATM   32  C1  UNL     1      -3.166   1.572   2.057  1.00  0.00     0.203 C 
ENDBRANCH  25  31
ENDBRANCH   1  25
TORSDOF 5
