REMARK  2 active torsions:
REMARK  status: ('A' for Active; 'I' for Inactive)
REMARK    1  A    between atoms: C2_2  and  C3_3 
REMARK    2  A    between atoms: C11_14  and  C12_15 
ROOT
HETATM    1  C3  UNL     1      -3.469   0.571  -0.256  1.00  0.00     0.126 C 
HETATM    2  C4  UNL     1      -3.661   2.077  -0.013  1.00  0.00     0.070 C 
HETATM    3  N1  UNL     1      -2.159   0.237   0.147  1.00  0.00    -0.383 N 
ATOM      4  H1  UNL     1      -1.666   0.790   0.848  1.00  0.00     0.157 HD
HETATM    5  C5  UNL     1      -1.551  -0.892  -0.454  1.00  0.00     0.033 C 
HETATM    6  C6  UNL     1      -1.396  -1.948   0.655  1.00  0.00     0.031 C 
HETATM    7  C7  UNL     1      -0.734  -1.193   1.799  1.00  0.00     0.006 C 
HETATM    8  C8  UNL     1       0.682  -0.986   1.380  1.00  0.00     0.043 C 
HETATM    9  C9  UNL     1       0.875  -0.365   0.055  1.00  0.00     0.120 C 
HETATM   10  C10 UNL     1       1.234   1.113   0.282  1.00  0.00     0.212 C 
HETATM   11  O1  UNL     1       2.570   1.313  -0.080  1.00  0.00    -0.351 OA
HETATM   12  C11 UNL     1       3.387   0.487   0.684  1.00  0.00     0.330 C 
HETATM   13  O2  UNL     1       2.954  -0.819   0.493  1.00  0.00    -0.202 OA
HETATM   14  O3  UNL     1       2.070  -0.908  -0.484  1.00  0.00    -0.224 OA
HETATM   15  C18 UNL     1      -0.183  -0.497  -0.944  1.00  0.00     0.074 C 
HETATM   16  C19 UNL     1      -2.296  -1.543  -1.558  1.00  0.00     0.057 C 
HETATM   17  C20 UNL     1      -3.635  -0.960  -1.872  1.00  0.00     0.173 C 
HETATM   18  O4  UNL     1      -3.756   0.372  -1.590  1.00  0.00    -0.362 OA
ENDROOT
BRANCH  12  19
HETATM   19  C12 UNL     1       4.783   0.591   0.262  1.00  0.00     0.001 A 
HETATM   20  C13 UNL     1       5.553  -0.536   0.100  1.00  0.00     0.012 A 
HETATM   21  C14 UNL     1       6.887  -0.452  -0.303  1.00  0.00     0.002 A 
HETATM   22  C15 UNL     1       7.446   0.788  -0.542  1.00  0.00     0.024 A 
HETATM   23  C16 UNL     1       6.685   1.930  -0.383  1.00  0.00     0.034 A 
HETATM   24 CL1  UNL     1       7.400   3.494  -0.689  1.00  0.00    -0.084 Cl
HETATM   25  C17 UNL     1       5.358   1.813   0.019  1.00  0.00     0.036 A 
ENDBRANCH  12  19
BRANCH   1  26
HETATM   26  C2  UNL     1      -4.465  -0.112   0.661  1.00  0.00     0.056 C 
HETATM   27  C1  UNL     1      -5.887   0.299   0.347  1.00  0.00     0.010 C 
ENDBRANCH   1  26
TORSDOF 2
