REMARK  4 active torsions:
REMARK  status: ('A' for Active; 'I' for Inactive)
REMARK    1  A    between atoms: O1_2  and  C2_3 
REMARK    2  A    between atoms: C5_6  and  C6_7 
REMARK    3  A    between atoms: C8_10  and  O3_11 
REMARK    4  A    between atoms: C16_22  and  O5_23 
ROOT
HETATM    1  C2  UNL     1       2.610   0.307  -0.086  1.00  0.00     0.103 A 
HETATM    2  C3  UNL     1       1.740  -0.717   0.277  1.00  0.00     0.053 A 
HETATM    3  C4  UNL     1       0.368  -0.594   0.212  1.00  0.00    -0.002 A 
HETATM    4  C5  UNL     1      -0.456  -1.646   0.586  1.00  0.00     0.055 A 
HETATM    5  C8  UNL     1      -1.829  -1.450   0.494  1.00  0.00     0.093 A 
HETATM    6  C9  UNL     1      -2.351  -0.248   0.046  1.00  0.00     0.035 A 
HETATM    7  C10 UNL     1      -3.654   0.193  -0.134  1.00  0.00     0.049 A 
HETATM    8  C11 UNL     1      -3.535   1.474  -0.601  1.00  0.00     0.051 A 
HETATM    9  C12 UNL     1      -4.643   2.383  -0.950  1.00  0.00     0.077 C 
HETATM   10  O4  UNL     1      -2.262   1.790  -0.699  1.00  0.00    -0.314 OA
HETATM   11  C13 UNL     1      -1.518   0.769  -0.314  1.00  0.00     0.101 A 
HETATM   12  C14 UNL     1      -0.154   0.625  -0.242  1.00  0.00     0.030 A 
HETATM   13  C15 UNL     1       0.689   1.649  -0.605  1.00  0.00     0.061 A 
HETATM   14 BR1  UNL     1      -0.079   3.281  -1.213  1.00  0.00    -0.047 Br
HETATM   15  C16 UNL     1       2.069   1.489  -0.526  1.00  0.00     0.119 A 
ENDROOT
BRANCH   4  16
HETATM   16  C6  UNL     1       0.013  -2.911   1.056  1.00  0.00     0.159 C 
HETATM   17  C7  UNL     1      -0.911  -4.019   1.448  1.00  0.00     0.097 C 
HETATM   18  O2  UNL     1       1.218  -3.196   1.177  1.00  0.00    -0.293 OA
ENDBRANCH   4  16
BRANCH   5  19
HETATM   19  O3  UNL     1      -2.680  -2.456   0.850  1.00  0.00    -0.359 OA
ATOM     20  H3  UNL     1      -3.618  -2.322   0.787  1.00  0.00     0.217 HD
ENDBRANCH   5  19
BRANCH   1  21
HETATM   21  O1  UNL     1       3.947   0.133  -0.003  1.00  0.00    -0.353 OA
HETATM   22  C1  UNL     1       4.629  -1.004   0.424  1.00  0.00     0.210 C 
ENDBRANCH   1  21
BRANCH  15  23
HETATM   23  O5  UNL     1       2.842   2.566  -0.910  1.00  0.00    -0.352 OA
HETATM   24  C17 UNL     1       3.245   3.564   0.011  1.00  0.00     0.210 C 
ENDBRANCH  15  23
TORSDOF 4
