REMARK  2 active torsions:
REMARK  status: ('A' for Active; 'I' for Inactive)
REMARK    1  A    between atoms: C2_2  and  C3_3 
REMARK    2  A    between atoms: C4_4  and  C5_5 
ROOT
HETATM    1  C5  UNL     1       0.939  -0.081   0.149  1.00  0.00     0.017 A 
HETATM    2  C6  UNL     1       1.498   1.154  -0.101  1.00  0.00     0.020 A 
HETATM    3  C7  UNL     1       2.836   1.418   0.044  1.00  0.00     0.001 A 
HETATM    4  C8  UNL     1       3.667   0.405   0.460  1.00  0.00     0.000 A 
HETATM    5  C9  UNL     1       3.152  -0.868   0.728  1.00  0.00     0.001 A 
HETATM    6  C10 UNL     1       1.791  -1.082   0.565  1.00  0.00     0.020 A 
ENDROOT
BRANCH   1   7
HETATM    7  C4  UNL     1      -0.465  -0.321  -0.014  1.00  0.00    -0.067 C 
HETATM    8  C3  UNL     1      -1.647  -0.543  -0.144  1.00  0.00    -0.101 C 
BRANCH   8   9
HETATM    9  C2  UNL     1      -3.085  -0.829  -0.296  1.00  0.00     0.090 C 
HETATM   10  C1  UNL     1      -3.831   0.344   0.261  1.00  0.00     0.018 C 
ENDBRANCH   8   9
ENDBRANCH   1   7
TORSDOF 2
