REMARK  1 active torsions:
REMARK  status: ('A' for Active; 'I' for Inactive)
REMARK    1  A    between atoms: C4_4  and  C5_5 
ROOT
HETATM    1  C5  UNL     1      -0.716   0.343  -0.203  1.00  0.00    -0.036 A 
HETATM    2  C6  UNL     1      -1.076  -0.904   0.206  1.00  0.00     0.011 A 
HETATM    3  C7  UNL     1      -2.361  -1.081   0.713  1.00  0.00     0.001 A 
HETATM    4  C8  UNL     1      -3.268  -0.036   0.809  1.00  0.00     0.000 A 
HETATM    5  C9  UNL     1      -2.860   1.205   0.383  1.00  0.00     0.001 A 
HETATM    6  C10 UNL     1      -1.595   1.412  -0.122  1.00  0.00     0.011 A 
ENDROOT
BRANCH   1   7
HETATM    7  C4  UNL     1       0.621   0.597  -0.738  1.00  0.00     0.019 C 
HETATM    8  C3  UNL     1       1.701   0.048  -0.237  1.00  0.00    -0.054 A 
HETATM    9  C2  UNL     1       2.038  -0.871   0.846  1.00  0.00     0.004 A 
HETATM   10  C11 UNL     1       3.161   0.124  -0.583  1.00  0.00     0.065 A 
HETATM   11  C1  UNL     1       3.326  -0.813   0.552  1.00  0.00    -0.022 A 
ENDBRANCH   1   7
TORSDOF 1
