REMARK  11 active torsions:
REMARK  status: ('A' for Active; 'I' for Inactive)
REMARK    1  A    between atoms: N3_9  and  C3_10 
REMARK    2  A    between atoms: N4_17  and  C7_18 
REMARK    3  A    between atoms: C8_19  and  C9_20 
REMARK    4  A    between atoms: C9_20  and  N5_21 
REMARK       I    between atoms: N5_21  and  C10_23 
REMARK    5  A    between atoms: C10_23  and  C11_25 
REMARK    6  A    between atoms: C13_27  and  O5_28 
REMARK    7  A    between atoms: O5_28  and  S2_29 
REMARK    8  A    between atoms: C14_33  and  O9_34 
REMARK    9  A    between atoms: O9_34  and  S3_35 
REMARK   10  A    between atoms: C15_40  and  O13_41 
REMARK   11  A    between atoms: C16_45  and  C17_46 
ROOT
HETATM    1  C3  UNL     1      -2.736  -0.914  -0.268  1.00  0.00     0.171 C 
HETATM    2  C4  UNL     1      -2.610  -2.258   0.288  1.00  0.00     0.172 C 
HETATM    3  S1  UNL     1      -2.775  -3.621  -0.915  1.00  0.00     0.157 S 
HETATM    4  O2  UNL     1      -2.458  -4.878  -0.201  1.00  0.00    -0.227 OA
HETATM    5  O3  UNL     1      -4.115  -3.592  -1.552  1.00  0.00    -0.227 OA
HETATM    6  C5  UNL     1      -1.485  -3.333  -2.223  1.00  0.00     0.238 C 
HETATM    7  C6  UNL     1      -1.165  -1.989  -2.034  1.00  0.00    -0.076 C 
HETATM    8  N4  UNL     1      -0.825  -0.694  -1.916  1.00  0.00    -0.200 NA
HETATM    9  C15 UNL     1      -1.580  -0.121  -0.765  1.00  0.00     0.234 C 
ENDROOT
BRANCH   8  10
HETATM   10  C7  UNL     1      -1.025   0.109  -3.097  1.00  0.00     0.077 C 
HETATM   11  C8  UNL     1      -0.616   1.497  -3.053  1.00  0.00     0.030 C 
BRANCH  11  12
HETATM   12  C9  UNL     1       0.789   1.913  -2.962  1.00  0.00     0.092 C 
BRANCH  12  13
HETATM   13  N5  UNL     1       1.695   1.486  -1.986  1.00  0.00    -0.333 N 
HETATM   14  C10 UNL     1       2.356   0.269  -1.799  1.00  0.00     0.262 C 
HETATM   15  O4  UNL     1       2.254  -0.714  -2.579  1.00  0.00    -0.267 OA
ATOM     16  H5  UNL     1       1.913   2.191  -1.282  1.00  0.00     0.168 HD
BRANCH  14  17
HETATM   17  C11 UNL     1       3.253   0.047  -0.630  1.00  0.00     0.078 A 
HETATM   18  C12 UNL     1       3.560   0.913   0.378  1.00  0.00     0.066 A 
HETATM   19  C13 UNL     1       4.397   0.485   1.330  1.00  0.00     0.135 A 
HETATM   20  C14 UNL     1       4.880  -0.793   1.212  1.00  0.00     0.168 A 
HETATM   21  S4  UNL     1       4.144  -1.348  -0.224  1.00  0.00    -0.056 SA
BRANCH  19  22
HETATM   22  O5  UNL     1       4.805   1.277   2.438  1.00  0.00    -0.211 OA
BRANCH  22  23
HETATM   23  S2  UNL     1       6.201   2.209   2.215  1.00  0.00     0.257 S 
HETATM   24  O6  UNL     1       7.118   1.485   1.270  1.00  0.00    -0.572 OA
HETATM   25  O7  UNL     1       5.784   3.511   1.584  1.00  0.00    -0.572 OA
HETATM   26  O8  UNL     1       6.968   2.495   3.686  1.00  0.00    -0.572 OA
ENDBRANCH  22  23
ENDBRANCH  19  22
BRANCH  20  27
HETATM   27  O9  UNL     1       5.768  -1.466   2.081  1.00  0.00    -0.204 OA
BRANCH  27  28
HETATM   28  S3  UNL     1       5.082  -2.459   3.262  1.00  0.00     0.257 S 
HETATM   29  O10 UNL     1       3.981  -3.296   2.666  1.00  0.00    -0.572 OA
HETATM   30  O11 UNL     1       6.108  -3.415   3.810  1.00  0.00    -0.572 OA
HETATM   31  O12 UNL     1       4.470  -1.516   4.489  1.00  0.00    -0.572 OA
ENDBRANCH  27  28
ENDBRANCH  20  27
ENDBRANCH  14  17
ENDBRANCH  12  13
ENDBRANCH  11  12
ENDBRANCH   8  10
BRANCH   9  32
HETATM   32  O13 UNL     1      -0.624  -0.130   0.278  1.00  0.00    -0.378 OA
ATOM     33  H13 UNL     1       0.114   0.377  -0.039  1.00  0.00     0.211 HD
ENDBRANCH   9  32
BRANCH   1  34
HETATM   34  N3  UNL     1      -3.359   0.007   0.718  1.00  0.00    -0.232 N 
HETATM   35  C2  UNL     1      -3.113  -0.043   2.021  1.00  0.00     0.343 A 
HETATM   36  N2  UNL     1      -3.699   0.815   2.859  1.00  0.00    -0.292 N 
HETATM   37  O1  UNL     1      -2.336  -0.883   2.478  1.00  0.00    -0.245 OA
HETATM   38  C1  UNL     1      -4.582   1.791   2.438  1.00  0.00     0.134 A 
ATOM     39  H2  UNL     1      -3.486   0.747   3.854  1.00  0.00     0.172 HD
HETATM   40  N1  UNL     1      -5.102   2.568   3.270  1.00  0.00    -0.383 N 
HETATM   41  C16 UNL     1      -4.826   1.831   1.102  1.00  0.00     0.130 A 
ATOM     42  H12 UNL     1      -4.919   2.538   4.273  1.00  0.00     0.157 HD
ATOM     43  H11 UNL     1      -5.754   3.288   2.959  1.00  0.00     0.157 HD
HETATM   44  N6  UNL     1      -4.204   0.939   0.304  1.00  0.00    -0.288 N 
ATOM     45  H6  UNL     1      -4.400   0.986  -0.696  1.00  0.00     0.187 HD
BRANCH  41  46
HETATM   46  C17 UNL     1      -5.715   2.772   0.454  1.00  0.00     0.293 C 
HETATM   47  O14 UNL     1      -6.347   3.644   1.076  1.00  0.00    -0.300 OA
ENDBRANCH  41  46
ENDBRANCH   1  34
TORSDOF 11
