REMARK  18 active torsions:
REMARK  status: ('A' for Active; 'I' for Inactive)
REMARK    1  A    between atoms: C2_2  and  O2_4 
REMARK    2  A    between atoms: O2_4  and  C3_5 
REMARK    3  A    between atoms: C5_7  and  O3_8 
REMARK    4  A    between atoms: O3_8  and  C6_9 
REMARK    5  A    between atoms: C6_9  and  C7_11 
REMARK    6  A    between atoms: C7_11  and  O5_12 
REMARK    7  A    between atoms: C7_11  and  O6_14 
REMARK    8  A    between atoms: C9_19  and  C10_20 
REMARK    9  A    between atoms: C10_20  and  O9_21 
REMARK   10  A    between atoms: C10_20  and  C11_23 
REMARK   11  A    between atoms: C11_23  and  O10_24 
REMARK   12  A    between atoms: C11_23  and  C12_26 
REMARK   13  A    between atoms: C12_26  and  O11_27 
REMARK   14  A    between atoms: C12_26  and  C20_47 
REMARK   15  A    between atoms: O11_27  and  S1_28 
REMARK   16  A    between atoms: S1_28  and  O14_31 
REMARK   17  A    between atoms: O14_31  and  C13_32 
REMARK   18  A    between atoms: C17_40  and  S2_41 
ROOT
HETATM    1  C11 UNL     1      -0.246   1.370   1.230  1.00  0.00     0.190 C 
ENDROOT
BRANCH   1   2
HETATM    2  C10 UNL     1      -1.143   0.220   0.867  1.00  0.00     0.182 C 
BRANCH   2   3
HETATM    3  C9  UNL     1      -2.543   0.647   0.525  1.00  0.00     0.193 C 
HETATM    4  C3  UNL     1      -3.356  -0.564   0.139  1.00  0.00     0.167 C 
HETATM    5  C4  UNL     1      -4.718  -0.584   0.829  1.00  0.00     0.078 C 
HETATM    6  C5  UNL     1      -5.327   0.795   0.534  1.00  0.00     0.234 C 
HETATM    7  C8  UNL     1      -4.498   1.734   1.356  1.00  0.00     0.289 C 
HETATM    8  O7  UNL     1      -4.952   2.807   1.831  1.00  0.00    -0.262 OA
HETATM    9  O8  UNL     1      -3.187   1.331   1.557  1.00  0.00    -0.309 OA
BRANCH   4  10
HETATM   10  O2  UNL     1      -3.609  -0.588  -1.256  1.00  0.00    -0.314 OA
BRANCH  10  11
HETATM   11  C2  UNL     1      -3.308  -1.663  -2.079  1.00  0.00     0.255 C 
HETATM   12  C1  UNL     1      -3.583  -1.661  -3.539  1.00  0.00     0.126 C 
HETATM   13  O1  UNL     1      -2.782  -2.685  -1.585  1.00  0.00    -0.266 OA
ENDBRANCH  10  11
ENDBRANCH   4  10
BRANCH   6  14
HETATM   14  O3  UNL     1      -6.668   0.807   0.913  1.00  0.00    -0.302 OA
BRANCH  14  15
HETATM   15  C6  UNL     1      -7.725   1.027   0.070  1.00  0.00     0.315 C 
HETATM   16  O4  UNL     1      -7.504   1.240  -1.150  1.00  0.00    -0.260 OA
BRANCH  15  17
HETATM   17  C7  UNL     1      -9.149   1.029   0.533  1.00  0.00     0.356 C 
BRANCH  17  18
HETATM   18  O5  UNL     1      -9.226   0.780   1.894  1.00  0.00    -0.363 OA
ATOM     19  H5  UNL     1     -10.129   0.781   2.188  1.00  0.00     0.213 HD
ENDBRANCH  17  18
BRANCH  17  20
HETATM   20  O6  UNL     1      -9.953   0.218  -0.232  1.00  0.00    -0.363 OA
ATOM     21  H6  UNL     1     -10.856   0.219   0.062  1.00  0.00     0.213 HD
ENDBRANCH  17  20
ENDBRANCH  15  17
ENDBRANCH  14  15
ENDBRANCH   6  14
ENDBRANCH   2   3
BRANCH   2  22
HETATM   22  O9  UNL     1      -0.624  -0.441  -0.245  1.00  0.00    -0.390 OA
ATOM     23  H9  UNL     1       0.261  -0.711  -0.029  1.00  0.00     0.210 HD
ENDBRANCH   2  22
ENDBRANCH   1   2
BRANCH   1  24
HETATM   24  O10 UNL     1      -0.672   2.088   2.317  1.00  0.00    -0.390 OA
ATOM     25  H10 UNL     1      -0.105   2.815   2.546  1.00  0.00     0.210 HD
ENDBRANCH   1  24
BRANCH   1  26
HETATM   26  C12 UNL     1       1.181   0.934   1.455  1.00  0.00     0.276 C 
BRANCH  26  27
HETATM   27  O11 UNL     1       1.675   0.193   0.374  1.00  0.00    -0.234 OA
BRANCH  27  28
HETATM   28  S1  UNL     1       3.019   0.923  -0.313  1.00  0.00     0.409 S 
HETATM   29  O12 UNL     1       3.836   1.522   0.794  1.00  0.00    -0.168 OA
HETATM   30  O13 UNL     1       2.578   2.074  -1.195  1.00  0.00    -0.168 OA
BRANCH  28  31
HETATM   31  O14 UNL     1       3.895  -0.163  -1.246  1.00  0.00    -0.192 OA
BRANCH  31  32
HETATM   32  C13 UNL     1       4.743  -1.134  -0.758  1.00  0.00     0.176 A 
HETATM   33  N1  UNL     1       4.380  -2.367  -0.339  1.00  0.00    -0.343 N 
HETATM   34  C14 UNL     1       5.445  -3.055   0.072  1.00  0.00     0.128 A 
ATOM     35  H1  UNL     1       3.424  -2.722  -0.338  1.00  0.00     0.167 HD
HETATM   36  C15 UNL     1       6.561  -2.256  -0.076  1.00  0.00     0.109 A 
HETATM   37  O15 UNL     1       7.840  -2.425   0.167  1.00  0.00    -0.272 OA
HETATM   38  C19 UNL     1       6.123  -1.059  -0.594  1.00  0.00     0.053 A 
HETATM   39  C16 UNL     1       8.707  -1.466  -0.077  1.00  0.00     0.312 A 
HETATM   40  O16 UNL     1       9.919  -1.666   0.168  1.00  0.00    -0.258 OA
HETATM   41  C17 UNL     1       8.333  -0.262  -0.588  1.00  0.00     0.157 A 
HETATM   42  C18 UNL     1       7.012  -0.022  -0.864  1.00  0.00     0.051 A 
BRANCH  41  43
HETATM   43  S2  UNL     1       9.537   0.976  -0.892  1.00  0.00     0.143 S 
HETATM   44  O17 UNL     1       8.915   2.205  -1.474  1.00  0.00    -0.591 OA
HETATM   45  O18 UNL     1      10.565   0.466  -1.863  1.00  0.00    -0.591 OA
HETATM   46  O19 UNL     1      10.342   1.407   0.518  1.00  0.00    -0.591 OA
ENDBRANCH  41  43
ENDBRANCH  31  32
ENDBRANCH  28  31
ENDBRANCH  27  28
ENDBRANCH  26  27
BRANCH  26  47
HETATM   47  C20 UNL     1       1.331   0.168   2.723  1.00  0.00     0.207 C 
HETATM   48  O20 UNL     1       0.924   0.724   3.774  1.00  0.00    -0.646 OA
HETATM   49  O21 UNL     1       1.894  -1.084   2.685  1.00  0.00    -0.646 OA
ENDBRANCH  26  47
ENDBRANCH   1  26
TORSDOF 18
