REMARK  17 active torsions:
REMARK  status: ('A' for Active; 'I' for Inactive)
REMARK       I    between atoms: C2_2  and  N1_4 
REMARK    1  A    between atoms: N1_4  and  C3_5 
REMARK    2  A    between atoms: N1_4  and  C7_13 
REMARK    3  A    between atoms: C3_5  and  C4_6 
REMARK    4  A    between atoms: C4_6  and  C5_7 
REMARK    5  A    between atoms: C5_7  and  C6_8 
REMARK    6  A    between atoms: C6_8  and  N2_9 
REMARK    7  A    between atoms: C9_17  and  C10_18 
REMARK    8  A    between atoms: C11_21  and  O4_22 
REMARK    9  A    between atoms: O4_22  and  C12_23 
REMARK   10  A    between atoms: C14_26  and  C15_27 
REMARK   11  A    between atoms: C15_27  and  C16_28 
REMARK   12  A    between atoms: C17_29  and  O5_30 
REMARK   13  A    between atoms: C22_40  and  N6_41 
REMARK   14  A    between atoms: N6_41  and  C23_43 
REMARK   15  A    between atoms: C23_43  and  C24_44 
REMARK   16  A    between atoms: C24_44  and  O8_45 
REMARK   17  A    between atoms: C26_51  and  N9_52 
ROOT
HETATM    1  C12 UNL     1       0.328  -2.674  -1.079  1.00  0.00     0.137 A 
HETATM    2  C13 UNL     1      -0.743  -1.933  -0.538  1.00  0.00     0.074 A 
HETATM    3  S1  UNL     1      -1.163  -0.537   0.329  1.00  0.00    -0.083 SA
HETATM    4  C14 UNL     1      -2.864  -0.728   0.362  1.00  0.00     0.035 A 
HETATM    5  C22 UNL     1      -3.051  -1.898  -0.317  1.00  0.00     0.076 A 
HETATM    6  C25 UNL     1      -1.942  -2.524  -0.786  1.00  0.00     0.106 A 
HETATM    7  N7  UNL     1      -1.645  -3.664  -1.497  1.00  0.00    -0.219 N 
HETATM    8  N8  UNL     1      -2.174  -4.728  -2.079  1.00  0.00    -0.122 N 
ATOM      9  H8  UNL     1      -3.172  -4.937  -2.112  1.00  0.00     0.206 HD
HETATM   10  C26 UNL     1      -1.226  -5.485  -2.613  1.00  0.00     0.713 A 
HETATM   11  N11 UNL     1      -0.068  -4.874  -2.356  1.00  0.00    -0.169 N 
ATOM     12  H11 UNL     1       0.854  -5.208  -2.637  1.00  0.00     0.186 HD
HETATM   13  C27 UNL     1      -0.312  -3.754  -1.671  1.00  0.00     0.178 A 
ENDROOT
BRANCH   1  14
HETATM   14  O4  UNL     1       1.604  -2.282  -0.949  1.00  0.00    -0.315 OA
BRANCH  14  15
HETATM   15  C11 UNL     1       2.386  -1.361  -1.697  1.00  0.00     0.287 C 
HETATM   16  C9  UNL     1       3.567  -2.039  -2.279  1.00  0.00     0.083 C 
HETATM   17  C8  UNL     1       4.730  -1.924  -1.665  1.00  0.00     0.124 C 
HETATM   18  N3  UNL     1       4.952  -1.089  -0.555  1.00  0.00    -0.201 N 
HETATM   19  C7  UNL     1       4.046  -0.344  -0.042  1.00  0.00     0.685 C 
ATOM     20  H3  UNL     1       5.883  -1.076  -0.137  1.00  0.00     0.183 HD
HETATM   21  N12 UNL     1       2.780  -0.358  -0.681  1.00  0.00    -0.194 N 
ATOM     22  H12 UNL     1       2.104   0.362  -0.427  1.00  0.00     0.180 HD
BRANCH  16  23
HETATM   23  C10 UNL     1       3.487  -2.924  -3.424  1.00  0.00     0.211 C 
HETATM   24  O2  UNL     1       4.474  -3.588  -3.844  1.00  0.00    -0.644 OA
HETATM   25  O3  UNL     1       2.299  -3.059  -4.099  1.00  0.00    -0.644 OA
ENDBRANCH  16  23
BRANCH  19  26
HETATM   26  N1  UNL     1       4.347   0.459   1.081  1.00  0.00    -0.151 N 
HETATM   27  C2  UNL     1       5.598   0.384   1.712  1.00  0.00     0.234 C 
HETATM   28  C1  UNL     1       6.720  -0.472   1.320  1.00  0.00     0.118 C 
HETATM   29  O1  UNL     1       5.776   1.137   2.733  1.00  0.00    -0.273 OA
BRANCH  26  30
HETATM   30  C3  UNL     1       3.305   1.352   1.581  1.00  0.00     0.151 C 
BRANCH  30  31
HETATM   31  C4  UNL     1       3.405   2.749   1.110  1.00  0.00     0.022 C 
BRANCH  31  32
HETATM   32  C5  UNL     1       3.355   3.021  -0.344  1.00  0.00     0.029 C 
BRANCH  32  33
HETATM   33  C6  UNL     1       3.489   4.501  -0.660  1.00  0.00     0.229 C 
BRANCH  33  34
HETATM   34  N2  UNL     1       2.453   5.283  -0.070  1.00  0.00    -0.079 N 
ATOM     35  H23 UNL     1       1.533   4.933  -0.336  1.00  0.00     0.274 HD
ATOM     36  H22 UNL     1       2.403   5.126   0.937  1.00  0.00     0.274 HD
ATOM     37  H21 UNL     1       2.543   6.277  -0.282  1.00  0.00     0.274 HD
ENDBRANCH  33  34
ENDBRANCH  32  33
ENDBRANCH  31  32
ENDBRANCH  30  31
ENDBRANCH  26  30
ENDBRANCH  19  26
ENDBRANCH  14  15
ENDBRANCH   1  14
BRANCH   4  38
HETATM   38  C15 UNL     1      -3.786   0.097   0.912  1.00  0.00     0.042 C 
BRANCH  38  39
HETATM   39  C16 UNL     1      -3.353   1.304   1.563  1.00  0.00     0.085 A 
HETATM   40  C17 UNL     1      -3.217   1.449   2.923  1.00  0.00     0.162 A 
HETATM   41  N4  UNL     1      -2.807   2.612   3.484  1.00  0.00    -0.283 N 
HETATM   42  C18 UNL     1      -2.661   2.763   4.914  1.00  0.00     0.163 C 
HETATM   43  C19 UNL     1      -2.530   3.645   2.665  1.00  0.00     0.332 A 
HETATM   44  O6  UNL     1      -2.149   4.727   3.194  1.00  0.00    -0.246 OA
HETATM   45  N5  UNL     1      -2.641   3.578   1.320  1.00  0.00    -0.270 N 
HETATM   46  C20 UNL     1      -2.320   4.739   0.522  1.00  0.00     0.164 C 
HETATM   47  C21 UNL     1      -3.052   2.405   0.781  1.00  0.00     0.265 A 
HETATM   48  O7  UNL     1      -3.151   2.349  -0.478  1.00  0.00    -0.267 OA
BRANCH  40  49
HETATM   49  O5  UNL     1      -3.510   0.368   3.722  1.00  0.00    -0.345 OA
ATOM     50  H5  UNL     1      -3.416   0.468   4.662  1.00  0.00     0.219 HD
ENDBRANCH  40  49
ENDBRANCH  38  39
ENDBRANCH   4  38
BRANCH   5  51
HETATM   51  N6  UNL     1      -4.421  -2.383  -0.478  1.00  0.00    -0.385 N 
ATOM     52  H6  UNL     1      -4.820  -2.998   0.231  1.00  0.00     0.159 HD
BRANCH  51  53
HETATM   53  C23 UNL     1      -5.217  -2.009  -1.617  1.00  0.00     0.146 C 
BRANCH  53  54
HETATM   54  C24 UNL     1      -6.547  -2.722  -1.557  1.00  0.00     0.183 C 
BRANCH  54  55
HETATM   55  O8  UNL     1      -7.228  -2.390  -0.410  1.00  0.00    -0.399 OA
ATOM     56  H8  UNL     1      -8.065  -2.839  -0.372  1.00  0.00     0.209 HD
ENDBRANCH  54  55
ENDBRANCH  53  54
ENDBRANCH  51  53
ENDBRANCH   5  51
BRANCH  10  57
HETATM   57  N9  UNL     1      -1.470  -6.703  -3.311  1.00  0.00    -0.137 N 
HETATM   58  N10 UNL     1      -1.287  -7.841  -2.779  1.00  0.00    -0.331 N 
ATOM     59 2H10 UNL     1      -0.953  -7.867  -1.816  1.00  0.00     0.177 HD
ATOM     60 1H10 UNL     1      -1.462  -8.713  -3.279  1.00  0.00     0.177 HD
ATOM     61  H9  UNL     1      -1.804  -6.659  -4.274  1.00  0.00     0.205 HD
ENDBRANCH  10  57
TORSDOF 17
