REMARK  3 active torsions:
REMARK  status: ('A' for Active; 'I' for Inactive)
REMARK    1  A    between atoms: C4_6  and  N1_7 
REMARK    2  A    between atoms: C11_20  and  C12_21 
REMARK    3  A    between atoms: C12_21  and  C13_22 
ROOT
HETATM    1  N1  UNL     1       0.735  -0.543  -0.116  1.00  0.00    -0.322 N 
HETATM    2  C5  UNL     1       0.912  -1.768  -0.907  1.00  0.00     0.099 C 
HETATM    3  N2  UNL     1       1.171  -1.741  -2.148  1.00  0.00    -0.388 N 
ATOM      4  H21 UNL     1       1.294  -2.592  -2.697  1.00  0.00     0.157 HD
ATOM      5  H22 UNL     1       1.292  -0.955  -2.787  1.00  0.00     0.157 HD
HETATM    6  C6  UNL     1       0.736  -2.910   0.022  1.00  0.00     0.199 C 
HETATM    7  C7  UNL     1       0.057  -4.023  -0.647  1.00  0.00     0.074 C 
HETATM    8  N3  UNL     1      -0.469  -4.881  -1.178  1.00  0.00    -0.196 NA
HETATM    9  C8  UNL     1      -0.041  -2.324   1.147  1.00  0.00     0.180 C 
HETATM   10  C9  UNL     1       0.614  -2.537   2.407  1.00  0.00     0.088 C 
HETATM   11  N4  UNL     1       1.144  -2.688   3.424  1.00  0.00    -0.195 NA
HETATM   12  C10 UNL     1      -1.345  -3.046   1.150  1.00  0.00     0.088 C 
HETATM   13  N5  UNL     1      -2.353  -3.620   1.169  1.00  0.00    -0.195 NA
HETATM   14  C11 UNL     1      -0.280  -0.821   0.833  1.00  0.00     0.131 C 
ENDROOT
BRANCH   1  15
HETATM   15  C4  UNL     1       1.612   0.572  -0.377  1.00  0.00     0.086 A 
HETATM   16  S1  UNL     1       1.577   1.691  -1.651  1.00  0.00    -0.059 SA
HETATM   17  C3  UNL     1       2.910   2.658  -1.242  1.00  0.00     0.083 A 
HETATM   18  C2  UNL     1       3.361   2.071  -0.094  1.00  0.00    -0.025 A 
HETATM   19 CL1  UNL     1       3.576   4.080  -2.073  1.00  0.00    -0.076 Cl
HETATM   20  C1  UNL     1       4.574   2.651   0.610  1.00  0.00     0.051 C 
HETATM   21  C18 UNL     1       2.701   0.999   0.359  1.00  0.00    -0.020 A 
HETATM   22  C19 UNL     1       3.080   0.235   1.618  1.00  0.00     0.052 C 
ENDBRANCH   1  15
BRANCH  14  23
HETATM   23  C12 UNL     1      -1.707  -0.663   0.580  1.00  0.00     0.033 C 
BRANCH  23  24
HETATM   24  C13 UNL     1      -2.325   0.648   0.226  1.00  0.00    -0.013 C 
HETATM   25  C14 UNL     1      -3.876   0.426   0.110  1.00  0.00     0.005 C 
HETATM   26  C15 UNL     1      -4.332   1.427  -0.897  1.00  0.00     0.000 C 
HETATM   27  C16 UNL     1      -3.257   1.298  -1.954  1.00  0.00     0.000 C 
HETATM   28  C17 UNL     1      -2.025   1.152  -1.144  1.00  0.00     0.005 C 
ENDBRANCH  23  24
ENDBRANCH  14  23
TORSDOF 3
