REMARK  6 active torsions:
REMARK  status: ('A' for Active; 'I' for Inactive)
REMARK    1  A    between atoms: O1_2  and  C2_3 
REMARK    2  A    between atoms: C2_3  and  C3_5 
REMARK    3  A    between atoms: C3_5  and  S1_6 
REMARK    4  A    between atoms: S1_6  and  C4_7 
REMARK    5  A    between atoms: C4_7  and  N1_9 
REMARK    6  A    between atoms: N1_9  and  C5_11 
ROOT
HETATM    1  C3  UNL     1      -0.904   0.696   0.271  1.00  0.00     0.151 C 
HETATM    2  C11 UNL     1      -2.157   1.347   0.751  1.00  0.00     0.047 C 
HETATM    3  C12 UNL     1      -3.443   0.704   0.565  1.00  0.00    -0.007 C 
HETATM    4  C13 UNL     1      -4.080   0.885  -0.819  1.00  0.00     0.005 C 
HETATM    5  C14 UNL     1      -5.357   0.079  -0.644  1.00  0.00     0.001 C 
HETATM    6  C15 UNL     1      -5.022  -1.005   0.358  1.00  0.00     0.006 C 
HETATM    7  C16 UNL     1      -3.583  -0.754   0.754  1.00  0.00    -0.001 C 
HETATM    8  C17 UNL     1      -2.712  -1.579  -0.148  1.00  0.00     0.081 C 
HETATM    9  S3  UNL     1      -1.003  -1.115   0.193  1.00  0.00    -0.137 SA
ENDROOT
BRANCH   1  10
HETATM   10  C2  UNL     1      -0.584   1.242  -1.071  1.00  0.00     0.288 C 
HETATM   11  O2  UNL     1      -1.290   2.240  -1.466  1.00  0.00    -0.263 OA
BRANCH  10  12
HETATM   12  O1  UNL     1       0.367   0.821  -1.943  1.00  0.00    -0.325 OA
HETATM   13  C1  UNL     1       0.547   1.456  -3.192  1.00  0.00     0.213 C 
ENDBRANCH  10  12
ENDBRANCH   1  10
BRANCH   1  14
HETATM   14  S1  UNL     1       0.494   1.084   1.359  1.00  0.00    -0.069 SA
BRANCH  14  15
HETATM   15  C4  UNL     1       1.905   0.075   0.939  1.00  0.00     0.141 C 
HETATM   16  S2  UNL     1       1.699  -1.136  -0.129  1.00  0.00    -0.052 SA
BRANCH  15  17
HETATM   17  N1  UNL     1       3.167   0.334   1.539  1.00  0.00    -0.342 N 
ATOM     18  H1  UNL     1       3.187   1.120   2.189  1.00  0.00     0.167 HD
BRANCH  17  19
HETATM   19  C5  UNL     1       4.386  -0.331   1.369  1.00  0.00     0.036 A 
HETATM   20  C6  UNL     1       4.534  -1.644   1.013  1.00  0.00     0.029 A 
HETATM   21  C7  UNL     1       5.799  -2.225   0.831  1.00  0.00     0.005 A 
HETATM   22  C8  UNL     1       6.953  -1.503   1.005  1.00  0.00     0.042 A 
HETATM   23  C9  UNL     1       6.824  -0.184   1.364  1.00  0.00     0.118 A 
HETATM   24  F1  UNL     1       7.974   0.516   1.532  1.00  0.00    -0.206 F 
HETATM   25  C10 UNL     1       5.592   0.383   1.540  1.00  0.00     0.071 A 
ENDBRANCH  17  19
ENDBRANCH  15  17
ENDBRANCH  14  15
ENDBRANCH   1  14
TORSDOF 6
