REMARK  3 active torsions:
REMARK  status: ('A' for Active; 'I' for Inactive)
REMARK    1  A    between atoms: C7_8  and  S1_9 
REMARK    2  A    between atoms: S1_9  and  C8_10 
REMARK    3  A    between atoms: C9_15  and  C10_16 
ROOT
HETATM    1  C8  UNL     1      -0.683  -0.856  -1.523  1.00  0.00     0.204 A 
HETATM    2  N1  UNL     1      -0.736   0.317  -2.201  1.00  0.00    -0.272 N 
ATOM      3  H1  UNL     1      -1.536   0.669  -2.727  1.00  0.00     0.189 HD
HETATM    4  N2  UNL     1       0.439   0.930  -2.060  1.00  0.00    -0.281 N 
ATOM      5  H2  UNL     1       0.700   1.833  -2.456  1.00  0.00     0.189 HD
HETATM    6  C9  UNL     1       1.220   0.136  -1.296  1.00  0.00     0.145 A 
HETATM    7  O1  UNL     1       0.500  -0.918  -1.003  1.00  0.00    -0.272 OA
ENDROOT
BRANCH   1   8
HETATM    8  S1  UNL     1      -2.050  -2.000  -1.445  1.00  0.00    -0.073 SA
BRANCH   8   9
HETATM    9  C7  UNL     1      -3.142  -1.677  -0.063  1.00  0.00     0.109 C 
HETATM   10  C5  UNL     1      -3.803  -0.367  -0.278  1.00  0.00    -0.015 A 
HETATM   11  C4  UNL     1      -3.866   0.252   0.961  1.00  0.00     0.035 A 
HETATM   12  C6  UNL     1      -4.317   0.279  -1.390  1.00  0.00     0.029 A 
HETATM   13  C3  UNL     1      -4.449   1.501   1.019  1.00  0.00     0.031 A 
HETATM   14  N3  UNL     1      -3.277  -0.600   1.940  1.00  0.00    -0.388 N 
HETATM   15  C2  UNL     1      -4.956   2.130  -0.097  1.00  0.00     0.021 A 
HETATM   16  C1  UNL     1      -4.897   1.521  -1.330  1.00  0.00     0.011 A 
HETATM   17 BR1  UNL     1      -5.593   2.380  -2.876  1.00  0.00    -0.051 Br
HETATM   18  C16 UNL     1      -2.437  -1.571   1.269  1.00  0.00     0.140 C 
ATOM     19  H3  UNL     1      -3.423  -0.537   2.948  1.00  0.00     0.159 HD
ENDBRANCH   8   9
ENDBRANCH   1   8
BRANCH   6  20
HETATM   20  C10 UNL     1       2.629   0.372  -0.851  1.00  0.00     0.062 C 
HETATM   21  C11 UNL     1       2.735   0.405   0.652  1.00  0.00     0.013 C 
HETATM   22  C12 UNL     1       4.136   0.968   0.918  1.00  0.00     0.001 C 
HETATM   23  C13 UNL     1       5.204   0.199   0.231  1.00  0.00     0.000 C 
HETATM   24  C14 UNL     1       4.771  -0.935  -0.622  1.00  0.00     0.001 C 
HETATM   25  C15 UNL     1       3.456  -0.786  -1.302  1.00  0.00     0.013 C 
ENDBRANCH   6  20
TORSDOF 3
