REMARK  11 active torsions:
REMARK  status: ('A' for Active; 'I' for Inactive)
REMARK    1  A    between atoms: C2_2  and  C4_4 
REMARK    2  A    between atoms: C2_2  and  O2_6 
REMARK    3  A    between atoms: O2_6  and  C5_7 
REMARK    4  A    between atoms: C7_12  and  O3_13 
REMARK    5  A    between atoms: O3_13  and  C8_14 
REMARK    6  A    between atoms: C9_15  and  O4_16 
REMARK    7  A    between atoms: C10_18  and  O5_19 
REMARK    8  A    between atoms: C11_21  and  O6_22 
REMARK    9  A    between atoms: C12_24  and  O7_25 
REMARK   10  A    between atoms: C13_27  and  O8_28 
REMARK   11  A    between atoms: C14_30  and  O9_31 
ROOT
HETATM    1  C8  UNL     1       1.982   1.166  -0.267  1.00  0.00     0.184 C 
HETATM    2  C9  UNL     1       2.413   0.822  -1.661  1.00  0.00     0.181 C 
HETATM    3  C10 UNL     1       3.848   0.449  -1.788  1.00  0.00     0.180 C 
HETATM    4  C11 UNL     1       4.351  -0.494  -0.752  1.00  0.00     0.180 C 
HETATM    5  C12 UNL     1       3.775  -0.262   0.618  1.00  0.00     0.180 C 
HETATM    6  C13 UNL     1       3.195   1.147   0.622  1.00  0.00     0.181 C 
ENDROOT
BRANCH   1   7
HETATM    7  O3  UNL     1       1.017   0.248   0.123  1.00  0.00    -0.371 OA
BRANCH   7   8
HETATM    8  C7  UNL     1      -0.193   0.804   0.437  1.00  0.00     0.181 C 
HETATM    9  C6  UNL     1      -0.451   0.520   1.923  1.00  0.00     0.270 C 
HETATM   10  N1  UNL     1      -1.476  -0.505   1.936  1.00  0.00    -0.044 N 
HETATM   11  C5  UNL     1      -2.368  -0.076   0.853  1.00  0.00     0.353 C 
ATOM     12  H12 UNL     1      -1.932  -0.644   2.838  1.00  0.00     0.280 HD
ATOM     13  H11 UNL     1      -1.128  -1.460   1.852  1.00  0.00     0.280 HD
HETATM   14  C14 UNL     1      -1.368   0.194  -0.253  1.00  0.00     0.205 C 
BRANCH  11  15
HETATM   15  O2  UNL     1      -3.214  -1.078   0.451  1.00  0.00    -0.339 OA
BRANCH  15  16
HETATM   16  C2  UNL     1      -4.542  -0.753   0.439  1.00  0.00     0.109 C 
HETATM   17  C1  UNL     1      -4.865   0.402  -0.486  1.00  0.00     0.053 C 
HETATM   18  C3  UNL     1      -5.316  -1.952  -0.071  1.00  0.00     0.053 C 
BRANCH  16  19
HETATM   19  C4  UNL     1      -5.081  -0.414   1.781  1.00  0.00     0.268 C 
HETATM   20  O1  UNL     1      -6.252  -0.105   1.914  1.00  0.00    -0.304 OA
ENDBRANCH  16  19
ENDBRANCH  15  16
ENDBRANCH  11  15
BRANCH  14  21
HETATM   21  O9  UNL     1      -1.074  -1.021  -0.868  1.00  0.00    -0.389 OA
ATOM     22  H9  UNL     1      -0.447  -0.852  -1.561  1.00  0.00     0.210 HD
ENDBRANCH  14  21
ENDBRANCH   7   8
ENDBRANCH   1   7
BRANCH   2  23
HETATM   23  O4  UNL     1       2.195   1.939  -2.500  1.00  0.00    -0.390 OA
ATOM     24  H4  UNL     1       2.468   1.721  -3.383  1.00  0.00     0.210 HD
ENDBRANCH   2  23
BRANCH   6  25
HETATM   25  O8  UNL     1       2.955   1.608   1.895  1.00  0.00    -0.390 OA
ATOM     26  H8  UNL     1       3.721   1.596   2.457  1.00  0.00     0.210 HD
ENDBRANCH   6  25
BRANCH   3  27
HETATM   27  O5  UNL     1       4.009  -0.182  -3.043  1.00  0.00    -0.390 OA
ATOM     28  H5  UNL     1       4.925  -0.420  -3.124  1.00  0.00     0.210 HD
ENDBRANCH   3  27
BRANCH   5  29
HETATM   29  O7  UNL     1       4.738  -0.301   1.624  1.00  0.00    -0.390 OA
ATOM     30  H7  UNL     1       4.374  -0.154   2.489  1.00  0.00     0.210 HD
ENDBRANCH   5  29
BRANCH   4  31
HETATM   31  O6  UNL     1       4.237  -1.845  -1.144  1.00  0.00    -0.390 OA
ATOM     32  H6  UNL     1       4.558  -2.447  -0.483  1.00  0.00     0.210 HD
ENDBRANCH   4  31
TORSDOF 11
