REMARK  7 active torsions:
REMARK  status: ('A' for Active; 'I' for Inactive)
REMARK    1  A    between atoms: C1_2  and  C2_3 
REMARK       I    between atoms: C2_3  and  N1_5 
REMARK    2  A    between atoms: N1_5  and  C3_7 
REMARK    3  A    between atoms: C6_16  and  C7_17 
REMARK    4  A    between atoms: N4_18  and  N5_20 
REMARK       I    between atoms: N5_20  and  C8_22 
REMARK    5  A    between atoms: C8_22  and  O6_24 
REMARK    6  A    between atoms: O6_24  and  N6_25 
REMARK    7  A    between atoms: C10_30  and  O8_31 
ROOT
HETATM    1  C3  UNL     1      -3.216  -0.488   0.026  1.00  0.00     0.129 A 
HETATM    2  N2  UNL     1      -4.241  -1.366   0.208  1.00  0.00    -0.293 N 
ATOM      3  H2  UNL     1      -5.153  -1.019   0.505  1.00  0.00     0.172 HD
HETATM    4  C4  UNL     1      -4.067  -2.692   0.001  1.00  0.00     0.328 A 
HETATM    5  O3  UNL     1      -5.060  -3.464   0.186  1.00  0.00    -0.247 OA
HETATM    6  N3  UNL     1      -2.894  -3.187  -0.386  1.00  0.00    -0.275 N 
ATOM      7  H3  UNL     1      -2.778  -4.189  -0.538  1.00  0.00     0.173 HD
HETATM    8  C5  UNL     1      -1.851  -2.332  -0.576  1.00  0.00     0.264 A 
HETATM    9  O4  UNL     1      -0.722  -2.772  -0.943  1.00  0.00    -0.267 OA
HETATM   10  C6  UNL     1      -1.976  -0.976  -0.379  1.00  0.00     0.093 A 
ENDROOT
BRANCH  10  11
HETATM   11  C7  UNL     1      -0.828  -0.120  -0.597  1.00  0.00     0.128 C 
HETATM   12  N4  UNL     1       0.289  -0.657  -0.974  1.00  0.00    -0.306 N 
ATOM     13  H4  UNL     1       0.340  -1.667  -1.110  1.00  0.00     0.186 HD
BRANCH  12  14
HETATM   14  N5  UNL     1       1.419   0.121  -1.196  1.00  0.00    -0.244 N 
HETATM   15  C8  UNL     1       2.446   0.272  -0.225  1.00  0.00     0.398 C 
HETATM   16  O5  UNL     1       2.321  -0.323   0.873  1.00  0.00    -0.235 OA
ATOM     17  H5  UNL     1       1.515   0.602  -2.090  1.00  0.00     0.192 HD
BRANCH  15  18
HETATM   18  O6  UNL     1       3.566   1.041  -0.438  1.00  0.00    -0.182 OA
BRANCH  18  19
HETATM   19  N6  UNL     1       4.575   1.205   0.482  1.00  0.00    -0.052 NA
HETATM   20  N7  UNL     1       5.024   0.018   1.019  1.00  0.00    -0.259 N 
HETATM   21  C9  UNL     1       6.358   0.486   0.866  1.00  0.00     0.281 C 
ATOM     22  H7  UNL     1       4.587  -0.832   1.374  1.00  0.00     0.186 HD
HETATM   23  O7  UNL     1       7.475   0.312   1.404  1.00  0.00    -0.268 OA
HETATM   24  C10 UNL     1       5.851   1.299  -0.244  1.00  0.00     0.336 C 
BRANCH  24  25
HETATM   25  O8  UNL     1       5.808   0.540  -1.434  1.00  0.00    -0.369 OA
ATOM     26  H8  UNL     1       6.632   0.601  -1.903  1.00  0.00     0.212 HD
ENDBRANCH  24  25
ENDBRANCH  18  19
ENDBRANCH  15  18
ENDBRANCH  12  14
ENDBRANCH  10  11
BRANCH   1  27
HETATM   27  N1  UNL     1      -3.358   0.899   0.231  1.00  0.00    -0.306 N 
HETATM   28  C2  UNL     1      -4.511   1.586   0.636  1.00  0.00     0.284 C 
HETATM   29  O2  UNL     1      -5.637   1.111   0.894  1.00  0.00    -0.265 OA
ATOM     30  H1  UNL     1      -2.527   1.468   0.066  1.00  0.00     0.170 HD
BRANCH  28  31
HETATM   31  C1  UNL     1      -4.432   3.063   0.790  1.00  0.00     0.332 C 
HETATM   32  O1  UNL     1      -3.359   3.664   0.562  1.00  0.00    -0.296 OA
ENDBRANCH  28  31
ENDBRANCH   1  27
TORSDOF 7
