REMARK  9 active torsions:
REMARK  status: ('A' for Active; 'I' for Inactive)
REMARK    1  A    between atoms: N1_2  and  C2_3 
REMARK    2  A    between atoms: N1_2  and  C4_7 
REMARK    3  A    between atoms: C2_3  and  C3_4 
REMARK    4  A    between atoms: C3_4  and  O1_5 
REMARK    5  A    between atoms: C6_14  and  S1_15 
REMARK    6  A    between atoms: C8_19  and  C9_20 
REMARK    7  A    between atoms: C9_20  and  O4_21 
REMARK    8  A    between atoms: C9_20  and  N4_23 
REMARK    9  A    between atoms: N4_23  and  C10_24 
ROOT
HETATM    1  C4  UNL     1      -2.108  -0.368   0.364  1.00  0.00     0.682 A 
HETATM    2  N2  UNL     1      -1.919  -1.626   0.776  1.00  0.00    -0.175 N 
ATOM      3  H2  UNL     1      -2.763  -2.128   1.051  1.00  0.00     0.186 HD
HETATM    4  C5  UNL     1      -0.827  -2.291   0.875  1.00  0.00     0.139 A 
HETATM    5  N3  UNL     1      -0.467  -3.418   1.249  1.00  0.00    -0.384 N 
ATOM      6  H31 UNL     1       0.402  -3.947   1.328  1.00  0.00     0.157 HD
ATOM      7  H32 UNL     1      -1.272  -3.970   1.547  1.00  0.00     0.157 HD
HETATM    8  C6  UNL     1       0.353  -1.482   0.438  1.00  0.00     0.135 A 
HETATM    9  C8  UNL     1       0.241  -0.199   0.000  1.00  0.00     0.139 A 
HETATM   10  N9  UNL     1      -1.006   0.330  -0.024  1.00  0.00    -0.185 N 
ATOM     11  H9  UNL     1      -1.124   1.291  -0.346  1.00  0.00     0.184 HD
ENDROOT
BRANCH   9  12
HETATM   12  C9  UNL     1       1.352   0.623  -0.353  1.00  0.00     0.247 C 
BRANCH  12  13
HETATM   13  O4  UNL     1       0.684   1.790  -0.964  1.00  0.00    -0.334 OA
ATOM     14  H4  UNL     1       1.424   2.337  -1.199  1.00  0.00     0.220 HD
ENDBRANCH  12  13
BRANCH  12  15
HETATM   15  N4  UNL     1       2.546   1.010  -0.458  1.00  0.00    -0.342 NA
BRANCH  15  16
HETATM   16  C10 UNL     1       3.683   1.353  -0.583  1.00  0.00     0.287 C 
HETATM   17  N5  UNL     1       4.386   2.401   0.104  1.00  0.00    -0.244 N 
HETATM   18  N6  UNL     1       5.722   2.408  -0.256  1.00  0.00    -0.005 NA
ATOM     19  H5  UNL     1       3.959   3.050   0.765  1.00  0.00     0.188 HD
HETATM   20  N7  UNL     1       5.943   1.349  -1.099  1.00  0.00    -0.005 NA
HETATM   21  N8  UNL     1       4.726   0.793  -1.476  1.00  0.00    -0.244 N 
ATOM     22  H8  UNL     1       4.577   0.122  -2.230  1.00  0.00     0.188 HD
ENDBRANCH  15  16
ENDBRANCH  12  15
ENDBRANCH   9  12
BRANCH   8  23
HETATM   23  S1  UNL     1       1.796  -2.460   0.466  1.00  0.00     0.177 S 
HETATM   24  C7  UNL     1       1.466  -3.922  -0.607  1.00  0.00     0.167 C 
HETATM   25  O2  UNL     1       3.009  -1.871  -0.106  1.00  0.00    -0.223 OA
HETATM   26  O3  UNL     1       1.993  -3.007   1.843  1.00  0.00    -0.223 OA
ENDBRANCH   8  23
BRANCH   1  27
HETATM   27  N1  UNL     1      -3.393   0.228   0.467  1.00  0.00    -0.220 N 
HETATM   28  C1  UNL     1      -3.977   0.272   1.805  1.00  0.00     0.168 C 
BRANCH  27  29
HETATM   29  C2  UNL     1      -4.143   0.839  -0.602  1.00  0.00     0.166 C 
BRANCH  29  30
HETATM   30  C3  UNL     1      -4.152   2.358  -0.422  1.00  0.00     0.184 C 
BRANCH  30  31
HETATM   31  O1  UNL     1      -4.894   2.898  -1.448  1.00  0.00    -0.399 OA
ATOM     32  H1  UNL     1      -4.900   3.841  -1.336  1.00  0.00     0.209 HD
ENDBRANCH  30  31
ENDBRANCH  29  30
ENDBRANCH  27  29
ENDBRANCH   1  27
TORSDOF 9
