REMARK  7 active torsions:
REMARK  status: ('A' for Active; 'I' for Inactive)
REMARK    1  A    between atoms: N1_2  and  C2_3 
REMARK    2  A    between atoms: N1_2  and  C4_7 
REMARK    3  A    between atoms: C2_3  and  C3_4 
REMARK    4  A    between atoms: C6_15  and  S1_16 
REMARK    5  A    between atoms: S1_16  and  N6_19 
REMARK       I    between atoms: N6_19  and  C7_21 
REMARK       I    between atoms: C7_21  and  N7_23 
REMARK    6  A    between atoms: N7_23  and  N8_25 
REMARK    7  A    between atoms: C9_30  and  N9_31 
ROOT
HETATM    1  C4  UNL     1      -2.302   0.538  -0.439  1.00  0.00     0.157 A 
HETATM    2  N3  UNL     1      -1.851  -0.718  -0.143  1.00  0.00    -0.322 N 
ATOM      3  H3  UNL     1      -2.525  -1.483  -0.104  1.00  0.00     0.169 HD
HETATM    4  C5  UNL     1      -0.555  -0.987   0.099  1.00  0.00     0.159 A 
HETATM    5  N4  UNL     1       0.153  -2.086   0.408  1.00  0.00    -0.282 N 
ATOM      6  H4  UNL     1      -0.258  -3.013   0.517  1.00  0.00     0.188 HD
HETATM    7  N5  UNL     1       1.421  -1.836   0.552  1.00  0.00    -0.285 N 
ATOM      8  H5  UNL     1       2.145  -2.516   0.786  1.00  0.00     0.188 HD
HETATM    9  C6  UNL     1       1.610  -0.508   0.336  1.00  0.00     0.202 A 
HETATM   10  C8  UNL     1       0.373   0.044   0.050  1.00  0.00     0.164 A 
HETATM   11  O5  UNL     1      -0.072   1.237  -0.234  1.00  0.00    -0.284 OA
HETATM   12  C9  UNL     1      -1.330   1.508  -0.471  1.00  0.00     0.186 A 
ENDROOT
BRANCH   9  13
HETATM   13  S1  UNL     1       3.100   0.383   0.375  1.00  0.00     0.286 S 
HETATM   14  O2  UNL     1       3.449   0.923  -1.002  1.00  0.00    -0.198 OA
HETATM   15  O3  UNL     1       2.994   1.505   1.337  1.00  0.00    -0.198 OA
BRANCH  13  16
HETATM   16  N6  UNL     1       4.398  -0.676   0.851  1.00  0.00    -0.229 N 
HETATM   17  C7  UNL     1       5.675  -0.109   1.032  1.00  0.00     0.348 C 
HETATM   18  O4  UNL     1       5.880   1.108   0.862  1.00  0.00    -0.245 OA
HETATM   19  N7  UNL     1       6.752  -0.937   1.418  1.00  0.00    -0.258 N 
ATOM     20  H7  UNL     1       6.592  -1.934   1.560  1.00  0.00     0.191 HD
ATOM     21  H6  UNL     1       4.239  -1.673   0.994  1.00  0.00     0.183 HD
BRANCH  19  22
HETATM   22  N8  UNL     1       8.051  -0.405   1.611  1.00  0.00    -0.341 N 
ATOM     23  H82 UNL     1       8.194   0.594   1.465  1.00  0.00     0.177 HD
ATOM     24  H81 UNL     1       8.829  -1.003   1.890  1.00  0.00     0.177 HD
ENDBRANCH  19  22
ENDBRANCH  13  16
ENDBRANCH   9  13
BRANCH  12  25
HETATM   25  N9  UNL     1      -1.618   2.751  -0.744  1.00  0.00    -0.377 N 
ATOM     26  H92 UNL     1      -2.599   2.962  -0.929  1.00  0.00     0.158 HD
ATOM     27  H91 UNL     1      -0.896   3.471  -0.768  1.00  0.00     0.158 HD
ENDBRANCH  12  25
BRANCH   1  28
HETATM   28  N1  UNL     1      -3.679   0.792  -0.660  1.00  0.00    -0.360 N 
HETATM   29  C1  UNL     1      -4.441   1.490   0.367  1.00  0.00     0.152 C 
BRANCH  28  30
HETATM   30  C2  UNL     1      -4.322   0.370  -1.899  1.00  0.00     0.223 C 
BRANCH  30  31
HETATM   31  C3  UNL     1      -5.284  -0.701  -1.644  1.00  0.00     0.248 C 
HETATM   32  N2  UNL     1      -5.576  -1.278  -0.362  1.00  0.00    -0.061 NA
HETATM   33  O1  UNL     1      -5.920  -1.175  -2.594  1.00  0.00    -0.275 OA
ENDBRANCH  30  31
ENDBRANCH  28  30
ENDBRANCH   1  28
TORSDOF 7
