REMARK  6 active torsions:
REMARK  status: ('A' for Active; 'I' for Inactive)
REMARK    1  A    between atoms: N1_2  and  C2_4 
REMARK    2  A    between atoms: N3_7  and  C3_8 
REMARK    3  A    between atoms: C3_8  and  C4_9 
REMARK    4  A    between atoms: C4_9  and  N4_10 
REMARK    5  A    between atoms: N5_13  and  C7_14 
REMARK    6  A    between atoms: C8_17  and  N7_18 
ROOT
HETATM    1  N4  UNL     1      -0.441   0.610   0.869  1.00  0.00     0.109 N 
HETATM    2  C5  UNL     1      -0.924   1.851   1.392  1.00  0.00     0.294 C 
HETATM    3  C6  UNL     1      -2.262   2.118   0.710  1.00  0.00     0.156 C 
HETATM    4  N5  UNL     1      -2.439   0.872  -0.053  1.00  0.00    -0.338 N 
HETATM    5  C11 UNL     1      -1.050   0.529  -0.417  1.00  0.00     0.399 C 
ENDROOT
BRANCH   1   6
HETATM    6  C4  UNL     1       0.958   0.427   0.947  1.00  0.00     0.296 C 
BRANCH   6   7
HETATM    7  C3  UNL     1       1.491  -0.846   0.392  1.00  0.00     0.184 C 
BRANCH   7   8
HETATM    8  N3  UNL     1       2.926  -0.858   0.576  1.00  0.00    -0.239 N 
HETATM    9  N2  UNL     1       3.730  -0.348  -0.339  1.00  0.00    -0.275 N 
HETATM   10  C2  UNL     1       5.056  -0.339  -0.188  1.00  0.00     0.185 A 
ATOM     11  H2  UNL     1       3.326   0.051  -1.186  1.00  0.00     0.189 HD
HETATM   12  C13 UNL     1       5.578  -0.887   0.971  1.00  0.00     0.294 A 
HETATM   13  N10 UNL     1       4.767  -1.406   1.904  1.00  0.00    -0.271 N 
HETATM   14  O3  UNL     1       6.822  -0.893   1.144  1.00  0.00    -0.264 OA
HETATM   15  C12 UNL     1       3.427  -1.388   1.697  1.00  0.00     0.344 A 
ATOM     16  H10 UNL     1       5.153  -1.809   2.758  1.00  0.00     0.174 HD
HETATM   17  O2  UNL     1       2.638  -1.865   2.549  1.00  0.00    -0.245 OA
BRANCH  10  18
HETATM   18  N1  UNL     1       5.947   0.213  -1.171  1.00  0.00    -0.375 N 
HETATM   19  C1  UNL     1       5.388   0.784  -2.378  1.00  0.00     0.148 C 
ATOM     20  H1  UNL     1       6.956   0.203  -1.021  1.00  0.00     0.160 HD
ENDBRANCH  10  18
ENDBRANCH   7   8
ENDBRANCH   6   7
ENDBRANCH   1   6
BRANCH   4  21
HETATM   21  C7  UNL     1      -3.622   0.175  -0.348  1.00  0.00     0.150 A 
HETATM   22  N6  UNL     1      -4.440   0.446  -1.377  1.00  0.00    -0.175 N 
HETATM   23  C8  UNL     1      -5.558  -0.235  -1.631  1.00  0.00     0.680 A 
ATOM     24  H6  UNL     1      -4.193   1.216  -1.999  1.00  0.00     0.186 HD
HETATM   25  N8  UNL     1      -5.904  -1.263  -0.814  1.00  0.00    -0.155 N 
HETATM   26  C9  UNL     1      -5.145  -1.606   0.242  1.00  0.00     0.287 A 
ATOM     27  H8  UNL     1      -6.758  -1.787  -1.005  1.00  0.00     0.187 HD
HETATM   28  O1  UNL     1      -5.455  -2.560   1.009  1.00  0.00    -0.265 OA
HETATM   29  C10 UNL     1      -3.993  -0.874   0.470  1.00  0.00     0.159 A 
HETATM   30  N9  UNL     1      -3.167  -1.211   1.565  1.00  0.00    -0.092 NA
BRANCH  23  31
HETATM   31  N7  UNL     1      -6.353   0.033  -2.632  1.00  0.00    -0.234 N 
ATOM     32  H72 UNL     1      -6.093   0.805  -3.246  1.00  0.00     0.174 HD
ATOM     33  H71 UNL     1      -7.208  -0.488  -2.826  1.00  0.00     0.174 HD
ENDBRANCH  23  31
ENDBRANCH   4  21
TORSDOF 6
