REMARK  12 active torsions:
REMARK  status: ('A' for Active; 'I' for Inactive)
REMARK    1  A    between atoms: C1_2  and  C2_3 
REMARK    2  A    between atoms: C2_3  and  O3_5 
REMARK    3  A    between atoms: O3_5  and  C3_6 
REMARK    4  A    between atoms: C3_6  and  C4_7 
REMARK    5  A    between atoms: C6_9  and  O4_10 
REMARK    6  A    between atoms: O4_10  and  C7_11 
REMARK    7  A    between atoms: C8_12  and  O5_13 
REMARK    8  A    between atoms: C9_15  and  O6_16 
REMARK    9  A    between atoms: C10_18  and  O7_19 
REMARK   10  A    between atoms: C14_24  and  O8_25 
REMARK   11  A    between atoms: C15_27  and  O9_28 
REMARK   12  A    between atoms: C16_30  and  O10_31 
ROOT
HETATM    1  C4  UNL     1       2.310   0.261  -0.407  1.00  0.00     0.044 C 
HETATM    2  C5  UNL     1       0.898  -0.097  -0.884  1.00  0.00     0.044 C 
HETATM    3  C6  UNL     1      -0.032  -0.321   0.286  1.00  0.00     0.154 C 
HETATM    4  C14 UNL     1       0.556  -1.459   1.107  1.00  0.00     0.178 C 
HETATM    5  C15 UNL     1       1.939  -1.197   1.594  1.00  0.00     0.178 C 
HETATM    6  C16 UNL     1       2.875  -0.799   0.476  1.00  0.00     0.155 C 
ENDROOT
BRANCH   3   7
HETATM    7  O4  UNL     1      -1.234  -0.802  -0.181  1.00  0.00    -0.375 OA
BRANCH   7   8
HETATM    8  C7  UNL     1      -2.339  -0.097   0.096  1.00  0.00     0.158 C 
HETATM    9  C8  UNL     1      -3.039   0.282  -1.192  1.00  0.00     0.178 C 
HETATM   10  C9  UNL     1      -3.783   1.580  -0.870  1.00  0.00     0.178 C 
HETATM   11  C10 UNL     1      -4.518   1.404   0.409  1.00  0.00     0.154 C 
HETATM   12  C11 UNL     1      -4.629   0.011   0.910  1.00  0.00     0.024 A 
HETATM   13  C12 UNL     1      -3.848  -0.249   2.218  1.00  0.00     0.015 A 
HETATM   14  C13 UNL     1      -3.379  -0.781   0.941  1.00  0.00     0.024 A 
BRANCH   9  15
HETATM   15  O5  UNL     1      -2.206   0.417  -2.272  1.00  0.00    -0.390 OA
ATOM     16  H5  UNL     1      -2.645   0.655  -3.080  1.00  0.00     0.210 HD
ENDBRANCH   9  15
BRANCH  10  17
HETATM   17  O6  UNL     1      -2.804   2.556  -0.705  1.00  0.00    -0.390 OA
ATOM     18  H6  UNL     1      -3.266   3.362  -0.505  1.00  0.00     0.210 HD
ENDBRANCH  10  17
BRANCH  11  19
HETATM   19  O7  UNL     1      -4.020   2.262   1.414  1.00  0.00    -0.393 OA
ATOM     20  H7  UNL     1      -4.490   2.149   2.232  1.00  0.00     0.210 HD
ENDBRANCH  11  19
ENDBRANCH   7   8
ENDBRANCH   3   7
BRANCH   4  21
HETATM   21  O8  UNL     1      -0.257  -1.812   2.165  1.00  0.00    -0.390 OA
ATOM     22  H8  UNL     1       0.110  -2.523   2.678  1.00  0.00     0.210 HD
ENDBRANCH   4  21
BRANCH   1  23
HETATM   23  C3  UNL     1       3.175   0.311  -1.667  1.00  0.00     0.186 C 
BRANCH  23  24
HETATM   24  O3  UNL     1       4.501   0.646  -1.238  1.00  0.00    -0.315 OA
BRANCH  24  25
HETATM   25  C2  UNL     1       5.519   0.765  -2.166  1.00  0.00     0.321 C 
HETATM   26  O2  UNL     1       5.247   0.574  -3.381  1.00  0.00    -0.257 OA
BRANCH  25  27
HETATM   27  C1  UNL     1       6.874   1.101  -1.777  1.00  0.00     0.340 C 
HETATM   28  O1  UNL     1       7.126   1.287  -0.571  1.00  0.00    -0.296 OA
ENDBRANCH  25  27
ENDBRANCH  24  25
ENDBRANCH  23  24
ENDBRANCH   1  23
BRANCH   5  29
HETATM   29  O9  UNL     1       2.434  -2.389   2.125  1.00  0.00    -0.390 OA
ATOM     30  H9  UNL     1       3.316  -2.222   2.436  1.00  0.00     0.210 HD
ENDBRANCH   5  29
BRANCH   6  31
HETATM   31  O10 UNL     1       3.219  -1.923  -0.293  1.00  0.00    -0.392 OA
ATOM     32  H10 UNL     1       3.579  -2.598   0.270  1.00  0.00     0.210 HD
ENDBRANCH   6  31
TORSDOF 12
