REMARK  11 active torsions:
REMARK  status: ('A' for Active; 'I' for Inactive)
REMARK    1  A    between atoms: C2_2  and  C3_3 
REMARK    2  A    between atoms: C6_6  and  O1_7 
REMARK    3  A    between atoms: O1_7  and  C7_8 
REMARK    4  A    between atoms: C8_9  and  O2_10 
REMARK    5  A    between atoms: C9_12  and  O3_13 
REMARK    6  A    between atoms: C10_15  and  O4_16 
REMARK    7  A    between atoms: O4_16  and  C11_17 
REMARK    8  A    between atoms: C12_19  and  O6_20 
REMARK    9  A    between atoms: C13_22  and  O7_23 
REMARK   10  A    between atoms: C14_25  and  O8_26 
REMARK   11  A    between atoms: C15_28  and  O9_29 
ROOT
HETATM    1  C7  UNL     1       0.385   1.983   1.321  1.00  0.00     0.185 C 
HETATM    2  C8  UNL     1       0.174   3.490   1.212  1.00  0.00     0.181 C 
HETATM    3  C9  UNL     1      -0.710   3.187  -0.005  1.00  0.00     0.181 C 
HETATM    4  C10 UNL     1      -0.964   1.820   0.645  1.00  0.00     0.187 C 
ENDROOT
BRANCH   4   5
HETATM    5  O4  UNL     1      -0.935   0.839  -0.311  1.00  0.00    -0.348 OA
BRANCH   5   6
HETATM    6  C11 UNL     1      -2.062   0.028  -0.213  1.00  0.00     0.294 C 
HETATM    7  O5  UNL     1      -1.605  -1.265   0.031  1.00  0.00    -0.326 OA
HETATM    8  C12 UNL     1      -2.672  -2.142   0.294  1.00  0.00     0.291 C 
HETATM    9  C13 UNL     1      -3.839  -1.867  -0.627  1.00  0.00     0.204 C 
HETATM   10  C14 UNL     1      -3.255  -1.267  -1.898  1.00  0.00     0.185 C 
HETATM   11  C15 UNL     1      -2.781   0.128  -1.548  1.00  0.00     0.204 C 
BRANCH   8  12
HETATM   12  O6  UNL     1      -3.016  -2.137   1.625  1.00  0.00    -0.368 OA
ATOM     13  H6  UNL     1      -3.737  -2.730   1.803  1.00  0.00     0.212 HD
ENDBRANCH   8  12
BRANCH   9  14
HETATM   14  O7  UNL     1      -4.725  -0.953  -0.110  1.00  0.00    -0.388 OA
ATOM     15  H7  UNL     1      -5.458  -0.780  -0.689  1.00  0.00     0.210 HD
ENDBRANCH   9  14
BRANCH  10  16
HETATM   16  O8  UNL     1      -4.195  -1.273  -2.916  1.00  0.00    -0.390 OA
ATOM     17  H8  UNL     1      -3.830  -0.898  -3.709  1.00  0.00     0.210 HD
ENDBRANCH  10  16
BRANCH  11  18
HETATM   18  O9  UNL     1      -3.785   1.063  -1.545  1.00  0.00    -0.388 OA
ATOM     19  H9  UNL     1      -4.234   1.126  -2.380  1.00  0.00     0.210 HD
ENDBRANCH  11  18
ENDBRANCH   5   6
ENDBRANCH   4   5
BRANCH   1  20
HETATM   20  O1  UNL     1       1.385   1.481   0.554  1.00  0.00    -0.373 OA
BRANCH  20  21
HETATM   21  C6  UNL     1       2.220   0.574   1.131  1.00  0.00     0.149 C 
HETATM   22  C5  UNL     1       2.299  -0.754   0.459  1.00  0.00     0.076 C 
HETATM   23  C3  UNL     1       3.703  -1.211   0.800  1.00  0.00     0.077 C 
HETATM   24  C4  UNL     1       3.624  -2.470   1.641  1.00  0.00     0.050 C 
HETATM   25  O10 UNL     1       4.264  -0.219   1.588  1.00  0.00    -0.374 OA
HETATM   26  C16 UNL     1       3.670   0.986   1.181  1.00  0.00     0.201 C 
BRANCH  23  27
HETATM   27  C2  UNL     1       4.481  -1.444  -0.448  1.00  0.00     0.000 C 
HETATM   28  C1  UNL     1       3.937  -2.009  -1.486  1.00  0.00     0.010 C 
ENDBRANCH  23  27
ENDBRANCH  20  21
ENDBRANCH   1  20
BRANCH   3  29
HETATM   29  O3  UNL     1       0.068   3.124  -1.145  1.00  0.00    -0.390 OA
ATOM     30  H3  UNL     1      -0.479   2.936  -1.898  1.00  0.00     0.210 HD
ENDBRANCH   3  29
BRANCH   2  31
HETATM   31  O2  UNL     1       1.284   4.220   0.882  1.00  0.00    -0.390 OA
ATOM     32  H2  UNL     1       1.153   5.158   0.814  1.00  0.00     0.210 HD
ENDBRANCH   2  31
TORSDOF 11
