REMARK  9 active torsions:
REMARK  status: ('A' for Active; 'I' for Inactive)
REMARK    1  A    between atoms: N1_1  and  C1_5 
REMARK    2  A    between atoms: C3_10  and  N3_11 
REMARK    3  A    between atoms: N3_11  and  C4_13 
REMARK    4  A    between atoms: C5_16  and  N5_17 
REMARK    5  A    between atoms: N5_17  and  C6_19 
REMARK    6  A    between atoms: C6_19  and  C7_20 
REMARK    7  A    between atoms: C7_20  and  S1_21 
REMARK    8  A    between atoms: C9_28  and  N7_29 
REMARK    9  A    between atoms: C11_33  and  N8_34 
ROOT
HETATM    1  C4  UNL     1      -0.109  -1.532  -1.284  1.00  0.00     0.153 A 
HETATM    2  N4  UNL     1       0.440  -0.840  -0.290  1.00  0.00    -0.174 N 
ATOM      3  H4  UNL     1      -0.173  -0.278   0.301  1.00  0.00     0.186 HD
HETATM    4  C5  UNL     1       1.776  -0.839  -0.015  1.00  0.00     0.679 A 
HETATM    5  N6  UNL     1       2.531  -1.594  -0.822  1.00  0.00    -0.199 N 
ATOM      6  H6  UNL     1       3.536  -1.623  -0.652  1.00  0.00     0.183 HD
HETATM    7  C8  UNL     1       2.041  -2.314  -1.840  1.00  0.00     0.146 A 
HETATM    8  C9  UNL     1       0.695  -2.301  -2.098  1.00  0.00     0.162 A 
ENDROOT
BRANCH   1   9
HETATM    9  N3  UNL     1      -1.353  -1.484  -1.481  1.00  0.00    -0.346 N 
ATOM     10  H3  UNL     1      -1.665  -2.052  -2.269  1.00  0.00     0.163 HD
BRANCH   9  11
HETATM   11  C3  UNL     1      -2.397  -0.800  -0.827  1.00  0.00     0.287 C 
HETATM   12  N2  UNL     1      -2.475  -1.286   0.551  1.00  0.00    -0.052 N 
HETATM   13  C2  UNL     1      -3.737  -0.749   1.088  1.00  0.00     0.269 C 
ATOM     14  H22 UNL     1      -1.658  -1.053   1.115  1.00  0.00     0.279 HD
ATOM     15  H21 UNL     1      -2.393  -2.299   0.633  1.00  0.00     0.279 HD
HETATM   16  C1  UNL     1      -3.468   0.700   1.382  1.00  0.00     0.239 C 
HETATM   17  C11 UNL     1      -2.776   1.428   0.291  1.00  0.00     0.219 C 
HETATM   18  C10 UNL     1      -2.438   0.675  -0.934  1.00  0.00     0.089 C 
BRANCH  16  19
HETATM   19  N1  UNL     1      -2.633   0.710   2.592  1.00  0.00    -0.071 N 
ATOM     20  H13 UNL     1      -3.043   0.202   3.376  1.00  0.00     0.274 HD
ATOM     21  H12 UNL     1      -1.788   0.145   2.511  1.00  0.00     0.274 HD
ATOM     22  H11 UNL     1      -2.450   1.693   2.792  1.00  0.00     0.274 HD
ENDBRANCH  16  19
BRANCH  17  23
HETATM   23  N8  UNL     1      -3.623   2.584  -0.059  1.00  0.00    -0.073 N 
ATOM     24  H83 UNL     1      -4.580   2.323  -0.295  1.00  0.00     0.274 HD
ATOM     25  H82 UNL     1      -3.844   3.176   0.741  1.00  0.00     0.274 HD
ATOM     26  H81 UNL     1      -3.147   3.085  -0.809  1.00  0.00     0.274 HD
ENDBRANCH  17  23
ENDBRANCH   9  11
ENDBRANCH   1   9
BRANCH   8  27
HETATM   27  N7  UNL     1       0.139  -3.060  -3.180  1.00  0.00    -0.110 N 
HETATM   28  O4  UNL     1      -1.000  -3.505  -3.056  1.00  0.00    -0.532 OA
HETATM   29  O5  UNL     1       0.875  -3.263  -4.295  1.00  0.00    -0.532 OA
ENDBRANCH   8  27
BRANCH   4  30
HETATM   30  N5  UNL     1       2.250  -0.151   0.960  1.00  0.00    -0.225 N 
ATOM     31  H5  UNL     1       1.596   0.394   1.522  1.00  0.00     0.177 HD
BRANCH  30  32
HETATM   32  C6  UNL     1       3.628  -0.101   1.306  1.00  0.00     0.155 C 
BRANCH  32  33
HETATM   33  C7  UNL     1       4.440   0.859   0.451  1.00  0.00     0.185 C 
BRANCH  33  34
HETATM   34  S1  UNL     1       3.832   2.518   0.592  1.00  0.00     0.103 S 
HETATM   35  O1  UNL     1       2.410   2.522   0.121  1.00  0.00    -0.595 OA
HETATM   36  O2  UNL     1       3.849   2.925   2.032  1.00  0.00    -0.595 OA
HETATM   37  O3  UNL     1       4.764   3.512  -0.366  1.00  0.00    -0.595 OA
ENDBRANCH  33  34
ENDBRANCH  32  33
ENDBRANCH  30  32
ENDBRANCH   4  30
TORSDOF 9
