REMARK  8 active torsions:
REMARK  status: ('A' for Active; 'I' for Inactive)
REMARK    1  A    between atoms: N4_14  and  N5_16 
REMARK    2  A    between atoms: N7_24  and  C9_25 
REMARK    3  A    between atoms: C9_25  and  O4_26 
REMARK    4  A    between atoms: O4_26  and  C10_27 
REMARK    5  A    between atoms: C10_27  and  C11_28 
REMARK    6  A    between atoms: C10_27  and  C12_31 
REMARK    7  A    between atoms: C11_28  and  O5_29 
REMARK    8  A    between atoms: C12_31  and  O6_32 
ROOT
HETATM    1  C1  UNL     1      -4.229  -2.715   0.323  1.00  0.00     0.163 C 
HETATM    2  N1  UNL     1      -3.019  -2.282  -0.357  1.00  0.00    -0.289 N 
HETATM    3  C2  UNL     1      -2.440  -2.988  -1.323  1.00  0.00     0.330 A 
HETATM    4  O1  UNL     1      -2.992  -4.076  -1.639  1.00  0.00    -0.246 OA
HETATM    5  N2  UNL     1      -1.335  -2.603  -1.951  1.00  0.00    -0.274 N 
ATOM      6  H2  UNL     1      -0.945  -3.195  -2.684  1.00  0.00     0.173 HD
HETATM    7  C3  UNL     1      -0.707  -1.422  -1.632  1.00  0.00     0.265 A 
HETATM    8  O2  UNL     1       0.270  -1.235  -2.295  1.00  0.00    -0.267 OA
HETATM    9  C4  UNL     1      -1.266  -0.670  -0.649  1.00  0.00     0.106 A 
HETATM   10  C5  UNL     1      -2.442  -1.120  -0.010  1.00  0.00     0.131 A 
HETATM   11  N3  UNL     1      -3.026  -0.401   0.957  1.00  0.00    -0.325 N 
ATOM     12  H3  UNL     1      -3.874  -0.754   1.401  1.00  0.00     0.169 HD
HETATM   13  C6  UNL     1      -2.519   0.771   1.352  1.00  0.00     0.150 A 
HETATM   14  N4  UNL     1      -3.112   1.400   2.264  1.00  0.00    -0.290 N 
ATOM     15  H4  UNL     1      -3.942   0.907   2.595  1.00  0.00     0.188 HD
HETATM   16  C7  UNL     1      -1.376   1.265   0.768  1.00  0.00     0.111 A 
HETATM   17  N6  UNL     1      -0.678   2.371   0.949  1.00  0.00    -0.303 N 
ATOM     18  H6  UNL     1      -0.891   3.107   1.622  1.00  0.00     0.171 HD
HETATM   19  C8  UNL     1       0.353   2.363   0.103  1.00  0.00     0.333 A 
HETATM   20  O3  UNL     1       1.214   3.268   0.007  1.00  0.00    -0.246 OA
HETATM   21  N7  UNL     1       0.344   1.214  -0.666  1.00  0.00    -0.251 N 
HETATM   22  C13 UNL     1      -0.720   0.541  -0.258  1.00  0.00     0.095 A 
ENDROOT
BRANCH  21  23
HETATM   23  C9  UNL     1       1.362   0.967  -1.630  1.00  0.00     0.239 C 
BRANCH  23  24
HETATM   24  O4  UNL     1       2.436   0.225  -1.282  1.00  0.00    -0.336 OA
BRANCH  24  25
HETATM   25  C10 UNL     1       3.307   0.471  -0.341  1.00  0.00     0.176 C 
BRANCH  25  26
HETATM   26  C11 UNL     1       3.228  -0.642   0.724  1.00  0.00     0.198 C 
BRANCH  26  27
HETATM   27  O5  UNL     1       4.169  -0.343   1.705  1.00  0.00    -0.398 OA
ATOM     28  H5  UNL     1       4.120  -1.028   2.361  1.00  0.00     0.209 HD
ENDBRANCH  26  27
ENDBRANCH  25  26
BRANCH  25  29
HETATM   29  C12 UNL     1       4.764   0.573  -0.794  1.00  0.00     0.198 C 
BRANCH  29  30
HETATM   30  O6  UNL     1       4.857   1.597  -1.705  1.00  0.00    -0.398 OA
ATOM     31  H6  UNL     1       5.762   1.660  -1.986  1.00  0.00     0.209 HD
ENDBRANCH  29  30
ENDBRANCH  25  29
ENDBRANCH  24  25
ENDBRANCH  23  24
ENDBRANCH  21  23
BRANCH  14  32
HETATM   32  N5  UNL     1      -2.921   2.564   2.911  1.00  0.00    -0.344 N 
ATOM     33  H52 UNL     1      -2.087   3.038   2.564  1.00  0.00     0.176 HD
ATOM     34  H51 UNL     1      -3.402   3.075   3.651  1.00  0.00     0.176 HD
ENDBRANCH  14  32
TORSDOF 8
