REMARK  7 active torsions:
REMARK  status: ('A' for Active; 'I' for Inactive)
REMARK    1  A    between atoms: C3_5  and  N2_6 
REMARK    2  A    between atoms: C5_13  and  C6_14 
REMARK    3  A    between atoms: N4_15  and  N5_17 
REMARK    4  A    between atoms: N5_17  and  C7_19 
REMARK    5  A    between atoms: N7_24  and  N8_25 
REMARK       I    between atoms: N8_25  and  C10_27 
REMARK    6  A    between atoms: C10_27  and  C11_29 
REMARK    7  A    between atoms: N9_30  and  N10_32 
ROOT
HETATM    1  C7  UNL     1       0.096   0.895  -1.656  1.00  0.00     0.709 C 
HETATM    2  N6  UNL     1      -0.477   1.127  -2.787  1.00  0.00    -0.222 N 
ATOM      3  H6  UNL     1      -1.258   1.770  -2.915  1.00  0.00     0.177 HD
HETATM    4  C8  UNL     1       0.132   0.356  -3.853  1.00  0.00     0.160 C 
HETATM    5  C9  UNL     1       0.753  -0.788  -3.058  1.00  0.00     0.188 C 
HETATM    6  N7  UNL     1       1.143  -0.051  -1.845  1.00  0.00    -0.118 N 
ENDROOT
BRANCH   1   7
HETATM    7  N5  UNL     1      -0.227   1.467  -0.386  1.00  0.00    -0.131 N 
ATOM      8  H5  UNL     1       0.486   1.898   0.202  1.00  0.00     0.205 HD
BRANCH   7   9
HETATM    9  N4  UNL     1      -1.563   1.407   0.010  1.00  0.00    -0.297 N 
HETATM   10  C6  UNL     1      -2.180   0.296   0.256  1.00  0.00     0.126 C 
ATOM     11  H4  UNL     1      -2.079   2.281   0.111  1.00  0.00     0.186 HD
BRANCH  10  12
HETATM   12  C5  UNL     1      -3.579   0.382   0.661  1.00  0.00     0.072 A 
HETATM   13  C2  UNL     1      -4.320  -0.754   0.944  1.00  0.00     0.040 A 
HETATM   14  C1  UNL     1      -3.617  -2.059   0.815  1.00  0.00     0.070 C 
HETATM   15  N1  UNL     1      -5.610  -0.702   1.319  1.00  0.00    -0.195 N 
HETATM   16  C3  UNL     1      -6.209   0.501   1.425  1.00  0.00     0.679 A 
ATOM     17  H1  UNL     1      -6.127  -1.558   1.520  1.00  0.00     0.184 HD
HETATM   18  N3  UNL     1      -5.517   1.620   1.157  1.00  0.00    -0.156 N 
HETATM   19  C4  UNL     1      -4.229   1.590   0.782  1.00  0.00     0.273 A 
ATOM     20  H3  UNL     1      -5.986   2.522   1.241  1.00  0.00     0.187 HD
HETATM   21  O1  UNL     1      -3.590   2.644   0.533  1.00  0.00    -0.267 OA
BRANCH  16  22
HETATM   22  N2  UNL     1      -7.451   0.588   1.785  1.00  0.00    -0.234 N 
ATOM     23  H22 UNL     1      -7.977  -0.262   1.989  1.00  0.00     0.174 HD
ATOM     24  H21 UNL     1      -7.904   1.498   1.865  1.00  0.00     0.174 HD
ENDBRANCH  16  22
ENDBRANCH  10  12
ENDBRANCH   7   9
ENDBRANCH   1   7
BRANCH   6  25
HETATM   25  N8  UNL     1       2.295  -0.283  -1.102  1.00  0.00    -0.249 N 
HETATM   26  C10 UNL     1       2.302  -0.673   0.264  1.00  0.00     0.277 C 
HETATM   27  O2  UNL     1       1.236  -0.832   0.889  1.00  0.00    -0.265 OA
ATOM     28  H8  UNL     1       3.194  -0.165  -1.568  1.00  0.00     0.191 HD
BRANCH  26  29
HETATM   29  C11 UNL     1       3.542  -0.902   0.996  1.00  0.00     0.182 C 
HETATM   30  N9  UNL     1       4.657  -0.743   0.369  1.00  0.00    -0.304 N 
ATOM     31  H9  UNL     1       4.630  -0.464  -0.612  1.00  0.00     0.186 HD
BRANCH  30  32
HETATM   32  N10 UNL     1       5.891  -0.935   0.970  1.00  0.00    -0.276 N 
HETATM   33  C12 UNL     1       6.627   0.047   1.420  1.00  0.00     0.215 C 
HETATM   34  N11 UNL     1       6.115   1.354   1.273  1.00  0.00    -0.065 NA
HETATM   35  N12 UNL     1       7.877  -0.226   2.023  1.00  0.00    -0.065 NA
ATOM     36  H10 UNL     1       6.242  -1.888   1.066  1.00  0.00     0.189 HD
ENDBRANCH  30  32
ENDBRANCH  26  29
ENDBRANCH   6  25
TORSDOF 7
