REMARK  3 active torsions:
REMARK  status: ('A' for Active; 'I' for Inactive)
REMARK    1  A    between atoms: C2_7  and  C3_8 
REMARK    2  A    between atoms: C3_8  and  N3_9 
REMARK    3  A    between atoms: C12_22  and  O3_23 
ROOT
HETATM    1  N1  UNL     1      -5.131  -1.806   2.461  1.00  0.00    -0.384 N 
ATOM      2  H11 UNL     1      -5.921  -1.298   2.858  1.00  0.00     0.157 HD
ATOM      3  H12 UNL     1      -5.420  -2.784   2.467  1.00  0.00     0.157 HD
HETATM    4  C1  UNL     1      -4.056  -1.403   2.052  1.00  0.00     0.129 A 
HETATM    5  N2  UNL     1      -2.959  -2.108   1.501  1.00  0.00    -0.329 N 
ATOM      6  H2  UNL     1      -2.900  -3.116   1.356  1.00  0.00     0.168 HD
HETATM    7  C2  UNL     1      -1.950  -1.149   1.186  1.00  0.00     0.112 A 
HETATM    8  N4  UNL     1      -2.325   0.040   1.488  1.00  0.00    -0.340 N 
ATOM      9  H4  UNL     1      -1.766   0.882   1.351  1.00  0.00     0.167 HD
HETATM   10  C11 UNL     1      -3.638   0.010   2.043  1.00  0.00     0.099 A 
HETATM   11  C12 UNL     1      -4.337   1.051   2.464  1.00  0.00     0.164 C 
ENDROOT
BRANCH   7  12
HETATM   12  C3  UNL     1      -0.653  -1.540   0.587  1.00  0.00     0.348 C 
BRANCH  12  13
HETATM   13  N3  UNL     1       0.204  -0.385   0.359  1.00  0.00     0.098 N 
HETATM   14  C4  UNL     1       1.359  -0.532   1.181  1.00  0.00     0.275 C 
HETATM   15  C5  UNL     1       2.463   0.435   0.918  1.00  0.00     0.065 C 
HETATM   16  C6  UNL     1       2.725   0.450  -0.587  1.00  0.00     0.153 C 
HETATM   17  O1  UNL     1       3.723   1.334  -0.931  1.00  0.00    -0.381 OA
HETATM   18  C9  UNL     1       1.452   0.861  -1.243  1.00  0.00     0.178 C 
HETATM   19  C7  UNL     1       3.932   1.184  -2.303  1.00  0.00     0.194 C 
HETATM   20  C8  UNL     1       2.719   1.427  -3.118  1.00  0.00     0.194 C 
HETATM   21  O2  UNL     1       1.522   1.292  -2.514  1.00  0.00    -0.379 OA
HETATM   22  C10 UNL     1       0.467  -0.299  -1.045  1.00  0.00     0.307 C 
ENDBRANCH  12  13
ENDBRANCH   7  12
BRANCH  11  23
HETATM   23  O3  UNL     1      -3.768   2.312   2.373  1.00  0.00    -0.370 OA
ATOM     24  H3  UNL     1      -4.270   3.060   2.675  1.00  0.00     0.216 HD
ENDBRANCH  11  23
TORSDOF 3
