REMARK  8 active torsions:
REMARK  status: ('A' for Active; 'I' for Inactive)
REMARK    1  A    between atoms: N2_3  and  O1_4 
REMARK       I    between atoms: N2_3  and  C2_6 
REMARK    2  A    between atoms: C2_6  and  C3_8 
REMARK    3  A    between atoms: N4_12  and  N5_14 
REMARK    4  A    between atoms: C6_18  and  N6_19 
REMARK    5  A    between atoms: N6_19  and  N8_23 
REMARK    6  A    between atoms: N10_28  and  C7_29 
REMARK    7  A    between atoms: C7_29  and  C8_30 
REMARK    8  A    between atoms: C8_30  and  O3_31 
ROOT
HETATM    1  N1  UNL     1       5.543   2.149  -3.116  1.00  0.00    -0.169 NA
HETATM    2  C1  UNL     1       4.536   1.980  -2.585  1.00  0.00     0.214 C 
HETATM    3  N2  UNL     1       3.263   1.777  -1.943  1.00  0.00    -0.114 N 
HETATM    4  C2  UNL     1       2.868   0.455  -1.724  1.00  0.00     0.325 C 
HETATM    5  O2  UNL     1       3.666  -0.491  -2.112  1.00  0.00    -0.261 OA
ENDROOT
BRANCH   3   6
HETATM    6  O1  UNL     1       2.542   2.855  -1.599  1.00  0.00    -0.271 OA
ATOM      7  H1  UNL     1       1.702   2.721  -1.175  1.00  0.00     0.246 HD
ENDBRANCH   3   6
BRANCH   4   8
HETATM    8  C3  UNL     1       1.651  -0.027  -1.105  1.00  0.00     0.181 A 
HETATM    9  N3  UNL     1       1.441  -1.379  -0.985  1.00  0.00    -0.322 N 
HETATM   10  C4  UNL     1       0.355  -1.908  -0.433  1.00  0.00     0.139 A 
ATOM     11  H3  UNL     1       2.158  -2.012  -1.339  1.00  0.00     0.169 HD
HETATM   12  N4  UNL     1       0.166  -3.181  -0.330  1.00  0.00    -0.291 N 
HETATM   13  C5  UNL     1      -0.603  -1.039   0.040  1.00  0.00     0.104 A 
ATOM     14  H4  UNL     1      -0.696  -3.505   0.108  1.00  0.00     0.188 HD
HETATM   15  C6  UNL     1      -1.838  -1.196   0.662  1.00  0.00     0.176 A 
HETATM   16  C9  UNL     1      -0.435   0.322  -0.059  1.00  0.00     0.142 A 
HETATM   17  N9  UNL     1      -2.323   0.011   0.892  1.00  0.00    -0.278 N 
HETATM   18  N10 UNL     1      -1.508   0.961   0.472  1.00  0.00    -0.272 N 
ATOM     19  H9  UNL     1      -3.221   0.188   1.341  1.00  0.00     0.189 HD
HETATM   20  N11 UNL     1       0.692   0.777  -0.631  1.00  0.00    -0.322 N 
ATOM     21  H11 UNL     1       0.823   1.786  -0.708  1.00  0.00     0.169 HD
BRANCH  12  22
HETATM   22  N5  UNL     1       1.073  -4.137  -0.783  1.00  0.00    -0.344 N 
ATOM     23  H52 UNL     1       1.930  -3.795  -1.218  1.00  0.00     0.176 HD
ATOM     24  H51 UNL     1       0.924  -5.143  -0.702  1.00  0.00     0.176 HD
ENDBRANCH  12  22
BRANCH  15  25
HETATM   25  N6  UNL     1      -2.375  -2.481   0.948  1.00  0.00    -0.191 N 
HETATM   26  N7  UNL     1      -3.053  -3.041   0.041  1.00  0.00    -0.323 N 
ATOM     27  H72 UNL     1      -3.212  -2.588  -0.859  1.00  0.00     0.179 HD
ATOM     28  H71 UNL     1      -3.438  -3.963   0.246  1.00  0.00     0.179 HD
BRANCH  25  29
HETATM   29  N8  UNL     1      -2.158  -3.098   2.175  1.00  0.00    -0.323 N 
ATOM     30  H82 UNL     1      -1.611  -2.646   2.907  1.00  0.00     0.179 HD
ATOM     31  H81 UNL     1      -2.543  -4.020   2.380  1.00  0.00     0.179 HD
ENDBRANCH  25  29
ENDBRANCH  15  25
BRANCH  18  32
HETATM   32  C7  UNL     1      -1.706   2.376   0.552  1.00  0.00     0.177 C 
BRANCH  32  33
HETATM   33  C8  UNL     1      -1.179   3.016   1.801  1.00  0.00     0.185 C 
BRANCH  33  34
HETATM   34  O3  UNL     1      -1.444   4.404   1.747  1.00  0.00    -0.399 OA
ATOM     35  H3  UNL     1      -1.110   4.810   2.539  1.00  0.00     0.209 HD
ENDBRANCH  33  34
ENDBRANCH  32  33
ENDBRANCH  18  32
ENDBRANCH   4   8
TORSDOF 8
