REMARK  9 active torsions:
REMARK  status: ('A' for Active; 'I' for Inactive)
REMARK    1  A    between atoms: C2_2  and  O1_3 
REMARK    2  A    between atoms: O1_3  and  C3_4 
REMARK    3  A    between atoms: C3_4  and  N1_5 
REMARK    4  A    between atoms: C6_10  and  N3_11 
REMARK    5  A    between atoms: N3_11  and  N4_13 
REMARK    6  A    between atoms: N6_19  and  C8_21 
REMARK    7  A    between atoms: C8_21  and  N7_22 
REMARK    8  A    between atoms: C8_21  and  O2_26 
REMARK    9  A    between atoms: O2_26  and  N8_27 
ROOT
HETATM    1  N1  UNL     1       2.593  -1.606   0.281  1.00  0.00    -0.282 N 
HETATM    2  C4  UNL     1       2.624  -2.233   1.491  1.00  0.00     0.192 A 
HETATM    3  N2  UNL     1       1.358  -2.348   1.924  1.00  0.00    -0.346 N 
ATOM      4  H2  UNL     1       1.071  -2.778   2.803  1.00  0.00     0.167 HD
HETATM    5  C5  UNL     1       0.543  -1.815   1.029  1.00  0.00     0.124 A 
HETATM    6  C6  UNL     1      -0.837  -1.765   1.174  1.00  0.00     0.152 C 
HETATM    7  N5  UNL     1      -1.650  -0.934   0.496  1.00  0.00    -0.323 N 
ATOM      8  H5  UNL     1      -2.626  -0.944   0.791  1.00  0.00     0.169 HD
HETATM    9  C7  UNL     1      -1.360  -0.084  -0.524  1.00  0.00     0.150 C 
HETATM   10  N6  UNL     1      -2.104   0.937  -0.699  1.00  0.00    -0.323 N 
ATOM     11  H6  UNL     1      -1.852   1.549  -1.475  1.00  0.00     0.165 HD
HETATM   12  C9  UNL     1      -0.317  -0.208  -1.418  1.00  0.00     0.147 C 
HETATM   13  N9  UNL     1      -0.432   0.182  -2.622  1.00  0.00    -0.378 N 
ATOM     14  H9  UNL     1       0.394   0.049  -3.205  1.00  0.00     0.160 HD
HETATM   15  C10 UNL     1      -1.549   0.778  -3.274  1.00  0.00     0.148 C 
HETATM   16  N10 UNL     1       0.911  -0.748  -1.137  1.00  0.00    -0.323 N 
ATOM     17  H10 UNL     1       1.600  -0.687  -1.887  1.00  0.00     0.169 HD
HETATM   18  C11 UNL     1       1.325  -1.335  -0.033  1.00  0.00     0.146 A 
ENDROOT
BRANCH  10  19
HETATM   19  C8  UNL     1      -3.246   1.325   0.061  1.00  0.00     0.451 C 
BRANCH  19  20
HETATM   20  N7  UNL     1      -4.052   2.199  -0.805  1.00  0.00    -0.033 N 
ATOM     21  H73 UNL     1      -3.528   2.991  -1.178  1.00  0.00     0.279 HD
ATOM     22  H72 UNL     1      -4.290   1.771  -1.700  1.00  0.00     0.279 HD
ATOM     23  H71 UNL     1      -4.869   2.477  -0.261  1.00  0.00     0.279 HD
ENDBRANCH  19  20
BRANCH  19  24
HETATM   24  O2  UNL     1      -2.881   2.052   1.218  1.00  0.00    -0.232 OA
BRANCH  24  25
HETATM   25  N8  UNL     1      -3.505   1.535   2.298  1.00  0.00    -0.307 N 
ATOM     26  H82 UNL     1      -4.142   0.739   2.268  1.00  0.00     0.184 HD
ATOM     27  H81 UNL     1      -3.242   2.059   3.132  1.00  0.00     0.184 HD
ENDBRANCH  24  25
ENDBRANCH  19  24
ENDBRANCH  10  19
BRANCH   6  28
HETATM   28  N3  UNL     1      -1.346  -2.572   2.013  1.00  0.00    -0.290 N 
ATOM     29  H3  UNL     1      -0.698  -3.186   2.506  1.00  0.00     0.188 HD
BRANCH  28  30
HETATM   30  N4  UNL     1      -2.675  -2.705   2.326  1.00  0.00    -0.344 N 
ATOM     31  H42 UNL     1      -3.308  -2.083   1.823  1.00  0.00     0.176 HD
ATOM     32  H41 UNL     1      -3.084  -3.353   3.000  1.00  0.00     0.176 HD
ENDBRANCH  28  30
ENDBRANCH   6  28
BRANCH   1  33
HETATM   33  C3  UNL     1       3.779  -1.306  -0.449  1.00  0.00     0.235 C 
BRANCH  33  34
HETATM   34  O1  UNL     1       4.392  -0.122  -0.106  1.00  0.00    -0.346 OA
BRANCH  34  35
HETATM   35  C2  UNL     1       3.644   1.013  -0.244  1.00  0.00     0.171 C 
HETATM   36  C1  UNL     1       4.542   2.186   0.169  1.00  0.00     0.034 C 
ENDBRANCH  34  35
ENDBRANCH  33  34
ENDBRANCH   1  33
TORSDOF 9
