REMARK  3 active torsions:
REMARK  status: ('A' for Active; 'I' for Inactive)
REMARK    1  A    between atoms: N1_1  and  C1_4 
REMARK    2  A    between atoms: N6_17  and  C5_18 
REMARK    3  A    between atoms: C7_23  and  N8_24 
ROOT
HETATM    1  C1  UNL     1      -3.027   0.645   0.129  1.00  0.00     0.135 A 
HETATM    2  N2  UNL     1      -3.365  -0.492  -0.521  1.00  0.00    -0.293 N 
ATOM      3  H2  UNL     1      -4.336  -0.638  -0.797  1.00  0.00     0.172 HD
HETATM    4  C2  UNL     1      -2.461  -1.423  -0.808  1.00  0.00     0.327 A 
HETATM    5  O1  UNL     1      -2.720  -2.496  -1.409  1.00  0.00    -0.247 OA
HETATM    6  N3  UNL     1      -1.181  -1.229  -0.444  1.00  0.00    -0.291 N 
ATOM      7  H3  UNL     1      -0.494  -1.948  -0.668  1.00  0.00     0.172 HD
HETATM    8  C3  UNL     1      -0.766  -0.109   0.213  1.00  0.00     0.162 A 
HETATM    9  C4  UNL     1      -1.715   0.848   0.504  1.00  0.00     0.139 A 
HETATM   10  N4  UNL     1      -1.033   1.816   1.139  1.00  0.00    -0.279 N 
ATOM     11  H4  UNL     1      -1.436   2.682   1.497  1.00  0.00     0.189 HD
HETATM   12  N5  UNL     1       0.238   1.475   1.229  1.00  0.00    -0.236 N 
ATOM     13  H5  UNL     1       0.968   2.037   1.667  1.00  0.00     0.208 HD
HETATM   14  N6  UNL     1       0.418   0.313   0.674  1.00  0.00    -0.233 N 
ENDROOT
BRANCH  14  15
HETATM   15  C5  UNL     1       1.630  -0.467   0.527  1.00  0.00     0.251 C 
HETATM   16  N7  UNL     1       2.775   0.012   1.244  1.00  0.00    -0.334 N 
HETATM   17  C6  UNL     1       3.575  -0.437   0.170  1.00  0.00     0.254 C 
ATOM     18  H7  UNL     1       2.940   0.474   2.138  1.00  0.00     0.164 HD
HETATM   19  O2  UNL     1       4.746  -0.827   0.062  1.00  0.00    -0.271 OA
HETATM   20  C7  UNL     1       2.418  -0.232  -0.719  1.00  0.00     0.318 C 
BRANCH  20  21
HETATM   21  N8  UNL     1       2.414   1.104  -1.251  1.00  0.00    -0.063 N 
ATOM     22  H83 UNL     1       1.452   1.411  -1.394  1.00  0.00     0.275 HD
ATOM     23  H82 UNL     1       2.715   1.759  -0.529  1.00  0.00     0.275 HD
ATOM     24  H81 UNL     1       2.952   1.265  -2.102  1.00  0.00     0.275 HD
ENDBRANCH  20  21
ENDBRANCH  14  15
BRANCH   1  25
HETATM   25  N1  UNL     1      -3.915   1.545   0.403  1.00  0.00    -0.383 N 
ATOM     26  H12 UNL     1      -4.885   1.395   0.126  1.00  0.00     0.157 HD
ATOM     27  H11 UNL     1      -3.660   2.402   0.893  1.00  0.00     0.157 HD
ENDBRANCH   1  25
TORSDOF 3
