REMARK  3 active torsions:
REMARK  status: ('A' for Active; 'I' for Inactive)
REMARK    1  A    between atoms: N1_1  and  C1_4 
REMARK    2  A    between atoms: C2_7  and  C3_8 
REMARK    3  A    between atoms: N3_9  and  N4_11 
ROOT
HETATM    1  C1  UNL     1      -2.346  -1.129   0.596  1.00  0.00     0.680 C 
HETATM    2  N2  UNL     1      -1.115  -0.559   0.492  1.00  0.00    -0.185 N 
ATOM      3  H2  UNL     1      -0.327  -1.084   0.872  1.00  0.00     0.184 HD
HETATM    4  C2  UNL     1      -0.845   0.627  -0.063  1.00  0.00     0.134 C 
HETATM    5  C5  UNL     1      -1.694   1.522  -0.668  1.00  0.00     0.278 C 
HETATM    6  O1  UNL     1      -1.167   2.469  -1.329  1.00  0.00    -0.265 OA
HETATM    7  N7  UNL     1      -3.051   1.559  -0.675  1.00  0.00    -0.273 N 
ATOM      8  H7  UNL     1      -3.505   2.280  -1.236  1.00  0.00     0.173 HD
HETATM    9  C6  UNL     1      -3.842   0.702   0.014  1.00  0.00     0.341 C 
HETATM   10  O2  UNL     1      -5.012   1.149   0.231  1.00  0.00    -0.246 OA
HETATM   11  N8  UNL     1      -3.548  -0.524   0.481  1.00  0.00    -0.141 N 
ATOM     12  H8  UNL     1      -4.347  -1.076   0.793  1.00  0.00     0.189 HD
ENDROOT
BRANCH   4  13
HETATM   13  C3  UNL     1       0.541   1.033  -0.024  1.00  0.00     0.143 C 
HETATM   14  N3  UNL     1       1.410   0.259   0.523  1.00  0.00    -0.307 N 
ATOM     15  H3  UNL     1       1.084  -0.625   0.914  1.00  0.00     0.186 HD
BRANCH  14  16
HETATM   16  N4  UNL     1       2.762   0.551   0.614  1.00  0.00    -0.276 N 
HETATM   17  C4  UNL     1       3.611  -0.299   0.137  1.00  0.00     0.215 C 
HETATM   18  N5  UNL     1       4.986   0.032   0.246  1.00  0.00    -0.065 NA
HETATM   19  N6  UNL     1       3.194  -1.509  -0.469  1.00  0.00    -0.065 NA
ATOM     20  H4  UNL     1       3.080   1.418   1.048  1.00  0.00     0.189 HD
ENDBRANCH  14  16
ENDBRANCH   4  13
BRANCH   1  21
HETATM   21  N1  UNL     1      -2.404  -2.376   0.829  1.00  0.00    -0.234 N 
ATOM     22  H12 UNL     1      -1.496  -2.833   0.916  1.00  0.00     0.174 HD
ATOM     23  H11 UNL     1      -3.327  -2.803   0.907  1.00  0.00     0.174 HD
ENDBRANCH   1  21
TORSDOF 3
