REMARK  4 active torsions:
REMARK  status: ('A' for Active; 'I' for Inactive)
REMARK    1  A    between atoms: C1_2  and  C2_4 
REMARK    2  A    between atoms: N1_8  and  C5_9 
REMARK    3  A    between atoms: C5_9  and  C6_10 
REMARK    4  A    between atoms: C7_11  and  C8_12 
ROOT
HETATM    1  C2  UNL     1      -2.294  -0.446  -0.355  1.00  0.00     0.333 C 
HETATM    2  C3  UNL     1      -2.972  -1.767  -0.186  1.00  0.00     0.122 C 
HETATM    3  S1  UNL     1      -1.777  -2.708   0.837  1.00  0.00    -0.137 SA
HETATM    4  C4  UNL     1      -0.511  -1.378   0.880  1.00  0.00     0.348 C 
HETATM    5  N1  UNL     1      -1.271  -0.248   0.559  1.00  0.00     0.116 N 
ENDROOT
BRANCH   5   6
HETATM    6  C5  UNL     1      -0.377   0.810   0.081  1.00  0.00     0.301 C 
BRANCH   6   7
HETATM    7  C6  UNL     1       0.395   0.424  -1.114  1.00  0.00    -0.001 C 
HETATM    8  C7  UNL     1       1.706   0.416  -1.084  1.00  0.00    -0.024 C 
BRANCH   8   9
HETATM    9  C8  UNL     1       2.566   0.765   0.061  1.00  0.00     0.008 A 
HETATM   10  C9  UNL     1       4.080   0.863  -0.200  1.00  0.00     0.009 A 
HETATM   11  C10 UNL     1       3.507  -0.271   0.610  1.00  0.00     0.009 A 
ENDBRANCH   8   9
ENDBRANCH   6   7
ENDBRANCH   5   6
BRANCH   1  12
HETATM   12  C1  UNL     1      -3.342   0.600  -0.135  1.00  0.00     0.208 C 
HETATM   13  O1  UNL     1      -4.372   0.625  -0.852  1.00  0.00    -0.646 OA
HETATM   14  O2  UNL     1      -3.247   1.578   0.845  1.00  0.00    -0.646 OA
ENDBRANCH   1  12
TORSDOF 4
