REMARK  5 active torsions:
REMARK  status: ('A' for Active; 'I' for Inactive)
REMARK    1  A    between atoms: O1_1  and  C1_3 
REMARK    2  A    between atoms: C1_3  and  C2_4 
REMARK    3  A    between atoms: C1_3  and  C8_10 
REMARK    4  A    between atoms: C2_4  and  C3_5 
REMARK    5  A    between atoms: C8_10  and  N1_11 
ROOT
HETATM    1  C1  UNL     1       0.103  -1.266   0.999  1.00  0.00     0.146 C 
ENDROOT
BRANCH   1   2
HETATM    2  O1  UNL     1       0.889  -2.415   0.937  1.00  0.00    -0.394 OA
ATOM      3  H1  UNL     1       1.561  -2.374   1.607  1.00  0.00     0.210 HD
ENDBRANCH   1   2
BRANCH   1   4
HETATM    4  C2  UNL     1      -0.967  -1.332  -0.067  1.00  0.00     0.038 C 
BRANCH   4   5
HETATM    5  C3  UNL     1      -1.880  -0.130  -0.078  1.00  0.00    -0.012 C 
HETATM    6  C4  UNL     1      -2.928  -0.215  -1.140  1.00  0.00     0.005 C 
HETATM    7  C5  UNL     1      -4.184   0.402  -0.568  1.00  0.00     0.000 C 
HETATM    8  C6  UNL     1      -3.811   0.919   0.798  1.00  0.00     0.000 C 
HETATM    9  C7  UNL     1      -2.640   0.044   1.189  1.00  0.00     0.005 C 
ENDBRANCH   4   5
ENDBRANCH   1   4
BRANCH   1  10
HETATM   10  C8  UNL     1       0.930  -0.033   0.952  1.00  0.00     0.304 C 
BRANCH  10  11
HETATM   11  N1  UNL     1       1.726   0.191  -0.193  1.00  0.00     0.095 N 
HETATM   12  C9  UNL     1       2.841  -0.650  -0.429  1.00  0.00     0.298 C 
HETATM   13  C10 UNL     1       3.966  -0.361   0.552  1.00  0.00     0.198 C 
HETATM   14  O2  UNL     1       4.514   0.865   0.188  1.00  0.00    -0.388 OA
HETATM   15  C11 UNL     1       3.669   1.677  -0.529  1.00  0.00     0.198 C 
HETATM   16  C12 UNL     1       2.222   1.567  -0.130  1.00  0.00     0.298 C 
ENDBRANCH  10  11
ENDBRANCH   1  10
TORSDOF 5
