REMARK  4 active torsions:
REMARK  status: ('A' for Active; 'I' for Inactive)
REMARK    1  A    between atoms: C4_4  and  N1_5 
REMARK    2  A    between atoms: N1_5  and  C5_7 
REMARK    3  A    between atoms: C5_7  and  C6_8 
REMARK    4  A    between atoms: C6_8  and  N2_9 
ROOT
HETATM    1  N1  UNL     1      -0.411  -0.173   0.143  1.00  0.00    -0.415 N 
ATOM      2  H1  UNL     1       0.045   0.727   0.294  1.00  0.00     0.153 HD
ENDROOT
BRANCH   1   3
HETATM    3  C4  UNL     1      -1.650  -0.292  -0.544  1.00  0.00     0.076 C 
HETATM    4  C3  UNL     1      -2.803  -0.834   0.206  1.00  0.00     0.024 C 
HETATM    5  C2  UNL     1      -3.655   0.268   0.823  1.00  0.00     0.002 C 
HETATM    6  C1  UNL     1      -4.443   0.903  -0.298  1.00  0.00     0.000 C 
HETATM    7  C12 UNL     1      -3.550   0.994  -1.493  1.00  0.00     0.002 C 
HETATM    8  C11 UNL     1      -2.081   1.056  -1.124  1.00  0.00     0.024 C 
ENDBRANCH   1   3
BRANCH   1   9
HETATM    9  C5  UNL     1       0.147  -1.395   0.604  1.00  0.00     0.144 C 
BRANCH   9  10
HETATM   10  C6  UNL     1       1.481  -1.144   1.259  1.00  0.00     0.291 C 
BRANCH  10  11
HETATM   11  N2  UNL     1       2.455  -0.585   0.407  1.00  0.00     0.094 N 
HETATM   12  C7  UNL     1       2.292   0.746  -0.050  1.00  0.00     0.298 C 
HETATM   13  C8  UNL     1       3.643   1.351  -0.425  1.00  0.00     0.198 C 
HETATM   14  O1  UNL     1       4.439   0.454  -1.113  1.00  0.00    -0.388 OA
HETATM   15  C9  UNL     1       4.658  -0.728  -0.449  1.00  0.00     0.198 C 
HETATM   16  C10 UNL     1       3.819  -0.777   0.833  1.00  0.00     0.298 C 
ENDBRANCH  10  11
ENDBRANCH   9  10
ENDBRANCH   1   9
TORSDOF 4
