REMARK  3 active torsions:
REMARK  status: ('A' for Active; 'I' for Inactive)
REMARK    1  A    between atoms: C2_2  and  C3_3 
REMARK    2  A    between atoms: C3_3  and  N1_4 
REMARK    3  A    between atoms: C7_9  and  C8_10 
ROOT
HETATM    1  N1  UNL     1       1.405  -0.504  -0.112  1.00  0.00     0.093 N 
HETATM    2  C4  UNL     1       1.141  -1.044  -1.403  1.00  0.00     0.303 C 
HETATM    3  C5  UNL     1      -0.298  -1.157  -1.788  1.00  0.00     0.302 C 
HETATM    4  N2  UNL     1      -0.899   0.104  -2.151  1.00  0.00     0.091 N 
HETATM    5  C6  UNL     1      -2.215   0.211  -1.526  1.00  0.00     0.278 C 
HETATM    6  C7  UNL     1      -1.984   0.617  -0.089  1.00  0.00     0.031 C 
HETATM    7  C9  UNL     1      -0.531   1.038  -0.101  1.00  0.00     0.049 C 
HETATM    8  C10 UNL     1       0.297   0.024   0.602  1.00  0.00     0.279 C 
HETATM    9  C11 UNL     1      -0.196   1.228  -1.561  1.00  0.00     0.279 C 
ENDROOT
BRANCH   1  10
HETATM   10  C3  UNL     1       2.208  -1.358   0.695  1.00  0.00     0.299 C 
BRANCH  10  11
HETATM   11  C2  UNL     1       2.533  -0.873   2.044  1.00  0.00    -0.007 C 
HETATM   12  C1  UNL     1       3.776  -0.664   2.465  1.00  0.00     0.008 C 
ENDBRANCH  10  11
ENDBRANCH   1  10
BRANCH   6  13
HETATM   13  C8  UNL     1      -2.886   1.767   0.306  1.00  0.00     0.093 C 
HETATM   14  S1  UNL     1      -2.604   2.241   2.010  1.00  0.00    -0.097 SA
ENDBRANCH   6  13
TORSDOF 3
