REMARK  3 active torsions:
REMARK  status: ('A' for Active; 'I' for Inactive)
REMARK    1  A    between atoms: C4_6  and  C5_7 
REMARK    2  A    between atoms: C5_7  and  C6_8 
REMARK    3  A    between atoms: C6_8  and  N2_9 
ROOT
HETATM    1  C5  UNL     1      -0.292   0.558   0.223  1.00  0.00     0.036 C 
ENDROOT
BRANCH   1   2
HETATM    2  C4  UNL     1      -1.637  -0.048   0.439  1.00  0.00     0.005 C 
HETATM    3  C3  UNL     1      -2.609   1.054   0.723  1.00  0.00     0.118 C 
HETATM    4  N1  UNL     1      -3.986   0.656   0.781  1.00  0.00    -0.421 N 
HETATM    5  C2  UNL     1      -4.389  -0.313  -0.195  1.00  0.00     0.113 C 
ATOM      6  H1  UNL     1      -4.634   1.037   1.470  1.00  0.00     0.153 HD
HETATM    7  C1  UNL     1      -3.455  -1.516  -0.181  1.00  0.00     0.020 C 
HETATM    8  C11 UNL     1      -2.111  -0.952  -0.662  1.00  0.00     0.008 C 
ENDBRANCH   1   2
BRANCH   1   9
HETATM    9  C6  UNL     1       0.785  -0.458  -0.084  1.00  0.00     0.273 C 
BRANCH   9  10
HETATM   10  N2  UNL     1       2.012   0.290  -0.250  1.00  0.00     0.092 N 
HETATM   11  C7  UNL     1       2.500   0.874   0.956  1.00  0.00     0.298 C 
HETATM   12  C8  UNL     1       3.952   0.426   1.191  1.00  0.00     0.198 C 
HETATM   13  O1  UNL     1       4.659   0.882   0.101  1.00  0.00    -0.388 OA
HETATM   14  C9  UNL     1       4.338   0.168  -1.022  1.00  0.00     0.198 C 
HETATM   15  C10 UNL     1       2.947  -0.391  -1.066  1.00  0.00     0.298 C 
ENDBRANCH   9  10
ENDBRANCH   1   9
TORSDOF 3
