REMARK  4 active torsions:
REMARK  status: ('A' for Active; 'I' for Inactive)
REMARK    1  A    between atoms: O1_1  and  C1_3 
REMARK    2  A    between atoms: C1_3  and  C2_4 
REMARK    3  A    between atoms: C2_4  and  N1_5 
REMARK    4  A    between atoms: N2_8  and  C5_9 
ROOT
HETATM    1  N1  UNL     1       2.188  -0.451  -0.420  1.00  0.00    -0.388 N 
HETATM    2  C3  UNL     1       1.637  -0.992   0.749  1.00  0.00     0.077 C 
HETATM    3  C4  UNL     1       0.265  -0.577   1.130  1.00  0.00     0.161 C 
HETATM    4  N2  UNL     1      -0.538  -0.369  -0.011  1.00  0.00    -0.402 N 
HETATM    5  C10 UNL     1       0.036   0.559  -0.874  1.00  0.00     0.137 C 
HETATM    6  C11 UNL     1       1.274  -0.123  -1.475  1.00  0.00     0.141 C 
ENDROOT
BRANCH   4   7
HETATM    7  C5  UNL     1      -1.901  -0.525   0.166  1.00  0.00     0.079 C 
HETATM    8  C6  UNL     1      -2.534   0.457   1.163  1.00  0.00     0.025 C 
HETATM    9  C7  UNL     1      -3.994   0.016   1.024  1.00  0.00     0.002 C 
HETATM   10  C8  UNL     1      -4.146   0.118  -0.492  1.00  0.00     0.002 C 
HETATM   11  C9  UNL     1      -2.788  -0.387  -1.003  1.00  0.00     0.025 C 
ENDBRANCH   4   7
BRANCH   1  12
HETATM   12  C2  UNL     1       3.178   0.571  -0.255  1.00  0.00     0.148 C 
BRANCH  12  13
HETATM   13  C1  UNL     1       4.467   0.059   0.346  1.00  0.00     0.183 C 
BRANCH  13  14
HETATM   14  O1  UNL     1       5.348   1.139   0.458  1.00  0.00    -0.399 OA
ATOM     15  H1  UNL     1       6.158   0.817   0.836  1.00  0.00     0.209 HD
ENDBRANCH  13  14
ENDBRANCH  12  13
ENDBRANCH   1  12
TORSDOF 4
