REMARK  5 active torsions:
REMARK  status: ('A' for Active; 'I' for Inactive)
REMARK    1  A    between atoms: C2_2  and  C3_3 
REMARK    2  A    between atoms: C7_10  and  C8_11 
REMARK    3  A    between atoms: C7_10  and  C11_14 
REMARK    4  A    between atoms: C11_14  and  C12_16 
REMARK    5  A    between atoms: C20_24  and  O5_25 
ROOT
HETATM    1  C3  UNL     1      -2.989   1.134  -0.969  1.00  0.00     0.177 C 
HETATM    2  O1  UNL     1      -4.081   0.735  -0.272  1.00  0.00    -0.373 OA
HETATM    3  C4  UNL     1      -3.863  -0.411   0.503  1.00  0.00     0.248 C 
HETATM    4  C5  UNL     1      -2.803  -0.128   1.547  1.00  0.00     0.278 A 
HETATM    5  O2  UNL     1      -2.914  -0.120   2.834  1.00  0.00    -0.187 OA
HETATM    6  O3  UNL     1      -3.194   1.017   2.311  1.00  0.00    -0.187 OA
HETATM    7  C6  UNL     1      -1.561   0.229   0.739  1.00  0.00     0.034 C 
HETATM    8  C7  UNL     1      -0.480  -0.621   0.774  1.00  0.00     0.021 C 
HETATM    9  C20 UNL     1      -1.768   1.436  -0.040  1.00  0.00     0.189 C 
ENDROOT
BRANCH   8  10
HETATM   10  C8  UNL     1      -0.720  -1.769   1.594  1.00  0.00     0.011 C 
HETATM   11  C9  UNL     1      -0.010  -2.775   1.929  1.00  0.00    -0.030 C 
HETATM   12  C10 UNL     1      -0.579  -3.867   2.847  1.00  0.00     0.036 C 
ENDBRANCH   8  10
BRANCH   8  13
HETATM   13  C11 UNL     1       0.702  -0.225   0.065  1.00  0.00     0.169 C 
HETATM   14  O4  UNL     1       0.691   0.940  -0.507  1.00  0.00    -0.291 OA
BRANCH  13  15
HETATM   15  C12 UNL     1       1.979  -0.903  -0.160  1.00  0.00     0.032 C 
HETATM   16  C13 UNL     1       1.935  -2.224  -0.834  1.00  0.00     0.025 C 
HETATM   17  C14 UNL     1       2.864  -0.763   1.047  1.00  0.00     0.045 C 
HETATM   18  C15 UNL     1       3.265   0.696   0.986  1.00  0.00    -0.023 C 
HETATM   19  C16 UNL     1       3.230   1.088  -0.276  1.00  0.00    -0.083 C 
HETATM   20  C17 UNL     1       3.555   2.471  -0.783  1.00  0.00     0.043 C 
HETATM   21  C18 UNL     1       2.851  -0.025  -1.123  1.00  0.00     0.026 C 
HETATM   22  C19 UNL     1       2.172   0.264  -2.401  1.00  0.00     0.016 C 
ENDBRANCH  13  15
ENDBRANCH   8  13
BRANCH   9  23
HETATM   23  O5  UNL     1      -2.188   2.448   0.866  1.00  0.00    -0.383 OA
HETATM   24  C21 UNL     1      -1.490   3.631   0.635  1.00  0.00     0.202 C 
ENDBRANCH   9  23
BRANCH   1  25
HETATM   25  C2  UNL     1      -2.513   0.161  -1.978  1.00  0.00    -0.003 C 
HETATM   26  C1  UNL     1      -2.158   0.542  -3.196  1.00  0.00     0.009 C 
ENDBRANCH   1  25
TORSDOF 5
