REMARK  6 active torsions:
REMARK  status: ('A' for Active; 'I' for Inactive)
REMARK    1  A    between atoms: N1_2  and  C2_3 
REMARK    2  A    between atoms: N1_2  and  C11_12 
REMARK    3  A    between atoms: C2_3  and  C3_4 
REMARK    4  A    between atoms: C14_17  and  N3_18 
REMARK    5  A    between atoms: N3_18  and  C16_20 
REMARK    6  A    between atoms: C19_23  and  N4_24 
ROOT
HETATM    1  C11 UNL     1       0.862   1.316   0.943  1.00  0.00     0.123 A 
HETATM    2  C12 UNL     1       0.683   0.682   2.149  1.00  0.00     0.067 A 
HETATM    3  C13 UNL     1      -0.468  -0.014   2.349  1.00  0.00     0.110 A 
HETATM    4  N2  UNL     1      -1.380  -0.056   1.370  1.00  0.00    -0.202 N 
ATOM      5  H2  UNL     1      -2.235  -0.584   1.545  1.00  0.00     0.183 HD
HETATM    6  C14 UNL     1      -1.255   0.544   0.175  1.00  0.00     0.681 A 
HETATM    7  N5  UNL     1      -0.089   1.235   0.003  1.00  0.00    -0.176 N 
ATOM      8  H5  UNL     1       0.065   1.713  -0.885  1.00  0.00     0.186 HD
ENDROOT
BRANCH   1   9
HETATM    9  N1  UNL     1       2.042   2.054   0.726  1.00  0.00    -0.351 N 
HETATM   10  C1  UNL     1       2.062   3.354   1.453  1.00  0.00     0.156 C 
BRANCH   9  11
HETATM   11  C2  UNL     1       3.168   1.783  -0.075  1.00  0.00     0.069 C 
BRANCH  11  12
HETATM   12  C3  UNL     1       3.264   0.517  -0.831  1.00  0.00     0.024 C 
HETATM   13  C4  UNL     1       4.558   0.531  -1.622  1.00  0.00     0.010 C 
HETATM   14  C5  UNL     1       5.771   0.925  -0.872  1.00  0.00     0.001 C 
HETATM   15  C6  UNL     1       6.247   0.010   0.191  1.00  0.00     0.000 C 
HETATM   16  C7  UNL     1       6.320  -1.436  -0.222  1.00  0.00     0.000 C 
HETATM   17  C8  UNL     1       5.105  -2.122   0.297  1.00  0.00     0.000 C 
HETATM   18  C9  UNL     1       3.854  -1.929  -0.500  1.00  0.00     0.001 C 
HETATM   19  C10 UNL     1       3.074  -0.720  -0.037  1.00  0.00     0.010 C 
ENDBRANCH  11  12
ENDBRANCH   9  11
ENDBRANCH   1   9
BRANCH   6  20
HETATM   20  N3  UNL     1      -2.233   0.503  -0.854  1.00  0.00    -0.217 N 
HETATM   21  C15 UNL     1      -1.893   1.155  -2.129  1.00  0.00     0.169 C 
BRANCH  20  22
HETATM   22  C16 UNL     1      -3.516  -0.101  -0.794  1.00  0.00     0.103 C 
HETATM   23  C17 UNL     1      -4.541   0.996  -1.149  1.00  0.00     0.028 C 
HETATM   24  C18 UNL     1      -5.833   0.269  -0.846  1.00  0.00     0.038 C 
HETATM   25  C19 UNL     1      -5.519  -0.512   0.386  1.00  0.00     0.224 C 
HETATM   26  C22 UNL     1      -4.009  -0.427   0.602  1.00  0.00     0.061 C 
BRANCH  25  27
HETATM   27  N4  UNL     1      -5.983  -1.859   0.226  1.00  0.00     0.084 N 
HETATM   28  C20 UNL     1      -5.704  -2.645   1.417  1.00  0.00     0.309 C 
HETATM   29  C21 UNL     1      -7.426  -1.793   0.068  1.00  0.00     0.309 C 
ENDBRANCH  25  27
ENDBRANCH  20  22
ENDBRANCH   6  20
TORSDOF 6
