REMARK  6 active torsions:
REMARK  status: ('A' for Active; 'I' for Inactive)
REMARK    1  A    between atoms: C1_2  and  C2_3 
REMARK       I    between atoms: C1_2  and  N2_12 
REMARK    2  A    between atoms: C2_3  and  C3_4 
REMARK    3  A    between atoms: C3_4  and  C4_5 
REMARK    4  A    between atoms: C4_5  and  N1_6 
REMARK    5  A    between atoms: C13_16  and  C14_17 
REMARK    6  A    between atoms: C15_21  and  C16_22 
ROOT
HETATM    1  O1  UNL     1      -0.766   1.704  -0.768  1.00  0.00    -0.273 OA
HETATM    2  C1  UNL     1      -0.850   1.335   0.442  1.00  0.00     0.220 C 
HETATM    3  N2  UNL     1      -0.010   1.997   1.395  1.00  0.00    -0.340 N 
HETATM    4  C10 UNL     1      -0.011   1.671   2.795  1.00  0.00     0.127 C 
HETATM    5  C11 UNL     1       1.369   2.047   3.252  1.00  0.00     0.022 C 
HETATM    6  C12 UNL     1       1.566   3.361   2.486  1.00  0.00     0.035 C 
HETATM    7  C13 UNL     1       0.922   3.042   1.129  1.00  0.00     0.156 C 
ENDROOT
BRANCH   7   8
HETATM    8  C14 UNL     1       2.020   2.567   0.213  1.00  0.00     0.127 A 
HETATM    9  N3  UNL     1       2.513   3.210  -0.852  1.00  0.00    -0.245 N 
HETATM   10  O2  UNL     1       3.466   2.469  -1.388  1.00  0.00    -0.222 OA
ATOM     11  H3  UNL     1       2.204   4.120  -1.193  1.00  0.00     0.196 HD
HETATM   12  C15 UNL     1       3.610   1.366  -0.710  1.00  0.00     0.152 A 
HETATM   13  N4  UNL     1       2.714   1.420   0.288  1.00  0.00    -0.325 N 
ATOM     14  H4  UNL     1       2.580   0.698   0.997  1.00  0.00     0.169 HD
BRANCH  12  15
HETATM   15  C16 UNL     1       4.591   0.302  -1.030  1.00  0.00     0.063 C 
HETATM   16  C17 UNL     1       5.571   0.124   0.136  1.00  0.00     0.013 C 
HETATM   17  C18 UNL     1       6.658  -0.784  -0.333  1.00  0.00     0.001 C 
HETATM   18  C19 UNL     1       6.195  -2.098  -0.867  1.00  0.00     0.000 C 
HETATM   19  C20 UNL     1       4.992  -1.998  -1.767  1.00  0.00     0.001 C 
HETATM   20  C21 UNL     1       3.945  -1.046  -1.245  1.00  0.00     0.013 C 
ENDBRANCH  12  15
ENDBRANCH   7   8
BRANCH   2  21
HETATM   21  C2  UNL     1      -1.783   0.264   0.821  1.00  0.00     0.104 C 
BRANCH  21  22
HETATM   22  C3  UNL     1      -2.525  -0.195  -0.424  1.00  0.00     0.028 C 
BRANCH  22  23
HETATM   23  C4  UNL     1      -3.479  -1.289  -0.057  1.00  0.00     0.117 C 
BRANCH  23  24
HETATM   24  N1  UNL     1      -4.176  -1.758  -1.196  1.00  0.00    -0.412 N 
HETATM   25  C5  UNL     1      -5.120  -2.817  -0.904  1.00  0.00     0.117 C 
HETATM   26  C6  UNL     1      -6.546  -2.335  -0.918  1.00  0.00     0.019 C 
HETATM   27  C7  UNL     1      -6.691  -0.856  -0.652  1.00  0.00     0.003 C 
HETATM   28  C8  UNL     1      -5.861  -0.028  -1.607  1.00  0.00     0.019 C 
HETATM   29  C9  UNL     1      -4.670  -0.803  -2.120  1.00  0.00     0.117 C 
ENDBRANCH  23  24
ENDBRANCH  22  23
ENDBRANCH  21  22
ENDBRANCH   2  21
TORSDOF 6
