REMARK  10 active torsions:
REMARK  status: ('A' for Active; 'I' for Inactive)
REMARK    1  A    between atoms: C2_2  and  C4_4 
REMARK    2  A    between atoms: C4_4  and  C5_5 
REMARK    3  A    between atoms: C5_5  and  N1_6 
REMARK    4  A    between atoms: C5_5  and  C12_17 
REMARK    5  A    between atoms: N1_6  and  C6_8 
REMARK    6  A    between atoms: C6_8  and  C7_12 
REMARK       I    between atoms: C12_17  and  N3_19 
REMARK    7  A    between atoms: C16_23  and  C17_24 
REMARK    8  A    between atoms: C16_23  and  C22_29 
REMARK    9  A    between atoms: C17_24  and  C18_25 
REMARK       I    between atoms: C22_29  and  N4_31 
REMARK   10  A    between atoms: N4_31  and  S1_33 
ROOT
HETATM    1  C12 UNL     1       0.727  -0.660  -0.115  1.00  0.00     0.243 C 
HETATM    2  O1  UNL     1       1.048   0.433  -0.702  1.00  0.00    -0.271 OA
HETATM    3  N3  UNL     1      -0.590  -1.094   0.082  1.00  0.00    -0.332 N 
HETATM    4  C13 UNL     1      -0.994  -2.283   0.788  1.00  0.00     0.127 C 
HETATM    5  C14 UNL     1      -1.967  -2.881  -0.233  1.00  0.00     0.023 C 
HETATM    6  C15 UNL     1      -2.534  -1.695  -0.971  1.00  0.00     0.043 C 
HETATM    7  C16 UNL     1      -1.879  -0.530  -0.352  1.00  0.00     0.117 C 
ENDROOT
BRANCH   1   8
HETATM    8  C5  UNL     1       1.892  -1.458   0.361  1.00  0.00     0.175 C 
BRANCH   8   9
HETATM    9  C4  UNL     1       2.684  -2.027  -0.776  1.00  0.00     0.038 C 
BRANCH   9  10
HETATM   10  C2  UNL     1       2.084  -3.052  -1.644  1.00  0.00    -0.020 C 
HETATM   11  C1  UNL     1       1.683  -4.345  -1.035  1.00  0.00     0.009 C 
HETATM   12  C3  UNL     1       3.153  -3.391  -2.703  1.00  0.00     0.009 C 
ENDBRANCH   9  10
ENDBRANCH   8   9
BRANCH   8  13
HETATM   13  N1  UNL     1       2.793  -0.521   1.024  1.00  0.00    -0.366 N 
ATOM     14  H1  UNL     1       3.116  -0.788   1.954  1.00  0.00     0.161 HD
BRANCH  13  15
HETATM   15  C6  UNL     1       3.272   0.718   0.526  1.00  0.00     0.075 C 
HETATM   16  N2  UNL     1       3.999   0.832  -0.507  1.00  0.00    -0.389 N 
ATOM     17  H22 UNL     1       4.245  -0.008  -1.030  1.00  0.00     0.157 HD
ATOM     18  H21 UNL     1       4.343   1.723  -0.865  1.00  0.00     0.157 HD
BRANCH  15  19
HETATM   19  C7  UNL     1       2.913   1.944   1.289  1.00  0.00     0.057 C 
HETATM   20  C8  UNL     1       3.649   1.913   2.650  1.00  0.00     0.017 C 
HETATM   21  C9  UNL     1       4.551   2.989   2.065  1.00  0.00    -0.009 A 
HETATM   22  C10 UNL     1       3.853   4.287   1.874  1.00  0.00     0.011 A 
HETATM   23  C11 UNL     1       3.588   3.196   0.891  1.00  0.00     0.001 A 
ENDBRANCH  15  19
ENDBRANCH  13  15
ENDBRANCH   8  13
ENDBRANCH   1   8
BRANCH   7  24
HETATM   24  C17 UNL     1      -1.651   0.638  -1.239  1.00  0.00     0.049 C 
BRANCH  24  25
HETATM   25  C18 UNL     1      -2.782   1.373  -1.820  1.00  0.00    -0.049 C 
HETATM   26  C19 UNL     1      -3.714   0.546  -2.694  1.00  0.00     0.014 C 
HETATM   27  C20 UNL     1      -3.563   2.291  -0.969  1.00  0.00     0.014 C 
HETATM   28  C21 UNL     1      -2.087   2.301  -2.878  1.00  0.00     0.014 C 
ENDBRANCH  24  25
ENDBRANCH   7  24
BRANCH   7  29
HETATM   29  C22 UNL     1      -2.574  -0.101   0.889  1.00  0.00     0.259 C 
HETATM   30  O2  UNL     1      -3.834  -0.083   0.948  1.00  0.00    -0.270 OA
HETATM   31  N4  UNL     1      -1.893   0.310   2.060  1.00  0.00    -0.253 N 
ATOM     32  H4  UNL     1      -0.873   0.310   2.053  1.00  0.00     0.181 HD
BRANCH  31  33
HETATM   33  S1  UNL     1      -2.698   0.806   3.486  1.00  0.00     0.229 S 
HETATM   34  C23 UNL     1      -4.356   1.373   3.112  1.00  0.00     0.186 C 
HETATM   35  O3  UNL     1      -1.976   2.013   4.062  1.00  0.00    -0.206 OA
HETATM   36  O4  UNL     1      -2.769  -0.295   4.508  1.00  0.00    -0.206 OA
ENDBRANCH  31  33
ENDBRANCH   7  29
TORSDOF 10
