REMARK  13 active torsions:
REMARK  status: ('A' for Active; 'I' for Inactive)
REMARK    1  A    between atoms: C2_2  and  C3_3 
REMARK    2  A    between atoms: C3_3  and  C4_4 
REMARK       I    between atoms: C4_4  and  N1_6 
REMARK    3  A    between atoms: N1_6  and  C5_8 
REMARK    4  A    between atoms: C5_8  and  C6_9 
REMARK    5  A    between atoms: C7_10  and  C8_11 
REMARK    6  A    between atoms: C8_11  and  C9_12 
REMARK    7  A    between atoms: C9_12  and  O2_13 
REMARK       I    between atoms: N2_17  and  C12_18 
REMARK    8  A    between atoms: C12_18  and  C13_20 
REMARK    9  A    between atoms: C13_20  and  N3_21 
REMARK       I    between atoms: N3_21  and  C14_23 
REMARK   10  A    between atoms: C14_23  and  O5_25 
REMARK   11  A    between atoms: O5_25  and  C15_26 
REMARK   12  A    between atoms: C19_30  and  C20_31 
REMARK   13  A    between atoms: C20_31  and  C21_32 
ROOT
HETATM    1  C9  UNL     1       1.662  -0.423   1.481  1.00  0.00     0.090 C 
HETATM    2  C10 UNL     1       2.030  -1.748   0.893  1.00  0.00     0.061 C 
HETATM    3  C11 UNL     1       1.291  -1.657  -0.449  1.00  0.00     0.129 C 
HETATM    4  N2  UNL     1       0.006  -1.058  -0.007  1.00  0.00    -0.343 N 
HETATM    5  C12 UNL     1      -1.272  -1.520  -0.423  1.00  0.00     0.238 C 
HETATM    6  O3  UNL     1      -1.300  -2.495  -1.242  1.00  0.00    -0.272 OA
HETATM    7  C19 UNL     1       0.405  -0.004   0.894  1.00  0.00     0.122 C 
ENDROOT
BRANCH   1   8
HETATM    8  C8  UNL     1       2.828   0.498   1.587  1.00  0.00     0.134 C 
BRANCH   8   9
HETATM    9  C7  UNL     1       3.370   0.882   0.303  1.00  0.00    -0.102 C 
HETATM   10  C6  UNL     1       3.864   1.219  -0.768  1.00  0.00    -0.087 C 
BRANCH  10  11
HETATM   11  C5  UNL     1       4.455   1.606  -2.048  1.00  0.00     0.217 C 
BRANCH  11  12
HETATM   12  N1  UNL     1       5.378   0.592  -2.520  1.00  0.00    -0.351 N 
HETATM   13  C4  UNL     1       6.496   0.270  -1.710  1.00  0.00     0.218 C 
HETATM   14  O1  UNL     1       6.701   0.838  -0.607  1.00  0.00    -0.274 OA
ATOM     15  H1  UNL     1       5.227   0.122  -3.413  1.00  0.00     0.163 HD
BRANCH  13  16
HETATM   16  C3  UNL     1       7.436  -0.776  -2.209  1.00  0.00     0.102 C 
BRANCH  16  17
HETATM   17  C2  UNL     1       8.547  -0.961  -1.196  1.00  0.00     0.005 C 
HETATM   18  C1  UNL     1       8.018  -1.394   0.141  1.00  0.00     0.005 C 
ENDBRANCH  16  17
ENDBRANCH  13  16
ENDBRANCH  11  12
ENDBRANCH  10  11
ENDBRANCH   8   9
ENDBRANCH   1   8
BRANCH   1  19
HETATM   19  O2  UNL     1       1.336  -0.714   2.872  1.00  0.00    -0.387 OA
ATOM     20  H2  UNL     1       0.592  -1.301   2.804  1.00  0.00     0.210 HD
ENDBRANCH   1  19
BRANCH   7  21
HETATM   21  C20 UNL     1       0.231   1.286   0.206  1.00  0.00     0.033 C 
BRANCH  21  22
HETATM   22  C21 UNL     1       0.409   2.557   0.915  1.00  0.00    -0.013 C 
HETATM   23  C22 UNL     1      -0.523   2.746   2.094  1.00  0.00     0.005 C 
HETATM   24  C23 UNL     1      -1.884   3.002   1.513  1.00  0.00     0.000 C 
HETATM   25  C24 UNL     1      -1.598   3.749   0.244  1.00  0.00     0.000 C 
HETATM   26  C25 UNL     1      -0.141   3.646  -0.049  1.00  0.00     0.005 C 
ENDBRANCH  21  22
ENDBRANCH   7  21
BRANCH   5  27
HETATM   27  C13 UNL     1      -2.569  -0.985   0.003  1.00  0.00     0.227 C 
BRANCH  27  28
HETATM   28  N3  UNL     1      -3.666  -1.742  -0.623  1.00  0.00    -0.328 N 
HETATM   29  C14 UNL     1      -5.017  -1.401  -0.356  1.00  0.00     0.361 C 
HETATM   30  O4  UNL     1      -5.263  -0.437   0.428  1.00  0.00    -0.238 OA
ATOM     31  H3  UNL     1      -3.453  -2.516  -1.252  1.00  0.00     0.165 HD
BRANCH  29  32
HETATM   32  O5  UNL     1      -6.086  -2.059  -0.901  1.00  0.00    -0.294 OA
BRANCH  32  33
HETATM   33  C15 UNL     1      -7.418  -1.680  -0.603  1.00  0.00     0.061 C 
HETATM   34  C16 UNL     1      -7.637  -0.248  -1.029  1.00  0.00     0.046 C 
HETATM   35  C17 UNL     1      -8.320  -2.630  -1.386  1.00  0.00     0.046 C 
HETATM   36  C18 UNL     1      -7.750  -1.870   0.862  1.00  0.00     0.046 C 
ENDBRANCH  32  33
ENDBRANCH  29  32
ENDBRANCH  27  28
ENDBRANCH   5  27
TORSDOF 13
