REMARK  10 active torsions:
REMARK  status: ('A' for Active; 'I' for Inactive)
REMARK    1  A    between atoms: C5_5  and  N1_6 
REMARK    2  A    between atoms: N1_6  and  C6_7 
REMARK    3  A    between atoms: C6_7  and  C7_8 
REMARK    4  A    between atoms: C6_7  and  N3_16 
REMARK    5  A    between atoms: C7_8  and  N2_9 
REMARK    6  A    between atoms: N3_16  and  C14_18 
REMARK    7  A    between atoms: C14_18  and  C16_20 
REMARK    8  A    between atoms: C16_20  and  N4_21 
REMARK       I    between atoms: C17_23  and  N5_24 
REMARK       I    between atoms: C17_23  and  N7_28 
REMARK    9  A    between atoms: N7_28  and  C19_30 
REMARK   10  A    between atoms: C19_30  and  C20_31 
ROOT
HETATM    1  N4  UNL     1       2.617  -0.150   0.955  1.00  0.00    -0.224 N 
ATOM      2  H4  UNL     1       2.615  -1.125   0.655  1.00  0.00     0.177 HD
HETATM    3  C17 UNL     1       3.618   0.588   0.697  1.00  0.00     0.683 C 
HETATM    4  N5  UNL     1       3.623   1.949   1.115  1.00  0.00    -0.126 N 
ATOM      5  H5  UNL     1       3.409   2.702   0.461  1.00  0.00     0.197 HD
HETATM    6  C18 UNL     1       3.931   2.219   2.453  1.00  0.00     0.196 C 
HETATM    7  N6  UNL     1       4.189   2.422   3.562  1.00  0.00    -0.171 NA
HETATM    8  N7  UNL     1       4.761   0.112  -0.006  1.00  0.00    -0.223 N 
ATOM      9  H7  UNL     1       4.785  -0.862  -0.309  1.00  0.00     0.177 HD
ENDROOT
BRANCH   1  10
HETATM   10  C16 UNL     1       1.478   0.384   1.672  1.00  0.00     0.163 C 
BRANCH  10  11
HETATM   11  C14 UNL     1       0.253  -0.303   1.096  1.00  0.00     0.098 C 
HETATM   12  C15 UNL     1       0.155  -0.070  -0.392  1.00  0.00     0.034 C 
BRANCH  11  13
HETATM   13  N3  UNL     1      -0.931   0.161   1.744  1.00  0.00    -0.362 N 
ATOM     14  H3  UNL     1      -0.831   0.870   2.471  1.00  0.00     0.162 HD
BRANCH  13  15
HETATM   15  C6  UNL     1      -2.239  -0.301   1.441  1.00  0.00     0.163 C 
BRANCH  15  16
HETATM   16  N1  UNL     1      -2.495  -1.279   0.820  1.00  0.00    -0.428 NA
BRANCH  16  17
HETATM   17  C5  UNL     1      -2.727  -2.391   0.116  1.00  0.00     0.165 C 
HETATM   18  C4  UNL     1      -2.954  -2.215  -1.389  1.00  0.00     0.040 C 
HETATM   19  C3  UNL     1      -3.765  -3.385  -1.901  1.00  0.00     0.007 C 
HETATM   20  C2  UNL     1      -3.269  -4.700  -1.382  1.00  0.00    -0.019 C 
HETATM   21  C1  UNL     1      -4.207  -5.350  -0.388  1.00  0.00     0.010 C 
HETATM   22  C25 UNL     1      -1.884  -4.556  -0.845  1.00  0.00     0.007 C 
HETATM   23  C24 UNL     1      -1.734  -3.539   0.250  1.00  0.00     0.040 C 
ENDBRANCH  16  17
ENDBRANCH  15  16
BRANCH  15  24
HETATM   24  C7  UNL     1      -3.365   0.567   1.975  1.00  0.00     0.208 C 
BRANCH  24  25
HETATM   25  N2  UNL     1      -3.313   1.881   1.430  1.00  0.00    -0.405 N 
HETATM   26  C8  UNL     1      -3.609   1.976   0.041  1.00  0.00     0.117 C 
HETATM   27  C9  UNL     1      -3.199   3.284  -0.549  1.00  0.00     0.019 C 
HETATM   28  C10 UNL     1      -4.336   4.291  -0.544  1.00  0.00     0.002 C 
HETATM   29  C11 UNL     1      -4.484   4.823   0.869  1.00  0.00     0.002 C 
HETATM   30  C12 UNL     1      -4.964   3.684   1.761  1.00  0.00     0.019 C 
HETATM   31  C13 UNL     1      -3.777   2.926   2.267  1.00  0.00     0.117 C 
ENDBRANCH  24  25
ENDBRANCH  15  24
ENDBRANCH  13  15
ENDBRANCH  11  13
ENDBRANCH  10  11
ENDBRANCH   1  10
BRANCH   8  32
HETATM   32  C19 UNL     1       5.885   0.964  -0.302  1.00  0.00     0.170 C 
BRANCH  32  33
HETATM   33  C20 UNL     1       6.912   0.162  -1.045  1.00  0.00     0.139 C 
HETATM   34  C21 UNL     1       8.164   0.962  -1.336  1.00  0.00     0.035 C 
HETATM   35  C22 UNL     1       9.145  -0.183  -1.619  1.00  0.00     0.029 C 
HETATM   36  C23 UNL     1       8.662  -1.185  -0.599  1.00  0.00     0.168 C 
HETATM   37  O1  UNL     1       7.356  -0.905  -0.314  1.00  0.00    -0.384 OA
ENDBRANCH  32  33
ENDBRANCH   8  32
TORSDOF 10
