REMARK  8 active torsions:
REMARK  status: ('A' for Active; 'I' for Inactive)
REMARK    1  A    between atoms: C2_2  and  O2_4 
REMARK    2  A    between atoms: O2_4  and  C3_5 
REMARK    3  A    between atoms: C4_6  and  O3_7 
REMARK    4  A    between atoms: C8_12  and  O4_13 
REMARK    5  A    between atoms: C21_38  and  O13_39 
REMARK    6  A    between atoms: O13_39  and  C22_40 
REMARK    7  A    between atoms: C22_40  and  C23_41 
REMARK       I    between atoms: C23_41  and  N2_43 
REMARK    8  A    between atoms: C26_49  and  O16_50 
ROOT
HETATM    1  C3  UNL     1      -2.035   2.586  -0.333  1.00  0.00     0.150 A 
HETATM    2  C4  UNL     1      -2.364   1.290  -0.030  1.00  0.00     0.130 A 
HETATM    3  C5  UNL     1      -1.463   0.202  -0.185  1.00  0.00     0.074 A 
HETATM    4  C6  UNL     1      -0.203   0.464  -0.661  1.00  0.00     0.072 A 
HETATM    5  C7  UNL     1       0.162   1.754  -0.975  1.00  0.00     0.107 A 
HETATM    6  C8  UNL     1      -0.773   2.795  -0.803  1.00  0.00     0.136 A 
HETATM    7  O5  UNL     1       1.358   2.239  -1.460  1.00  0.00    -0.344 OA
HETATM    8  C9  UNL     1       2.706   2.095  -1.043  1.00  0.00     0.203 C 
HETATM    9  C10 UNL     1       2.661   1.589   0.356  1.00  0.00    -0.002 C 
HETATM   10  C11 UNL     1       2.921   2.312   1.430  1.00  0.00    -0.001 C 
HETATM   11  C12 UNL     1       3.303   3.747   1.434  1.00  0.00     0.219 C 
HETATM   12  O6  UNL     1       4.120   3.976   2.540  1.00  0.00    -0.250 OA
HETATM   13  S1  UNL     1       5.565   3.157   2.439  1.00  0.00     0.402 S 
HETATM   14  O7  UNL     1       6.227   3.254   3.789  1.00  0.00    -0.169 OA
HETATM   15  O8  UNL     1       6.493   3.721   1.425  1.00  0.00    -0.169 OA
HETATM   16  O9  UNL     1       5.233   1.537   2.162  1.00  0.00    -0.252 OA
HETATM   17  C13 UNL     1       6.403   0.869   1.915  1.00  0.00     0.218 C 
HETATM   18  C14 UNL     1       6.145  -0.133   0.791  1.00  0.00     0.195 C 
HETATM   19  O10 UNL     1       5.296  -1.171   1.209  1.00  0.00    -0.387 OA
HETATM   20  C15 UNL     1       5.266  -2.092   0.146  1.00  0.00     0.193 C 
HETATM   21  C16 UNL     1       4.083  -3.005   0.230  1.00  0.00     0.193 C 
HETATM   22  O11 UNL     1       2.956  -2.515  -0.406  1.00  0.00    -0.387 OA
HETATM   23  C17 UNL     1       2.324  -3.503  -1.197  1.00  0.00     0.186 C 
HETATM   24  C18 UNL     1       1.989  -2.860  -2.503  1.00  0.00     0.140 C 
HETATM   25  N1  UNL     1       1.060  -3.564  -3.322  1.00  0.00    -0.417 N 
ATOM     26  H1  UNL     1       1.250  -3.754  -4.306  1.00  0.00     0.153 HD
HETATM   27  C19 UNL     1      -0.149  -3.990  -2.697  1.00  0.00     0.140 C 
HETATM   28  C20 UNL     1      -1.059  -2.818  -2.296  1.00  0.00     0.198 C 
HETATM   29  O12 UNL     1      -1.208  -2.814  -0.932  1.00  0.00    -0.315 OA
HETATM   30  C21 UNL     1      -2.002  -2.242  -0.011  1.00  0.00     0.265 C 
HETATM   31  N4  UNL     1      -2.049  -1.017   0.231  1.00  0.00    -0.314 N 
ATOM     32  H4  UNL     1      -2.731  -0.837   0.968  1.00  0.00     0.170 HD
ENDROOT
BRANCH  30  33
HETATM   33  O13 UNL     1      -2.852  -3.082   0.759  1.00  0.00    -0.307 OA
BRANCH  33  34
HETATM   34  C22 UNL     1      -4.064  -2.607   1.292  1.00  0.00     0.284 C 
BRANCH  34  35
HETATM   35  C23 UNL     1      -4.953  -2.195   0.142  1.00  0.00     0.269 C 
HETATM   36  O14 UNL     1      -4.551  -2.313  -1.047  1.00  0.00    -0.269 OA
HETATM   37  N2  UNL     1      -6.241  -1.675   0.370  1.00  0.00    -0.197 N 
HETATM   38  N3  UNL     1      -6.774  -1.505   1.577  1.00  0.00    -0.255 N 
HETATM   39  C26 UNL     1      -7.125  -1.276  -0.532  1.00  0.00     0.170 A 
HETATM   40  C24 UNL     1      -8.015  -0.992   1.475  1.00  0.00     0.264 A 
ATOM     41  H3  UNL     1      -6.308  -1.731   2.456  1.00  0.00     0.191 HD
HETATM   42  O15 UNL     1      -8.782  -0.717   2.439  1.00  0.00    -0.267 OA
HETATM   43  C25 UNL     1      -8.259  -0.837   0.125  1.00  0.00     0.133 A 
BRANCH  39  44
HETATM   44  O16 UNL     1      -7.010  -1.267  -1.920  1.00  0.00    -0.345 OA
ATOM     45  H16 UNL     1      -7.644  -0.981  -2.567  1.00  0.00     0.219 HD
ENDBRANCH  39  44
ENDBRANCH  34  35
ENDBRANCH  33  34
ENDBRANCH  30  33
BRANCH   2  46
HETATM   46  O3  UNL     1      -3.662   1.103   0.452  1.00  0.00    -0.356 OA
ATOM     47  H3  UNL     1      -3.890   0.205   0.662  1.00  0.00     0.218 HD
ENDBRANCH   2  46
BRANCH   1  48
HETATM   48  O2  UNL     1      -2.950   3.634  -0.168  1.00  0.00    -0.273 OA
BRANCH  48  49
HETATM   49  C2  UNL     1      -3.001   4.353   1.016  1.00  0.00     0.260 C 
HETATM   50  C1  UNL     1      -3.991   5.452   1.124  1.00  0.00     0.126 C 
HETATM   51  O1  UNL     1      -2.200   4.027   1.931  1.00  0.00    -0.265 OA
ENDBRANCH  48  49
ENDBRANCH   1  48
BRANCH   6  52
HETATM   52  O4  UNL     1      -0.477   4.141  -1.107  1.00  0.00    -0.356 OA
ATOM     53  H4  UNL     1       0.403   4.287  -1.435  1.00  0.00     0.218 HD
ENDBRANCH   6  52
TORSDOF 8
