REMARK  6 active torsions:
REMARK  status: ('A' for Active; 'I' for Inactive)
REMARK       I    between atoms: C1_2  and  N1_3 
REMARK    1  A    between atoms: C1_2  and  C5_8 
REMARK    2  A    between atoms: N1_3  and  C2_5 
REMARK    3  A    between atoms: C8_11  and  O2_12 
REMARK    4  A    between atoms: O2_12  and  C9_13 
REMARK    5  A    between atoms: C12_16  and  N2_17 
REMARK       I    between atoms: N2_17  and  C13_19 
REMARK    6  A    between atoms: C13_19  and  C14_21 
ROOT
HETATM    1  C9  UNL     1       0.592   0.706  -0.906  1.00  0.00     0.129 C 
HETATM    2  C10 UNL     1      -0.363   1.527  -0.057  1.00  0.00     0.034 C 
HETATM    3  C11 UNL     1      -1.769   1.473  -0.676  1.00  0.00     0.028 C 
HETATM    4  C12 UNL     1      -2.153  -0.004  -0.634  1.00  0.00     0.084 C 
HETATM    5  C20 UNL     1      -1.345  -0.699  -1.679  1.00  0.00     0.028 C 
HETATM    6  C21 UNL     1      -0.127   0.053  -2.067  1.00  0.00     0.034 C 
ENDROOT
BRANCH   1   7
HETATM    7  O2  UNL     1       1.317  -0.216  -0.161  1.00  0.00    -0.344 OA
BRANCH   7   8
HETATM    8  C8  UNL     1       2.679  -0.269   0.038  1.00  0.00     0.091 A 
HETATM    9  C7  UNL     1       3.564   0.630  -0.498  1.00  0.00     0.039 A 
HETATM   10  C6  UNL     1       4.931   0.502  -0.245  1.00  0.00     0.020 A 
HETATM   11  C5  UNL     1       5.455  -0.501   0.533  1.00  0.00     0.033 A 
HETATM   12  C23 UNL     1       4.542  -1.396   1.063  1.00  0.00     0.043 A 
HETATM   13  C22 UNL     1       3.192  -1.311   0.843  1.00  0.00     0.068 A 
HETATM   14 CL1  UNL     1       2.065  -2.457   1.527  1.00  0.00    -0.081 Cl
BRANCH  11  15
HETATM   15  C1  UNL     1       6.881  -0.652   0.809  1.00  0.00     0.252 C 
HETATM   16  O1  UNL     1       7.228  -1.622   1.546  1.00  0.00    -0.268 OA
HETATM   17  N1  UNL     1       7.855   0.236   0.286  1.00  0.00    -0.352 N 
ATOM     18  H1  UNL     1       7.560   1.012  -0.307  1.00  0.00     0.163 HD
BRANCH  17  19
HETATM   19  C2  UNL     1       9.250   0.059   0.578  1.00  0.00     0.084 A 
HETATM   20  C3  UNL     1      10.168   1.221   0.574  1.00  0.00     0.027 A 
HETATM   21  C4  UNL     1      10.264   0.237  -0.527  1.00  0.00     0.027 A 
ENDBRANCH  17  19
ENDBRANCH  11  15
ENDBRANCH   7   8
ENDBRANCH   1   7
BRANCH   4  22
HETATM   22  N2  UNL     1      -3.562  -0.187  -0.773  1.00  0.00    -0.355 N 
HETATM   23  C13 UNL     1      -4.347  -0.770   0.229  1.00  0.00     0.249 C 
HETATM   24  O3  UNL     1      -3.780  -1.148   1.296  1.00  0.00    -0.271 OA
ATOM     25  H2  UNL     1      -4.014   0.119  -1.635  1.00  0.00     0.162 HD
BRANCH  23  26
HETATM   26  C14 UNL     1      -5.807  -0.982   0.138  1.00  0.00     0.281 C 
HETATM   27  N3  UNL     1      -6.348  -1.605   1.323  1.00  0.00    -0.058 N 
HETATM   28  C15 UNL     1      -7.361  -0.719   1.858  1.00  0.00     0.187 C 
ATOM     29  H32 UNL     1      -6.695  -2.549   1.153  1.00  0.00     0.278 HD
ATOM     30  H31 UNL     1      -5.631  -1.848   2.007  1.00  0.00     0.278 HD
HETATM   31  C16 UNL     1      -8.555  -0.717   0.945  1.00  0.00     0.033 C 
HETATM   32  C19 UNL     1      -6.752   0.647   1.493  1.00  0.00     0.040 C 
HETATM   33  C17 UNL     1      -8.010  -0.075  -0.330  1.00  0.00     0.009 C 
HETATM   34  C18 UNL     1      -6.584   0.301   0.004  1.00  0.00     0.028 C 
ENDBRANCH  23  26
ENDBRANCH   4  22
TORSDOF 6
