REMARK  9 active torsions:
REMARK  status: ('A' for Active; 'I' for Inactive)
REMARK    1  A    between atoms: C3_3  and  N1_4 
REMARK    2  A    between atoms: C3_3  and  C18_25 
REMARK       I    between atoms: N1_4  and  C4_6 
REMARK    3  A    between atoms: C4_6  and  C5_8 
REMARK    4  A    between atoms: C5_8  and  C6_9 
REMARK    5  A    between atoms: C5_8  and  N2_16 
REMARK    6  A    between atoms: C6_9  and  C7_10 
REMARK       I    between atoms: N2_16  and  C13_18 
REMARK    7  A    between atoms: C13_18  and  O3_20 
REMARK    8  A    between atoms: O3_20  and  C14_21 
REMARK       I    between atoms: C18_25  and  N3_27 
REMARK    9  A    between atoms: N3_27  and  C19_29 
ROOT
HETATM    1  C1  UNL     1       3.753  -1.821  -1.963  1.00  0.00     0.015 C 
HETATM    2  C2  UNL     1       3.144  -1.053  -1.270  1.00  0.00    -0.082 C 
HETATM    3  C3  UNL     1       2.381  -0.121  -0.441  1.00  0.00     0.256 C 
ENDROOT
BRANCH   3   4
HETATM    4  N1  UNL     1       1.002  -0.476  -0.377  1.00  0.00    -0.336 N 
HETATM    5  C4  UNL     1      -0.078   0.315  -0.859  1.00  0.00     0.241 C 
HETATM    6  O1  UNL     1       0.318   1.423  -1.377  1.00  0.00    -0.271 OA
ATOM      7  H1  UNL     1       0.770  -1.373   0.050  1.00  0.00     0.164 HD
BRANCH   5   8
HETATM    8  C5  UNL     1      -1.501  -0.032  -0.793  1.00  0.00     0.179 C 
BRANCH   8   9
HETATM    9  C6  UNL     1      -2.021  -0.858  -1.874  1.00  0.00     0.039 C 
BRANCH   9  10
HETATM   10  C7  UNL     1      -1.607  -2.181  -2.263  1.00  0.00    -0.012 C 
HETATM   11  C8  UNL     1      -0.291  -2.560  -2.747  1.00  0.00     0.005 C 
HETATM   12  C9  UNL     1       0.319  -3.762  -2.002  1.00  0.00     0.000 C 
HETATM   13  C10 UNL     1      -0.579  -4.970  -2.212  1.00  0.00     0.000 C 
HETATM   14  C11 UNL     1      -1.946  -4.583  -1.677  1.00  0.00     0.000 C 
HETATM   15  C12 UNL     1      -1.957  -3.193  -1.127  1.00  0.00     0.005 C 
ENDBRANCH   9  10
ENDBRANCH   8   9
BRANCH   8  16
HETATM   16  N2  UNL     1      -2.190   1.301  -0.936  1.00  0.00    -0.324 N 
HETATM   17  C13 UNL     1      -2.999   1.845   0.057  1.00  0.00     0.362 C 
HETATM   18  O2  UNL     1      -3.244   1.303   1.160  1.00  0.00    -0.238 OA
ATOM     19  H2  UNL     1      -2.057   1.828  -1.799  1.00  0.00     0.165 HD
BRANCH  17  20
HETATM   20  O3  UNL     1      -3.584   3.070  -0.164  1.00  0.00    -0.294 OA
BRANCH  20  21
HETATM   21  C14 UNL     1      -4.413   3.725   0.735  1.00  0.00     0.061 C 
HETATM   22  C15 UNL     1      -4.882   5.072   0.207  1.00  0.00     0.046 C 
HETATM   23  C16 UNL     1      -5.661   2.949   1.092  1.00  0.00     0.046 C 
HETATM   24  C17 UNL     1      -3.660   3.959   2.018  1.00  0.00     0.046 C 
ENDBRANCH  20  21
ENDBRANCH  17  20
ENDBRANCH   8  16
ENDBRANCH   5   8
ENDBRANCH   3   4
BRANCH   3  25
HETATM   25  C18 UNL     1       3.041   0.002   0.880  1.00  0.00     0.253 C 
HETATM   26  O4  UNL     1       2.400  -0.206   1.922  1.00  0.00    -0.270 OA
HETATM   27  N3  UNL     1       4.404   0.358   0.944  1.00  0.00    -0.350 N 
ATOM     28  H3  UNL     1       4.905   0.523   0.071  1.00  0.00     0.163 HD
BRANCH  27  29
HETATM   29  C19 UNL     1       5.127   0.500   2.194  1.00  0.00     0.022 C 
HETATM   30  C20 UNL     1       5.131  -0.800   2.977  1.00  0.00     0.037 C 
HETATM   31  C21 UNL     1       4.436   1.571   3.020  1.00  0.00     0.037 C 
HETATM   32  C22 UNL     1       6.533   0.938   1.926  1.00  0.00     0.037 C 
ENDBRANCH  27  29
ENDBRANCH   3  25
TORSDOF 9
