REMARK  4 active torsions:
REMARK  status: ('A' for Active; 'I' for Inactive)
REMARK    1  A    between atoms: N5_15  and  C6_16 
REMARK    2  A    between atoms: C6_16  and  C7_17 
REMARK    3  A    between atoms: C7_17  and  N6_18 
REMARK    4  A    between atoms: N6_18  and  N7_19 
ROOT
HETATM    1  N1  UNL     1      -4.292  -0.429   1.408  1.00  0.00    -0.383 N 
ATOM      2  H11 UNL     1      -4.159  -0.347   2.416  1.00  0.00     0.157 HD
ATOM      3  H12 UNL     1      -5.230  -0.681   1.095  1.00  0.00     0.157 HD
HETATM    4  C1  UNL     1      -3.340  -0.231   0.554  1.00  0.00     0.131 A 
HETATM    5  N2  UNL     1      -3.515  -0.339  -0.774  1.00  0.00    -0.337 N 
ATOM      6  H2  UNL     1      -4.445  -0.589  -1.110  1.00  0.00     0.168 HD
HETATM    7  C2  UNL     1      -2.553  -0.142  -1.693  1.00  0.00     0.183 A 
HETATM    8  N3  UNL     1      -1.324   0.189  -1.261  1.00  0.00    -0.336 N 
ATOM      9  H3  UNL     1      -0.577   0.344  -1.938  1.00  0.00     0.168 HD
HETATM   10  C3  UNL     1      -1.066   0.318   0.051  1.00  0.00     0.140 A 
HETATM   11  C4  UNL     1      -2.070   0.110   0.978  1.00  0.00     0.122 A 
HETATM   12  N4  UNL     1      -1.502   0.311   2.166  1.00  0.00    -0.346 N 
ATOM     13  H4  UNL     1      -1.976   0.236   3.066  1.00  0.00     0.167 HD
HETATM   14  C5  UNL     1      -0.216   0.626   1.996  1.00  0.00     0.185 A 
HETATM   15  N5  UNL     1       0.094   0.641   0.693  1.00  0.00    -0.326 N 
ENDROOT
BRANCH  15  16
HETATM   16  C6  UNL     1       1.371   0.933   0.084  1.00  0.00     0.149 C 
BRANCH  16  17
HETATM   17  C7  UNL     1       2.213  -0.306  -0.089  1.00  0.00     0.154 C 
BRANCH  17  18
HETATM   18  N6  UNL     1       3.471   0.134  -0.713  1.00  0.00    -0.147 NA
BRANCH  18  19
HETATM   19  N7  UNL     1       4.316  -0.978  -0.907  1.00  0.00    -0.348 N 
ATOM     20  H72 UNL     1       4.077  -1.935  -0.649  1.00  0.00     0.172 HD
ATOM     21  H71 UNL     1       5.188  -0.673  -1.340  1.00  0.00     0.172 HD
ENDBRANCH  18  19
ENDBRANCH  17  18
ENDBRANCH  16  17
ENDBRANCH  15  16
TORSDOF 4
