REMARK  6 active torsions:
REMARK  status: ('A' for Active; 'I' for Inactive)
REMARK    1  A    between atoms: N1_2  and  C2_5 
REMARK    2  A    between atoms: C2_5  and  C3_6 
REMARK    3  A    between atoms: C3_6  and  N2_7 
REMARK    4  A    between atoms: C4_9  and  C5_10 
REMARK    5  A    between atoms: C6_15  and  N5_16 
REMARK    6  A    between atoms: N6_19  and  N7_20 
ROOT
HETATM    1  C5  UNL     1       1.892  -0.416   0.277  1.00  0.00     0.174 A 
HETATM    2  N3  UNL     1       2.590  -1.493   0.717  1.00  0.00    -0.268 N 
ATOM      3  H3  UNL     1       2.227  -2.444   0.786  1.00  0.00     0.189 HD
HETATM    4  N4  UNL     1       3.813  -1.116   1.042  1.00  0.00    -0.129 N 
ATOM      5  H4  UNL     1       4.541  -1.733   1.402  1.00  0.00     0.205 HD
HETATM    6  C6  UNL     1       3.954   0.202   0.828  1.00  0.00     0.713 A 
HETATM    7  N6  UNL     1       2.765   0.618   0.357  1.00  0.00    -0.073 N 
ENDROOT
BRANCH   1   8
HETATM    8  C4  UNL     1       0.509  -0.368  -0.184  1.00  0.00     0.136 C 
HETATM    9  N2  UNL     1      -0.154  -1.474  -0.182  1.00  0.00    -0.394 N 
ATOM     10  H2  UNL     1       0.287  -2.338   0.132  1.00  0.00     0.159 HD
BRANCH   9  11
HETATM   11  C3  UNL     1      -1.511  -1.476  -0.624  1.00  0.00     0.146 C 
BRANCH  11  12
HETATM   12  C2  UNL     1      -2.288  -0.449   0.162  1.00  0.00     0.251 C 
BRANCH  12  13
HETATM   13  N1  UNL     1      -3.681  -0.403  -0.243  1.00  0.00    -0.077 N 
HETATM   14  C1  UNL     1      -4.326   0.607   0.569  1.00  0.00     0.267 C 
ATOM     15  H12 UNL     1      -4.143  -1.311  -0.194  1.00  0.00     0.276 HD
ATOM     16  H11 UNL     1      -3.802  -0.249  -1.244  1.00  0.00     0.276 HD
ENDBRANCH  12  13
ENDBRANCH  11  12
ENDBRANCH   9  11
ENDBRANCH   1   8
BRANCH   7  17
HETATM   17  N7  UNL     1       2.426   1.922  -0.011  1.00  0.00    -0.322 N 
ATOM     18  H72 UNL     1       1.524   2.238  -0.368  1.00  0.00     0.178 HD
ATOM     19  H71 UNL     1       3.083   2.700   0.049  1.00  0.00     0.178 HD
ENDBRANCH   7  17
BRANCH   6  20
HETATM   20  N5  UNL     1       5.029   0.911   1.038  1.00  0.00    -0.232 N 
ATOM     21  H52 UNL     1       5.931   0.595   1.395  1.00  0.00     0.174 HD
ATOM     22  H51 UNL     1       5.136   1.912   0.875  1.00  0.00     0.174 HD
ENDBRANCH   6  20
TORSDOF 6
