REMARK  7 active torsions:
REMARK  status: ('A' for Active; 'I' for Inactive)
REMARK    1  A    between atoms: N1_1  and  C1_4 
REMARK    2  A    between atoms: N3_8  and  C3_9 
REMARK    3  A    between atoms: C3_9  and  C4_10 
REMARK    4  A    between atoms: C4_10  and  C5_11 
REMARK    5  A    between atoms: C5_11  and  N4_12 
REMARK    6  A    between atoms: C6_16  and  N5_17 
REMARK    7  A    between atoms: N5_17  and  N6_19 
ROOT
HETATM    1  C1  UNL     1      -2.199   1.616   0.914  1.00  0.00     0.691 A 
HETATM    2  N2  UNL     1      -1.029   1.790   1.593  1.00  0.00    -0.187 N 
ATOM      3  H2  UNL     1      -0.897   2.627   2.161  1.00  0.00     0.185 HD
HETATM    4  C2  UNL     1      -0.044   0.872   1.525  1.00  0.00     0.218 A 
HETATM    5  N3  UNL     1      -0.232  -0.228   0.771  1.00  0.00    -0.177 N 
HETATM    6  C6  UNL     1      -1.395  -0.395   0.099  1.00  0.00     0.714 A 
HETATM    7  N7  UNL     1      -2.378   0.520   0.167  1.00  0.00    -0.021 N 
ATOM      8  H7  UNL     1      -3.249   0.381  -0.344  1.00  0.00     0.203 HD
ENDROOT
BRANCH   5   9
HETATM    9  C3  UNL     1       0.812  -1.199   0.707  1.00  0.00     0.150 C 
BRANCH   9  10
HETATM   10  C4  UNL     1       1.802  -1.015  -0.389  1.00  0.00     0.048 C 
BRANCH  10  11
HETATM   11  C5  UNL     1       2.539   0.295  -0.328  1.00  0.00     0.231 C 
BRANCH  11  12
HETATM   12  N4  UNL     1       3.500   0.403  -1.437  1.00  0.00    -0.079 N 
ATOM     13  H43 UNL     1       4.141  -0.390  -1.461  1.00  0.00     0.274 HD
ATOM     14  H42 UNL     1       3.050   0.264  -2.342  1.00  0.00     0.274 HD
ATOM     15  H41 UNL     1       4.000   1.291  -1.396  1.00  0.00     0.274 HD
ENDBRANCH  11  12
ENDBRANCH  10  11
ENDBRANCH   9  10
ENDBRANCH   5   9
BRANCH   6  16
HETATM   16  N5  UNL     1      -1.542  -1.445  -0.604  1.00  0.00    -0.138 N 
ATOM     17  H5  UNL     1      -0.770  -2.111  -0.624  1.00  0.00     0.205 HD
BRANCH  16  18
HETATM   18  N6  UNL     1      -2.670  -1.752  -1.344  1.00  0.00    -0.331 N 
ATOM     19  H62 UNL     1      -3.432  -1.075  -1.313  1.00  0.00     0.177 HD
ATOM     20  H61 UNL     1      -2.788  -2.594  -1.908  1.00  0.00     0.177 HD
ENDBRANCH  16  18
ENDBRANCH   6  16
BRANCH   1  21
HETATM   21  N1  UNL     1      -3.146   2.491   0.974  1.00  0.00    -0.234 N 
ATOM     22  H12 UNL     1      -3.010   3.326   1.543  1.00  0.00     0.174 HD
ATOM     23  H11 UNL     1      -4.021   2.361   0.466  1.00  0.00     0.174 HD
ENDBRANCH   1  21
TORSDOF 7
