REMARK  7 active torsions:
REMARK  status: ('A' for Active; 'I' for Inactive)
REMARK    1  A    between atoms: N1_1  and  N2_4 
REMARK    2  A    between atoms: N3_6  and  C1_8 
REMARK    3  A    between atoms: C2_11  and  N5_12 
REMARK    4  A    between atoms: C3_17  and  N7_18 
REMARK    5  A    between atoms: N7_18  and  C4_20 
REMARK    6  A    between atoms: C4_20  and  C5_21 
REMARK    7  A    between atoms: C5_21  and  N8_22 
ROOT
HETATM    1  C1  UNL     1       2.081   0.273  -0.899  1.00  0.00     0.727 A 
HETATM    2  N4  UNL     1       2.789  -0.728  -0.305  1.00  0.00    -0.020 N 
ATOM      3  H4  UNL     1       3.808  -0.683  -0.275  1.00  0.00     0.203 HD
HETATM    4  C2  UNL     1       2.146  -1.775   0.242  1.00  0.00     0.705 A 
HETATM    5  N6  UNL     1       0.802  -1.826   0.197  1.00  0.00    -0.022 N 
ATOM      6  H6  UNL     1       0.323  -2.624   0.614  1.00  0.00     0.203 HD
HETATM    7  C3  UNL     1       0.071  -0.854  -0.382  1.00  0.00     0.707 A 
HETATM    8  N9  UNL     1       0.734   0.184  -0.922  1.00  0.00    -0.020 N 
ATOM      9  H9  UNL     1       0.200   0.931  -1.365  1.00  0.00     0.203 HD
ENDROOT
BRANCH   7  10
HETATM   10  N7  UNL     1      -1.197  -0.988  -0.376  1.00  0.00    -0.223 N 
ATOM     11  H7  UNL     1      -1.567  -1.827   0.070  1.00  0.00     0.177 HD
BRANCH  10  12
HETATM   12  C4  UNL     1      -2.148  -0.086  -0.928  1.00  0.00     0.165 C 
BRANCH  12  13
HETATM   13  C5  UNL     1      -2.461   1.062   0.041  1.00  0.00     0.249 C 
BRANCH  13  14
HETATM   14  N8  UNL     1      -3.002   0.555   1.278  1.00  0.00    -0.078 N 
ATOM     15  H83 UNL     1      -3.817  -0.037   1.119  1.00  0.00     0.274 HD
ATOM     16  H82 UNL     1      -2.387  -0.140   1.702  1.00  0.00     0.274 HD
ATOM     17  H81 UNL     1      -3.210   1.318   1.922  1.00  0.00     0.274 HD
ENDBRANCH  13  14
ENDBRANCH  12  13
ENDBRANCH  10  12
ENDBRANCH   7  10
BRANCH   4  18
HETATM   18  N5  UNL     1       2.808  -2.735   0.811  1.00  0.00    -0.234 N 
ATOM     19  H52 UNL     1       3.827  -2.696   0.845  1.00  0.00     0.174 HD
ATOM     20  H51 UNL     1       2.320  -3.529   1.226  1.00  0.00     0.174 HD
ENDBRANCH   4  18
BRANCH   1  21
HETATM   21  N3  UNL     1       2.810   1.337  -1.451  1.00  0.00    -0.117 N 
HETATM   22  N2  UNL     1       3.354   2.196  -0.748  1.00  0.00    -0.235 N 
ATOM     23  H2  UNL     1       4.273   1.785  -0.585  1.00  0.00     0.208 HD
ATOM     24  H3  UNL     1       2.894   1.404  -2.465  1.00  0.00     0.207 HD
BRANCH  22  25
HETATM   25  N1  UNL     1       3.435   3.259  -0.129  1.00  0.00    -0.330 N 
ATOM     26  H12 UNL     1       2.505   3.632  -0.318  1.00  0.00     0.178 HD
ATOM     27  H11 UNL     1       3.884   3.968   0.451  1.00  0.00     0.178 HD
ENDBRANCH  22  25
ENDBRANCH   1  21
TORSDOF 7
