REMARK  6 active torsions:
REMARK  status: ('A' for Active; 'I' for Inactive)
REMARK    1  A    between atoms: C2_2  and  C3_3 
REMARK    2  A    between atoms: C3_3  and  C4_4 
REMARK    3  A    between atoms: C4_4  and  C5_5 
REMARK    4  A    between atoms: C5_5  and  C6_6 
REMARK    5  A    between atoms: C6_6  and  C8_8 
REMARK    6  A    between atoms: C8_8  and  C9_9 
ROOT
HETATM    1  C8  UNL     1      -1.247   1.235   0.147  1.00  0.00     0.091 C 
ENDROOT
BRANCH   1   2
HETATM    2  C6  UNL     1      -0.405   0.020  -0.123  1.00  0.00    -0.084 C 
HETATM    3  C7  UNL     1      -0.993  -1.150  -0.188  1.00  0.00     0.014 C 
BRANCH   2   4
HETATM    4  C5  UNL     1       1.061   0.183  -0.308  1.00  0.00     0.034 C 
BRANCH   4   5
HETATM    5  C4  UNL     1       1.713  -1.132  -0.551  1.00  0.00     0.008 C 
BRANCH   5   6
HETATM    6  C3  UNL     1       3.207  -1.023  -0.752  1.00  0.00     0.026 C 
BRANCH   6   7
HETATM    7  C2  UNL     1       3.912  -0.444   0.397  1.00  0.00    -0.037 C 
HETATM    8  C1  UNL     1       4.625   0.668   0.312  1.00  0.00     0.007 C 
ENDBRANCH   6   7
ENDBRANCH   5   6
ENDBRANCH   4   5
ENDBRANCH   2   4
ENDBRANCH   1   2
BRANCH   1   9
HETATM    9  C9  UNL     1      -2.673   0.883   0.295  1.00  0.00     0.029 A 
HETATM   10  C10 UNL     1      -3.678   0.820  -0.644  1.00  0.00     0.114 A 
HETATM   11  N1  UNL     1      -4.801   0.448   0.008  1.00  0.00    -0.360 N 
HETATM   12  C11 UNL     1      -4.532   0.280   1.303  1.00  0.00     0.180 A 
ATOM     13  H1  UNL     1      -5.715   0.316  -0.424  1.00  0.00     0.166 HD
HETATM   14  N2  UNL     1      -3.241   0.544   1.477  1.00  0.00    -0.354 N 
ATOM     15  H2  UNL     1      -2.750   0.498   2.370  1.00  0.00     0.166 HD
ENDBRANCH   1   9
TORSDOF 6
