REMARK  4 active torsions:
REMARK  status: ('A' for Active; 'I' for Inactive)
REMARK    1  A    between atoms: C1_2  and  C2_4 
REMARK    2  A    between atoms: C2_4  and  O2_5 
REMARK    3  A    between atoms: C3_7  and  C4_8 
REMARK    4  A    between atoms: C5_9  and  O3_11 
ROOT
HETATM    1  C2  UNL     1       1.192  -0.327  -0.232  1.00  0.00     0.131 C 
HETATM    2  C3  UNL     1      -0.003   0.205  -0.231  1.00  0.00     0.045 C 
ENDROOT
BRANCH   1   3
HETATM    3  C1  UNL     1       2.357   0.411   0.231  1.00  0.00     0.287 C 
HETATM    4  N1  UNL     1       3.647  -0.193   0.219  1.00  0.00    -0.055 NA
HETATM    5  O1  UNL     1       2.195   1.588   0.640  1.00  0.00    -0.269 OA
ENDBRANCH   1   3
BRANCH   1   6
HETATM    6  O2  UNL     1       1.316  -1.636  -0.696  1.00  0.00    -0.356 OA
ATOM      7  H2  UNL     1       0.555  -2.118  -0.998  1.00  0.00     0.218 HD
ENDBRANCH   1   6
BRANCH   2   8
HETATM    8  C4  UNL     1      -1.169  -0.531  -0.694  1.00  0.00     0.055 C 
HETATM    9  C5  UNL     1      -2.341   0.071  -0.663  1.00  0.00     0.149 C 
HETATM   10  N2  UNL     1      -2.465   1.401  -0.191  1.00  0.00    -0.075 NA
BRANCH   9  11
HETATM   11  O3  UNL     1      -3.455  -0.625  -1.102  1.00  0.00    -0.348 OA
ATOM     12  H3  UNL     1      -4.300  -0.191  -1.080  1.00  0.00     0.219 HD
ENDBRANCH   9  11
ENDBRANCH   2   8
TORSDOF 4
