REMARK  4 active torsions:
REMARK  status: ('A' for Active; 'I' for Inactive)
REMARK    1  A    between atoms: C1_2  and  C5_10 
REMARK    2  A    between atoms: C2_3  and  C3_4 
REMARK       I    between atoms: C3_4  and  N2_6 
REMARK    3  A    between atoms: N2_6  and  C4_8 
REMARK    4  A    between atoms: C5_10  and  O3_11 
ROOT
HETATM    1  N1  UNL     1      -1.771  -1.961   0.165  1.00  0.00    -0.105 NA
HETATM    2  C1  UNL     1      -1.145  -0.671   0.020  1.00  0.00     0.052 C 
HETATM    3  C2  UNL     1       0.145  -0.656  -0.054  1.00  0.00     0.098 C 
ENDROOT
BRANCH   3   4
HETATM    4  C3  UNL     1       1.061   0.452  -0.199  1.00  0.00     0.248 C 
HETATM    5  O1  UNL     1       0.693   1.619  -0.280  1.00  0.00    -0.268 OA
HETATM    6  N2  UNL     1       2.470   0.150  -0.251  1.00  0.00    -0.301 N 
ATOM      7  H2  UNL     1       2.807  -0.811  -0.187  1.00  0.00     0.171 HD
BRANCH   6   8
HETATM    8  C4  UNL     1       3.361   1.224  -0.393  1.00  0.00     0.355 C 
HETATM    9  O2  UNL     1       2.939   2.404  -0.471  1.00  0.00    -0.283 OA
ENDBRANCH   6   8
ENDBRANCH   3   4
BRANCH   2  10
HETATM   10  C5  UNL     1      -2.012   0.510  -0.030  1.00  0.00     0.218 C 
BRANCH  10  11
HETATM   11  O3  UNL     1      -2.911   0.445  -1.122  1.00  0.00    -0.395 OA
ATOM     12  H3  UNL     1      -3.473   1.210  -1.154  1.00  0.00     0.209 HD
ENDBRANCH  10  11
ENDBRANCH   2  10
TORSDOF 4
