REMARK  3 active torsions:
REMARK  status: ('A' for Active; 'I' for Inactive)
REMARK    1  A    between atoms: C10_10  and  C11_11 
REMARK    2  A    between atoms: C13_13  and  O1_14 
REMARK    3  A    between atoms: O1_14  and  C14_15 
ROOT
HETATM    1  C1  UNL     1      -4.653   3.483  -1.495  1.00  0.00     0.038 C 
HETATM    2  C2  UNL     1      -5.316   2.302  -0.932  1.00  0.00    -0.002 C 
HETATM    3  C3  UNL     1      -4.648   1.249  -0.455  1.00  0.00     0.029 A 
HETATM    4  C4  UNL     1      -5.359   0.102   0.093  1.00  0.00     0.037 A 
HETATM    5  C5  UNL     1      -4.731  -0.960   0.575  1.00  0.00    -0.046 A 
HETATM    6  C6  UNL     1      -5.497  -2.065   1.104  1.00  0.00     0.049 C 
HETATM    7  C7  UNL     1      -3.280  -0.990   0.559  1.00  0.00     0.014 A 
HETATM    8  C8  UNL     1      -2.642  -2.090   1.059  1.00  0.00     0.018 A 
HETATM    9  C9  UNL     1      -1.262  -2.105   1.038  1.00  0.00     0.033 A 
HETATM   10  C10 UNL     1      -0.524  -1.058   0.536  1.00  0.00     0.060 A 
HETATM   11  N2  UNL     1      -1.172   0.012   0.051  1.00  0.00    -0.340 N 
ATOM     12  H2  UNL     1      -0.643   0.799  -0.326  1.00  0.00     0.167 HD
HETATM   13  C21 UNL     1      -2.517   0.051   0.060  1.00  0.00     0.117 A 
HETATM   14  N3  UNL     1      -3.229   1.192  -0.457  1.00  0.00    -0.342 N 
ATOM     15  H3  UNL     1      -2.700   1.979  -0.834  1.00  0.00     0.167 HD
ENDROOT
BRANCH  10  16
HETATM   16  C11 UNL     1       0.925  -1.163   0.556  1.00  0.00     0.061 A 
HETATM   17  C12 UNL     1       1.759  -0.167   0.076  1.00  0.00     0.069 A 
HETATM   18  C13 UNL     1       3.127  -0.245   0.084  1.00  0.00     0.079 A 
HETATM   19  C19 UNL     1       3.694  -1.405   0.613  1.00  0.00     0.054 A 
HETATM   20  C20 UNL     1       2.857  -2.384   1.085  1.00  0.00     0.091 A 
HETATM   21  N1  UNL     1       1.526  -2.254   1.051  1.00  0.00    -0.364 N 
ATOM     22  H1  UNL     1       0.948  -3.012   1.415  1.00  0.00     0.165 HD
BRANCH  18  23
HETATM   23  O1  UNL     1       3.882   0.795  -0.415  1.00  0.00    -0.311 OA
BRANCH  23  24
HETATM   24  C14 UNL     1       5.253   0.798  -0.444  1.00  0.00     0.072 A 
HETATM   25  C15 UNL     1       5.997   1.674   0.227  1.00  0.00     0.014 A 
HETATM   26  C16 UNL     1       7.427   1.426   0.000  1.00  0.00     0.057 A 
HETATM   27  C17 UNL     1       7.429   0.261  -0.913  1.00  0.00    -0.020 A 
HETATM   28  C18 UNL     1       6.183  -0.074  -1.147  1.00  0.00     0.033 A 
ENDBRANCH  23  24
ENDBRANCH  18  23
ENDBRANCH  10  16
TORSDOF 3
