REMARK  4 active torsions:
REMARK  status: ('A' for Active; 'I' for Inactive)
REMARK    1  A    between atoms: C3_7  and  C4_8 
REMARK    2  A    between atoms: C4_8  and  O1_9 
REMARK    3  A    between atoms: N3_11  and  C5_13 
REMARK    4  A    between atoms: C5_13  and  C6_14 
ROOT
HETATM    1  C5  UNL     1       0.536  -0.903  -0.542  1.00  0.00     0.161 C 
ENDROOT
BRANCH   1   2
HETATM    2  N3  UNL     1       1.466  -0.594   0.522  1.00  0.00    -0.365 N 
HETATM    3  C4  UNL     1       2.656  -0.049   0.331  1.00  0.00     0.165 C 
ATOM      4  H3  UNL     1       1.187  -0.810   1.479  1.00  0.00     0.162 HD
BRANCH   3   5
HETATM    5  C3  UNL     1       3.900   0.534   0.572  1.00  0.00     0.106 A 
HETATM    6  N2  UNL     1       4.125   1.297   1.727  1.00  0.00    -0.296 N 
HETATM    7  N1  UNL     1       5.342   1.757   1.731  1.00  0.00    -0.304 N 
ATOM      8  H2  UNL     1       3.434   1.467   2.458  1.00  0.00     0.187 HD
HETATM    9  C2  UNL     1       5.993   1.357   0.626  1.00  0.00     0.030 A 
ATOM     10  H1  UNL     1       5.744   2.338   2.467  1.00  0.00     0.186 HD
HETATM   11  C1  UNL     1       7.393   1.695   0.254  1.00  0.00     0.070 C 
HETATM   12  C20 UNL     1       5.095   0.597  -0.094  1.00  0.00    -0.006 A 
HETATM   13  C21 UNL     1       5.375  -0.084  -1.387  1.00  0.00     0.053 C 
ENDBRANCH   3   5
BRANCH   3  14
HETATM   14  O1  UNL     1       2.653  -0.057  -1.211  1.00  0.00    -0.345 OA
ATOM     15  H1  UNL     1       1.806  -0.454  -1.375  1.00  0.00     0.219 HD
ENDBRANCH   3  14
ENDBRANCH   1   2
BRANCH   1  16
HETATM   16  C6  UNL     1      -0.774  -1.330  -0.065  1.00  0.00    -0.029 A 
HETATM   17  C7  UNL     1      -1.127  -2.615   0.311  1.00  0.00     0.010 A 
HETATM   18  C8  UNL     1      -2.431  -2.971   0.503  1.00  0.00     0.008 A 
HETATM   19  C9  UNL     1      -3.494  -2.070   0.339  1.00  0.00    -0.050 A 
HETATM   20  C10 UNL     1      -4.879  -2.514   0.469  1.00  0.00     0.049 C 
HETATM   21  C11 UNL     1      -3.151  -0.768  -0.025  1.00  0.00    -0.009 A 
HETATM   22  C12 UNL     1      -4.149   0.222  -0.000  1.00  0.00    -0.018 A 
HETATM   23  C16 UNL     1      -1.836  -0.431  -0.223  1.00  0.00    -0.017 A 
HETATM   24  C13 UNL     1      -3.697   1.534  -0.197  1.00  0.00    -0.044 A 
HETATM   25  C19 UNL     1      -5.540   0.218   0.196  1.00  0.00     0.009 A 
HETATM   26  C14 UNL     1      -2.407   1.878  -0.408  1.00  0.00     0.009 A 
HETATM   27  C17 UNL     1      -4.905   2.400  -0.091  1.00  0.00     0.066 A 
HETATM   28  C15 UNL     1      -1.450   0.902  -0.425  1.00  0.00     0.013 A 
HETATM   29  C18 UNL     1      -6.045   1.436   0.142  1.00  0.00    -0.021 A 
ENDBRANCH   1  16
TORSDOF 4
