REMARK  5 active torsions:
REMARK  status: ('A' for Active; 'I' for Inactive)
REMARK    1  A    between atoms: C1_4  and  O1_5 
REMARK    2  A    between atoms: C1_4  and  C2_7 
REMARK    3  A    between atoms: C2_7  and  C5_12 
REMARK    4  A    between atoms: C3_8  and  C4_9 
REMARK    5  A    between atoms: C4_9  and  O2_10 
ROOT
HETATM    1  C2  UNL     1       0.238   0.444  -0.135  1.00  0.00     0.077 C 
HETATM    2  C3  UNL     1       0.044  -0.807   0.140  1.00  0.00     0.020 C 
ENDROOT
BRANCH   1   3
HETATM    3  C1  UNL     1      -0.724   1.510  -0.213  1.00  0.00     0.148 C 
HETATM    4  N1  UNL     1      -1.939   1.577  -0.056  1.00  0.00    -0.379 N 
ATOM      5  H12 UNL     1      -2.621   2.333  -0.111  1.00  0.00     0.158 HD
ATOM      6  H11 UNL     1      -2.330   0.665   0.180  1.00  0.00     0.158 HD
BRANCH   3   7
HETATM    7  O1  UNL     1      -0.168   2.808  -0.549  1.00  0.00    -0.346 OA
ATOM      8  H1  UNL     1       0.773   2.756  -0.671  1.00  0.00     0.219 HD
ENDBRANCH   3   7
ENDBRANCH   1   3
BRANCH   1   9
HETATM    9  C5  UNL     1       1.662   0.796  -0.403  1.00  0.00     0.269 C 
HETATM   10  N2  UNL     1       2.619  -0.231  -0.332  1.00  0.00    -0.057 NA
HETATM   11  O3  UNL     1       1.946   1.964  -0.674  1.00  0.00    -0.271 OA
ENDBRANCH   1   9
BRANCH   2  12
HETATM   12  C4  UNL     1      -1.200  -1.491   0.448  1.00  0.00     0.192 C 
BRANCH  12  13
HETATM   13  O2  UNL     1      -1.131  -2.065   1.729  1.00  0.00    -0.397 OA
ATOM     14  H2  UNL     1      -1.945  -2.512   1.930  1.00  0.00     0.209 HD
ENDBRANCH  12  13
ENDBRANCH   2  12
TORSDOF 5
