REMARK  3 active torsions:
REMARK  status: ('A' for Active; 'I' for Inactive)
REMARK    1  A    between atoms: C7_7  and  N1_8 
REMARK    2  A    between atoms: N1_8  and  C8_10 
REMARK    3  A    between atoms: C14_20  and  C15_21 
ROOT
HETATM    1  C8  UNL     1       0.571  -0.237  -1.422  1.00  0.00     0.120 A 
HETATM    2  N2  UNL     1       0.047   0.043  -0.202  1.00  0.00    -0.327 N 
ATOM      3  H2  UNL     1       0.697   0.242   0.559  1.00  0.00     0.169 HD
HETATM    4  C9  UNL     1      -1.263   0.076   0.073  1.00  0.00     0.118 A 
HETATM    5  N3  UNL     1      -1.966   0.332   1.209  1.00  0.00    -0.345 N 
ATOM      6  H3  UNL     1      -1.553   0.561   2.113  1.00  0.00     0.167 HD
HETATM    7  C10 UNL     1      -3.267   0.241   0.970  1.00  0.00     0.018 A 
HETATM    8  C11 UNL     1      -3.402  -0.082  -0.361  1.00  0.00    -0.021 A 
HETATM    9  C12 UNL     1      -2.164  -0.190  -0.938  1.00  0.00     0.017 A 
HETATM   10  C13 UNL     1      -1.660  -0.477  -2.182  1.00  0.00     0.034 A 
HETATM   11  C14 UNL     1      -0.279  -0.510  -2.465  1.00  0.00     0.047 A 
HETATM   12  C16 UNL     1      -4.756  -0.249  -0.911  1.00  0.00     0.041 C 
HETATM   13  C17 UNL     1      -5.711  -0.921   0.011  1.00  0.00     0.005 C 
HETATM   14  C18 UNL     1      -5.411  -0.747   1.463  1.00  0.00     0.006 C 
HETATM   15  C19 UNL     1      -4.518   0.405   1.782  1.00  0.00     0.057 C 
ENDROOT
BRANCH   1  16
HETATM   16  N1  UNL     1       1.979  -0.192  -1.556  1.00  0.00    -0.342 N 
ATOM     17  H1  UNL     1       2.358  -0.343  -2.491  1.00  0.00     0.167 HD
BRANCH  16  18
HETATM   18  C7  UNL     1       2.910   0.042  -0.518  1.00  0.00     0.034 A 
HETATM   19  C6  UNL     1       2.760  -0.258   0.802  1.00  0.00     0.036 A 
HETATM   20  C4  UNL     1       3.720   0.044   1.754  1.00  0.00    -0.059 A 
HETATM   21  C3  UNL     1       4.882   0.671   1.377  1.00  0.00     0.013 A 
HETATM   22  C5  UNL     1       3.498  -0.309   3.185  1.00  0.00     0.048 C 
HETATM   23  C2  UNL     1       5.082   0.994   0.056  1.00  0.00    -0.059 A 
HETATM   24  C1  UNL     1       6.341   1.677  -0.380  1.00  0.00     0.048 C 
HETATM   25  C20 UNL     1       4.114   0.682  -0.857  1.00  0.00     0.036 A 
ENDBRANCH  16  18
ENDBRANCH   1  16
BRANCH  11  26
HETATM   26  C15 UNL     1       0.171  -0.831  -3.795  1.00  0.00     0.273 C 
HETATM   27  O1  UNL     1       1.315  -0.926  -4.230  1.00  0.00    -0.301 OA
ENDBRANCH  11  26
TORSDOF 3
