REMARK  10 active torsions:
REMARK  status: ('A' for Active; 'I' for Inactive)
REMARK    1  A    between atoms: C2_2  and  C3_3 
REMARK    2  A    between atoms: C3_3  and  C4_4 
REMARK    3  A    between atoms: C4_4  and  C5_5 
REMARK    4  A    between atoms: C5_5  and  N1_6 
REMARK    5  A    between atoms: N1_6  and  C6_9 
REMARK    6  A    between atoms: C6_9  and  C7_10 
REMARK    7  A    between atoms: C7_10  and  C8_11 
REMARK    8  A    between atoms: C8_11  and  C9_12 
REMARK    9  A    between atoms: C9_12  and  C10_13 
REMARK   10  A    between atoms: C10_13  and  C11_14 
ROOT
HETATM    1  C6  UNL     1       1.364   0.304  -0.041  1.00  0.00     0.232 C 
ENDROOT
BRANCH   1   2
HETATM    2  N1  UNL     1       2.228   1.027   0.844  1.00  0.00    -0.075 N 
ATOM      3  H12 UNL     1       2.045   0.776   1.816  1.00  0.00     0.277 HD
ATOM      4  H11 UNL     1       1.973   2.014   0.875  1.00  0.00     0.277 HD
BRANCH   2   5
HETATM    5  C5  UNL     1       3.653   0.864   0.520  1.00  0.00     0.232 C 
BRANCH   5   6
HETATM    6  C4  UNL     1       4.109  -0.511   0.799  1.00  0.00     0.027 C 
BRANCH   6   7
HETATM    7  C3  UNL     1       5.527  -0.868   0.591  1.00  0.00     0.001 C 
BRANCH   7   8
HETATM    8  C2  UNL     1       6.121  -0.752  -0.758  1.00  0.00    -0.005 C 
HETATM    9  C1  UNL     1       6.156   0.632  -1.301  1.00  0.00     0.005 C 
ENDBRANCH   7   8
ENDBRANCH   6   7
ENDBRANCH   5   6
ENDBRANCH   2   5
ENDBRANCH   1   2
BRANCH   1  10
HETATM   10  C7  UNL     1      -0.103   0.555   0.278  1.00  0.00     0.027 C 
BRANCH  10  11
HETATM   11  C8  UNL     1      -0.898  -0.239  -0.704  1.00  0.00     0.002 C 
BRANCH  11  12
HETATM   12  C9  UNL     1      -2.398  -0.105  -0.551  1.00  0.00     0.000 C 
BRANCH  12  13
HETATM   13  C10 UNL     1      -2.879  -0.542   0.760  1.00  0.00     0.004 C 
BRANCH  13  14
HETATM   14  C11 UNL     1      -4.325  -0.472   1.072  1.00  0.00    -0.014 C 
HETATM   15  C12 UNL     1      -5.140  -1.301   0.129  1.00  0.00     0.004 C 
HETATM   16  C13 UNL     1      -5.709  -0.320  -0.854  1.00  0.00     0.000 C 
HETATM   17  C14 UNL     1      -5.504   1.056  -0.272  1.00  0.00     0.000 C 
HETATM   18  C15 UNL     1      -4.996   0.826   1.110  1.00  0.00     0.004 C 
ENDBRANCH  13  14
ENDBRANCH  12  13
ENDBRANCH  11  12
ENDBRANCH  10  11
ENDBRANCH   1  10
TORSDOF 10
