REMARK  11 active torsions:
REMARK  status: ('A' for Active; 'I' for Inactive)
REMARK    1  A    between atoms: C2_2  and  C3_3 
REMARK    2  A    between atoms: C3_3  and  C4_4 
REMARK    3  A    between atoms: C4_4  and  C5_5 
REMARK    4  A    between atoms: C5_5  and  C6_6 
REMARK    5  A    between atoms: C6_6  and  C7_7 
REMARK    6  A    between atoms: C7_7  and  C8_8 
REMARK    7  A    between atoms: C7_7  and  C9_13 
REMARK    8  A    between atoms: C8_8  and  N1_9 
REMARK    9  A    between atoms: C9_13  and  C10_14 
REMARK   10  A    between atoms: C10_14  and  C11_15 
REMARK   11  A    between atoms: C11_15  and  C12_16 
ROOT
HETATM    1  C7  UNL     1       0.497  -1.954  -0.347  1.00  0.00     0.011 C 
ENDROOT
BRANCH   1   2
HETATM    2  C6  UNL     1       1.341  -0.834   0.151  1.00  0.00     0.006 C 
BRANCH   2   3
HETATM    3  C5  UNL     1       1.699   0.191  -0.868  1.00  0.00     0.000 C 
BRANCH   3   4
HETATM    4  C4  UNL     1       2.545   1.256  -0.210  1.00  0.00     0.000 C 
BRANCH   4   5
HETATM    5  C3  UNL     1       3.822   0.763   0.380  1.00  0.00    -0.000 C 
BRANCH   5   6
HETATM    6  C2  UNL     1       4.533   1.967   0.983  1.00  0.00    -0.005 C 
HETATM    7  C1  UNL     1       4.827   3.011  -0.062  1.00  0.00     0.005 C 
ENDBRANCH   5   6
ENDBRANCH   4   5
ENDBRANCH   3   4
ENDBRANCH   2   3
ENDBRANCH   1   2
BRANCH   1   8
HETATM    8  C8  UNL     1       1.148  -2.751  -1.457  1.00  0.00     0.234 C 
BRANCH   8   9
HETATM    9  N1  UNL     1       0.262  -3.820  -1.883  1.00  0.00    -0.079 N 
ATOM     10  H13 UNL     1      -0.025  -4.412  -1.104  1.00  0.00     0.274 HD
ATOM     11  H12 UNL     1      -0.658  -3.471  -2.151  1.00  0.00     0.274 HD
ATOM     12  H11 UNL     1       0.701  -4.357  -2.631  1.00  0.00     0.274 HD
ENDBRANCH   8   9
ENDBRANCH   1   8
BRANCH   1  13
HETATM   13  C9  UNL     1      -0.905  -1.567  -0.739  1.00  0.00     0.006 C 
BRANCH  13  14
HETATM   14  C10 UNL     1      -1.670  -0.986   0.414  1.00  0.00     0.001 C 
BRANCH  14  15
HETATM   15  C11 UNL     1      -3.093  -0.614  -0.010  1.00  0.00     0.005 C 
BRANCH  15  16
HETATM   16  C12 UNL     1      -3.860  -0.030   1.152  1.00  0.00    -0.014 C 
HETATM   17  C13 UNL     1      -5.269   0.342   0.745  1.00  0.00     0.004 C 
HETATM   18  C14 UNL     1      -4.761   1.759   0.517  1.00  0.00     0.001 C 
HETATM   19  C15 UNL     1      -3.537   1.434   1.358  1.00  0.00     0.004 C 
ENDBRANCH  15  16
ENDBRANCH  14  15
ENDBRANCH  13  14
ENDBRANCH   1  13
TORSDOF 11
