REMARK  11 active torsions:
REMARK  status: ('A' for Active; 'I' for Inactive)
REMARK    1  A    between atoms: C3_3  and  C4_4 
REMARK    2  A    between atoms: C4_4  and  C5_5 
REMARK    3  A    between atoms: C5_5  and  C6_6 
REMARK    4  A    between atoms: C6_6  and  O1_7 
REMARK    5  A    between atoms: O1_7  and  C7_8 
REMARK    6  A    between atoms: C7_8  and  C8_9 
REMARK    7  A    between atoms: C8_9  and  C9_10 
REMARK    8  A    between atoms: C9_10  and  C10_11 
REMARK    9  A    between atoms: C10_11  and  C11_12 
REMARK   10  A    between atoms: C11_12  and  C12_13 
REMARK   11  A    between atoms: C11_12  and  C14_15 
ROOT
HETATM    1  C1  UNL     1       6.549  -1.143   1.268  1.00  0.00     0.012 C 
HETATM    2  C2  UNL     1       6.289  -0.695   0.176  1.00  0.00    -0.117 C 
HETATM    3  C3  UNL     1       5.989  -0.164  -1.145  1.00  0.00     0.093 C 
ENDROOT
BRANCH   3   4
HETATM    4  C4  UNL     1       4.617  -0.660  -1.607  1.00  0.00     0.014 C 
BRANCH   4   5
HETATM    5  C5  UNL     1       3.617  -0.149  -0.568  1.00  0.00     0.027 C 
BRANCH   5   6
HETATM    6  C6  UNL     1       2.224  -0.583  -0.927  1.00  0.00     0.167 C 
BRANCH   6   7
HETATM    7  O1  UNL     1       1.294  -0.174  -0.026  1.00  0.00    -0.391 OA
BRANCH   7   8
HETATM    8  C7  UNL     1       1.204   1.168   0.119  1.00  0.00     0.167 C 
BRANCH   8   9
HETATM    9  C8  UNL     1       0.189   1.699   1.059  1.00  0.00     0.026 C 
BRANCH   9  10
HETATM   10  C9  UNL     1      -1.253   1.405   0.754  1.00  0.00     0.002 C 
BRANCH  10  11
HETATM   11  C10 UNL     1      -1.524  -0.039   0.730  1.00  0.00     0.005 C 
BRANCH  11  12
HETATM   12  C11 UNL     1      -2.991  -0.424   0.453  1.00  0.00    -0.015 C 
BRANCH  12  13
HETATM   13  C12 UNL     1      -3.837   0.152   1.512  1.00  0.00    -0.000 C 
HETATM   14  C13 UNL     1      -5.297  -0.122   1.482  1.00  0.00     0.005 C 
ENDBRANCH  12  13
BRANCH  12  15
HETATM   15  C14 UNL     1      -3.295  -0.092  -0.961  1.00  0.00    -0.000 C 
HETATM   16  C15 UNL     1      -4.660  -0.406  -1.469  1.00  0.00     0.005 C 
ENDBRANCH  12  15
ENDBRANCH  11  12
ENDBRANCH  10  11
ENDBRANCH   9  10
ENDBRANCH   8   9
ENDBRANCH   7   8
ENDBRANCH   6   7
ENDBRANCH   5   6
ENDBRANCH   4   5
ENDBRANCH   3   4
TORSDOF 11
