REMARK  5 active torsions:
REMARK  status: ('A' for Active; 'I' for Inactive)
REMARK    1  A    between atoms: O1_1  and  S1_3 
REMARK    2  A    between atoms: S1_3  and  C1_4 
REMARK    3  A    between atoms: C2_7  and  C3_8 
REMARK    4  A    between atoms: C5_10  and  O2_11 
REMARK    5  A    between atoms: C8_15  and  S2_16 
ROOT
HETATM    1  C1  UNL     1       3.012  -0.458  -0.483  1.00  0.00     0.188 A 
HETATM    2  N1  UNL     1       1.754  -0.814  -0.171  1.00  0.00    -0.318 N 
ATOM      3  H1  UNL     1       1.463  -1.724   0.186  1.00  0.00     0.169 HD
HETATM    4  C2  UNL     1       0.944   0.232  -0.409  1.00  0.00     0.133 A 
HETATM    5  N2  UNL     1       1.718   1.219  -0.866  1.00  0.00    -0.283 N 
ATOM      6  H2  UNL     1       1.389   2.146  -1.136  1.00  0.00     0.188 HD
HETATM    7  N3  UNL     1       2.981   0.813  -0.916  1.00  0.00    -0.276 N 
ATOM      8  H3  UNL     1       3.781   1.365  -1.226  1.00  0.00     0.189 HD
ENDROOT
BRANCH   4   9
HETATM    9  C3  UNL     1      -0.507   0.228  -0.190  1.00  0.00     0.030 A 
HETATM   10  C4  UNL     1      -1.285   1.334  -0.454  1.00  0.00     0.053 A 
HETATM   11  C5  UNL     1      -2.661   1.336  -0.247  1.00  0.00     0.066 A 
HETATM   12  C6  UNL     1      -3.281   0.201   0.237  1.00  0.00     0.038 A 
HETATM   13  C7  UNL     1      -2.516  -0.919   0.507  1.00  0.00     0.023 A 
HETATM   14  C8  UNL     1      -1.145  -0.893   0.292  1.00  0.00     0.030 A 
BRANCH  11  15
HETATM   15  O2  UNL     1      -3.369   2.504  -0.543  1.00  0.00    -0.361 OA
ATOM     16  H2  UNL     1      -4.308   2.505  -0.402  1.00  0.00     0.217 HD
ENDBRANCH  11  15
BRANCH  14  17
HETATM   17  S2  UNL     1      -0.133  -2.328   0.634  1.00  0.00    -0.018 SA
HETATM   18 CL1  UNL     1      -1.305  -3.915   1.355  1.00  0.00    -0.038 Cl
ENDBRANCH  14  17
ENDBRANCH   4   9
BRANCH   1  19
HETATM   19  S1  UNL     1       4.484  -1.490  -0.348  1.00  0.00     0.065 SA
BRANCH  19  20
HETATM   20  O1  UNL     1       5.118  -1.239   1.235  1.00  0.00    -0.323 OA
ATOM     21  H1  UNL     1       5.894  -1.783   1.306  1.00  0.00     0.228 HD
ENDBRANCH  19  20
ENDBRANCH   1  19
TORSDOF 5
