REMARK  3 active torsions:
REMARK  status: ('A' for Active; 'I' for Inactive)
REMARK    1  A    between atoms: C4_4  and  N1_5 
REMARK    2  A    between atoms: N1_5  and  C5_7 
REMARK    3  A    between atoms: C5_7  and  C6_8 
ROOT
HETATM    1  N1  UNL     1       0.359  -0.601  -0.042  1.00  0.00    -0.381 N 
ATOM      2  H1  UNL     1       0.835  -1.503  -0.060  1.00  0.00     0.160 HD
ENDROOT
BRANCH   1   3
HETATM    3  C4  UNL     1      -1.096  -0.560  -0.077  1.00  0.00     0.054 A 
HETATM    4  C3  UNL     1      -1.798   0.599  -0.056  1.00  0.00     0.045 A 
HETATM    5  C2  UNL     1      -3.160   0.509  -0.094  1.00  0.00    -0.018 A 
HETATM    6  C1  UNL     1      -4.160   1.642  -0.081  1.00  0.00     0.056 C 
HETATM    7  S2  UNL     1      -3.437  -1.169  -0.157  1.00  0.00    -0.085 SA
HETATM    8  C8  UNL     1      -1.832  -1.715  -0.135  1.00  0.00     0.079 A 
HETATM    9  S1  UNL     1      -1.291  -3.425  -0.178  1.00  0.00    -0.042 SA
ENDBRANCH   1   3
BRANCH   1  10
HETATM   10  C5  UNL     1       1.133   0.602   0.017  1.00  0.00     0.206 C 
BRANCH  10  11
HETATM   11  C6  UNL     1       2.567   0.332   0.044  1.00  0.00     0.161 A 
HETATM   12  N2  UNL     1       3.395   0.216  -1.002  1.00  0.00    -0.277 N 
HETATM   13  N3  UNL     1       4.637  -0.033  -0.593  1.00  0.00    -0.243 N 
ATOM     14  H2  UNL     1       3.113   0.306  -1.978  1.00  0.00     0.189 HD
HETATM   15  C7  UNL     1       4.561  -0.070   0.750  1.00  0.00     0.385 A 
ATOM     16  H3  UNL     1       5.466  -0.167  -1.172  1.00  0.00     0.192 HD
HETATM   17  O1  UNL     1       5.560  -0.286   1.484  1.00  0.00    -0.236 OA
HETATM   18  O2  UNL     1       3.311   0.151   1.114  1.00  0.00    -0.244 OA
ENDBRANCH  10  11
ENDBRANCH   1  10
TORSDOF 3
