REMARK  3 active torsions:
REMARK  status: ('A' for Active; 'I' for Inactive)
REMARK    1  A    between atoms: S1_2  and  N1_4 
REMARK    2  A    between atoms: S1_2  and  C5_11 
REMARK    3  A    between atoms: N1_4  and  C1_6 
ROOT
HETATM    1  O1  UNL     1      -0.098  -2.331   1.693  1.00  0.00    -0.200 OA
HETATM    2  S1  UNL     1      -0.378  -1.937   0.268  1.00  0.00     0.266 S 
HETATM    3  O2  UNL     1      -1.061  -3.082  -0.432  1.00  0.00    -0.200 OA
ENDROOT
BRANCH   2   4
HETATM    4  N1  UNL     1       1.075  -1.575  -0.517  1.00  0.00    -0.274 N 
ATOM      5  H1  UNL     1       1.335  -2.126  -1.335  1.00  0.00     0.179 HD
BRANCH   4   6
HETATM    6  C1  UNL     1       1.952  -0.539  -0.092  1.00  0.00     0.083 A 
HETATM    7  C2  UNL     1       3.159  -0.192  -0.679  1.00  0.00     0.038 A 
HETATM    8  C3  UNL     1       3.833   0.827  -0.120  1.00  0.00     0.010 A 
HETATM    9  C4  UNL     1       3.288   1.438   0.971  1.00  0.00     0.052 A 
HETATM   10  S2  UNL     1       1.845   0.569   1.185  1.00  0.00    -0.084 SA
ENDBRANCH   4   6
ENDBRANCH   2   4
BRANCH   2  11
HETATM   11  C5  UNL     1      -1.502  -0.593   0.258  1.00  0.00     0.117 C 
HETATM   12  C6  UNL     1      -1.983  -0.203  -0.901  1.00  0.00     0.023 C 
HETATM   13  C7  UNL     1      -2.927   0.904  -1.027  1.00  0.00     0.168 C 
HETATM   14  N2  UNL     1      -3.095   1.612   0.196  1.00  0.00    -0.332 N 
HETATM   15  N3  UNL     1      -2.566   1.139   1.375  1.00  0.00    -0.293 N 
ATOM     16  H2  UNL     1      -3.618   2.488   0.199  1.00  0.00     0.180 HD
HETATM   17  C8  UNL     1      -1.804   0.108   1.498  1.00  0.00     0.141 C 
ATOM     18  H3  UNL     1      -2.798   1.650   2.227  1.00  0.00     0.187 HD
HETATM   19 CL1  UNL     1      -1.250  -0.457   3.064  1.00  0.00    -0.061 Cl
ENDBRANCH   2  11
TORSDOF 3
