REMARK  2 active torsions:
REMARK  status: ('A' for Active; 'I' for Inactive)
REMARK    1  A    between atoms: S1_2  and  N1_4 
REMARK    2  A    between atoms: N1_4  and  C1_6 
ROOT
HETATM    1  C1  UNL     1       0.954   0.163   0.094  1.00  0.00     0.130 A 
HETATM    2  N2  UNL     1       1.059   1.494   0.252  1.00  0.00    -0.318 N 
ATOM      3  H2  UNL     1       1.974   1.927   0.378  1.00  0.00     0.170 HD
HETATM    4  C2  UNL     1      -0.064   2.257   0.243  1.00  0.00     0.177 A 
HETATM    5  S2  UNL     1       0.101   3.868   0.437  1.00  0.00    -0.040 SA
HETATM    6  N3  UNL     1      -1.289   1.742   0.082  1.00  0.00    -0.332 N 
ATOM      7  H3  UNL     1      -2.102   2.358   0.083  1.00  0.00     0.168 HD
HETATM    8  C3  UNL     1      -1.456   0.406  -0.082  1.00  0.00     0.048 A 
HETATM    9  C4  UNL     1      -2.701  -0.140  -0.248  1.00  0.00     0.032 A 
HETATM   10  C5  UNL     1      -2.861  -1.491  -0.412  1.00  0.00     0.026 A 
HETATM   11  C6  UNL     1      -1.713  -2.279  -0.404  1.00  0.00     0.035 A 
HETATM   12 CL1  UNL     1      -1.907  -4.010  -0.614  1.00  0.00    -0.084 Cl
HETATM   13  C7  UNL     1      -0.456  -1.739  -0.238  1.00  0.00     0.041 A 
HETATM   14  C8  UNL     1      -0.299  -0.377  -0.072  1.00  0.00     0.037 A 
ENDROOT
BRANCH   1  15
HETATM   15  N1  UNL     1       1.994  -0.627   0.093  1.00  0.00    -0.255 N 
ATOM     16  H1  UNL     1       1.858  -1.630  -0.031  1.00  0.00     0.181 HD
BRANCH  15  17
HETATM   17  S1  UNL     1       3.587  -0.015   0.296  1.00  0.00     0.360 S 
HETATM   18  O1  UNL     1       3.840   0.128   1.789  1.00  0.00    -0.187 OA
HETATM   19  O2  UNL     1       4.590  -0.973  -0.286  1.00  0.00    -0.187 OA
ENDBRANCH  15  17
ENDBRANCH   1  15
TORSDOF 2
