REMARK  5 active torsions:
REMARK  status: ('A' for Active; 'I' for Inactive)
REMARK    1  A    between atoms: C2_5  and  S1_6 
REMARK    2  A    between atoms: S1_6  and  C3_7 
REMARK    3  A    between atoms: C3_7  and  C4_8 
REMARK    4  A    between atoms: C4_8  and  O2_9 
REMARK    5  A    between atoms: C5_13  and  C6_14 
ROOT
HETATM    1  O1  UNL     1      -0.827  -1.322  -2.775  1.00  0.00    -0.247 OA
HETATM    2  C1  UNL     1      -0.626  -0.663  -1.720  1.00  0.00     0.327 A 
HETATM    3  N1  UNL     1       0.639  -0.445  -1.330  1.00  0.00    -0.289 N 
ATOM      4  H1  UNL     1       1.421  -0.806  -1.877  1.00  0.00     0.172 HD
HETATM    5  C2  UNL     1       0.856   0.254  -0.211  1.00  0.00     0.149 A 
HETATM    6  N2  UNL     1      -0.229   0.711   0.481  1.00  0.00    -0.322 N 
ATOM      7  H2  UNL     1      -0.078   1.245   1.337  1.00  0.00     0.169 HD
HETATM    8  C5  UNL     1      -1.476   0.484   0.078  1.00  0.00     0.128 A 
HETATM    9  N3  UNL     1      -1.685  -0.206  -1.028  1.00  0.00    -0.293 N 
ATOM     10  H3  UNL     1      -2.634  -0.390  -1.353  1.00  0.00     0.172 HD
ENDROOT
BRANCH   5  11
HETATM   11  S1  UNL     1       2.438   0.658   0.479  1.00  0.00    -0.092 SA
BRANCH  11  12
HETATM   12  C3  UNL     1       3.837   0.020  -0.415  1.00  0.00     0.108 C 
BRANCH  12  13
HETATM   13  C4  UNL     1       3.979  -1.461  -0.268  1.00  0.00     0.174 C 
BRANCH  13  14
HETATM   14  O2  UNL     1       2.889  -2.145  -0.738  1.00  0.00    -0.400 OA
ATOM     15  H2  UNL     1       2.979  -3.086  -0.645  1.00  0.00     0.209 HD
ENDBRANCH  13  14
ENDBRANCH  12  13
ENDBRANCH  11  12
ENDBRANCH   5  11
BRANCH   8  16
HETATM   16  C6  UNL     1      -2.567   1.057   0.938  1.00  0.00     0.042 A 
HETATM   17  C7  UNL     1      -3.822   0.991   0.809  1.00  0.00     0.006 A 
HETATM   18  C8  UNL     1      -4.226   1.737   1.953  1.00  0.00     0.108 A 
HETATM   19  S2  UNL     1      -2.572   1.993   2.393  1.00  0.00    -0.123 SA
ENDBRANCH   8  16
TORSDOF 5
