REMARK  16 active torsions:
REMARK  status: ('A' for Active; 'I' for Inactive)
REMARK    1  A    between atoms: N1_1  and  C1_4 
REMARK    2  A    between atoms: C5_8  and  C6_9 
REMARK    3  A    between atoms: C6_9  and  C7_10 
REMARK    4  A    between atoms: C7_10  and  C8_11 
REMARK       I    between atoms: C8_11  and  N2_13 
REMARK    5  A    between atoms: N2_13  and  C9_15 
REMARK    6  A    between atoms: C9_15  and  C10_16 
REMARK    7  A    between atoms: C10_16  and  C11_17 
REMARK    8  A    between atoms: C11_17  and  C12_18 
REMARK    9  A    between atoms: C12_18  and  C13_19 
REMARK   10  A    between atoms: C13_19  and  C14_20 
REMARK   11  A    between atoms: C14_20  and  C15_21 
REMARK   12  A    between atoms: C15_21  and  N3_22 
REMARK   13  A    between atoms: N3_22  and  C16_24 
REMARK   14  A    between atoms: C18_30  and  N6_31 
REMARK   15  A    between atoms: N6_31  and  C19_33 
REMARK   16  A    between atoms: C19_33  and  C20_34 
ROOT
HETATM    1  N3  UNL     1       2.557   0.360  -0.485  1.00  0.00    -0.226 N 
ATOM      2  H3  UNL     1       2.538   1.262  -0.008  1.00  0.00     0.177 HD
ENDROOT
BRANCH   1   3
HETATM    3  C15 UNL     1       1.506   0.141  -1.400  1.00  0.00     0.138 C 
BRANCH   3   4
HETATM    4  C14 UNL     1       0.130   0.350  -0.786  1.00  0.00     0.020 C 
BRANCH   4   5
HETATM    5  C13 UNL     1      -0.991   0.116  -1.762  1.00  0.00     0.002 C 
BRANCH   5   6
HETATM    6  C12 UNL     1      -1.014  -1.274  -2.317  1.00  0.00     0.000 C 
BRANCH   6   7
HETATM    7  C11 UNL     1      -2.155  -1.491  -3.285  1.00  0.00     0.002 C 
BRANCH   7   8
HETATM    8  C10 UNL     1      -3.499  -1.257  -2.628  1.00  0.00     0.020 C 
BRANCH   8   9
HETATM    9  C9  UNL     1      -3.740  -2.160  -1.468  1.00  0.00     0.122 C 
BRANCH   9  10
HETATM   10  N2  UNL     1      -5.041  -1.884  -0.899  1.00  0.00    -0.361 N 
HETATM   11  C8  UNL     1      -5.450  -0.653  -0.351  1.00  0.00     0.217 C 
HETATM   12  O1  UNL     1      -4.669   0.350  -0.311  1.00  0.00    -0.274 OA
ATOM     13  H2  UNL     1      -5.720  -2.646  -0.894  1.00  0.00     0.162 HD
BRANCH  11  14
HETATM   14  C7  UNL     1      -6.826  -0.527   0.193  1.00  0.00     0.108 C 
BRANCH  14  15
HETATM   15  C6  UNL     1      -7.095   0.866   0.712  1.00  0.00     0.066 C 
BRANCH  15  16
HETATM   16  C5  UNL     1      -8.435   1.035   1.255  1.00  0.00     0.011 A 
HETATM   17  C4  UNL     1      -9.352   0.013   1.288  1.00  0.00     0.025 A 
HETATM   18  C3  UNL     1     -10.624   0.165   1.800  1.00  0.00     0.006 A 
HETATM   19  C2  UNL     1     -10.983   1.385   2.293  1.00  0.00     0.048 A 
HETATM   20  C1  UNL     1     -10.066   2.409   2.260  1.00  0.00     0.098 A 
HETATM   21  N9  UNL     1      -8.817   2.222   1.746  1.00  0.00    -0.346 N 
ATOM     22  H9  UNL     1      -8.160   3.002   1.735  1.00  0.00     0.167 HD
BRANCH  20  23
HETATM   23  N1  UNL     1     -10.438   3.550   2.734  1.00  0.00    -0.385 N 
ATOM     24  H12 UNL     1     -11.372   3.690   3.119  1.00  0.00     0.157 HD
ATOM     25  H11 UNL     1      -9.758   4.310   2.710  1.00  0.00     0.157 HD
ENDBRANCH  20  23
ENDBRANCH  15  16
ENDBRANCH  14  15
ENDBRANCH  11  14
ENDBRANCH   9  10
ENDBRANCH   8   9
ENDBRANCH   7   8
ENDBRANCH   6   7
ENDBRANCH   5   6
ENDBRANCH   4   5
ENDBRANCH   3   4
ENDBRANCH   1   3
BRANCH   1  26
HETATM   26  C16 UNL     1       3.533  -0.407  -0.164  1.00  0.00     0.693 A 
HETATM   27  N4  UNL     1       3.713  -1.625  -0.691  1.00  0.00    -0.187 N 
HETATM   28  C17 UNL     1       4.764  -2.387  -0.314  1.00  0.00     0.215 A 
ATOM     29  H4  UNL     1       3.052  -1.980  -1.382  1.00  0.00     0.185 HD
HETATM   30  N5  UNL     1       5.639  -1.928   0.596  1.00  0.00    -0.187 N 
HETATM   31  C18 UNL     1       5.499  -0.703   1.156  1.00  0.00     0.693 A 
ATOM     32  H5  UNL     1       6.426  -2.515   0.871  1.00  0.00     0.185 HD
HETATM   33  N8  UNL     1       4.451   0.023   0.762  1.00  0.00    -0.022 N 
ATOM     34  H8  UNL     1       4.325   0.949   1.171  1.00  0.00     0.203 HD
BRANCH  31  35
HETATM   35  N6  UNL     1       6.331  -0.241   2.029  1.00  0.00    -0.221 N 
ATOM     36  H6  UNL     1       6.212   0.683   2.443  1.00  0.00     0.178 HD
BRANCH  35  37
HETATM   37  C19 UNL     1       7.442  -1.098   2.392  1.00  0.00     0.184 C 
BRANCH  37  38
HETATM   38  C20 UNL     1       8.713  -0.379   2.027  1.00  0.00     0.002 A 
HETATM   39  C21 UNL     1       8.870   0.913   1.609  1.00  0.00     0.029 A 
HETATM   40  C22 UNL     1      10.130   1.324   1.336  1.00  0.00    -0.015 A 
HETATM   41  C23 UNL     1      10.522   2.608   0.894  1.00  0.00     0.030 A 
HETATM   42  C26 UNL     1      11.133   0.413   1.502  1.00  0.00     0.031 A 
HETATM   43  C24 UNL     1      11.837   2.871   0.661  1.00  0.00     0.088 A 
HETATM   44  N7  UNL     1      12.845   1.967   0.825  1.00  0.00    -0.374 N 
HETATM   45  C25 UNL     1      12.474   0.746   1.245  1.00  0.00     0.107 A 
ATOM     46  H7  UNL     1      13.820   2.203   0.640  1.00  0.00     0.164 HD
HETATM   47  S1  UNL     1      10.304  -0.982   2.029  1.00  0.00    -0.091 SA
ENDBRANCH  37  38
ENDBRANCH  35  37
ENDBRANCH  31  35
ENDBRANCH   1  26
TORSDOF 16
