REMARK  8 active torsions:
REMARK  status: ('A' for Active; 'I' for Inactive)
REMARK    1  A    between atoms: O1_2  and  C2_3 
REMARK    2  A    between atoms: C4_5  and  C5_6 
REMARK    3  A    between atoms: C7_8  and  C8_9 
REMARK    4  A    between atoms: N2_14  and  C11_15 
REMARK    5  A    between atoms: C11_15  and  C12_16 
REMARK    6  A    between atoms: C12_16  and  C13_17 
REMARK    7  A    between atoms: C13_17  and  N3_18 
REMARK    8  A    between atoms: C24_34  and  O2_35 
ROOT
HETATM    1  C5  UNL     1      -2.108  -0.368  -0.665  1.00  0.00     0.103 C 
HETATM    2  C6  UNL     1      -0.732  -0.837  -0.658  1.00  0.00     0.024 A 
HETATM    3  C7  UNL     1      -0.343  -1.955   0.053  1.00  0.00     0.040 A 
HETATM    4  N1  UNL     1       0.989  -2.122  -0.157  1.00  0.00    -0.300 N 
ATOM      5  H1  UNL     1       1.537  -2.878   0.253  1.00  0.00     0.187 HD
HETATM    6  N2  UNL     1       1.484  -1.218  -0.933  1.00  0.00    -0.276 N 
HETATM    7  C17 UNL     1       0.463  -0.410  -1.264  1.00  0.00     0.128 A 
HETATM    8  N5  UNL     1       0.686   0.710  -2.159  1.00  0.00    -0.361 N 
ATOM      9  H5  UNL     1       1.569   1.215  -2.081  1.00  0.00     0.162 HD
HETATM   10  C18 UNL     1      -0.304   1.176  -3.197  1.00  0.00     0.149 C 
HETATM   11  C19 UNL     1       0.200   0.543  -4.505  1.00  0.00     0.045 C 
HETATM   12  C20 UNL     1      -1.578   0.766  -2.714  1.00  0.00    -0.121 C 
HETATM   13  C21 UNL     1      -2.653   0.205  -1.990  1.00  0.00     0.251 C 
HETATM   14  F1  UNL     1      -3.670   1.137  -1.685  1.00  0.00    -0.236 F 
ENDROOT
BRANCH   1  15
HETATM   15  C4  UNL     1      -2.444   0.618   0.417  1.00  0.00    -0.043 A 
HETATM   16  C3  UNL     1      -3.685   0.543   1.005  1.00  0.00     0.047 A 
HETATM   17  C2  UNL     1      -4.044   1.410   2.003  1.00  0.00     0.101 A 
HETATM   18  C24 UNL     1      -3.162   2.376   2.437  1.00  0.00     0.099 A 
HETATM   19  C23 UNL     1      -1.915   2.467   1.862  1.00  0.00     0.040 A 
HETATM   20  C22 UNL     1      -1.571   1.578   0.851  1.00  0.00     0.011 A 
BRANCH  17  21
HETATM   21  O1  UNL     1      -5.289   1.366   2.623  1.00  0.00    -0.353 OA
HETATM   22  C1  UNL     1      -6.306   0.462   2.323  1.00  0.00     0.210 C 
ENDBRANCH  17  21
BRANCH  18  23
HETATM   23  O2  UNL     1      -3.551   3.248   3.457  1.00  0.00    -0.358 OA
ATOM     24  H2  UNL     1      -2.943   3.914   3.756  1.00  0.00     0.217 HD
ENDBRANCH  18  23
ENDBRANCH   1  15
BRANCH   3  25
HETATM   25  C8  UNL     1      -1.122  -2.873   0.936  1.00  0.00     0.029 C 
HETATM   26  C9  UNL     1      -0.324  -4.162   1.178  1.00  0.00     0.016 C 
HETATM   27  C10 UNL     1      -1.239  -2.244   2.312  1.00  0.00     0.016 C 
ENDBRANCH   3  25
BRANCH   6  28
HETATM   28  C11 UNL     1       2.879  -1.082  -1.371  1.00  0.00     0.152 C 
BRANCH  28  29
HETATM   29  C12 UNL     1       3.588  -0.230  -0.363  1.00  0.00     0.042 C 
BRANCH  29  30
HETATM   30  C13 UNL     1       5.053  -0.035  -0.725  1.00  0.00     0.131 C 
BRANCH  30  31
HETATM   31  N3  UNL     1       5.726   0.788   0.256  1.00  0.00    -0.352 N 
HETATM   32  C14 UNL     1       5.853   2.144   0.243  1.00  0.00     0.108 A 
HETATM   33  C15 UNL     1       6.563   2.515   1.358  1.00  0.00     0.106 A 
HETATM   34  N4  UNL     1       6.845   1.371   2.015  1.00  0.00    -0.361 N 
HETATM   35  C16 UNL     1       6.342   0.320   1.355  1.00  0.00     0.182 A 
ATOM     36  H4  UNL     1       7.367   1.315   2.890  1.00  0.00     0.166 HD
ENDBRANCH  30  31
ENDBRANCH  29  30
ENDBRANCH  28  29
ENDBRANCH   6  28
TORSDOF 8
