REMARK  11 active torsions:
REMARK  status: ('A' for Active; 'I' for Inactive)
REMARK    1  A    between atoms: C2_2  and  C3_3 
REMARK    2  A    between atoms: C4_4  and  C5_5 
REMARK    3  A    between atoms: C7_7  and  O1_8 
REMARK    4  A    between atoms: C9_10  and  O2_11 
REMARK    5  A    between atoms: C11_13  and  O3_14 
REMARK    6  A    between atoms: N1_19  and  O4_20 
REMARK    7  A    between atoms: C15_22  and  N2_23 
REMARK    8  A    between atoms: N2_23  and  C16_25 
REMARK    9  A    between atoms: C16_25  and  O5_26 
REMARK   10  A    between atoms: C16_25  and  O6_28 
REMARK   11  A    between atoms: O6_28  and  C17_29 
ROOT
HETATM    1  C3  UNL     1      -0.608  -0.314  -1.064  1.00  0.00     0.022 A 
HETATM    2  C4  UNL     1      -1.350  -0.008   0.087  1.00  0.00     0.009 A 
HETATM    3  C14 UNL     1      -0.485   0.468   1.012  1.00  0.00     0.138 A 
HETATM    4  N1  UNL     1       0.764   0.484   0.517  1.00  0.00    -0.217 N 
HETATM    5  C15 UNL     1       0.719   0.013  -0.747  1.00  0.00     0.147 A 
ENDROOT
BRANCH   2   6
HETATM    6  C5  UNL     1      -2.780  -0.188   0.215  1.00  0.00     0.021 A 
HETATM    7  C6  UNL     1      -3.353  -1.365  -0.197  1.00  0.00     0.055 A 
HETATM    8  C7  UNL     1      -4.735  -1.575  -0.089  1.00  0.00     0.105 A 
HETATM    9  C9  UNL     1      -5.515  -0.559   0.448  1.00  0.00     0.138 A 
HETATM   10  C11 UNL     1      -4.954   0.628   0.866  1.00  0.00     0.144 A 
HETATM   11  C13 UNL     1      -3.571   0.804   0.743  1.00  0.00     0.163 A 
HETATM   12  F1  UNL     1      -2.972   1.952   1.141  1.00  0.00    -0.202 F 
BRANCH   8  13
HETATM   13  O1  UNL     1      -5.331  -2.757  -0.499  1.00  0.00    -0.353 OA
HETATM   14  C8  UNL     1      -4.495  -3.763  -1.039  1.00  0.00     0.210 C 
ENDBRANCH   8  13
BRANCH   9  15
HETATM   15  O2  UNL     1      -6.886  -0.745   0.565  1.00  0.00    -0.351 OA
HETATM   16  C10 UNL     1      -7.463  -1.308   1.742  1.00  0.00     0.210 C 
ENDBRANCH   9  15
BRANCH  10  17
HETATM   17  O3  UNL     1      -5.731   1.640   1.402  1.00  0.00    -0.350 OA
HETATM   18  C12 UNL     1      -6.269   2.615   0.521  1.00  0.00     0.210 C 
ENDBRANCH  10  17
ENDBRANCH   2   6
BRANCH   1  19
HETATM   19  C2  UNL     1      -1.191  -0.844  -2.290  1.00  0.00     0.006 C 
HETATM   20  C1  UNL     1      -0.660  -1.727  -3.094  1.00  0.00     0.012 C 
ENDBRANCH   1  19
BRANCH   5  21
HETATM   21  N2  UNL     1       1.765  -0.086  -1.676  1.00  0.00    -0.300 N 
ATOM     22  H2  UNL     1       1.467  -0.317  -2.624  1.00  0.00     0.171 HD
BRANCH  21  23
HETATM   23  C16 UNL     1       3.137   0.076  -1.528  1.00  0.00     0.264 C 
BRANCH  23  24
HETATM   24  O5  UNL     1       3.889  -0.010  -2.586  1.00  0.00    -0.327 OA
ATOM     25  H5  UNL     1       4.827   0.101  -2.485  1.00  0.00     0.221 HD
ENDBRANCH  23  24
BRANCH  23  26
HETATM   26  O6  UNL     1       3.822   0.316  -0.389  1.00  0.00    -0.311 OA
BRANCH  26  27
HETATM   27  C17 UNL     1       5.221   0.464  -0.344  1.00  0.00     0.132 C 
HETATM   28  C18 UNL     1       5.663   1.808   0.159  1.00  0.00     0.032 C 
HETATM   29  C19 UNL     1       6.514   1.789   1.371  1.00  0.00     0.002 C 
HETATM   30  C20 UNL     1       7.522   0.713   1.470  1.00  0.00     0.000 C 
HETATM   31  C21 UNL     1       7.364  -0.377   0.432  1.00  0.00     0.002 C 
HETATM   32  C22 UNL     1       5.870  -0.684   0.399  1.00  0.00     0.032 C 
ENDBRANCH  26  27
ENDBRANCH  23  26
ENDBRANCH  21  23
ENDBRANCH   5  21
BRANCH   4  33
HETATM   33  O4  UNL     1       1.878   0.933   1.235  1.00  0.00    -0.281 OA
ATOM     34  H4  UNL     1       2.761   0.944   0.885  1.00  0.00     0.245 HD
ENDBRANCH   4  33
TORSDOF 11
