REMARK  9 active torsions:
REMARK  status: ('A' for Active; 'I' for Inactive)
REMARK    1  A    between atoms: O1_2  and  C2_3 
REMARK    2  A    between atoms: C4_5  and  C5_6 
REMARK    3  A    between atoms: C6_7  and  C7_8 
REMARK    4  A    between atoms: C7_8  and  C8_10 
REMARK    5  A    between atoms: C10_13  and  O3_14 
REMARK    6  A    between atoms: C12_17  and  O4_18 
REMARK    7  A    between atoms: C16_24  and  O6_25 
REMARK    8  A    between atoms: C19_28  and  O7_29 
REMARK    9  A    between atoms: C21_31  and  O8_32 
ROOT
HETATM    1  C8  UNL     1      -2.576   0.837  -0.290  1.00  0.00     0.090 A 
HETATM    2  C9  UNL     1      -2.958   2.063   0.198  1.00  0.00     0.167 A 
HETATM    3  F1  UNL     1      -2.291   3.198  -0.114  1.00  0.00    -0.202 F 
HETATM    4  C10 UNL     1      -4.067   2.185   1.047  1.00  0.00     0.121 A 
HETATM    5  C11 UNL     1      -4.779   1.058   1.392  1.00  0.00     0.074 A 
HETATM    6  C12 UNL     1      -5.883   0.803   2.178  1.00  0.00     0.197 A 
HETATM    7  O5  UNL     1      -6.162  -0.474   2.178  1.00  0.00    -0.291 OA
HETATM    8  C13 UNL     1      -5.283  -1.122   1.412  1.00  0.00     0.066 A 
HETATM    9  C14 UNL     1      -5.249  -2.587   1.147  1.00  0.00     0.078 C 
HETATM   10  C15 UNL     1      -4.398  -0.197   0.901  1.00  0.00     0.046 A 
HETATM   11  C16 UNL     1      -3.299  -0.279   0.065  1.00  0.00     0.099 A 
ENDROOT
BRANCH   1  12
HETATM   12  C7  UNL     1      -1.422   0.694  -1.175  1.00  0.00     0.188 C 
HETATM   13  O2  UNL     1      -1.573   0.777  -2.412  1.00  0.00    -0.287 OA
BRANCH  12  14
HETATM   14  C6  UNL     1      -0.082   0.454  -0.654  1.00  0.00     0.056 C 
HETATM   15  C5  UNL     1       0.921   0.333  -1.498  1.00  0.00     0.015 C 
BRANCH  15  16
HETATM   16  C4  UNL     1       2.302   0.092  -1.084  1.00  0.00    -0.031 A 
HETATM   17  C3  UNL     1       3.287  -0.020  -2.062  1.00  0.00     0.051 A 
HETATM   18  C2  UNL     1       4.611  -0.247  -1.749  1.00  0.00     0.105 A 
HETATM   19  C21 UNL     1       4.944  -0.364  -0.406  1.00  0.00     0.135 A 
HETATM   20  C19 UNL     1       4.010  -0.261   0.592  1.00  0.00     0.105 A 
HETATM   21  C18 UNL     1       2.702  -0.034   0.226  1.00  0.00     0.051 A 
BRANCH  18  22
HETATM   22  O1  UNL     1       5.601  -0.360  -2.715  1.00  0.00    -0.353 OA
HETATM   23  C1  UNL     1       5.206  -0.232  -4.069  1.00  0.00     0.210 C 
ENDBRANCH  18  22
BRANCH  19  24
HETATM   24  O8  UNL     1       6.274  -0.592  -0.098  1.00  0.00    -0.351 OA
HETATM   25  C22 UNL     1       7.090   0.559   0.104  1.00  0.00     0.210 C 
ENDBRANCH  19  24
BRANCH  20  26
HETATM   26  O7  UNL     1       4.398  -0.386   1.913  1.00  0.00    -0.353 OA
HETATM   27  C20 UNL     1       3.396  -0.272   2.905  1.00  0.00     0.210 C 
ENDBRANCH  20  26
ENDBRANCH  15  16
ENDBRANCH  12  14
ENDBRANCH   1  12
BRANCH  11  28
HETATM   28  O6  UNL     1      -2.924  -1.524  -0.421  1.00  0.00    -0.354 OA
HETATM   29  C17 UNL     1      -3.507  -1.919  -1.673  1.00  0.00     0.210 C 
ENDBRANCH  11  28
BRANCH   4  30
HETATM   30  O3  UNL     1      -4.434   3.423   1.526  1.00  0.00    -0.357 OA
ATOM     31  H3  UNL     1      -5.185   3.506   2.101  1.00  0.00     0.218 HD
ENDBRANCH   4  30
BRANCH   6  32
HETATM   32  O4  UNL     1      -6.619   1.763   2.888  1.00  0.00    -0.340 OA
ATOM     33  H4  UNL     1      -7.380   1.587   3.429  1.00  0.00     0.220 HD
ENDBRANCH   6  32
TORSDOF 9
