REMARK  6 active torsions:
REMARK  status: ('A' for Active; 'I' for Inactive)
REMARK    1  A    between atoms: C2_2  and  C3_3 
REMARK    2  A    between atoms: C3_3  and  N1_4 
REMARK    3  A    between atoms: N1_4  and  C5_6 
REMARK    4  A    between atoms: C5_6  and  C6_7 
REMARK    5  A    between atoms: C8_9  and  C9_10 
REMARK    6  A    between atoms: C11_12  and  C12_13 
ROOT
HETATM    1  C6  UNL     1       1.203  -1.209   0.054  1.00  0.00     0.026 C 
HETATM    2  C7  UNL     1      -0.043  -0.535   0.603  1.00  0.00     0.045 C 
HETATM    3  C8  UNL     1      -0.933  -1.483   1.352  1.00  0.00     0.173 C 
HETATM    4  O1  UNL     1      -0.835  -2.742   0.782  1.00  0.00    -0.379 OA
HETATM    5  C15 UNL     1      -0.680  -2.611  -0.576  1.00  0.00     0.177 C 
HETATM    6  C16 UNL     1       0.821  -2.376  -0.803  1.00  0.00    -0.021 C 
HETATM    7  C17 UNL     1       1.510  -3.654  -0.385  1.00  0.00     0.017 C 
HETATM    8  C18 UNL     1       1.010  -2.169  -2.267  1.00  0.00     0.017 C 
ENDROOT
BRANCH   3   9
HETATM    9  C9  UNL     1      -2.382  -1.094   1.210  1.00  0.00     0.057 A 
HETATM   10  C10 UNL     1      -2.894   0.123   0.813  1.00  0.00     0.061 A 
HETATM   11  C11 UNL     1      -4.271   0.064   0.811  1.00  0.00     0.063 A 
HETATM   12  N4  UNL     1      -4.568  -1.186   1.206  1.00  0.00    -0.300 N 
HETATM   13  N5  UNL     1      -3.458  -1.883   1.446  1.00  0.00    -0.302 N 
ATOM     14  H4  UNL     1      -5.515  -1.551   1.308  1.00  0.00     0.187 HD
ATOM     15  H5  UNL     1      -3.424  -2.854   1.757  1.00  0.00     0.186 HD
BRANCH  11  16
HETATM   16  C12 UNL     1      -5.231   1.104   0.462  1.00  0.00     0.026 A 
HETATM   17  C13 UNL     1      -6.606   1.034   0.448  1.00  0.00     0.122 A 
HETATM   18  N2  UNL     1      -7.133   2.208   0.069  1.00  0.00    -0.311 N 
HETATM   19  N3  UNL     1      -6.102   3.029  -0.160  1.00  0.00    -0.311 N 
ATOM     20  H2  UNL     1      -8.124   2.431  -0.026  1.00  0.00     0.186 HD
HETATM   21  C14 UNL     1      -4.934   2.392   0.068  1.00  0.00     0.122 A 
ATOM     22  H3  UNL     1      -6.187   3.999  -0.464  1.00  0.00     0.186 HD
ENDBRANCH  11  16
ENDBRANCH   3   9
BRANCH   1  23
HETATM   23  C5  UNL     1       2.050  -0.198  -0.661  1.00  0.00     0.277 C 
BRANCH  23  24
HETATM   24  N1  UNL     1       2.481   0.886   0.189  1.00  0.00     0.084 N 
HETATM   25  C4  UNL     1       3.278   0.369   1.284  1.00  0.00     0.309 C 
BRANCH  24  26
HETATM   26  C3  UNL     1       3.273   1.812  -0.557  1.00  0.00     0.271 C 
BRANCH  26  27
HETATM   27  C2  UNL     1       3.602   3.088   0.154  1.00  0.00     0.026 C 
HETATM   28  C1  UNL     1       4.447   3.920  -0.822  1.00  0.00     0.007 C 
ENDBRANCH  26  27
ENDBRANCH  24  26
ENDBRANCH  23  24
ENDBRANCH   1  23
TORSDOF 6
