REMARK  7 active torsions:
REMARK  status: ('A' for Active; 'I' for Inactive)
REMARK    1  A    between atoms: C2_2  and  C3_3 
REMARK    2  A    between atoms: C3_3  and  C4_4 
REMARK    3  A    between atoms: C4_4  and  C5_5 
REMARK    4  A    between atoms: C5_5  and  C6_6 
REMARK    5  A    between atoms: C11_11  and  C12_12 
REMARK       I    between atoms: C12_12  and  N1_14 
REMARK    6  A    between atoms: N1_14  and  C13_16 
REMARK    7  A    between atoms: C14_21  and  C15_22 
ROOT
HETATM    1  C6  UNL     1      -1.631  -0.107  -0.004  1.00  0.00     0.187 C 
HETATM    2  C7  UNL     1      -2.314   1.200   0.173  1.00  0.00     0.033 C 
HETATM    3  C8  UNL     1      -1.321   2.312  -0.143  1.00  0.00     0.002 C 
HETATM    4  C9  UNL     1      -0.331   2.452   0.965  1.00  0.00     0.003 C 
HETATM    5  C10 UNL     1       0.454   1.237   1.288  1.00  0.00     0.043 C 
HETATM    6  C11 UNL     1       0.726   0.324   0.136  1.00  0.00     0.277 C 
HETATM    7  N4  UNL     1      -0.386   0.131  -0.734  1.00  0.00    -0.058 N 
ATOM      8  H41 UNL     1      -0.484   0.911  -1.384  1.00  0.00     0.278 HD
ATOM      9  H42 UNL     1      -0.204  -0.617  -1.403  1.00  0.00     0.278 HD
ENDROOT
BRANCH   6  10
HETATM   10  C12 UNL     1       1.862   0.874  -0.636  1.00  0.00     0.254 C 
HETATM   11  O1  UNL     1       1.718   1.078  -1.864  1.00  0.00    -0.271 OA
HETATM   12  N1  UNL     1       3.106   1.183  -0.062  1.00  0.00    -0.304 N 
ATOM     13  H1  UNL     1       3.215   1.973   0.574  1.00  0.00     0.171 HD
BRANCH  12  14
HETATM   14  C13 UNL     1       4.123   0.414  -0.377  1.00  0.00     0.167 A 
HETATM   15  N2  UNL     1       4.145  -0.649  -1.187  1.00  0.00    -0.279 N 
HETATM   16  N3  UNL     1       5.243  -1.262  -1.360  1.00  0.00    -0.296 N 
ATOM     17  H2  UNL     1       3.296  -0.962  -1.657  1.00  0.00     0.189 HD
HETATM   18  C14 UNL     1       6.341  -0.849  -0.745  1.00  0.00     0.069 A 
ATOM     19  H3  UNL     1       5.280  -2.075  -1.975  1.00  0.00     0.187 HD
HETATM   20  S1  UNL     1       5.754   0.497   0.130  1.00  0.00    -0.038 SA
BRANCH  18  21
HETATM   21  C15 UNL     1       7.729  -1.442  -0.824  1.00  0.00     0.062 C 
HETATM   22  C16 UNL     1       8.588  -0.559   0.087  1.00  0.00     0.012 C 
ENDBRANCH  18  21
ENDBRANCH  12  14
ENDBRANCH   6  10
BRANCH   1  23
HETATM   23  C5  UNL     1      -2.465  -1.095  -0.740  1.00  0.00     0.033 C 
BRANCH  23  24
HETATM   24  C4  UNL     1      -3.739  -1.539  -0.173  1.00  0.00     0.002 C 
BRANCH  24  25
HETATM   25  C3  UNL     1      -4.833  -0.550   0.073  1.00  0.00    -0.000 C 
BRANCH  25  26
HETATM   26  C2  UNL     1      -6.083  -1.267   0.623  1.00  0.00    -0.005 C 
HETATM   27  C1  UNL     1      -7.153  -0.237   0.855  1.00  0.00     0.005 C 
ENDBRANCH  25  26
ENDBRANCH  24  25
ENDBRANCH  23  24
ENDBRANCH   1  23
TORSDOF 7
