REMARK  7 active torsions:
REMARK  status: ('A' for Active; 'I' for Inactive)
REMARK    1  A    between atoms: C3_5  and  C4_6 
REMARK    2  A    between atoms: C8_11  and  C9_12 
REMARK       I    between atoms: C9_12  and  N2_14 
REMARK    3  A    between atoms: N2_14  and  C10_16 
REMARK    4  A    between atoms: C10_16  and  C11_17 
REMARK    5  A    between atoms: C11_17  and  C12_18 
REMARK    6  A    between atoms: C12_18  and  N3_19 
REMARK    7  A    between atoms: N3_19  and  C13_21 
ROOT
HETATM    1  C9  UNL     1      -1.600   0.197   0.067  1.00  0.00     0.277 C 
HETATM    2  O2  UNL     1      -1.262   1.081   0.948  1.00  0.00    -0.265 OA
HETATM    3  N2  UNL     1      -0.574  -0.421  -0.676  1.00  0.00    -0.355 N 
ATOM      4  H2  UNL     1      -0.793  -1.104  -1.401  1.00  0.00     0.162 HD
ENDROOT
BRANCH   1   5
HETATM    5  C8  UNL     1      -3.020  -0.089  -0.086  1.00  0.00     0.167 A 
HETATM    6  C2  UNL     1      -3.650  -1.176  -0.633  1.00  0.00     0.046 A 
HETATM    7  C1  UNL     1      -3.035  -2.403  -1.197  1.00  0.00     0.071 C 
HETATM    8  N1  UNL     1      -4.962  -0.926  -0.528  1.00  0.00    -0.341 N 
HETATM    9  C3  UNL     1      -5.164   0.278   0.066  1.00  0.00     0.132 A 
ATOM     10  H1  UNL     1      -5.702  -1.550  -0.848  1.00  0.00     0.167 HD
HETATM   11  O1  UNL     1      -3.979   0.742   0.313  1.00  0.00    -0.289 OA
BRANCH   9  12
HETATM   12  C4  UNL     1      -6.508   0.888   0.349  1.00  0.00     0.014 C 
HETATM   13  C5  UNL     1      -6.652   1.163   1.826  1.00  0.00     0.023 C 
HETATM   14  C6  UNL     1      -6.749   2.137  -0.435  1.00  0.00     0.023 C 
HETATM   15  C7  UNL     1      -7.568  -0.142  -0.053  1.00  0.00     0.023 C 
ENDBRANCH   9  12
ENDBRANCH   1   5
BRANCH   3  16
HETATM   16  C10 UNL     1       0.823  -0.057  -0.380  1.00  0.00     0.124 C 
BRANCH  16  17
HETATM   17  C11 UNL     1       1.770  -0.772  -1.298  1.00  0.00     0.039 C 
BRANCH  17  18
HETATM   18  C12 UNL     1       3.226  -0.422  -0.922  1.00  0.00     0.115 C 
BRANCH  18  19
HETATM   19  N3  UNL     1       3.528  -0.859   0.384  1.00  0.00    -0.417 N 
ATOM     20  H3  UNL     1       2.837  -1.384   0.920  1.00  0.00     0.153 HD
BRANCH  19  21
HETATM   21  C13 UNL     1       4.792  -0.568   0.949  1.00  0.00     0.076 C 
HETATM   22  C14 UNL     1       5.075   0.886   1.180  1.00  0.00     0.024 C 
HETATM   23  C15 UNL     1       5.756   1.628   0.096  1.00  0.00     0.002 C 
HETATM   24  C16 UNL     1       6.877   0.824  -0.499  1.00  0.00     0.000 C 
HETATM   25  C17 UNL     1       7.159  -0.421   0.351  1.00  0.00     0.002 C 
HETATM   26  C18 UNL     1       5.941  -1.329   0.330  1.00  0.00     0.024 C 
ENDBRANCH  19  21
ENDBRANCH  18  19
ENDBRANCH  17  18
ENDBRANCH  16  17
ENDBRANCH   3  16
TORSDOF 7
