REMARK  8 active torsions:
REMARK  status: ('A' for Active; 'I' for Inactive)
REMARK    1  A    between atoms: C2_2  and  C3_3 
REMARK    2  A    between atoms: C3_3  and  C4_4 
REMARK    3  A    between atoms: C4_4  and  C5_5 
REMARK    4  A    between atoms: C5_5  and  N1_6 
REMARK    5  A    between atoms: C6_7  and  O1_8 
REMARK    6  A    between atoms: C9_12  and  O2_13 
REMARK    7  A    between atoms: N2_21  and  C16_22 
REMARK    8  A    between atoms: C16_22  and  C18_24 
ROOT
HETATM    1  N1  UNL     1       2.104   1.510   0.028  1.00  0.00    -0.308 N 
HETATM    2  C6  UNL     1       1.636   1.254  -1.207  1.00  0.00     0.151 A 
HETATM    3  C7  UNL     1       0.695   0.241  -1.172  1.00  0.00     0.005 A 
HETATM    4  C8  UNL     1       0.599  -0.120   0.139  1.00  0.00     0.013 A 
HETATM    5  C9  UNL     1       1.470   0.667   0.862  1.00  0.00     0.152 A 
HETATM    6  C10 UNL     1      -0.287  -1.175   0.706  1.00  0.00     0.063 C 
HETATM    7  C11 UNL     1      -0.578  -2.258  -0.270  1.00  0.00    -0.019 C 
HETATM    8  C12 UNL     1      -1.002  -2.150  -1.525  1.00  0.00    -0.023 C 
HETATM    9  C13 UNL     1      -1.283  -0.841  -2.224  1.00  0.00     0.030 C 
HETATM   10  C14 UNL     1       0.053  -0.196  -2.432  1.00  0.00     0.054 C 
HETATM   11  C15 UNL     1      -2.112   0.056  -1.338  1.00  0.00     0.126 C 
HETATM   12  N2  UNL     1      -2.533  -0.545  -0.112  1.00  0.00    -0.407 N 
HETATM   13  C20 UNL     1      -1.624  -0.469   0.979  1.00  0.00     0.130 C 
ENDROOT
BRANCH   1  14
HETATM   14  C5  UNL     1       3.071   2.469   0.466  1.00  0.00     0.133 C 
BRANCH  14  15
HETATM   15  C4  UNL     1       4.487   2.025   0.462  1.00  0.00     0.024 C 
BRANCH  15  16
HETATM   16  C3  UNL     1       4.725   0.828   1.343  1.00  0.00     0.028 C 
BRANCH  16  17
HETATM   17  C2  UNL     1       6.156   0.405   1.326  1.00  0.00    -0.037 C 
HETATM   18  C1  UNL     1       6.503  -0.806   0.923  1.00  0.00     0.007 C 
ENDBRANCH  16  17
ENDBRANCH  15  16
ENDBRANCH  14  15
ENDBRANCH   1  14
BRANCH   2  19
HETATM   19  O1  UNL     1       2.072   1.943  -2.333  1.00  0.00    -0.345 OA
ATOM     20  H1  UNL     1       1.742   1.762  -3.205  1.00  0.00     0.219 HD
ENDBRANCH   2  19
BRANCH   5  21
HETATM   21  O2  UNL     1       1.595   0.527   2.250  1.00  0.00    -0.345 OA
ATOM     22  H2  UNL     1       1.147  -0.069   2.839  1.00  0.00     0.219 HD
ENDBRANCH   5  21
BRANCH  12  23
HETATM   23  C16 UNL     1      -3.896  -0.260   0.225  1.00  0.00     0.074 C 
HETATM   24  C17 UNL     1      -4.818  -0.849  -0.832  1.00  0.00     0.032 C 
BRANCH  23  25
HETATM   25  C18 UNL     1      -4.338  -0.748   1.572  1.00  0.00     0.020 C 
HETATM   26  C19 UNL     1      -5.794  -0.360   1.734  1.00  0.00     0.007 C 
ENDBRANCH  23  25
ENDBRANCH  12  23
TORSDOF 8
