REMARK  7 active torsions:
REMARK  status: ('A' for Active; 'I' for Inactive)
REMARK    1  A    between atoms: C5_6  and  C6_7 
REMARK    2  A    between atoms: C6_7  and  N1_8 
REMARK    3  A    between atoms: N1_8  and  C7_10 
REMARK    4  A    between atoms: C7_10  and  C8_11 
REMARK    5  A    between atoms: C8_11  and  C9_12 
REMARK    6  A    between atoms: C9_12  and  N2_13 
REMARK    7  A    between atoms: N3_18  and  C11_19 
ROOT
HETATM    1  C1  UNL     1       2.866  -3.747  -1.678  1.00  0.00     0.057 C 
HETATM    2  C2  UNL     1       1.546  -3.230  -1.185  1.00  0.00    -0.009 A 
HETATM    3  S1  UNL     1       0.064  -4.022  -1.324  1.00  0.00    -0.098 SA
HETATM    4  C3  UNL     1      -0.935  -2.857  -0.565  1.00  0.00    -0.006 A 
HETATM    5  C4  UNL     1      -0.067  -1.864  -0.219  1.00  0.00    -0.004 A 
HETATM    6  C5  UNL     1       1.249  -2.045  -0.537  1.00  0.00     0.001 A 
HETATM    7  C10 UNL     1      -0.682  -0.652   0.479  1.00  0.00     0.313 C 
HETATM    8  N3  UNL     1      -2.083  -0.626   0.174  1.00  0.00     0.097 N 
HETATM    9  C17 UNL     1      -2.683  -1.820   0.728  1.00  0.00     0.278 C 
HETATM   10  C18 UNL     1      -2.406  -2.893  -0.302  1.00  0.00     0.077 C 
ENDROOT
BRANCH   6  11
HETATM   11  C6  UNL     1       2.444  -1.166  -0.236  1.00  0.00     0.096 C 
BRANCH  11  12
HETATM   12  N1  UNL     1       2.207   0.052   0.404  1.00  0.00    -0.398 N 
ATOM     13  H1  UNL     1       1.295   0.456   0.619  1.00  0.00     0.158 HD
BRANCH  12  14
HETATM   14  C7  UNL     1       3.526   0.648   0.712  1.00  0.00     0.120 C 
BRANCH  14  15
HETATM   15  C8  UNL     1       4.250   1.082  -0.511  1.00  0.00     0.047 C 
BRANCH  15  16
HETATM   16  C9  UNL     1       5.580   1.676  -0.097  1.00  0.00     0.231 C 
BRANCH  16  17
HETATM   17  N2  UNL     1       5.436   2.822   0.783  1.00  0.00    -0.079 N 
ATOM     18  H23 UNL     1       4.834   3.531   0.364  1.00  0.00     0.274 HD
ATOM     19  H22 UNL     1       4.871   2.587   1.599  1.00  0.00     0.274 HD
ATOM     20  H21 UNL     1       6.332   3.222   1.062  1.00  0.00     0.274 HD
ENDBRANCH  16  17
ENDBRANCH  15  16
ENDBRANCH  14  15
ENDBRANCH  12  14
ENDBRANCH  11  12
ENDBRANCH   6  11
BRANCH   8  21
HETATM   21  C11 UNL     1      -2.801   0.508   0.615  1.00  0.00     0.223 C 
HETATM   22  C12 UNL     1      -2.346   1.809  -0.000  1.00  0.00     0.036 C 
HETATM   23  C13 UNL     1      -3.141   2.953   0.547  1.00  0.00     0.002 C 
HETATM   24  C14 UNL     1      -4.615   2.644   0.689  1.00  0.00     0.000 C 
HETATM   25  C15 UNL     1      -4.927   1.532  -0.263  1.00  0.00     0.002 C 
HETATM   26  C16 UNL     1      -4.277   0.271   0.268  1.00  0.00     0.036 C 
ENDBRANCH   8  21
TORSDOF 7
