REMARK  3 active torsions:
REMARK  status: ('A' for Active; 'I' for Inactive)
REMARK    1  A    between atoms: C2_2  and  O2_4 
REMARK    2  A    between atoms: O2_4  and  C3_5 
REMARK    3  A    between atoms: C3_5  and  O3_7 
ROOT
HETATM    1  C3  UNL     1      -1.099   0.265   0.136  1.00  0.00     0.258 C 
HETATM    2  C4  UNL     1      -1.539  -0.968  -0.565  1.00  0.00     0.097 C 
HETATM    3  C5  UNL     1      -1.974   0.458   1.314  1.00  0.00     0.128 C 
HETATM    4  N1  UNL     1      -2.649   0.622   2.240  1.00  0.00    -0.191 NA
ENDROOT
BRANCH   1   5
HETATM    5  O2  UNL     1       0.224   0.220   0.618  1.00  0.00    -0.270 OA
BRANCH   5   6
HETATM    6  C2  UNL     1       1.287   0.034  -0.243  1.00  0.00     0.258 C 
HETATM    7  C1  UNL     1       2.708  -0.018   0.245  1.00  0.00     0.126 C 
HETATM    8  O1  UNL     1       1.016  -0.091  -1.465  1.00  0.00    -0.266 OA
ENDBRANCH   5   6
ENDBRANCH   1   5
BRANCH   1   9
HETATM    9  O3  UNL     1      -1.317   1.368  -0.692  1.00  0.00    -0.354 OA
ATOM     10  H3  UNL     1      -2.209   1.398  -1.017  1.00  0.00     0.214 HD
ENDBRANCH   1   9
TORSDOF 3
