REMARK  3 active torsions:
REMARK  status: ('A' for Active; 'I' for Inactive)
REMARK    1  A    between atoms: O1_2  and  C2_3 
REMARK       I    between atoms: C2_3  and  N1_5 
REMARK    2  A    between atoms: N1_5  and  O3_6 
REMARK    3  A    between atoms: O3_6  and  C3_7 
ROOT
HETATM    1  C2  UNL     1      -0.820   0.558   0.301  1.00  0.00     0.465 C 
HETATM    2  O2  UNL     1      -1.587   1.502   0.064  1.00  0.00    -0.218 OA
HETATM    3  N1  UNL     1       0.503   0.587   0.563  1.00  0.00    -0.200 NA
ENDROOT
BRANCH   3   4
HETATM    4  O3  UNL     1       1.785   0.618   0.816  1.00  0.00    -0.091 OA
BRANCH   4   5
HETATM    5  C3  UNL     1       2.774   0.097  -0.023  1.00  0.00     0.368 C 
HETATM    6  O4  UNL     1       2.342  -0.421  -1.094  1.00  0.00    -0.622 OA
HETATM    7  O5  UNL     1       4.139   0.120   0.245  1.00  0.00    -0.622 OA
ENDBRANCH   4   5
ENDBRANCH   3   4
BRANCH   1   8
HETATM    8  O1  UNL     1      -1.521  -0.703   0.269  1.00  0.00    -0.296 OA
HETATM    9  C1  UNL     1      -2.870  -0.849   0.011  1.00  0.00     0.216 C 
ENDBRANCH   1   8
TORSDOF 3
