REMARK  3 active torsions:
REMARK  status: ('A' for Active; 'I' for Inactive)
REMARK    1  A    between atoms: C9_10  and  C10_11 
REMARK    2  A    between atoms: C10_11  and  O2_12 
REMARK    3  A    between atoms: C10_11  and  C11_14 
ROOT
HETATM    1  C1  UNL     1      -0.224  -0.837   2.502  1.00  0.00     0.013 C 
HETATM    2  C2  UNL     1      -0.506   0.108   1.347  1.00  0.00     0.017 C 
HETATM    3  C3  UNL     1      -1.907  -0.017   0.844  1.00  0.00    -0.008 C 
HETATM    4  C4  UNL     1      -2.080  -1.304   0.083  1.00  0.00     0.007 C 
HETATM    5  C5  UNL     1      -1.390  -1.322  -1.238  1.00  0.00     0.032 C 
HETATM    6  C6  UNL     1      -0.957   0.062  -1.598  1.00  0.00     0.122 C 
HETATM    7  C7  UNL     1      -2.181   0.969  -1.401  1.00  0.00     0.032 C 
HETATM    8  C8  UNL     1      -2.295   1.200   0.086  1.00  0.00     0.007 C 
HETATM    9  O1  UNL     1       0.123   0.533  -0.915  1.00  0.00    -0.377 OA
HETATM   10  C9  UNL     1       0.472  -0.143   0.217  1.00  0.00     0.159 C 
ENDROOT
BRANCH  10  11
HETATM   11  C10 UNL     1       1.814   0.426   0.699  1.00  0.00     0.183 C 
BRANCH  11  12
HETATM   12  O2  UNL     1       1.590   1.777   0.945  1.00  0.00    -0.388 OA
ATOM     13  H2  UNL     1       2.420   2.129   1.243  1.00  0.00     0.210 HD
ENDBRANCH  11  12
BRANCH  11  14
HETATM   14  C11 UNL     1       2.853   0.238  -0.331  1.00  0.00     0.015 A 
HETATM   15  C12 UNL     1       2.793  -0.633  -1.391  1.00  0.00     0.126 A 
HETATM   16  N1  UNL     1       3.948  -0.466  -2.058  1.00  0.00    -0.272 N 
HETATM   17  O3  UNL     1       4.666   0.437  -1.459  1.00  0.00    -0.250 OA
ATOM     18  H1  UNL     1       4.219  -0.969  -2.903  1.00  0.00     0.193 HD
HETATM   19  C13 UNL     1       4.055   0.906  -0.399  1.00  0.00     0.178 A 
ENDBRANCH  11  14
ENDBRANCH  10  11
TORSDOF 3
