REMARK  7 active torsions:
REMARK  status: ('A' for Active; 'I' for Inactive)
REMARK    1  A    between atoms: N1_1  and  C1_4 
REMARK    2  A    between atoms: N3_9  and  C4_10 
REMARK    3  A    between atoms: C4_10  and  C5_11 
REMARK    4  A    between atoms: C5_11  and  N4_12 
REMARK    5  A    between atoms: C7_16  and  C8_17 
REMARK    6  A    between atoms: C8_17  and  C9_18 
REMARK    7  A    between atoms: C9_18  and  N6_19 
ROOT
HETATM    1  N4  UNL     1       0.846   0.414   0.004  1.00  0.00    -0.350 N 
HETATM    2  C6  UNL     1       1.425   0.910   1.111  1.00  0.00     0.183 A 
HETATM    3  N5  UNL     1       2.657   0.422   1.225  1.00  0.00    -0.354 N 
ATOM      4  H5  UNL     1       3.317   0.634   1.973  1.00  0.00     0.166 HD
HETATM    5  C7  UNL     1       2.880  -0.394   0.190  1.00  0.00     0.027 A 
HETATM    6  C10 UNL     1       1.744  -0.400  -0.578  1.00  0.00     0.116 A 
ENDROOT
BRANCH   1   7
HETATM    7  C5  UNL     1      -0.503   0.736  -0.428  1.00  0.00     0.149 C 
BRANCH   7   8
HETATM    8  C4  UNL     1      -1.519  -0.208   0.142  1.00  0.00     0.146 C 
BRANCH   8   9
HETATM    9  N3  UNL     1      -2.844   0.144  -0.310  1.00  0.00    -0.351 N 
HETATM   10  C1  UNL     1      -3.905   0.661   0.482  1.00  0.00     0.171 C 
HETATM   11  N2  UNL     1      -5.148   0.438  -0.203  1.00  0.00    -0.361 N 
HETATM   12  C2  UNL     1      -4.818  -0.429  -1.315  1.00  0.00     0.142 C 
ATOM     13  H2  UNL     1      -6.066   0.810   0.041  1.00  0.00     0.162 HD
HETATM   14  C3  UNL     1      -3.398   0.056  -1.649  1.00  0.00     0.145 C 
BRANCH  10  15
HETATM   15  N1  UNL     1      -3.753   1.239   1.638  1.00  0.00    -0.371 N 
ATOM     16  H12 UNL     1      -4.514   1.610   2.206  1.00  0.00     0.159 HD
ATOM     17  H11 UNL     1      -2.870   1.397   2.124  1.00  0.00     0.159 HD
ENDBRANCH  10  15
ENDBRANCH   8   9
ENDBRANCH   7   8
ENDBRANCH   1   7
BRANCH   5  18
HETATM   18  C8  UNL     1       4.109  -1.180  -0.129  1.00  0.00     0.085 C 
BRANCH  18  19
HETATM   19  C9  UNL     1       5.193  -0.989   0.884  1.00  0.00     0.235 C 
BRANCH  19  20
HETATM   20  N6  UNL     1       5.653   0.357   1.036  1.00  0.00    -0.079 N 
ATOM     21  H63 UNL     1       5.945   0.732   0.134  1.00  0.00     0.274 HD
ATOM     22  H62 UNL     1       4.868   0.975   1.241  1.00  0.00     0.274 HD
ATOM     23  H61 UNL     1       6.392   0.487   1.727  1.00  0.00     0.274 HD
ENDBRANCH  19  20
ENDBRANCH  18  19
ENDBRANCH   5  18
TORSDOF 7
