REMARK  5 active torsions:
REMARK  status: ('A' for Active; 'I' for Inactive)
REMARK    1  A    between atoms: C3_9  and  C4_10 
REMARK    2  A    between atoms: C4_10  and  C5_11 
REMARK    3  A    between atoms: C5_11  and  C6_12 
REMARK    4  A    between atoms: C6_12  and  C7_13 
REMARK    5  A    between atoms: C7_13  and  N4_14 
ROOT
HETATM    1  N1  UNL     1      -4.057   2.172   0.282  1.00  0.00    -0.063 NA
HETATM    2  C1  UNL     1      -3.285   1.016  -0.065  1.00  0.00     0.193 C 
HETATM    3  N2  UNL     1      -3.821   0.021  -0.702  1.00  0.00    -0.283 N 
ATOM      4  H2  UNL     1      -4.805   0.045  -0.968  1.00  0.00     0.173 HD
HETATM    5  C2  UNL     1      -3.012  -1.104  -1.023  1.00  0.00     0.324 C 
HETATM    6  O1  UNL     1      -3.543  -2.067  -1.644  1.00  0.00    -0.247 OA
HETATM    7  N3  UNL     1      -1.648  -1.108  -0.639  1.00  0.00    -0.322 N 
ATOM      8  H3  UNL     1      -0.973  -1.703  -1.119  1.00  0.00     0.166 HD
HETATM    9  C3  UNL     1      -1.241  -0.262   0.434  1.00  0.00     0.188 C 
HETATM   10  N5  UNL     1      -1.929   1.007   0.310  1.00  0.00    -0.343 N 
ATOM     11  H5  UNL     1      -1.437   1.882   0.492  1.00  0.00     0.164 HD
ENDROOT
BRANCH   9  12
HETATM   12  C4  UNL     1       0.240   0.037   0.436  1.00  0.00     0.047 C 
BRANCH  12  13
HETATM   13  C5  UNL     1       1.093  -1.171   0.554  1.00  0.00     0.006 C 
BRANCH  13  14
HETATM   14  C6  UNL     1       2.537  -0.752   0.563  1.00  0.00     0.026 C 
BRANCH  14  15
HETATM   15  C7  UNL     1       2.958  -0.024  -0.684  1.00  0.00     0.201 C 
BRANCH  15  16
HETATM   16  N4  UNL     1       4.381   0.286  -0.509  1.00  0.00    -0.156 N 
HETATM   17  O2  UNL     1       5.157  -0.193  -1.355  1.00  0.00    -0.537 OA
HETATM   18  O3  UNL     1       4.850   1.046   0.505  1.00  0.00    -0.537 OA
ENDBRANCH  15  16
ENDBRANCH  14  15
ENDBRANCH  13  14
ENDBRANCH  12  13
ENDBRANCH   9  12
TORSDOF 5
