REMARK  8 active torsions:
REMARK  status: ('A' for Active; 'I' for Inactive)
REMARK    1  A    between atoms: C2_2  and  C3_3 
REMARK    2  A    between atoms: C3_3  and  C4_5 
REMARK    3  A    between atoms: C8_9  and  O2_10 
REMARK    4  A    between atoms: C11_14  and  C12_15 
REMARK    5  A    between atoms: C13_16  and  C14_17 
REMARK    6  A    between atoms: C14_17  and  C17_20 
REMARK    7  A    between atoms: C17_20  and  O3_21 
REMARK    8  A    between atoms: C18_24  and  C19_25 
ROOT
HETATM    1  C4  UNL     1       0.979  -0.760   1.110  1.00  0.00     0.039 C 
HETATM    2  C5  UNL     1       2.163  -1.637   0.747  1.00  0.00     0.050 C 
HETATM    3  C6  UNL     1       1.947  -2.139  -0.620  1.00  0.00     0.126 C 
HETATM    4  C7  UNL     1       0.506  -2.585  -0.934  1.00  0.00     0.071 C 
HETATM    5  C8  UNL     1      -0.198  -2.704   0.301  1.00  0.00     0.072 C 
HETATM    6  C9  UNL     1      -1.536  -2.988   0.717  1.00  0.00     0.040 C 
HETATM    7  C10 UNL     1      -1.083  -2.128   1.938  1.00  0.00     0.021 C 
HETATM    8  C11 UNL     1      -0.351  -1.327   0.884  1.00  0.00     0.023 C 
HETATM    9  O4  UNL     1       2.254  -1.083  -1.482  1.00  0.00    -0.380 OA
HETATM   10  C18 UNL     1       1.606   0.078  -1.225  1.00  0.00     0.130 C 
HETATM   11  C23 UNL     1       1.171   0.419   0.138  1.00  0.00     0.051 C 
ENDROOT
BRANCH   8  12
HETATM   12  C12 UNL     1      -1.297  -0.373   0.372  1.00  0.00    -0.016 C 
HETATM   13  C13 UNL     1      -2.058  -0.276  -0.669  1.00  0.00    -0.019 C 
BRANCH  13  14
HETATM   14  C14 UNL     1      -2.972   0.861  -0.959  1.00  0.00    -0.009 C 
HETATM   15  C15 UNL     1      -2.960   1.187  -2.445  1.00  0.00     0.021 C 
HETATM   16  C16 UNL     1      -2.612   2.126  -0.230  1.00  0.00     0.021 C 
BRANCH  14  17
HETATM   17  C17 UNL     1      -4.406   0.530  -0.599  1.00  0.00     0.176 C 
BRANCH  17  18
HETATM   18  O3  UNL     1      -4.555   0.227   0.754  1.00  0.00    -0.400 OA
ATOM     19  H3  UNL     1      -5.454   0.019   0.980  1.00  0.00     0.209 HD
ENDBRANCH  17  18
ENDBRANCH  14  17
ENDBRANCH  13  14
ENDBRANCH   8  12
BRANCH   1  20
HETATM   20  C3  UNL     1       1.128  -0.208   2.476  1.00  0.00     0.136 C 
HETATM   21  O1  UNL     1       2.147  -0.527   3.116  1.00  0.00    -0.297 OA
BRANCH  20  22
HETATM   22  C2  UNL     1       0.181   0.692   3.161  1.00  0.00     0.074 C 
HETATM   23  C1  UNL     1       0.684   1.075   4.553  1.00  0.00     0.013 C 
ENDBRANCH  20  22
ENDBRANCH   1  20
BRANCH   5  24
HETATM   24  O2  UNL     1       0.573  -3.581   1.128  1.00  0.00    -0.389 OA
ATOM     25  H2  UNL     1       0.104  -3.660   1.950  1.00  0.00     0.210 HD
ENDBRANCH   5  24
BRANCH  10  26
HETATM   26  C19 UNL     1       2.432   1.230  -1.815  1.00  0.00    -0.025 C 
HETATM   27  C20 UNL     1       1.762   2.560  -1.561  1.00  0.00     0.017 C 
HETATM   28  C21 UNL     1       2.461   1.043  -3.339  1.00  0.00     0.017 C 
HETATM   29  C22 UNL     1       3.835   1.285  -1.348  1.00  0.00     0.017 C 
ENDBRANCH  10  26
TORSDOF 8
