REMARK  8 active torsions:
REMARK  status: ('A' for Active; 'I' for Inactive)
REMARK    1  A    between atoms: C2_2  and  O2_4 
REMARK    2  A    between atoms: O2_4  and  C3_5 
REMARK    3  A    between atoms: C3_5  and  C4_6 
REMARK    4  A    between atoms: C4_6  and  O3_7 
REMARK    5  A    between atoms: C4_6  and  C5_9 
REMARK    6  A    between atoms: C12_16  and  O4_17 
REMARK    7  A    between atoms: C13_19  and  C14_20 
REMARK    8  A    between atoms: C14_20  and  C15_21 
ROOT
HETATM    1  C5  UNL     1       2.842   0.080   0.505  1.00  0.00    -0.021 A 
HETATM    2  C6  UNL     1       2.049  -0.890  -0.091  1.00  0.00     0.018 A 
HETATM    3  C7  UNL     1       0.642  -0.841  -0.097  1.00  0.00    -0.044 A 
HETATM    4  C8  UNL     1       0.042   0.205   0.502  1.00  0.00    -0.022 A 
HETATM    5  C9  UNL     1       0.829   1.201   1.115  1.00  0.00     0.017 A 
HETATM    6  C10 UNL     1       2.174   1.149   1.121  1.00  0.00    -0.052 A 
HETATM    7  C11 UNL     1       2.941   2.287   1.698  1.00  0.00     0.049 C 
HETATM    8  C12 UNL     1      -1.389   0.467   0.454  1.00  0.00     0.156 C 
HETATM    9  C13 UNL     1      -2.197  -0.516  -0.338  1.00  0.00     0.028 C 
HETATM   10  C20 UNL     1      -1.619  -1.853  -0.454  1.00  0.00    -0.034 C 
HETATM   11  C21 UNL     1      -1.973  -2.740   0.756  1.00  0.00     0.016 C 
HETATM   12  C22 UNL     1      -2.288  -2.576  -1.621  1.00  0.00     0.016 C 
HETATM   13  C23 UNL     1      -0.131  -1.915  -0.691  1.00  0.00     0.023 C 
HETATM   14  C24 UNL     1       0.397  -3.257  -0.189  1.00  0.00     0.016 C 
ENDROOT
BRANCH   1  15
HETATM   15  C4  UNL     1       4.285   0.097   0.632  1.00  0.00     0.176 C 
BRANCH  15  16
HETATM   16  C3  UNL     1       5.036   0.182  -0.696  1.00  0.00     0.215 C 
BRANCH  16  17
HETATM   17  O2  UNL     1       6.405   0.519  -0.468  1.00  0.00    -0.319 OA
BRANCH  17  18
HETATM   18  C2  UNL     1       7.225   0.815  -1.561  1.00  0.00     0.254 C 
HETATM   19  C1  UNL     1       8.651   1.211  -1.445  1.00  0.00     0.126 C 
HETATM   20  O1  UNL     1       6.756   0.762  -2.769  1.00  0.00    -0.266 OA
ENDBRANCH  17  18
ENDBRANCH  16  17
ENDBRANCH  15  16
BRANCH  15  21
HETATM   21  O3  UNL     1       4.769  -1.075   1.282  1.00  0.00    -0.389 OA
ATOM     22  H3  UNL     1       4.302  -1.128   2.108  1.00  0.00     0.210 HD
ENDBRANCH  15  21
ENDBRANCH   1  15
BRANCH   8  23
HETATM   23  O4  UNL     1      -1.481   1.754  -0.174  1.00  0.00    -0.390 OA
ATOM     24  H4  UNL     1      -2.415   1.925  -0.205  1.00  0.00     0.210 HD
ENDBRANCH   8  23
BRANCH   9  25
HETATM   25  C14 UNL     1      -3.573  -0.575   0.364  1.00  0.00     0.012 C 
BRANCH  25  26
HETATM   26  C15 UNL     1      -4.253   0.743   0.307  1.00  0.00    -0.014 C 
HETATM   27  C16 UNL     1      -4.598   1.240  -1.070  1.00  0.00     0.005 C 
HETATM   28  C17 UNL     1      -5.355   2.504  -0.724  1.00  0.00     0.000 C 
HETATM   29  C18 UNL     1      -6.048   2.198   0.600  1.00  0.00     0.000 C 
HETATM   30  C19 UNL     1      -5.584   0.809   1.018  1.00  0.00     0.005 C 
ENDBRANCH  25  26
ENDBRANCH   9  25
TORSDOF 8
