REMARK  6 active torsions:
REMARK  status: ('A' for Active; 'I' for Inactive)
REMARK    1  A    between atoms: N1_2  and  C2_5 
REMARK    2  A    between atoms: C2_5  and  C3_6 
REMARK    3  A    between atoms: C8_11  and  O1_12 
REMARK    4  A    between atoms: C17_24  and  C18_25 
REMARK    5  A    between atoms: C19_26  and  C21_28 
REMARK    6  A    between atoms: C21_28  and  C22_29 
ROOT
HETATM    1  C3  UNL     1      -1.805  -0.946   0.959  1.00  0.00     0.050 C 
HETATM    2  C4  UNL     1      -2.750  -0.036   1.694  1.00  0.00     0.010 C 
HETATM    3  C5  UNL     1      -2.566   1.418   1.446  1.00  0.00     0.006 C 
HETATM    4  C6  UNL     1      -1.858   1.794   0.199  1.00  0.00    -0.001 C 
HETATM    5  C7  UNL     1      -2.427   3.126  -0.257  1.00  0.00     0.037 C 
HETATM    6  C8  UNL     1      -1.904   3.599  -1.549  1.00  0.00     0.118 C 
HETATM    7  C9  UNL     1      -1.196   2.605  -2.387  1.00  0.00     0.032 C 
HETATM    8  C10 UNL     1      -1.677   1.178  -2.227  1.00  0.00     0.015 C 
HETATM    9  C11 UNL     1      -1.945   0.727  -0.866  1.00  0.00    -0.005 C 
HETATM   10  C12 UNL     1      -3.445   0.320  -0.890  1.00  0.00     0.019 C 
HETATM   11  C13 UNL     1      -1.193  -0.461  -0.317  1.00  0.00     0.106 C 
HETATM   12  O2  UNL     1      -1.442  -1.391  -1.390  1.00  0.00    -0.341 OA
HETATM   13  C14 UNL     1      -0.492  -2.374  -1.302  1.00  0.00     0.159 C 
HETATM   14  C15 UNL     1       0.238  -2.418  -2.644  1.00  0.00     0.078 C 
HETATM   15  C16 UNL     1      -1.044  -3.743  -1.101  1.00  0.00     0.078 C 
HETATM   16  O3  UNL     1       0.441  -1.962  -0.369  1.00  0.00    -0.344 OA
HETATM   17  C17 UNL     1       0.249  -0.537  -0.286  1.00  0.00     0.184 C 
ENDROOT
BRANCH   1  18
HETATM   18  C2  UNL     1      -1.002  -1.621   1.999  1.00  0.00     0.239 C 
BRANCH  18  19
HETATM   19  N1  UNL     1      -0.229  -0.794   2.890  1.00  0.00    -0.079 N 
HETATM   20  C1  UNL     1       0.514  -1.599   3.869  1.00  0.00     0.267 C 
ATOM     21  H12 UNL     1      -0.813  -0.095   3.349  1.00  0.00     0.276 HD
ATOM     22  H11 UNL     1       0.391  -0.169   2.374  1.00  0.00     0.276 HD
ENDBRANCH  18  19
ENDBRANCH   1  18
BRANCH  17  23
HETATM   23  C18 UNL     1       1.204   0.008  -1.181  1.00  0.00     0.010 C 
HETATM   24  C19 UNL     1       2.503  -0.003  -0.925  1.00  0.00    -0.085 C 
HETATM   25  C20 UNL     1       3.468   0.593  -1.915  1.00  0.00     0.043 C 
BRANCH  24  26
HETATM   26  C21 UNL     1       3.049  -0.616   0.282  1.00  0.00     0.037 C 
BRANCH  26  27
HETATM   27  C22 UNL     1       3.789   0.292   1.230  1.00  0.00    -0.019 C 
HETATM   28  C23 UNL     1       4.203  -0.627   2.412  1.00  0.00     0.010 C 
HETATM   29  C24 UNL     1       5.107   0.694   0.608  1.00  0.00     0.010 C 
ENDBRANCH  26  27
ENDBRANCH  24  26
ENDBRANCH  17  23
BRANCH   6  30
HETATM   30  O1  UNL     1      -2.953   4.164  -2.293  1.00  0.00    -0.396 OA
ATOM     31  H1  UNL     1      -2.615   4.469  -3.127  1.00  0.00     0.210 HD
ENDBRANCH   6  30
TORSDOF 6
