REMARK  7 active torsions:
REMARK  status: ('A' for Active; 'I' for Inactive)
REMARK    1  A    between atoms: C2_2  and  C4_4 
REMARK    2  A    between atoms: C6_6  and  C7_7 
REMARK    3  A    between atoms: C7_7  and  C8_8 
REMARK    4  A    between atoms: C8_8  and  C9_9 
REMARK    5  A    between atoms: C9_9  and  C10_10 
REMARK    6  A    between atoms: C10_10  and  O1_11 
REMARK    7  A    between atoms: C18_20  and  O2_21 
ROOT
HETATM    1  C9  UNL     1      -0.169  -0.806   1.732  1.00  0.00    -0.011 C 
HETATM    2  C11 UNL     1      -0.676   0.335   2.608  1.00  0.00     0.013 C 
HETATM    3  C12 UNL     1      -1.267   1.245   1.548  1.00  0.00     0.007 C 
HETATM    4  C13 UNL     1      -2.193   0.250   0.866  1.00  0.00     0.003 C 
HETATM    5  C14 UNL     1      -2.697   0.711  -0.445  1.00  0.00    -0.036 C 
HETATM    6  C15 UNL     1      -1.713   1.508  -1.253  1.00  0.00     0.016 C 
HETATM    7  C16 UNL     1      -3.843   1.708  -0.154  1.00  0.00     0.012 C 
HETATM    8  C17 UNL     1      -4.571   2.080  -1.416  1.00  0.00     0.032 C 
HETATM    9  C18 UNL     1      -5.136   0.815  -2.019  1.00  0.00     0.118 C 
HETATM   10  C19 UNL     1      -3.956  -0.009  -2.492  1.00  0.00     0.037 C 
HETATM   11  C20 UNL     1      -3.243  -0.447  -1.221  1.00  0.00    -0.004 C 
HETATM   12  C21 UNL     1      -2.215  -1.487  -1.444  1.00  0.00     0.006 C 
HETATM   13  C22 UNL     1      -1.108  -1.573  -0.469  1.00  0.00     0.011 C 
HETATM   14  C23 UNL     1      -1.408  -1.031   0.891  1.00  0.00    -0.030 C 
HETATM   15  C24 UNL     1      -2.249  -2.047   1.660  1.00  0.00     0.016 C 
ENDROOT
BRANCH   1  16
HETATM   16  C8  UNL     1       1.033  -0.409   0.978  1.00  0.00     0.018 C 
BRANCH  16  17
HETATM   17  C7  UNL     1       2.186  -0.026   1.843  1.00  0.00     0.060 C 
BRANCH  17  18
HETATM   18  C6  UNL     1       3.378   0.370   1.034  1.00  0.00     0.035 A 
HETATM   19  C5  UNL     1       4.419  -0.352   0.550  1.00  0.00     0.062 A 
HETATM   20  C4  UNL     1       5.240   0.512  -0.135  1.00  0.00     0.081 A 
HETATM   21  O3  UNL     1       4.687   1.695  -0.047  1.00  0.00    -0.242 OA
HETATM   22  N1  UNL     1       3.590   1.633   0.638  1.00  0.00    -0.265 N 
ATOM     23  H1  UNL     1       2.980   2.424   0.845  1.00  0.00     0.194 HD
BRANCH  20  24
HETATM   24  C2  UNL     1       6.519   0.196  -0.850  1.00  0.00     0.037 C 
HETATM   25  C1  UNL     1       6.344   0.656  -2.282  1.00  0.00     0.016 C 
HETATM   26  C3  UNL     1       7.650   1.048  -0.259  1.00  0.00     0.016 C 
ENDBRANCH  20  24
ENDBRANCH  17  18
ENDBRANCH  16  17
ENDBRANCH   1  16
BRANCH   1  27
HETATM   27  C10 UNL     1       0.194  -2.009   2.588  1.00  0.00     0.174 C 
BRANCH  27  28
HETATM   28  O1  UNL     1       0.627  -3.078   1.811  1.00  0.00    -0.400 OA
ATOM     29  H1  UNL     1       0.854  -3.830   2.346  1.00  0.00     0.209 HD
ENDBRANCH  27  28
ENDBRANCH   1  27
BRANCH   9  30
HETATM   30  O2  UNL     1      -6.051   1.058  -3.029  1.00  0.00    -0.396 OA
ATOM     31  H2  UNL     1      -6.406   0.263  -3.408  1.00  0.00     0.210 HD
ENDBRANCH   9  30
TORSDOF 7
