REMARK  3 active torsions:
REMARK  status: ('A' for Active; 'I' for Inactive)
REMARK    1  A    between atoms: N1_1  and  C1_5 
REMARK    2  A    between atoms: C1_5  and  C2_6 
REMARK    3  A    between atoms: C5_9  and  C6_10 
ROOT
HETATM    1  C2  UNL     1      -2.655  -0.874  -0.184  1.00  0.00     0.015 C 
HETATM    2  C3  UNL     1      -2.017   0.031  -1.171  1.00  0.00     0.033 C 
HETATM    3  C4  UNL     1      -0.633   0.416  -0.892  1.00  0.00    -0.021 C 
HETATM    4  C5  UNL     1       0.086  -0.020   0.113  1.00  0.00    -0.052 C 
HETATM    5  C11 UNL     1      -0.486  -0.973   1.070  1.00  0.00     0.037 C 
HETATM    6  C12 UNL     1      -1.683  -1.715   0.599  1.00  0.00     0.011 C 
ENDROOT
BRANCH   4   7
HETATM    7  C6  UNL     1       1.502   0.409   0.353  1.00  0.00     0.183 C 
HETATM    8  C7  UNL     1       1.958   1.390  -0.709  1.00  0.00     0.213 C 
HETATM    9  O1  UNL     1       3.298   1.700  -0.415  1.00  0.00    -0.343 OA
HETATM   10  C8  UNL     1       4.237   0.670  -0.163  1.00  0.00     0.128 A 
HETATM   11  C9  UNL     1       5.602   0.785  -0.259  1.00  0.00     0.109 A 
HETATM   12  C10 UNL     1       3.758  -0.523   0.201  1.00  0.00     0.184 A 
HETATM   13  S1  UNL     1       6.129  -0.780   0.165  1.00  0.00    -0.022 SA
HETATM   14  N2  UNL     1       4.640  -1.500   0.440  1.00  0.00    -0.305 N 
ATOM     15  H2  UNL     1       4.450  -2.461   0.724  1.00  0.00     0.176 HD
HETATM   16  O2  UNL     1       2.349  -0.694   0.315  1.00  0.00    -0.321 OA
ENDBRANCH   4   7
BRANCH   1  17
HETATM   17  C1  UNL     1      -3.560  -0.065   0.747  1.00  0.00     0.234 C 
BRANCH  17  18
HETATM   18  N1  UNL     1      -4.566   0.572  -0.092  1.00  0.00    -0.079 N 
ATOM     19  H13 UNL     1      -4.166   1.129  -0.847  1.00  0.00     0.274 HD
ATOM     20  H12 UNL     1      -5.078  -0.088  -0.677  1.00  0.00     0.274 HD
ATOM     21  H11 UNL     1      -5.169   1.111   0.529  1.00  0.00     0.274 HD
ENDBRANCH  17  18
ENDBRANCH   1  17
TORSDOF 3
