REMARK  4 active torsions:
REMARK  status: ('A' for Active; 'I' for Inactive)
REMARK    1  A    between atoms: C2_2  and  C4_5 
REMARK    2  A    between atoms: C4_5  and  N2_6 
REMARK    3  A    between atoms: C8_10  and  O1_11 
REMARK    4  A    between atoms: C11_15  and  C12_16 
ROOT
HETATM    1  C1  UNL     1       3.243  -1.076   0.912  1.00  0.00     0.027 C 
HETATM    2  C2  UNL     1       3.107  -0.707  -0.550  1.00  0.00     0.107 C 
HETATM    3  C3  UNL     1       4.476  -0.495  -1.052  1.00  0.00     0.065 C 
HETATM    4  N1  UNL     1       5.553  -0.325  -1.448  1.00  0.00    -0.197 NA
ENDROOT
BRANCH   2   5
HETATM    5  C4  UNL     1       2.350   0.560  -0.777  1.00  0.00     0.149 C 
BRANCH   5   6
HETATM    6  N2  UNL     1       1.002   0.543  -0.280  1.00  0.00    -0.335 N 
HETATM    7  C5  UNL     1      -0.092   0.145  -0.979  1.00  0.00     0.106 A 
HETATM    8  C6  UNL     1      -1.224   0.250  -0.216  1.00  0.00    -0.002 A 
HETATM    9  C7  UNL     1      -0.812   0.738   1.017  1.00  0.00     0.005 A 
HETATM   10  C11 UNL     1      -2.665   0.060  -0.177  1.00  0.00    -0.014 C 
HETATM   11  C8  UNL     1       0.555   0.903   0.935  1.00  0.00     0.149 A 
HETATM   12  C9  UNL     1      -1.992   0.888   1.926  1.00  0.00     0.048 C 
HETATM   13  C10 UNL     1      -3.168   0.772   1.016  1.00  0.00     0.046 C 
BRANCH  11  14
HETATM   14  O1  UNL     1       1.381   1.375   1.951  1.00  0.00    -0.346 OA
ATOM     15  H1  UNL     1       1.065   1.630   2.810  1.00  0.00     0.219 HD
ENDBRANCH  11  14
BRANCH  10  16
HETATM   16  C12 UNL     1      -3.406  -0.609  -1.022  1.00  0.00     0.131 C 
HETATM   17  C13 UNL     1      -2.832  -1.283  -2.172  1.00  0.00     0.111 C 
HETATM   18  N3  UNL     1      -2.390  -1.830  -3.097  1.00  0.00    -0.191 NA
HETATM   19  C14 UNL     1      -4.818  -0.680  -0.808  1.00  0.00     0.111 C 
HETATM   20  N4  UNL     1      -5.973  -0.735  -0.650  1.00  0.00    -0.191 NA
ENDBRANCH  10  16
ENDBRANCH   5   6
ENDBRANCH   2   5
TORSDOF 4
