REMARK  2 active torsions:
REMARK  status: ('A' for Active; 'I' for Inactive)
REMARK    1  A    between atoms: N1_2  and  C2_5 
REMARK    2  A    between atoms: C2_5  and  C3_6 
ROOT
HETATM    1  C3  UNL     1       2.099   0.124  -0.046  1.00  0.00     0.210 C 
HETATM    2  C4  UNL     1       1.597  -1.317  -0.231  1.00  0.00     0.208 C 
HETATM    3  O1  UNL     1       0.858  -1.618   0.886  1.00  0.00    -0.353 OA
HETATM    4  C5  UNL     1      -0.433  -2.019   0.633  1.00  0.00     0.160 C 
HETATM    5  C6  UNL     1      -0.328  -3.336  -0.150  1.00  0.00     0.078 C 
HETATM    6  C7  UNL     1      -1.054  -2.417   1.971  1.00  0.00     0.078 C 
HETATM    7  O2  UNL     1      -1.201  -1.190  -0.105  1.00  0.00    -0.317 OA
HETATM    8  C8  UNL     1      -1.087   0.152   0.072  1.00  0.00     0.200 C 
HETATM    9  C9  UNL     1      -2.205   0.602   1.012  1.00  0.00     0.071 C 
HETATM   10  C10 UNL     1      -3.482   0.693   0.209  1.00  0.00     0.006 C 
HETATM   11  C11 UNL     1      -3.393   1.968  -0.604  1.00  0.00     0.000 C 
HETATM   12  C12 UNL     1      -2.037   2.083  -1.235  1.00  0.00     0.006 C 
HETATM   13  C13 UNL     1      -1.270   0.802  -1.280  1.00  0.00     0.071 C 
HETATM   14  O3  UNL     1       0.092   0.596   0.632  1.00  0.00    -0.200 OA
HETATM   15  O4  UNL     1       1.000   0.947  -0.230  1.00  0.00    -0.229 OA
ENDROOT
BRANCH   1  16
HETATM   16  C2  UNL     1       3.183   0.448  -1.020  1.00  0.00     0.268 C 
BRANCH  16  17
HETATM   17  N1  UNL     1       4.377   0.826  -0.289  1.00  0.00    -0.076 N 
HETATM   18  C1  UNL     1       4.252   2.162   0.247  1.00  0.00     0.267 C 
ATOM     19  H12 UNL     1       5.216   0.726  -0.860  1.00  0.00     0.276 HD
ATOM     20  H11 UNL     1       4.604   0.148   0.438  1.00  0.00     0.276 HD
ENDBRANCH  16  17
ENDBRANCH   1  16
TORSDOF 2
