REMARK  4 active torsions:
REMARK  status: ('A' for Active; 'I' for Inactive)
REMARK    1  A    between atoms: C2_5  and  C3_6 
REMARK    2  A    between atoms: C11_15  and  N4_16 
REMARK    3  A    between atoms: N4_16  and  C12_18 
REMARK    4  A    between atoms: C12_18  and  O1_19 
ROOT
HETATM    1  C1  UNL     1       3.545   0.570   0.215  1.00  0.00     0.179 C 
HETATM    2  N1  UNL     1       2.144   0.453   0.520  1.00  0.00    -0.280 N 
HETATM    3  N2  UNL     1       1.342  -0.298  -0.262  1.00  0.00    -0.299 N 
ATOM      4  H2  UNL     1       1.650  -0.847  -1.065  1.00  0.00     0.187 HD
HETATM    5  C2  UNL     1       0.095  -0.215   0.170  1.00  0.00     0.054 A 
HETATM    6  C9  UNL     1       0.086   0.611   1.261  1.00  0.00     0.114 A 
HETATM    7  C10 UNL     1      -1.060   0.974   2.044  1.00  0.00     0.105 C 
HETATM    8  N3  UNL     1      -1.976   1.286   2.679  1.00  0.00    -0.191 NA
HETATM    9  C11 UNL     1       1.446   1.042   1.480  1.00  0.00     0.147 A 
ENDROOT
BRANCH   5  10
HETATM   10  C3  UNL     1      -1.143  -0.873  -0.380  1.00  0.00     0.039 C 
HETATM   11  C4  UNL     1      -0.762  -1.776  -1.521  1.00  0.00     0.011 C 
HETATM   12  C5  UNL     1      -2.029  -2.481  -1.960  1.00  0.00     0.001 C 
HETATM   13  C6  UNL     1      -2.981  -1.482  -2.514  1.00  0.00     0.000 C 
HETATM   14  C7  UNL     1      -2.657  -0.044  -2.196  1.00  0.00     0.001 C 
HETATM   15  C8  UNL     1      -2.183   0.141  -0.779  1.00  0.00     0.011 C 
ENDBRANCH   5  10
BRANCH   9  16
HETATM   16  N4  UNL     1       1.764   1.840   2.576  1.00  0.00    -0.312 N 
ATOM     17  H4  UNL     1       0.933   2.266   2.986  1.00  0.00     0.170 HD
BRANCH  16  18
HETATM   18  C12 UNL     1       2.884   2.197   3.237  1.00  0.00     0.225 C 
HETATM   19  C13 UNL     1       4.235   1.842   3.159  1.00  0.00     0.144 C 
HETATM   20  N5  UNL     1       5.381   1.555   3.132  1.00  0.00    -0.188 NA
BRANCH  18  21
HETATM   21  O1  UNL     1       2.695   3.098   4.205  1.00  0.00    -0.338 OA
ATOM     22  H1  UNL     1       3.484   3.349   4.671  1.00  0.00     0.220 HD
ENDBRANCH  18  21
ENDBRANCH  16  18
ENDBRANCH   9  16
TORSDOF 4
