REMARK  6 active torsions:
REMARK  status: ('A' for Active; 'I' for Inactive)
REMARK    1  A    between atoms: C1_2  and  C2_3 
REMARK       I    between atoms: C1_2  and  N1_16 
REMARK    2  A    between atoms: C2_3  and  C3_4 
REMARK    3  A    between atoms: C3_4  and  C4_5 
REMARK    4  A    between atoms: C4_5  and  C5_6 
REMARK    5  A    between atoms: C4_5  and  C6_9 
REMARK    6  A    between atoms: N1_16  and  C12_18 
ROOT
HETATM    1  C3  UNL     1      -0.819  -0.135  -0.142  1.00  0.00     0.027 C 
ENDROOT
BRANCH   1   2
HETATM    2  C2  UNL     1       0.446  -0.915   0.013  1.00  0.00     0.103 C 
BRANCH   2   3
HETATM    3  C1  UNL     1       1.626   0.007  -0.168  1.00  0.00     0.217 C 
HETATM    4  O1  UNL     1       1.425   1.220  -0.408  1.00  0.00    -0.274 OA
HETATM    5  N1  UNL     1       2.950  -0.465  -0.074  1.00  0.00    -0.356 N 
ATOM      6  H1  UNL     1       3.100  -1.455   0.122  1.00  0.00     0.162 HD
BRANCH   5   7
HETATM    7  C12 UNL     1       4.109   0.387  -0.242  1.00  0.00     0.084 C 
HETATM    8  C13 UNL     1       4.900   0.356   1.029  1.00  0.00     0.025 C 
HETATM    9  C14 UNL     1       6.087  -0.590   0.812  1.00  0.00     0.002 C 
HETATM   10  C15 UNL     1       7.016   0.134  -0.161  1.00  0.00     0.000 C 
HETATM   11  C16 UNL     1       6.300   0.371  -1.468  1.00  0.00     0.002 C 
HETATM   12  C17 UNL     1       4.877  -0.133  -1.435  1.00  0.00     0.025 C 
ENDBRANCH   5   7
ENDBRANCH   2   3
ENDBRANCH   1   2
BRANCH   1  13
HETATM   13  C4  UNL     1      -2.086  -0.890  -0.006  1.00  0.00     0.116 C 
BRANCH  13  14
HETATM   14  C5  UNL     1      -2.233  -1.492   1.315  1.00  0.00     0.179 C 
HETATM   15  O2  UNL     1      -1.462  -1.209   2.258  1.00  0.00    -0.648 OA
HETATM   16  O3  UNL     1      -3.237  -2.417   1.622  1.00  0.00    -0.648 OA
ENDBRANCH  13  14
BRANCH  13  17
HETATM   17  C6  UNL     1      -3.299  -0.063  -0.405  1.00  0.00     0.135 C 
HETATM   18  C7  UNL     1      -3.402   1.166   0.470  1.00  0.00     0.033 C 
HETATM   19  C8  UNL     1      -4.752   1.809   0.352  1.00  0.00     0.002 C 
HETATM   20  C9  UNL     1      -5.870   0.950   0.847  1.00  0.00     0.002 C 
HETATM   21  C10 UNL     1      -6.532   0.157  -0.260  1.00  0.00     0.026 C 
HETATM   22  C11 UNL     1      -5.454  -0.361  -1.171  1.00  0.00     0.168 C 
HETATM   23  O4  UNL     1      -4.420  -0.853  -0.377  1.00  0.00    -0.385 OA
ENDBRANCH  13  17
ENDBRANCH   1  13
TORSDOF 6
