REMARK  7 active torsions:
REMARK  status: ('A' for Active; 'I' for Inactive)
REMARK    1  A    between atoms: C4_4  and  C5_5 
REMARK    2  A    between atoms: C5_5  and  C6_6 
REMARK    3  A    between atoms: C6_6  and  N1_7 
REMARK    4  A    between atoms: C9_10  and  C10_11 
REMARK    5  A    between atoms: C9_10  and  N2_14 
REMARK    6  A    between atoms: C10_11  and  O1_12 
REMARK       I    between atoms: N2_14  and  C11_16 
REMARK    7  A    between atoms: C11_16  and  C12_18 
ROOT
HETATM    1  N1  UNL     1       1.916  -0.068  -0.100  1.00  0.00     0.088 N 
HETATM    2  C7  UNL     1       1.128   0.840   0.655  1.00  0.00     0.275 C 
HETATM    3  C8  UNL     1      -0.307   0.851   0.190  1.00  0.00     0.063 C 
HETATM    4  C9  UNL     1      -0.927  -0.481   0.553  1.00  0.00     0.057 C 
HETATM    5  C17 UNL     1       0.028  -1.617   0.165  1.00  0.00     0.063 C 
HETATM    6  C18 UNL     1       1.168  -1.147  -0.692  1.00  0.00     0.275 C 
ENDROOT
BRANCH   4   7
HETATM    7  C10 UNL     1      -1.137  -0.633   2.027  1.00  0.00     0.195 C 
BRANCH   7   8
HETATM    8  O1  UNL     1      -1.947   0.267   2.643  1.00  0.00    -0.398 OA
ATOM      9  H1  UNL     1      -2.080   0.171   3.579  1.00  0.00     0.209 HD
ENDBRANCH   7   8
ENDBRANCH   4   7
BRANCH   4  10
HETATM   10  N2  UNL     1      -2.154  -0.596  -0.167  1.00  0.00    -0.349 N 
HETATM   11  C11 UNL     1      -3.221   0.284  -0.170  1.00  0.00     0.222 C 
HETATM   12  O2  UNL     1      -3.248   1.347   0.480  1.00  0.00    -0.273 OA
ATOM     13  H2  UNL     1      -2.256  -1.427  -0.749  1.00  0.00     0.163 HD
BRANCH  11  14
HETATM   14  C12 UNL     1      -4.454  -0.005  -0.988  1.00  0.00     0.078 C 
HETATM   15  C13 UNL     1      -5.489   1.087  -0.851  1.00  0.00     0.014 C 
HETATM   16  C14 UNL     1      -6.198   0.646   0.428  1.00  0.00     0.001 C 
HETATM   17  C15 UNL     1      -6.470  -0.816   0.103  1.00  0.00     0.001 C 
HETATM   18  C16 UNL     1      -5.126  -1.265  -0.426  1.00  0.00     0.014 C 
ENDBRANCH  11  14
ENDBRANCH   4  10
BRANCH   1  19
HETATM   19  C6  UNL     1       2.788   0.517  -1.077  1.00  0.00     0.276 C 
BRANCH  19  20
HETATM   20  C5  UNL     1       3.896   1.292  -0.405  1.00  0.00     0.057 C 
BRANCH  20  21
HETATM   21  C4  UNL     1       4.673   0.379   0.451  1.00  0.00    -0.023 C 
HETATM   22  C2  UNL     1       5.963   0.197   0.252  1.00  0.00    -0.091 C 
HETATM   23  C1  UNL     1       6.726  -0.741   1.143  1.00  0.00     0.042 C 
HETATM   24  C3  UNL     1       6.633   0.929  -0.852  1.00  0.00     0.042 C 
ENDBRANCH  20  21
ENDBRANCH  19  20
ENDBRANCH   1  19
TORSDOF 7
