REMARK  8 active torsions:
REMARK  status: ('A' for Active; 'I' for Inactive)
REMARK    1  A    between atoms: O1_2  and  C2_3 
REMARK    2  A    between atoms: C9_10  and  C10_11 
REMARK    3  A    between atoms: C10_11  and  C11_12 
REMARK    4  A    between atoms: C11_12  and  C12_13 
REMARK    5  A    between atoms: C12_13  and  C13_14 
REMARK    6  A    between atoms: C13_14  and  C14_15 
REMARK    7  A    between atoms: C14_15  and  O2_16 
REMARK    8  A    between atoms: C17_20  and  O3_21 
ROOT
HETATM    1  C2  UNL     1      -2.560  -1.070  -0.150  1.00  0.00     0.065 C 
HETATM    2  C3  UNL     1      -3.671  -0.052  -0.511  1.00  0.00     0.043 C 
HETATM    3  C4  UNL     1      -2.954   1.155  -0.590  1.00  0.00    -0.007 C 
HETATM    4  C5  UNL     1      -3.233   2.554  -0.469  1.00  0.00     0.005 C 
HETATM    5  C6  UNL     1      -1.971   3.365  -0.352  1.00  0.00     0.001 C 
HETATM    6  C7  UNL     1      -0.614   2.761  -0.439  1.00  0.00     0.005 C 
HETATM    7  C8  UNL     1      -0.681   1.246  -0.447  1.00  0.00    -0.005 C 
HETATM    8  C9  UNL     1       0.519   0.411  -0.295  1.00  0.00    -0.004 C 
HETATM    9  C15 UNL     1      -0.001  -0.971  -0.287  1.00  0.00     0.022 C 
HETATM   10  C16 UNL     1      -1.369  -1.126  -1.016  1.00  0.00     0.046 C 
HETATM   11  C17 UNL     1      -0.195  -1.750   0.953  1.00  0.00     0.123 C 
HETATM   12  C18 UNL     1      -1.176  -1.061   1.866  1.00  0.00     0.040 C 
HETATM   13  C19 UNL     1      -2.097  -0.278   1.076  1.00  0.00     0.027 C 
HETATM   14  C20 UNL     1      -1.795   0.961   0.423  1.00  0.00     0.001 C 
ENDROOT
BRANCH   8  15
HETATM   15  C10 UNL     1       1.495   0.930   0.648  1.00  0.00     0.005 C 
BRANCH  15  16
HETATM   16  C11 UNL     1       2.791   0.328   0.932  1.00  0.00     0.000 C 
BRANCH  16  17
HETATM   17  C12 UNL     1       3.744   0.153  -0.231  1.00  0.00     0.002 C 
BRANCH  17  18
HETATM   18  C13 UNL     1       4.979  -0.488   0.386  1.00  0.00     0.026 C 
BRANCH  18  19
HETATM   19  C14 UNL     1       6.051  -0.738  -0.647  1.00  0.00     0.164 C 
BRANCH  19  20
HETATM   20  O2  UNL     1       7.129  -1.322   0.017  1.00  0.00    -0.401 OA
ATOM     21  H2  UNL     1       7.804  -1.479  -0.633  1.00  0.00     0.209 HD
ENDBRANCH  19  20
ENDBRANCH  18  19
ENDBRANCH  17  18
ENDBRANCH  16  17
ENDBRANCH  15  16
ENDBRANCH   8  15
BRANCH  11  22
HETATM   22  O3  UNL     1       0.861  -2.355   1.557  1.00  0.00    -0.395 OA
ATOM     23  H3  UNL     1       0.736  -2.856   2.354  1.00  0.00     0.210 HD
ENDBRANCH  11  22
BRANCH   1  24
HETATM   24  O1  UNL     1      -3.108  -2.255   0.271  1.00  0.00    -0.385 OA
HETATM   25  C1  UNL     1      -3.913  -2.907  -0.622  1.00  0.00     0.202 C 
ENDBRANCH   1  24
TORSDOF 8
