REMARK  7 active torsions:
REMARK  status: ('A' for Active; 'I' for Inactive)
REMARK       I    between atoms: C2_2  and  N1_4 
REMARK    1  A    between atoms: N1_4  and  C3_6 
REMARK    2  A    between atoms: C3_6  and  C5_8 
REMARK    3  A    between atoms: C5_8  and  C15_23 
REMARK    4  A    between atoms: N2_9  and  N3_11 
REMARK       I    between atoms: N3_11  and  C6_13 
REMARK    5  A    between atoms: C6_13  and  C7_15 
REMARK    6  A    between atoms: C7_15  and  C8_16 
REMARK    7  A    between atoms: C8_16  and  C9_17 
ROOT
HETATM    1  C5  UNL     1      -2.974  -0.171  -0.126  1.00  0.00     0.033 C 
HETATM    2  N2  UNL     1      -1.992   0.509   0.213  1.00  0.00    -0.303 N 
ATOM      3  H2  UNL     1      -2.162   1.508   0.093  1.00  0.00     0.186 HD
ENDROOT
BRANCH   2   4
HETATM    4  N3  UNL     1      -0.778   0.269   0.691  1.00  0.00    -0.270 N 
HETATM    5  C6  UNL     1       0.399   0.513  -0.093  1.00  0.00     0.235 C 
HETATM    6  O2  UNL     1       0.370   0.956  -1.250  1.00  0.00    -0.272 OA
ATOM      7  H3  UNL     1      -0.679  -0.097   1.638  1.00  0.00     0.190 HD
BRANCH   5   8
HETATM    8  C7  UNL     1       1.730   0.214   0.524  1.00  0.00     0.105 C 
BRANCH   8   9
HETATM    9  C8  UNL     1       2.831   0.534  -0.448  1.00  0.00     0.014 C 
BRANCH   9  10
HETATM   10  C9  UNL     1       4.158   0.264   0.142  1.00  0.00    -0.014 C 
HETATM   11  C10 UNL     1       4.351  -1.174   0.526  1.00  0.00     0.004 C 
HETATM   12  C11 UNL     1       5.585  -1.204   1.448  1.00  0.00     0.000 C 
HETATM   13  C12 UNL     1       6.774  -0.744   0.666  1.00  0.00     0.000 C 
HETATM   14  C13 UNL     1       6.563   0.620   0.042  1.00  0.00     0.000 C 
HETATM   15  C14 UNL     1       5.303   0.611  -0.797  1.00  0.00     0.004 C 
ENDBRANCH   9  10
ENDBRANCH   8   9
ENDBRANCH   5   8
ENDBRANCH   2   4
BRANCH   1  16
HETATM   16  C3  UNL     1      -4.156   0.651  -0.626  1.00  0.00     0.128 C 
HETATM   17  C4  UNL     1      -4.477   0.430  -2.061  1.00  0.00     0.038 C 
BRANCH  16  18
HETATM   18  N1  UNL     1      -3.918   2.059  -0.393  1.00  0.00    -0.352 N 
HETATM   19  C2  UNL     1      -4.677   2.825   0.520  1.00  0.00     0.214 C 
HETATM   20  C1  UNL     1      -4.377   4.266   0.707  1.00  0.00     0.117 C 
HETATM   21  O1  UNL     1      -5.620   2.297   1.190  1.00  0.00    -0.274 OA
ATOM     22  H1  UNL     1      -3.169   2.519  -0.911  1.00  0.00     0.163 HD
ENDBRANCH  16  18
ENDBRANCH   1  16
BRANCH   1  23
HETATM   23  C15 UNL     1      -3.090  -1.625  -0.105  1.00  0.00    -0.009 C 
HETATM   24  C16 UNL     1      -1.993  -2.322   0.637  1.00  0.00     0.021 C 
HETATM   25  C17 UNL     1      -3.116  -2.216  -1.528  1.00  0.00     0.021 C 
HETATM   26  C18 UNL     1      -4.398  -2.057   0.585  1.00  0.00     0.021 C 
ENDBRANCH   1  23
TORSDOF 7
