REMARK  9 active torsions:
REMARK  status: ('A' for Active; 'I' for Inactive)
REMARK    1  A    between atoms: C2_2  and  C3_3 
REMARK    2  A    between atoms: C3_3  and  N1_4 
REMARK    3  A    between atoms: C3_3  and  C19_24 
REMARK       I    between atoms: N1_4  and  C4_6 
REMARK       I    between atoms: C4_6  and  N2_8 
REMARK    4  A    between atoms: N2_8  and  C5_10 
REMARK    5  A    between atoms: C5_10  and  C6_11 
REMARK    6  A    between atoms: C5_10  and  C9_14 
REMARK       I    between atoms: C19_24  and  N3_26 
REMARK    7  A    between atoms: N3_26  and  C20_28 
REMARK    8  A    between atoms: C20_28  and  C21_29 
REMARK    9  A    between atoms: C20_28  and  C23_34 
REMARK       I    between atoms: C21_29  and  N4_31 
ROOT
HETATM    1  N1  UNL     1      -0.478   0.555   1.589  1.00  0.00    -0.330 N 
ATOM      2  H1  UNL     1      -1.395   0.296   1.952  1.00  0.00     0.165 HD
HETATM    3  C4  UNL     1      -0.368   0.905   0.218  1.00  0.00     0.317 C 
HETATM    4  O1  UNL     1       0.775   1.118  -0.246  1.00  0.00    -0.247 OA
HETATM    5  N2  UNL     1      -1.529   1.015  -0.593  1.00  0.00    -0.337 N 
ATOM      6  H2  UNL     1      -2.458   0.858  -0.202  1.00  0.00     0.164 HD
ENDROOT
BRANCH   1   7
HETATM    7  C3  UNL     1       0.627   0.548   2.480  1.00  0.00     0.178 C 
BRANCH   7   8
HETATM    8  C2  UNL     1       0.339   1.537   3.610  1.00  0.00     0.030 C 
HETATM    9  C1  UNL     1       0.171   2.912   2.989  1.00  0.00     0.007 C 
ENDBRANCH   7   8
BRANCH   7  10
HETATM   10  C19 UNL     1       1.080  -0.747   3.021  1.00  0.00     0.241 C 
HETATM   11  O2  UNL     1       0.309  -1.697   3.184  1.00  0.00    -0.271 OA
HETATM   12  N3  UNL     1       2.451  -0.889   3.362  1.00  0.00    -0.346 N 
ATOM     13  H3  UNL     1       3.030  -0.067   3.191  1.00  0.00     0.163 HD
BRANCH  12  14
HETATM   14  C20 UNL     1       3.146  -2.030   3.916  1.00  0.00     0.180 C 
BRANCH  14  15
HETATM   15  C21 UNL     1       3.996  -1.597   5.004  1.00  0.00     0.240 C 
HETATM   16  O3  UNL     1       3.617  -0.711   5.853  1.00  0.00    -0.271 OA
HETATM   17  N4  UNL     1       5.288  -2.108   5.210  1.00  0.00    -0.364 N 
HETATM   18  C22 UNL     1       6.164  -1.673   6.310  1.00  0.00     0.149 C 
ATOM     19  H4  UNL     1       5.637  -2.817   4.565  1.00  0.00     0.161 HD
ENDBRANCH  14  15
BRANCH  14  20
HETATM   20  C23 UNL     1       3.965  -2.711   2.824  1.00  0.00     0.009 C 
HETATM   21  C24 UNL     1       3.005  -3.191   1.730  1.00  0.00     0.012 C 
HETATM   22  C25 UNL     1       4.860  -1.708   2.100  1.00  0.00     0.012 C 
ENDBRANCH  14  20
ENDBRANCH  12  14
ENDBRANCH   7  10
ENDBRANCH   1   7
BRANCH   5  23
HETATM   23  C5  UNL     1      -1.351   1.368  -2.037  1.00  0.00     0.098 C 
BRANCH  23  24
HETATM   24  C6  UNL     1      -1.249   2.837  -2.067  1.00  0.00     0.001 C 
HETATM   25  C7  UNL     1      -2.450   3.596  -1.510  1.00  0.00     0.011 C 
HETATM   26  C8  UNL     1      -0.702   3.490  -3.285  1.00  0.00     0.011 C 
ENDBRANCH  23  24
BRANCH  23  27
HETATM   27  C9  UNL     1      -2.275   0.587  -2.828  1.00  0.00    -0.018 C 
HETATM   28  C10 UNL     1      -2.177   0.865  -4.328  1.00  0.00     0.016 C 
HETATM   29  C11 UNL     1      -2.972  -0.075  -5.161  1.00  0.00    -0.013 C 
HETATM   30  C12 UNL     1      -4.410   0.014  -4.689  1.00  0.00     0.009 C 
HETATM   31  C16 UNL     1      -2.488  -1.503  -5.013  1.00  0.00     0.009 C 
HETATM   32  C13 UNL     1      -4.467  -0.439  -3.270  1.00  0.00    -0.013 C 
HETATM   33  C14 UNL     1      -3.932  -1.845  -3.072  1.00  0.00     0.009 C 
HETATM   34  C18 UNL     1      -3.682   0.488  -2.333  1.00  0.00     0.016 C 
HETATM   35  C15 UNL     1      -2.497  -1.817  -3.541  1.00  0.00    -0.013 C 
HETATM   36  C17 UNL     1      -1.714  -0.854  -2.736  1.00  0.00     0.016 C 
ENDBRANCH  23  27
ENDBRANCH   5  23
TORSDOF 9
