REMARK  8 active torsions:
REMARK  status: ('A' for Active; 'I' for Inactive)
REMARK    1  A    between atoms: C2_2  and  C4_4 
REMARK    2  A    between atoms: C4_4  and  C5_5 
REMARK    3  A    between atoms: C5_5  and  N1_6 
REMARK    4  A    between atoms: C5_5  and  C18_22 
REMARK       I    between atoms: N1_6  and  C6_8 
REMARK       I    between atoms: C6_8  and  N2_10 
REMARK       I    between atoms: C18_22  and  N3_24 
REMARK    5  A    between atoms: N3_24  and  C19_26 
REMARK    6  A    between atoms: C19_26  and  C20_27 
REMARK       I    between atoms: C20_27  and  N4_29 
REMARK    7  A    between atoms: N4_29  and  C21_31 
REMARK    8  A    between atoms: C21_31  and  C23_33 
ROOT
HETATM    1  C5  UNL     1       1.067  -1.844   0.145  1.00  0.00     0.178 C 
ENDROOT
BRANCH   1   2
HETATM    2  C4  UNL     1       0.728  -3.042   0.968  1.00  0.00     0.038 C 
BRANCH   2   3
HETATM    3  C2  UNL     1       0.481  -2.857   2.396  1.00  0.00    -0.020 C 
HETATM    4  C1  UNL     1       1.564  -2.294   3.235  1.00  0.00     0.009 C 
HETATM    5  C3  UNL     1       0.150  -4.240   2.986  1.00  0.00     0.009 C 
ENDBRANCH   2   3
ENDBRANCH   1   2
BRANCH   1   6
HETATM    6  N1  UNL     1      -0.053  -0.890   0.239  1.00  0.00    -0.330 N 
HETATM    7  C6  UNL     1      -0.802  -0.666  -0.942  1.00  0.00     0.319 C 
HETATM    8  O1  UNL     1      -0.472  -1.297  -2.020  1.00  0.00    -0.247 OA
HETATM    9  N2  UNL     1      -1.907   0.216  -1.024  1.00  0.00    -0.334 N 
HETATM   10  C7  UNL     1      -2.590   0.310  -2.326  1.00  0.00     0.127 C 
HETATM   11  C17 UNL     1      -2.316   0.953   0.123  1.00  0.00     0.127 C 
HETATM   12  C8  UNL     1      -3.486  -0.870  -2.586  1.00  0.00     0.020 C 
HETATM   13  C9  UNL     1      -4.853  -0.750  -1.995  1.00  0.00     0.002 C 
HETATM   14  C10 UNL     1      -5.698   0.329  -2.560  1.00  0.00     0.000 C 
HETATM   15  C11 UNL     1      -6.798   0.725  -1.631  1.00  0.00     0.000 C 
HETATM   16  C12 UNL     1      -6.363   1.233  -0.300  1.00  0.00     0.000 C 
HETATM   17  C13 UNL     1      -5.417   2.406  -0.364  1.00  0.00     0.000 C 
HETATM   18  C14 UNL     1      -4.652   2.580   0.931  1.00  0.00     0.000 C 
HETATM   19  C15 UNL     1      -3.287   3.174   0.749  1.00  0.00     0.002 C 
HETATM   20  C16 UNL     1      -2.408   2.416  -0.214  1.00  0.00     0.020 C 
ATOM     21  H1  UNL     1      -0.278  -0.414   1.113  1.00  0.00     0.165 HD
ENDBRANCH   1   6
BRANCH   1  22
HETATM   22  C18 UNL     1       2.350  -1.223   0.417  1.00  0.00     0.240 C 
HETATM   23  O2  UNL     1       2.413   0.000   0.678  1.00  0.00    -0.271 OA
HETATM   24  N3  UNL     1       3.558  -1.961   0.397  1.00  0.00    -0.351 N 
ATOM     25  H3  UNL     1       3.504  -2.957   0.185  1.00  0.00     0.163 HD
BRANCH  24  26
HETATM   26  C19 UNL     1       4.852  -1.402   0.654  1.00  0.00     0.225 C 
BRANCH  26  27
HETATM   27  C20 UNL     1       5.257  -0.337  -0.292  1.00  0.00     0.236 C 
HETATM   28  O3  UNL     1       4.527   0.038  -1.249  1.00  0.00    -0.272 OA
HETATM   29  N4  UNL     1       6.531   0.266  -0.078  1.00  0.00    -0.347 N 
ATOM     30  H4  UNL     1       7.128  -0.029   0.695  1.00  0.00     0.163 HD
BRANCH  29  31
HETATM   31  C21 UNL     1       6.953   1.308  -0.988  1.00  0.00     0.169 C 
HETATM   32  C22 UNL     1       7.139   2.598  -0.198  1.00  0.00     0.042 C 
BRANCH  31  33
HETATM   33  C23 UNL     1       8.235   0.955  -1.641  1.00  0.00     0.253 C 
HETATM   34  N5  UNL     1       8.831   1.834  -2.578  1.00  0.00    -0.060 NA
HETATM   35  O4  UNL     1       8.799  -0.136  -1.360  1.00  0.00    -0.275 OA
ENDBRANCH  31  33
ENDBRANCH  29  31
ENDBRANCH  26  27
ENDBRANCH  24  26
ENDBRANCH   1  22
TORSDOF 8
