REMARK  10 active torsions:
REMARK  status: ('A' for Active; 'I' for Inactive)
REMARK    1  A    between atoms: C2_2  and  C3_3 
REMARK    2  A    between atoms: C4_4  and  O1_5 
REMARK    3  A    between atoms: C7_9  and  C8_10 
REMARK    4  A    between atoms: C8_10  and  N1_11 
REMARK    5  A    between atoms: N1_11  and  C9_12 
REMARK       I    between atoms: N1_11  and  C11_14 
REMARK       I    between atoms: C11_14  and  N2_16 
REMARK    6  A    between atoms: N2_16  and  C12_18 
REMARK    7  A    between atoms: N3_22  and  C16_23 
REMARK    8  A    between atoms: C16_23  and  C17_24 
REMARK    9  A    between atoms: C18_25  and  C19_26 
REMARK   10  A    between atoms: C19_26  and  C20_27 
ROOT
HETATM    1  C3  UNL     1       0.709  -0.957   1.527  1.00  0.00     0.252 C 
HETATM    2  C4  UNL     1       0.674  -2.422   1.232  1.00  0.00     0.157 C 
HETATM    3  C5  UNL     1      -0.552  -2.523   0.344  1.00  0.00     0.047 C 
HETATM    4  C6  UNL     1      -0.300  -3.731  -0.539  1.00  0.00     0.015 C 
HETATM    5  C7  UNL     1      -0.514  -1.250  -0.402  1.00  0.00     0.248 C 
HETATM    6  N3  UNL     1       0.006  -0.279   0.470  1.00  0.00     0.105 N 
ENDROOT
BRANCH   6   7
HETATM    7  C16 UNL     1       0.798   0.769  -0.133  1.00  0.00     0.300 C 
BRANCH   7   8
HETATM    8  C17 UNL     1       1.963   0.347  -0.894  1.00  0.00    -0.001 C 
HETATM    9  C18 UNL     1       3.222   0.718  -0.590  1.00  0.00    -0.027 C 
BRANCH   9  10
HETATM   10  C19 UNL     1       4.391   0.274  -1.384  1.00  0.00     0.052 C 
BRANCH  10  11
HETATM   11  C20 UNL     1       5.081   1.509  -1.938  1.00  0.00     0.088 C 
HETATM   12  C21 UNL     1       6.266   1.087  -2.742  1.00  0.00     0.045 C 
HETATM   13  C22 UNL     1       7.481   0.777  -1.910  1.00  0.00     0.124 C 
HETATM   14  N4  UNL     1       7.802   1.970  -1.150  1.00  0.00    -0.367 N 
HETATM   15  C23 UNL     1       6.751   2.579  -0.415  1.00  0.00     0.167 C 
ATOM     16  H4  UNL     1       8.746   2.356  -1.144  1.00  0.00     0.161 HD
HETATM   17  S1  UNL     1       7.118   3.509   0.885  1.00  0.00    -0.041 SA
HETATM   18  N5  UNL     1       5.414   2.365  -0.827  1.00  0.00    -0.362 N 
ATOM     19  H5  UNL     1       4.661   2.832  -0.321  1.00  0.00     0.162 HD
ENDBRANCH  10  11
ENDBRANCH   9  10
ENDBRANCH   7   8
ENDBRANCH   6   7
BRANCH   1  20
HETATM   20  C2  UNL     1       0.170  -0.692   2.893  1.00  0.00     0.034 C 
HETATM   21  C1  UNL     1       0.959  -1.371   3.978  1.00  0.00     0.007 C 
ENDBRANCH   1  20
BRANCH   5  22
HETATM   22  C8  UNL     1      -1.715  -0.923  -1.212  1.00  0.00     0.163 C 
BRANCH  22  23
HETATM   23  N1  UNL     1      -2.973  -0.801  -0.586  1.00  0.00    -0.333 N 
HETATM   24  C11 UNL     1      -3.416   0.445  -0.088  1.00  0.00     0.318 C 
HETATM   25  O2  UNL     1      -2.705   1.500  -0.174  1.00  0.00    -0.247 OA
HETATM   26  N2  UNL     1      -4.675   0.670   0.552  1.00  0.00    -0.335 N 
ATOM     27  H2  UNL     1      -5.309  -0.121   0.661  1.00  0.00     0.165 HD
BRANCH  23  28
HETATM   28  C9  UNL     1      -3.854  -1.940  -0.438  1.00  0.00     0.123 C 
HETATM   29  C10 UNL     1      -4.801  -2.078  -1.612  1.00  0.00     0.026 C 
ENDBRANCH  23  28
BRANCH  26  30
HETATM   30  C12 UNL     1      -5.096   1.957   1.052  1.00  0.00     0.023 C 
HETATM   31  C13 UNL     1      -5.160   3.014  -0.019  1.00  0.00     0.037 C 
HETATM   32  C14 UNL     1      -6.482   1.825   1.629  1.00  0.00     0.037 C 
HETATM   33  C15 UNL     1      -4.189   2.475   2.147  1.00  0.00     0.037 C 
ENDBRANCH  26  30
ENDBRANCH  22  23
ENDBRANCH   5  22
BRANCH   2  34
HETATM   34  O1  UNL     1       0.462  -3.240   2.321  1.00  0.00    -0.393 OA
ATOM     35  H1  UNL     1       0.440  -4.171   2.134  1.00  0.00     0.210 HD
ENDBRANCH   2  34
TORSDOF 10
