REMARK  11 active torsions:
REMARK  status: ('A' for Active; 'I' for Inactive)
REMARK    1  A    between atoms: C2_2  and  C3_3 
REMARK    2  A    between atoms: C3_3  and  C4_4 
REMARK    3  A    between atoms: C4_4  and  N1_5 
REMARK       I    between atoms: N1_5  and  C5_6 
REMARK       I    between atoms: C5_6  and  N2_8 
REMARK    4  A    between atoms: N2_8  and  C6_10 
REMARK    5  A    between atoms: C9_13  and  N3_14 
REMARK    6  A    between atoms: N3_14  and  C10_16 
REMARK    7  A    between atoms: C10_16  and  N4_18 
REMARK    8  A    between atoms: N4_18  and  N5_20 
REMARK       I    between atoms: N5_20  and  C11_22 
REMARK    9  A    between atoms: C11_22  and  C12_24 
REMARK   10  A    between atoms: C12_24  and  O3_25 
REMARK   11  A    between atoms: O3_25  and  C13_26 
ROOT
HETATM    1  N3  UNL     1      -1.322   0.243   1.753  1.00  0.00    -0.332 N 
ATOM      2  H3  UNL     1      -2.133  -0.193   1.314  1.00  0.00     0.168 HD
ENDROOT
BRANCH   1   3
HETATM    3  C9  UNL     1      -0.103   0.142   1.076  1.00  0.00     0.034 A 
HETATM    4  C8  UNL     1       0.535   1.274   0.543  1.00  0.00     0.032 A 
HETATM    5  C7  UNL     1       1.717   1.157  -0.120  1.00  0.00     0.032 A 
HETATM    6  C6  UNL     1       2.374  -0.072  -0.316  1.00  0.00     0.037 A 
HETATM    7  C20 UNL     1       1.740  -1.174   0.212  1.00  0.00     0.032 A 
HETATM    8  C19 UNL     1       0.537  -1.058   0.886  1.00  0.00     0.032 A 
BRANCH   6   9
HETATM    9  N2  UNL     1       3.564  -0.103  -1.064  1.00  0.00    -0.297 N 
HETATM   10  C5  UNL     1       4.722  -0.956  -0.733  1.00  0.00     0.397 C 
HETATM   11  N1  UNL     1       5.783  -0.921  -1.548  1.00  0.00    -0.369 NA
HETATM   12  O1  UNL     1       4.536  -1.634   0.334  1.00  0.00    -0.230 OA
ATOM     13  H2  UNL     1       3.631   0.500  -1.884  1.00  0.00     0.172 HD
BRANCH  11  14
HETATM   14  C4  UNL     1       6.869  -0.886  -2.382  1.00  0.00     0.161 C 
BRANCH  14  15
HETATM   15  C3  UNL     1       8.147  -0.414  -1.735  1.00  0.00     0.059 C 
BRANCH  15  16
HETATM   16  C2  UNL     1       8.056   0.958  -1.158  1.00  0.00     0.002 C 
HETATM   17  C1  UNL     1       7.745   2.035  -2.139  1.00  0.00     0.005 C 
ENDBRANCH  15  16
ENDBRANCH  14  15
ENDBRANCH  11  14
ENDBRANCH   6   9
ENDBRANCH   1   3
BRANCH   1  18
HETATM   18  C10 UNL     1      -1.533   0.888   2.980  1.00  0.00     0.191 C 
HETATM   19  S1  UNL     1      -0.323   1.580   3.783  1.00  0.00    -0.039 SA
BRANCH  18  20
HETATM   20  N4  UNL     1      -2.850   0.924   3.511  1.00  0.00    -0.273 N 
ATOM     21  H4  UNL     1      -3.013   1.370   4.414  1.00  0.00     0.189 HD
BRANCH  20  22
HETATM   22  N5  UNL     1      -3.922   0.363   2.823  1.00  0.00    -0.266 N 
HETATM   23  C11 UNL     1      -4.375  -0.955   2.837  1.00  0.00     0.260 C 
HETATM   24  O2  UNL     1      -3.917  -1.916   3.495  1.00  0.00    -0.269 OA
ATOM     25  H5  UNL     1      -4.447   1.003   2.228  1.00  0.00     0.190 HD
BRANCH  23  26
HETATM   26  C12 UNL     1      -5.560  -1.275   1.944  1.00  0.00     0.280 C 
BRANCH  26  27
HETATM   27  O3  UNL     1      -5.961  -0.124   1.256  1.00  0.00    -0.342 OA
BRANCH  27  28
HETATM   28  C13 UNL     1      -6.971  -0.116   0.345  1.00  0.00     0.069 A 
HETATM   29  C14 UNL     1      -7.720  -1.209  -0.030  1.00  0.00     0.038 A 
HETATM   30  C15 UNL     1      -8.732  -1.130  -0.967  1.00  0.00     0.022 A 
HETATM   31  C16 UNL     1      -9.032   0.061  -1.567  1.00  0.00     0.011 A 
HETATM   32 BR1  UNL     1     -10.425   0.165  -2.862  1.00  0.00    -0.051 Br
HETATM   33  C17 UNL     1      -8.291   1.188  -1.208  1.00  0.00     0.022 A 
HETATM   34  C18 UNL     1      -7.289   1.091  -0.276  1.00  0.00     0.038 A 
ENDBRANCH  27  28
ENDBRANCH  26  27
ENDBRANCH  23  26
ENDBRANCH  20  22
ENDBRANCH  18  20
ENDBRANCH   1  18
TORSDOF 11
