REMARK  9 active torsions:
REMARK  status: ('A' for Active; 'I' for Inactive)
REMARK    1  A    between atoms: C2_2  and  C5_5 
REMARK       I    between atoms: C5_5  and  N1_7 
REMARK    2  A    between atoms: N1_7  and  C6_9 
REMARK    3  A    between atoms: C6_9  and  C7_10 
REMARK    4  A    between atoms: C7_10  and  N2_11 
REMARK       I    between atoms: N2_11  and  C8_13 
REMARK    5  A    between atoms: C8_13  and  C9_15 
REMARK    6  A    between atoms: C10_16  and  C11_17 
REMARK    7  A    between atoms: C14_20  and  N3_21 
REMARK       I    between atoms: N3_21  and  C15_23 
REMARK    8  A    between atoms: C15_23  and  C16_25 
REMARK    9  A    between atoms: C21_31  and  O4_32 
ROOT
HETATM    1  C11 UNL     1       1.097   1.011  -0.232  1.00  0.00    -0.036 A 
HETATM    2  C12 UNL     1       1.969   1.593   0.615  1.00  0.00     0.013 A 
HETATM    3  C13 UNL     1       3.262   1.050   0.782  1.00  0.00     0.030 A 
HETATM    4  C14 UNL     1       3.687  -0.061   0.114  1.00  0.00     0.035 A 
HETATM    5  C22 UNL     1       2.772  -0.659  -0.766  1.00  0.00     0.030 A 
HETATM    6  C23 UNL     1       1.509  -0.132  -0.931  1.00  0.00     0.013 A 
ENDROOT
BRANCH   1   7
HETATM    7  C10 UNL     1      -0.228   1.493  -0.486  1.00  0.00     0.017 C 
HETATM    8  C9  UNL     1      -0.666   2.605   0.055  1.00  0.00     0.075 C 
BRANCH   8   9
HETATM    9  C8  UNL     1      -1.965   3.205  -0.108  1.00  0.00     0.241 C 
HETATM   10  N2  UNL     1      -2.947   2.548  -0.937  1.00  0.00    -0.356 N 
ATOM     11  H2  UNL     1      -2.719   1.667  -1.398  1.00  0.00     0.162 HD
HETATM   12  O2  UNL     1      -2.234   4.283   0.464  1.00  0.00    -0.269 OA
BRANCH  10  13
HETATM   13  C7  UNL     1      -4.245   3.136  -1.112  1.00  0.00     0.142 C 
BRANCH  13  14
HETATM   14  C6  UNL     1      -5.190   2.310  -1.890  1.00  0.00     0.142 C 
BRANCH  14  15
HETATM   15  N1  UNL     1      -5.654   1.113  -1.296  1.00  0.00    -0.359 N 
HETATM   16  C5  UNL     1      -5.106  -0.080  -0.881  1.00  0.00     0.225 C 
HETATM   17  O1  UNL     1      -3.929  -0.478  -0.928  1.00  0.00    -0.273 OA
ATOM     18  H1  UNL     1      -6.660   1.141  -1.132  1.00  0.00     0.162 HD
BRANCH  16  19
HETATM   19  C2  UNL     1      -6.037  -1.127  -0.252  1.00  0.00     0.030 C 
HETATM   20  C1  UNL     1      -6.591  -0.493   1.000  1.00  0.00     0.024 C 
HETATM   21  C3  UNL     1      -7.125  -1.366  -1.284  1.00  0.00     0.024 C 
HETATM   22  C4  UNL     1      -5.324  -2.419  -0.009  1.00  0.00     0.024 C 
ENDBRANCH  16  19
ENDBRANCH  14  15
ENDBRANCH  13  14
ENDBRANCH  10  13
ENDBRANCH   8   9
ENDBRANCH   1   7
BRANCH   4  23
HETATM   23  N3  UNL     1       4.947  -0.684   0.247  1.00  0.00    -0.323 N 
HETATM   24  C15 UNL     1       5.702  -0.688   1.458  1.00  0.00     0.259 C 
HETATM   25  O3  UNL     1       5.193  -0.118   2.441  1.00  0.00    -0.267 OA
ATOM     26  H3  UNL     1       5.339  -1.157  -0.567  1.00  0.00     0.169 HD
BRANCH  24  27
HETATM   27  C16 UNL     1       7.011  -1.319   1.575  1.00  0.00     0.066 A 
HETATM   28  C17 UNL     1       7.581  -1.942   0.477  1.00  0.00     0.039 A 
HETATM   29  C18 UNL     1       8.808  -2.540   0.576  1.00  0.00     0.012 A 
HETATM   30 BR1  UNL     1       9.564  -3.385  -0.954  1.00  0.00    -0.051 Br
HETATM   31  C19 UNL     1       9.482  -2.525   1.775  1.00  0.00     0.022 A 
HETATM   32  C20 UNL     1       8.954  -1.924   2.873  1.00  0.00     0.039 A 
HETATM   33  C21 UNL     1       7.685  -1.305   2.769  1.00  0.00     0.081 A 
BRANCH  33  34
HETATM   34  O4  UNL     1       7.240  -0.730   3.919  1.00  0.00    -0.360 OA
ATOM     35  H4  UNL     1       7.707  -0.720   4.746  1.00  0.00     0.217 HD
ENDBRANCH  33  34
ENDBRANCH  24  27
ENDBRANCH   4  23
TORSDOF 9
