REMARK  10 active torsions:
REMARK  status: ('A' for Active; 'I' for Inactive)
REMARK    1  A    between atoms: C5_5  and  C6_6 
REMARK    2  A    between atoms: C6_6  and  N2_10 
REMARK    3  A    between atoms: N2_10  and  O1_12 
REMARK    4  A    between atoms: C10_16  and  N3_17 
REMARK       I    between atoms: N3_17  and  C11_19 
REMARK       I    between atoms: C11_19  and  N4_21 
REMARK    5  A    between atoms: N4_21  and  C12_23 
REMARK    6  A    between atoms: C12_23  and  C13_24 
REMARK    7  A    between atoms: C13_24  and  C14_25 
REMARK    8  A    between atoms: C13_24  and  C15_28 
REMARK    9  A    between atoms: C13_24  and  C21_35 
REMARK   10  A    between atoms: C14_25  and  O3_26 
ROOT
HETATM    1  C1  UNL     1       2.186   2.473  -2.647  1.00  0.00     0.018 C 
HETATM    2  C2  UNL     1       2.732   1.737  -1.852  1.00  0.00    -0.075 C 
HETATM    3  C3  UNL     1       3.352   0.845  -0.876  1.00  0.00     0.044 A 
HETATM    4  C4  UNL     1       4.687   0.511  -0.953  1.00  0.00     0.038 A 
HETATM    5  C5  UNL     1       5.296  -0.326  -0.059  1.00  0.00     0.011 A 
HETATM    6  C8  UNL     1       4.491  -0.847   0.964  1.00  0.00     0.017 A 
HETATM    7  C9  UNL     1       3.137  -0.515   1.048  1.00  0.00     0.032 A 
HETATM    8  C10 UNL     1       2.555   0.320   0.150  1.00  0.00     0.055 A 
ENDROOT
BRANCH   8   9
HETATM    9  N3  UNL     1       1.242   0.743   0.247  1.00  0.00    -0.308 N 
HETATM   10  C11 UNL     1       0.125   0.145   0.890  1.00  0.00     0.320 C 
HETATM   11  O2  UNL     1       0.305  -0.962   1.413  1.00  0.00    -0.247 OA
HETATM   12  N4  UNL     1      -1.077   0.820   0.890  1.00  0.00    -0.342 N 
ATOM     13  H4  UNL     1      -0.995   1.745   0.468  1.00  0.00     0.164 HD
ATOM     14  H3  UNL     1       1.043   1.628  -0.219  1.00  0.00     0.170 HD
BRANCH  12  15
HETATM   15  C12 UNL     1      -2.396   0.552   1.328  1.00  0.00     0.141 C 
BRANCH  15  16
HETATM   16  C13 UNL     1      -3.211  -0.409   0.462  1.00  0.00     0.031 C 
BRANCH  16  17
HETATM   17  C14 UNL     1      -2.554  -1.751   0.457  1.00  0.00     0.180 C 
BRANCH  17  18
HETATM   18  O3  UNL     1      -3.274  -2.736  -0.246  1.00  0.00    -0.400 OA
ATOM     19  H3  UNL     1      -2.856  -3.589  -0.249  1.00  0.00     0.209 HD
ENDBRANCH  17  18
ENDBRANCH  16  17
BRANCH  16  20
HETATM   20  C15 UNL     1      -3.096   0.191  -0.944  1.00  0.00    -0.045 A 
HETATM   21  C16 UNL     1      -3.184   1.566  -1.079  1.00  0.00     0.009 A 
HETATM   22  C17 UNL     1      -3.025   2.201  -2.321  1.00  0.00     0.019 A 
HETATM   23  C18 UNL     1      -2.779   1.437  -3.428  1.00  0.00     0.011 A 
HETATM   24 BR1  UNL     1      -2.550   2.324  -5.126  1.00  0.00    -0.051 Br
HETATM   25  C19 UNL     1      -2.691   0.084  -3.311  1.00  0.00     0.019 A 
HETATM   26  C20 UNL     1      -2.852  -0.517  -2.071  1.00  0.00     0.009 A 
ENDBRANCH  16  20
BRANCH  16  27
HETATM   27  C21 UNL     1      -4.622  -0.488   0.886  1.00  0.00    -0.036 C 
HETATM   28  C22 UNL     1      -4.795  -0.999   2.289  1.00  0.00     0.015 C 
HETATM   29  C23 UNL     1      -5.358   0.860   0.843  1.00  0.00     0.015 C 
HETATM   30  C24 UNL     1      -5.470  -1.375  -0.016  1.00  0.00     0.015 C 
ENDBRANCH  16  27
ENDBRANCH  15  16
ENDBRANCH  12  15
ENDBRANCH   8   9
BRANCH   5  31
HETATM   31  C6  UNL     1       6.687  -0.704  -0.160  1.00  0.00     0.129 C 
HETATM   32  N1  UNL     1       7.334  -0.390  -1.245  1.00  0.00    -0.383 N 
ATOM     33  H12 UNL     1       6.814   0.092  -1.979  1.00  0.00     0.157 HD
ATOM     34  H11 UNL     1       8.316  -0.657  -1.316  1.00  0.00     0.157 HD
BRANCH  31  35
HETATM   35  N2  UNL     1       7.403  -1.367   0.850  1.00  0.00    -0.251 N 
ATOM     36  H2  UNL     1       6.914  -2.026   1.455  1.00  0.00     0.196 HD
BRANCH  35  37
HETATM   37  O1  UNL     1       8.717  -1.155   1.040  1.00  0.00    -0.284 OA
HETATM   38  C7  UNL     1       9.087   0.177   1.058  1.00  0.00     0.237 C 
ENDBRANCH  35  37
ENDBRANCH  31  35
ENDBRANCH   5  31
TORSDOF 10
