REMARK  6 active torsions:
REMARK  status: ('A' for Active; 'I' for Inactive)
REMARK    1  A    between atoms: C2_2  and  C4_4 
REMARK    2  A    between atoms: C4_4  and  C5_5 
REMARK    3  A    between atoms: C7_9  and  C8_10 
REMARK    4  A    between atoms: C11_13  and  N2_14 
REMARK    5  A    between atoms: N2_14  and  C12_16 
REMARK    6  A    between atoms: C20_31  and  C21_32 
ROOT
HETATM    1  C5  UNL     1       0.422   1.883  -0.170  1.00  0.00     0.174 C 
HETATM    2  N1  UNL     1      -0.804   1.700   0.327  1.00  0.00    -0.375 N 
ATOM      3  H1  UNL     1      -0.974   2.263   1.160  1.00  0.00     0.160 HD
HETATM    4  C6  UNL     1      -1.912   0.918  -0.025  1.00  0.00     0.052 C 
HETATM    5  C7  UNL     1      -2.202   0.824  -1.422  1.00  0.00     0.008 C 
HETATM    6  C11 UNL     1      -2.146  -0.187   1.007  1.00  0.00     0.057 C 
HETATM    7  C17 UNL     1      -0.993  -0.971   1.375  1.00  0.00     0.024 C 
HETATM    8  C18 UNL     1      -0.443  -2.092   0.641  1.00  0.00     0.152 C 
HETATM    9  N4  UNL     1       0.898  -2.399   1.114  1.00  0.00    -0.356 N 
ATOM     10  H4  UNL     1       1.057  -3.356   1.429  1.00  0.00     0.162 HD
HETATM   11  C19 UNL     1       1.986  -1.539   1.186  1.00  0.00     0.241 C 
HETATM   12  O2  UNL     1       2.651  -1.580   2.294  1.00  0.00    -0.271 OA
HETATM   13  C20 UNL     1       2.517  -0.582   0.209  1.00  0.00     0.180 C 
HETATM   14  N5  UNL     1       1.690  -0.240  -0.895  1.00  0.00    -0.346 N 
ATOM     15  H5  UNL     1       1.486  -0.973  -1.574  1.00  0.00     0.163 HD
HETATM   16  C27 UNL     1       1.119   1.056  -1.129  1.00  0.00     0.241 C 
HETATM   17  O3  UNL     1       1.269   1.488  -2.333  1.00  0.00    -0.271 OA
ENDROOT
BRANCH   6  18
HETATM   18  N2  UNL     1      -3.466  -0.594   1.098  1.00  0.00    -0.352 N 
ATOM     19  H2  UNL     1      -4.097  -0.032   0.527  1.00  0.00     0.166 HD
BRANCH  18  20
HETATM   20  C12 UNL     1      -4.115  -1.598   1.796  1.00  0.00     0.078 A 
HETATM   21  C13 UNL     1      -3.589  -2.525   2.625  1.00  0.00     0.107 A 
HETATM   22  C14 UNL     1      -4.366  -3.469   3.251  1.00  0.00     0.247 A 
HETATM   23  O1  UNL     1      -3.837  -4.332   4.030  1.00  0.00    -0.268 OA
HETATM   24  N3  UNL     1      -5.696  -3.514   3.065  1.00  0.00    -0.331 N 
HETATM   25  C15 UNL     1      -6.295  -2.625   2.254  1.00  0.00     0.136 A 
ATOM     26  H3  UNL     1      -6.252  -4.224   3.540  1.00  0.00     0.168 HD
HETATM   27  C16 UNL     1      -5.525  -1.686   1.631  1.00  0.00     0.158 A 
HETATM   28  F1  UNL     1      -6.186  -0.800   0.812  1.00  0.00    -0.202 F 
ENDBRANCH  18  20
ENDBRANCH   6  18
BRANCH   5  29
HETATM   29  C8  UNL     1      -3.327   0.078  -2.045  1.00  0.00     0.002 C 
HETATM   30  C9  UNL     1      -3.255   0.360  -3.608  1.00  0.00     0.013 C 
HETATM   31  C10 UNL     1      -3.140  -1.434  -2.054  1.00  0.00     0.013 C 
ENDBRANCH   5  29
BRANCH   1  32
HETATM   32  C4  UNL     1       0.434   3.331  -0.757  1.00  0.00     0.038 C 
BRANCH  32  33
HETATM   33  C2  UNL     1       0.134   4.288   0.365  1.00  0.00    -0.020 C 
HETATM   34  C1  UNL     1       1.161   4.194   1.474  1.00  0.00     0.009 C 
HETATM   35  C3  UNL     1       0.246   5.693  -0.207  1.00  0.00     0.009 C 
ENDBRANCH  32  33
ENDBRANCH   1  32
BRANCH  13  36
HETATM   36  C21 UNL     1       3.809  -1.172  -0.358  1.00  0.00     0.018 C 
HETATM   37  C22 UNL     1       4.834  -1.398   0.718  1.00  0.00     0.007 C 
HETATM   38  C23 UNL     1       6.259  -1.336   0.206  1.00  0.00     0.000 C 
HETATM   39  C24 UNL     1       6.246  -1.918  -1.192  1.00  0.00     0.000 C 
HETATM   40  C25 UNL     1       5.571  -0.924  -2.085  1.00  0.00     0.000 C 
HETATM   41  C26 UNL     1       4.387  -0.271  -1.409  1.00  0.00     0.007 C 
ENDBRANCH  13  36
TORSDOF 6
