REMARK  8 active torsions:
REMARK  status: ('A' for Active; 'I' for Inactive)
REMARK    1  A    between atoms: C2_2  and  C3_3 
REMARK    2  A    between atoms: C2_2  and  C4_5 
REMARK       I    between atoms: C4_5  and  N1_7 
REMARK    3  A    between atoms: N1_7  and  C5_9 
REMARK    4  A    between atoms: C5_9  and  C6_10 
REMARK    5  A    between atoms: C5_9  and  C7_13 
REMARK       I    between atoms: C7_13  and  N2_15 
REMARK    6  A    between atoms: N2_15  and  C8_17 
REMARK    7  A    between atoms: C11_20  and  N3_21 
REMARK       I    between atoms: N3_21  and  C12_23 
REMARK       I    between atoms: C12_23  and  N4_25 
REMARK    8  A    between atoms: N4_25  and  C13_27 
ROOT
HETATM    1  C8  UNL     1       2.306  -0.406   0.543  1.00  0.00     0.034 A 
HETATM    2  C9  UNL     1       1.198  -0.145   1.370  1.00  0.00     0.032 A 
HETATM    3  C10 UNL     1      -0.095  -0.253   0.912  1.00  0.00     0.032 A 
HETATM    4  C11 UNL     1      -0.374  -0.619  -0.369  1.00  0.00     0.036 A 
HETATM    5  C23 UNL     1       0.704  -0.883  -1.204  1.00  0.00     0.032 A 
HETATM    6  C24 UNL     1       2.004  -0.772  -0.736  1.00  0.00     0.032 A 
ENDROOT
BRANCH   1   7
HETATM    7  N2  UNL     1       3.593  -0.288   1.079  1.00  0.00    -0.325 N 
HETATM    8  C7  UNL     1       4.800  -0.261   0.380  1.00  0.00     0.255 C 
HETATM    9  O4  UNL     1       4.896  -0.332  -0.870  1.00  0.00    -0.270 OA
ATOM     10  H2  UNL     1       3.656  -0.213   2.094  1.00  0.00     0.169 HD
BRANCH   8  11
HETATM   11  C5  UNL     1       6.117  -0.138   1.098  1.00  0.00     0.279 C 
BRANCH  11  12
HETATM   12  N1  UNL     1       7.173  -0.082   0.117  1.00  0.00    -0.339 N 
HETATM   13  C4  UNL     1       8.029   1.042   0.078  1.00  0.00     0.223 C 
HETATM   14  O1  UNL     1       7.870   1.992   0.897  1.00  0.00    -0.273 OA
ATOM     15  H1  UNL     1       7.301  -0.848  -0.544  1.00  0.00     0.163 HD
BRANCH  13  16
HETATM   16  C2  UNL     1       9.121   1.114  -0.926  1.00  0.00     0.087 C 
HETATM   17  C1  UNL     1      10.026  -0.068  -0.697  1.00  0.00     0.021 C 
BRANCH  16  18
HETATM   18  C3  UNL     1       9.828   2.424  -0.809  1.00  0.00     0.128 C 
HETATM   19 CL1  UNL     1       8.671   3.741  -1.097  1.00  0.00    -0.130 Cl
ENDBRANCH  16  18
ENDBRANCH  13  16
ENDBRANCH  11  12
BRANCH  11  20
HETATM   20  C6  UNL     1       6.300  -1.314   1.989  1.00  0.00     0.206 C 
HETATM   21  O2  UNL     1       7.295  -2.073   1.775  1.00  0.00    -0.646 OA
HETATM   22  O3  UNL     1       5.433  -1.597   3.026  1.00  0.00    -0.646 OA
ENDBRANCH  11  20
ENDBRANCH   8  11
ENDBRANCH   1   7
BRANCH   4  23
HETATM   23  N3  UNL     1      -1.663  -0.738  -0.925  1.00  0.00    -0.309 N 
HETATM   24  C12 UNL     1      -2.893  -0.330  -0.400  1.00  0.00     0.321 C 
HETATM   25  O5  UNL     1      -2.995   0.232   0.698  1.00  0.00    -0.247 OA
HETATM   26  N4  UNL     1      -4.088  -0.553  -1.125  1.00  0.00    -0.334 N 
ATOM     27  H4  UNL     1      -4.003  -1.015  -2.030  1.00  0.00     0.165 HD
ATOM     28  H3  UNL     1      -1.705  -1.185  -1.841  1.00  0.00     0.170 HD
BRANCH  26  29
HETATM   29  C13 UNL     1      -5.404  -0.187  -0.700  1.00  0.00     0.035 C 
HETATM   30  C14 UNL     1      -5.571   1.296  -0.451  1.00  0.00     0.035 C 
HETATM   31  C15 UNL     1      -7.007   1.532  -0.027  1.00  0.00    -0.012 C 
HETATM   32  C16 UNL     1      -7.388   0.723   1.191  1.00  0.00     0.009 C 
HETATM   33  C20 UNL     1      -7.986   1.156  -1.125  1.00  0.00     0.009 C 
HETATM   34  C17 UNL     1      -7.238  -0.759   0.887  1.00  0.00    -0.012 C 
HETATM   35  C18 UNL     1      -8.068  -1.203  -0.270  1.00  0.00     0.009 C 
HETATM   36  C22 UNL     1      -5.764  -0.957   0.530  1.00  0.00     0.035 C 
HETATM   37  C19 UNL     1      -7.786  -0.303  -1.449  1.00  0.00    -0.012 C 
HETATM   38  C21 UNL     1      -6.364  -0.505  -1.854  1.00  0.00     0.035 C 
ENDBRANCH  26  29
ENDBRANCH   4  23
TORSDOF 8
