REMARK  3 active torsions:
REMARK  status: ('A' for Active; 'I' for Inactive)
REMARK    1  A    between atoms: O1_2  and  C2_3 
REMARK    2  A    between atoms: C2_3  and  C3_5 
REMARK    3  A    between atoms: C3_5  and  C4_6 
ROOT
HETATM    1  C4  UNL     1       0.562  -0.643   0.351  1.00  0.00    -0.029 C 
HETATM    2  C5  UNL     1      -0.079   0.097   1.462  1.00  0.00     0.014 C 
HETATM    3  C6  UNL     1      -1.570  -0.066   1.580  1.00  0.00    -0.012 C 
HETATM    4  C7  UNL     1      -2.377   1.024   1.007  1.00  0.00     0.024 C 
HETATM    5  C8  UNL     1      -1.847   1.770  -0.164  1.00  0.00     0.114 C 
HETATM    6  N1  UNL     1      -1.830   1.103  -1.410  1.00  0.00    -0.417 N 
ATOM      7  H1  UNL     1      -2.435   1.410  -2.172  1.00  0.00     0.153 HD
HETATM    8  C9  UNL     1      -0.953  -0.005  -1.581  1.00  0.00     0.077 C 
HETATM    9  C10 UNL     1      -1.732  -1.267  -1.340  1.00  0.00     0.029 C 
HETATM   10  C11 UNL     1      -1.411  -1.965  -0.069  1.00  0.00    -0.012 C 
HETATM   11  C12 UNL     1      -2.082  -1.406   1.143  1.00  0.00     0.009 C 
HETATM   12  C13 UNL     1       0.056  -2.064   0.201  1.00  0.00     0.014 C 
HETATM   13  C14 UNL     1       0.366   0.083  -0.936  1.00  0.00     0.034 C 
ENDROOT
BRANCH   1  14
HETATM   14  C3  UNL     1       2.044  -0.811   0.609  1.00  0.00     0.120 C 
BRANCH  14  15
HETATM   15  C2  UNL     1       2.807   0.411   0.753  1.00  0.00     0.259 C 
HETATM   16  O2  UNL     1       2.527   1.258   1.627  1.00  0.00    -0.265 OA
BRANCH  15  17
HETATM   17  O1  UNL     1       3.876   0.662  -0.092  1.00  0.00    -0.326 OA
HETATM   18  C1  UNL     1       4.631   1.867   0.043  1.00  0.00     0.213 C 
ENDBRANCH  15  17
ENDBRANCH  14  15
ENDBRANCH   1  14
TORSDOF 3
