REMARK  4 active torsions:
REMARK  status: ('A' for Active; 'I' for Inactive)
REMARK    1  A    between atoms: C2_2  and  C4_4 
REMARK    2  A    between atoms: C5_6  and  N1_7 
REMARK    3  A    between atoms: N1_7  and  C6_9 
REMARK    4  A    between atoms: C12_17  and  O1_18 
ROOT
HETATM    1  C4  UNL     1      -3.068   0.003  -0.563  1.00  0.00     0.064 A 
HETATM    2  S1  UNL     1      -2.355   0.160   1.025  1.00  0.00    -0.050 SA
HETATM    3  C5  UNL     1      -0.729  -0.020   0.577  1.00  0.00     0.147 A 
HETATM    4  N2  UNL     1      -0.785  -0.189  -0.740  1.00  0.00    -0.316 N 
ATOM      5  H2  UNL     1       0.066  -0.323  -1.285  1.00  0.00     0.170 HD
HETATM    6  C12 UNL     1      -1.961  -0.179  -1.323  1.00  0.00     0.160 A 
ENDROOT
BRANCH   3   7
HETATM    7  N1  UNL     1       0.320   0.006   1.364  1.00  0.00    -0.366 N 
ATOM      8  H1  UNL     1       0.192   0.148   2.366  1.00  0.00     0.162 HD
BRANCH   7   9
HETATM    9  C6  UNL     1       1.648  -0.162   0.838  1.00  0.00     0.083 C 
HETATM   10  C7  UNL     1       2.579  -0.590   1.951  1.00  0.00     0.025 C 
HETATM   11  C8  UNL     1       3.893  -0.972   1.318  1.00  0.00     0.002 C 
HETATM   12  C9  UNL     1       4.480   0.222   0.633  1.00  0.00     0.000 C 
HETATM   13  C10 UNL     1       3.523   0.740  -0.424  1.00  0.00     0.002 C 
HETATM   14  C11 UNL     1       2.209   1.119   0.263  1.00  0.00     0.025 C 
ENDBRANCH   7   9
ENDBRANCH   3   7
BRANCH   1  15
HETATM   15  C2  UNL     1      -4.504   0.070  -0.867  1.00  0.00    -0.050 C 
HETATM   16  C1  UNL     1      -4.946  -0.056  -2.070  1.00  0.00     0.020 C 
HETATM   17  C3  UNL     1      -5.448   0.291   0.277  1.00  0.00     0.049 C 
ENDBRANCH   1  15
BRANCH   6  18
HETATM   18  O1  UNL     1      -2.060  -0.358  -2.733  1.00  0.00    -0.345 OA
ATOM     19  H1  UNL     1      -1.284  -0.486  -3.266  1.00  0.00     0.219 HD
ENDBRANCH   6  18
TORSDOF 4
