REMARK  3 active torsions:
REMARK  status: ('A' for Active; 'I' for Inactive)
REMARK    1  A    between atoms: C4_5  and  C5_6 
REMARK    2  A    between atoms: C6_9  and  C7_10 
REMARK    3  A    between atoms: C7_10  and  O3_11 
ROOT
HETATM    1  C1  UNL     1       1.616  -2.487  -0.024  1.00  0.00     0.049 C 
HETATM    2  C2  UNL     1       1.998  -1.190   0.678  1.00  0.00    -0.045 A 
HETATM    3  C3  UNL     1       3.104  -1.183   1.457  1.00  0.00     0.058 A 
HETATM    4  S1  UNL     1       3.205   0.378   2.050  1.00  0.00    -0.094 SA
HETATM    5  C4  UNL     1       1.760   1.067   1.267  1.00  0.00     0.091 A 
HETATM    6  C6  UNL     1       1.284   0.006   0.577  1.00  0.00     0.006 A 
ENDROOT
BRANCH   6   7
HETATM    7  C7  UNL     1       0.035  -0.006  -0.288  1.00  0.00     0.087 C 
HETATM    8  C8  UNL     1      -0.940  -1.062   0.176  1.00  0.00     0.043 C 
HETATM    9  C9  UNL     1      -2.345  -0.500   0.191  1.00  0.00     0.003 C 
HETATM   10  C10 UNL     1      -2.762   0.189  -1.052  1.00  0.00     0.000 C 
HETATM   11  C11 UNL     1      -1.656   0.941  -1.712  1.00  0.00     0.003 C 
HETATM   12  C12 UNL     1      -0.634   1.265  -0.565  1.00  0.00     0.043 C 
BRANCH   7  13
HETATM   13  O3  UNL     1       0.470  -0.418  -1.604  1.00  0.00    -0.385 OA
ATOM     14  H3  UNL     1      -0.311  -0.426  -2.145  1.00  0.00     0.211 HD
ENDBRANCH   7  13
ENDBRANCH   6   7
BRANCH   5  15
HETATM   15  C5  UNL     1       1.444   2.449   1.530  1.00  0.00     0.217 C 
HETATM   16  O1  UNL     1       2.320   3.065   2.316  1.00  0.00    -0.643 OA
HETATM   17  O2  UNL     1       0.462   3.253   1.160  1.00  0.00    -0.643 OA
ENDBRANCH   5  15
TORSDOF 3
