REMARK  3 active torsions:
REMARK  status: ('A' for Active; 'I' for Inactive)
REMARK    1  A    between atoms: C2_7  and  C3_8 
REMARK    2  A    between atoms: C4_9  and  C5_10 
REMARK    3  A    between atoms: C14_19  and  N3_20 
ROOT
HETATM    1  N1  UNL     1       6.045  -1.129  -0.021  1.00  0.00    -0.387 N 
ATOM      2  H11 UNL     1       6.803  -0.448  -0.061  1.00  0.00     0.157 HD
ATOM      3  H12 UNL     1       6.455  -2.062   0.025  1.00  0.00     0.157 HD
HETATM    4  C1  UNL     1       4.772  -0.832  -0.029  1.00  0.00     0.106 A 
HETATM    5  N2  UNL     1       3.736  -1.763   0.025  1.00  0.00    -0.348 N 
ATOM      6  H2  UNL     1       3.882  -2.772   0.049  1.00  0.00     0.167 HD
HETATM    7  C2  UNL     1       2.547  -1.196   0.042  1.00  0.00     0.012 A 
HETATM    8  C13 UNL     1       2.699   0.258  -0.011  1.00  0.00     0.097 A 
HETATM    9  C14 UNL     1       4.180   0.513  -0.096  1.00  0.00     0.255 A 
ENDROOT
BRANCH   7  10
HETATM   10  C3  UNL     1       1.364  -2.034   0.098  1.00  0.00     0.021 C 
HETATM   11  C4  UNL     1       0.118  -1.750   0.128  1.00  0.00    -0.020 C 
BRANCH  11  12
HETATM   12  C5  UNL     1      -0.535  -0.456   0.118  1.00  0.00     0.008 C 
HETATM   13  C6  UNL     1      -1.372  -0.254  -1.136  1.00  0.00     0.008 C 
HETATM   14  C7  UNL     1      -1.713   1.219  -1.204  1.00  0.00     0.001 C 
HETATM   15  C8  UNL     1      -3.221   1.320  -1.068  1.00  0.00     0.000 C 
HETATM   16  C9  UNL     1      -3.627   1.308   0.414  1.00  0.00     0.000 C 
HETATM   17  C10 UNL     1      -3.877  -0.066   0.912  1.00  0.00     0.000 C 
HETATM   18  C11 UNL     1      -2.721  -0.887   1.285  1.00  0.00     0.001 C 
HETATM   19  C12 UNL     1      -1.398  -0.241   1.369  1.00  0.00     0.008 C 
ENDBRANCH  11  12
ENDBRANCH   7  10
BRANCH   9  20
HETATM   20  N3  UNL     1       4.645   1.368   0.982  1.00  0.00    -0.068 N 
ATOM     21  H33 UNL     1       4.482   0.937   1.892  1.00  0.00     0.275 HD
ATOM     22  H32 UNL     1       5.664   1.413   1.005  1.00  0.00     0.275 HD
ATOM     23  H31 UNL     1       4.235   2.301   0.936  1.00  0.00     0.275 HD
ENDBRANCH   9  20
TORSDOF 3
