REMARK  2 active torsions:
REMARK  status: ('A' for Active; 'I' for Inactive)
REMARK    1  A    between atoms: C3_6  and  C4_7 
REMARK    2  A    between atoms: C4_7  and  S1_8 
ROOT
HETATM    1  O1  UNL     1      -2.064   0.842  -2.246  1.00  0.00    -0.273 OA
HETATM    2  C1  UNL     1      -0.980   0.759  -1.607  1.00  0.00     0.225 C 
HETATM    3  N1  UNL     1       0.210   0.693  -2.387  1.00  0.00    -0.360 N 
ATOM      4  H1  UNL     1       0.152   1.142  -3.301  1.00  0.00     0.162 HD
HETATM    5  C2  UNL     1       1.481   0.091  -2.086  1.00  0.00     0.128 C 
HETATM    6  C3  UNL     1       1.694  -0.151  -0.625  1.00  0.00     0.017 C 
HETATM    7  C5  UNL     1       0.779  -1.178  -0.046  1.00  0.00     0.041 C 
HETATM    8  C6  UNL     1      -0.489  -0.534   0.394  1.00  0.00    -0.070 C 
HETATM    9  C7  UNL     1      -1.077  -1.256   1.323  1.00  0.00    -0.023 C 
HETATM   10  C8  UNL     1      -2.353  -0.792   1.898  1.00  0.00     0.027 C 
HETATM   11  C9  UNL     1      -3.134  -0.230   0.698  1.00  0.00     0.005 C 
HETATM   12  C10 UNL     1      -2.434   1.052   0.326  1.00  0.00     0.019 C 
HETATM   13  C11 UNL     1      -1.031   0.739  -0.127  1.00  0.00     0.106 C 
ENDROOT
BRANCH   6  14
HETATM   14  C4  UNL     1       3.147  -0.510  -0.375  1.00  0.00     0.093 C 
BRANCH  14  15
HETATM   15  S1  UNL     1       3.310  -0.787   1.424  1.00  0.00    -0.085 SA
HETATM   16  S2  UNL     1       2.975   1.076   2.406  1.00  0.00    -0.013 SA
ENDBRANCH  14  15
ENDBRANCH   6  14
TORSDOF 2
