REMARK  5 active torsions:
REMARK  status: ('A' for Active; 'I' for Inactive)
REMARK    1  A    between atoms: C4_4  and  C5_5 
REMARK    2  A    between atoms: C5_5  and  C6_6 
REMARK    3  A    between atoms: C12_12  and  O1_13 
REMARK    4  A    between atoms: C13_15  and  O2_16 
REMARK    5  A    between atoms: C16_20  and  O3_21 
ROOT
HETATM    1  C6  UNL     1       0.210   0.300   0.045  1.00  0.00     0.032 C 
HETATM    2  C7  UNL     1      -0.477   1.344  -0.755  1.00  0.00    -0.070 C 
HETATM    3  C8  UNL     1      -1.732   1.334  -1.110  1.00  0.00    -0.046 C 
HETATM    4  C9  UNL     1      -2.082   2.557  -1.918  1.00  0.00     0.037 C 
HETATM    5  C10 UNL     1      -1.058   3.528  -1.388  1.00  0.00     0.009 C 
HETATM    6  C11 UNL     1       0.166   2.613  -1.294  1.00  0.00     0.035 C 
HETATM    7  C12 UNL     1      -2.633   0.227  -0.725  1.00  0.00     0.182 C 
HETATM    8  C13 UNL     1      -2.080  -0.383   0.510  1.00  0.00     0.098 C 
HETATM    9  C14 UNL     1      -2.788  -1.578   1.023  1.00  0.00     0.044 C 
HETATM   10  C15 UNL     1      -1.725  -2.391   1.685  1.00  0.00     0.035 C 
HETATM   11  C16 UNL     1      -0.435  -1.570   1.599  1.00  0.00     0.130 C 
HETATM   12  C17 UNL     1      -0.648  -0.875   0.242  1.00  0.00     0.023 C 
HETATM   13  C18 UNL     1      -0.660  -1.926  -0.793  1.00  0.00     0.022 C 
ENDROOT
BRANCH   1  14
HETATM   14  C5  UNL     1       1.535   0.083  -0.640  1.00  0.00     0.037 C 
BRANCH  14  15
HETATM   15  C4  UNL     1       2.431  -0.896  -0.047  1.00  0.00    -0.024 C 
HETATM   16  C2  UNL     1       3.623  -0.510   0.401  1.00  0.00    -0.091 C 
HETATM   17  C1  UNL     1       4.040   0.914   0.298  1.00  0.00     0.042 C 
HETATM   18  C3  UNL     1       4.578  -1.471   1.016  1.00  0.00     0.042 C 
ENDBRANCH  14  15
ENDBRANCH   1  14
BRANCH   8  19
HETATM   19  O2  UNL     1      -2.079   0.590   1.517  1.00  0.00    -0.386 OA
ATOM     20  H2  UNL     1      -1.725   0.200   2.307  1.00  0.00     0.210 HD
ENDBRANCH   8  19
BRANCH  11  21
HETATM   21  O3  UNL     1      -0.371  -0.641   2.619  1.00  0.00    -0.395 OA
ATOM     22  H3  UNL     1       0.429  -0.132   2.566  1.00  0.00     0.210 HD
ENDBRANCH  11  21
BRANCH   7  23
HETATM   23  O1  UNL     1      -2.864  -0.650  -1.774  1.00  0.00    -0.388 OA
ATOM     24  H1  UNL     1      -3.443  -1.361  -1.527  1.00  0.00     0.210 HD
ENDBRANCH   7  23
TORSDOF 5
