REMARK  6 active torsions:
REMARK  status: ('A' for Active; 'I' for Inactive)
REMARK    1  A    between atoms: C2_2  and  C4_4 
REMARK    2  A    between atoms: C4_4  and  C5_6 
REMARK    3  A    between atoms: C5_6  and  C6_7 
REMARK    4  A    between atoms: C6_7  and  C7_8 
REMARK    5  A    between atoms: C7_8  and  C9_10 
REMARK    6  A    between atoms: C20_23  and  O3_24 
ROOT
HETATM    1  C9  UNL     1       0.648  -0.782  -0.278  1.00  0.00    -0.002 C 
HETATM    2  C10 UNL     1       0.507  -2.173  -0.886  1.00  0.00     0.006 C 
HETATM    3  C11 UNL     1      -1.017  -2.264  -0.560  1.00  0.00     0.006 C 
HETATM    4  C12 UNL     1      -1.451  -1.030  -1.275  1.00  0.00     0.006 C 
HETATM    5  C13 UNL     1      -2.853  -0.665  -1.251  1.00  0.00     0.069 C 
HETATM    6  C14 UNL     1      -3.517  -1.304  -0.159  1.00  0.00     0.047 C 
HETATM    7  C15 UNL     1      -4.497  -0.604   0.692  1.00  0.00     0.151 C 
HETATM    8  O2  UNL     1      -4.402  -1.012   2.066  1.00  0.00    -0.382 OA
HETATM    9  C16 UNL     1      -3.275  -0.104   2.269  1.00  0.00     0.200 C 
HETATM   10  C17 UNL     1      -4.003   0.704   1.249  1.00  0.00     0.129 C 
HETATM   11  C18 UNL     1      -5.125   1.331   2.022  1.00  0.00     0.079 C 
HETATM   12  N1  UNL     1      -6.012   1.835   2.609  1.00  0.00    -0.196 NA
HETATM   13  C19 UNL     1      -3.399   1.585   0.300  1.00  0.00     0.050 C 
HETATM   14  C20 UNL     1      -2.112   1.750  -0.083  1.00  0.00     0.056 C 
HETATM   15  C21 UNL     1      -0.896   1.045   0.254  1.00  0.00     0.075 C 
HETATM   16  C22 UNL     1      -0.463   0.024  -0.811  1.00  0.00    -0.030 C 
HETATM   17  C23 UNL     1      -0.015   0.854  -2.011  1.00  0.00     0.016 C 
HETATM   18  C24 UNL     1      -4.392   2.097  -0.757  1.00  0.00     0.206 C 
HETATM   19  O4  UNL     1      -4.425   3.326  -0.924  1.00  0.00    -0.286 OA
HETATM   20  C25 UNL     1      -5.268   1.239  -1.566  1.00  0.00     0.110 C 
HETATM   21 CL1  UNL     1      -6.885   1.970  -1.753  1.00  0.00    -0.078 Cl
HETATM   22  C26 UNL     1      -5.066   0.107  -2.193  1.00  0.00     0.105 C 
HETATM   23 CL2  UNL     1      -6.485  -0.588  -3.078  1.00  0.00    -0.078 Cl
HETATM   24  C27 UNL     1      -3.876  -0.739  -2.369  1.00  0.00     0.177 C 
HETATM   25  O5  UNL     1      -3.634  -1.484  -3.313  1.00  0.00    -0.291 OA
ENDROOT
BRANCH  14  26
HETATM   26  O3  UNL     1      -1.955   2.801  -1.030  1.00  0.00    -0.364 OA
ATOM     27  H3  UNL     1      -1.051   2.917  -1.299  1.00  0.00     0.217 HD
ENDBRANCH  14  26
BRANCH   1  28
HETATM   28  C7  UNL     1       2.025  -0.333  -0.226  1.00  0.00    -0.013 C 
HETATM   29  C8  UNL     1       2.728  -0.291  -1.585  1.00  0.00     0.010 C 
BRANCH  28  30
HETATM   30  C6  UNL     1       2.795  -1.308   0.684  1.00  0.00     0.012 C 
BRANCH  30  31
HETATM   31  C5  UNL     1       4.200  -0.936   0.941  1.00  0.00     0.079 C 
BRANCH  31  32
HETATM   32  C4  UNL     1       4.433   0.353   1.629  1.00  0.00     0.130 C 
HETATM   33  O1  UNL     1       3.612   1.113   2.057  1.00  0.00    -0.298 OA
BRANCH  32  34
HETATM   34  C2  UNL     1       5.902   0.708   1.787  1.00  0.00     0.047 C 
HETATM   35  C1  UNL     1       6.059   2.016   2.492  1.00  0.00     0.017 C 
HETATM   36  C3  UNL     1       6.576  -0.387   2.561  1.00  0.00     0.017 C 
ENDBRANCH  32  34
ENDBRANCH  31  32
ENDBRANCH  30  31
ENDBRANCH  28  30
ENDBRANCH   1  28
TORSDOF 6
