REMARK  5 active torsions:
REMARK  status: ('A' for Active; 'I' for Inactive)
REMARK    1  A    between atoms: O1_2  and  C2_3 
REMARK    2  A    between atoms: C11_12  and  O2_13 
REMARK    3  A    between atoms: C16_18  and  O3_19 
REMARK    4  A    between atoms: C23_29  and  O5_30 
REMARK    5  A    between atoms: O5_30  and  C24_31 
ROOT
HETATM    1  C2  UNL     1      -0.945   2.559   0.964  1.00  0.00     0.204 C 
HETATM    2  C3  UNL     1      -0.728   1.561  -0.191  1.00  0.00     0.042 C 
HETATM    3  C4  UNL     1      -2.084   1.055  -0.521  1.00  0.00     0.006 C 
HETATM    4  C5  UNL     1      -2.444   1.033  -1.979  1.00  0.00     0.033 C 
HETATM    5  C6  UNL     1      -2.062  -0.189  -2.699  1.00  0.00    -0.020 C 
HETATM    6  C7  UNL     1      -1.181  -1.095  -2.381  1.00  0.00    -0.069 C 
HETATM    7  C8  UNL     1      -1.171  -2.148  -3.455  1.00  0.00     0.047 C 
HETATM    8  C9  UNL     1      -0.237  -1.371  -1.359  1.00  0.00    -0.002 C 
HETATM    9  C10 UNL     1      -0.149  -0.886   0.002  1.00  0.00     0.076 C 
HETATM   10  C11 UNL     1       0.804  -1.879   0.633  1.00  0.00     0.140 C 
HETATM   11  C13 UNL     1       2.182  -1.632   0.043  1.00  0.00     0.038 C 
HETATM   12  C14 UNL     1       2.645  -0.254  -0.003  1.00  0.00    -0.001 C 
HETATM   13  C15 UNL     1       3.880  -0.229  -0.917  1.00  0.00     0.037 C 
HETATM   14  C16 UNL     1       4.585   1.041  -0.586  1.00  0.00     0.118 C 
HETATM   15  C17 UNL     1       3.709   2.232  -0.495  1.00  0.00     0.032 C 
HETATM   16  C18 UNL     1       2.442   2.015   0.372  1.00  0.00     0.013 C 
HETATM   17  C19 UNL     1       1.675   0.838  -0.279  1.00  0.00    -0.025 C 
HETATM   18  C20 UNL     1       1.638   1.381  -1.686  1.00  0.00     0.016 C 
HETATM   19  C21 UNL     1       0.318   0.570   0.245  1.00  0.00     0.060 C 
HETATM   20  C22 UNL     1       0.142   0.627   1.724  1.00  0.00     0.286 C 
HETATM   21  F1  UNL     1       1.261   0.482   2.507  1.00  0.00    -0.204 F 
HETATM   22  O4  UNL     1      -0.840  -0.274   2.047  1.00  0.00    -0.306 OA
HETATM   23  C23 UNL     1      -1.342  -0.860   0.892  1.00  0.00     0.195 C 
HETATM   24  C26 UNL     1      -2.523  -0.079   0.334  1.00  0.00     0.051 C 
HETATM   25  C27 UNL     1      -3.645  -0.879  -0.211  1.00  0.00     0.016 C 
HETATM   26  C28 UNL     1      -0.354   1.986   2.160  1.00  0.00     0.330 C 
HETATM   27  F2  UNL     1       0.584   2.786   2.765  1.00  0.00    -0.197 F 
HETATM   28  F3  UNL     1      -1.257   1.770   3.226  1.00  0.00    -0.197 F 
ENDROOT
BRANCH  23  29
HETATM   29  O5  UNL     1      -1.829  -2.123   1.281  1.00  0.00    -0.282 OA
BRANCH  29  30
HETATM   30  C24 UNL     1      -2.822  -2.376   2.197  1.00  0.00     0.257 C 
HETATM   31  C25 UNL     1      -3.281  -3.781   2.501  1.00  0.00     0.126 C 
HETATM   32  O6  UNL     1      -3.371  -1.433   2.804  1.00  0.00    -0.266 OA
ENDBRANCH  29  30
ENDBRANCH  23  29
BRANCH  10  33
HETATM   33  O2  UNL     1       0.787  -2.201   1.917  1.00  0.00    -0.389 OA
HETATM   34  C12 UNL     1       0.798  -3.535   2.156  1.00  0.00     0.202 C 
ENDBRANCH  10  33
BRANCH   1  35
HETATM   35  O1  UNL     1      -0.682   3.859   0.627  1.00  0.00    -0.384 OA
HETATM   36  C1  UNL     1      -1.728   4.740   0.688  1.00  0.00     0.202 C 
ENDBRANCH   1  35
BRANCH  14  37
HETATM   37  O3  UNL     1       5.599   1.313  -1.471  1.00  0.00    -0.396 OA
ATOM     38  H3  UNL     1       6.049   2.123  -1.260  1.00  0.00     0.210 HD
ENDBRANCH  14  37
TORSDOF 5
