REMARK  9 active torsions:
REMARK  status: ('A' for Active; 'I' for Inactive)
REMARK    1  A    between atoms: C2_4  and  N2_5 
REMARK    2  A    between atoms: C2_4  and  C8_16 
REMARK    3  A    between atoms: N2_5  and  N3_7 
REMARK       I    between atoms: N3_7  and  C3_9 
REMARK    4  A    between atoms: C3_9  and  C4_11 
REMARK    5  A    between atoms: C8_16  and  N4_17 
REMARK    6  A    between atoms: C8_16  and  C13_26 
REMARK       I    between atoms: N4_17  and  C9_19 
REMARK       I    between atoms: C9_19  and  N5_21 
REMARK    7  A    between atoms: N5_21  and  C10_23 
REMARK    8  A    between atoms: N8_30  and  C14_31 
REMARK    9  A    between atoms: C15_37  and  N11_38 
ROOT
HETATM    1  C8  UNL     1      -0.329   0.575   0.370  1.00  0.00     0.225 C 
ENDROOT
BRANCH   1   2
HETATM    2  C2  UNL     1       0.969  -0.125   0.704  1.00  0.00     0.122 C 
HETATM    3  N1  UNL     1       1.543   0.258   1.775  1.00  0.00    -0.381 N 
HETATM    4  C1  UNL     1       2.764  -0.305   2.233  1.00  0.00     0.147 C 
ATOM      5  H1  UNL     1       1.108   0.999   2.326  1.00  0.00     0.160 HD
BRANCH   2   6
HETATM    6  N2  UNL     1       1.470  -1.140  -0.146  1.00  0.00    -0.284 N 
ATOM      7  H2  UNL     1       0.837  -1.890  -0.425  1.00  0.00     0.188 HD
BRANCH   6   8
HETATM    8  N3  UNL     1       2.771  -1.173  -0.621  1.00  0.00    -0.263 N 
HETATM    9  C3  UNL     1       3.225  -2.293  -1.345  1.00  0.00     0.293 C 
HETATM   10  O1  UNL     1       2.449  -3.246  -1.553  1.00  0.00    -0.264 OA
ATOM     11  H3  UNL     1       3.399  -0.388  -0.447  1.00  0.00     0.190 HD
BRANCH   9  12
HETATM   12  C4  UNL     1       4.596  -2.317  -1.835  1.00  0.00     0.144 A 
HETATM   13  C5  UNL     1       5.572  -1.345  -1.684  1.00  0.00     0.045 A 
HETATM   14  C6  UNL     1       6.722  -1.776  -2.303  1.00  0.00     0.027 A 
HETATM   15  C7  UNL     1       6.385  -3.035  -2.822  1.00  0.00     0.143 A 
HETATM   16  O2  UNL     1       5.139  -3.295  -2.519  1.00  0.00    -0.317 OA
ENDBRANCH   9  12
ENDBRANCH   6   8
ENDBRANCH   2   6
ENDBRANCH   1   2
BRANCH   1  17
HETATM   17  N4  UNL     1      -1.330  -0.473   0.333  1.00  0.00    -0.325 N 
HETATM   18  C9  UNL     1      -2.213  -0.718  -0.725  1.00  0.00     0.317 C 
HETATM   19  O3  UNL     1      -2.179   0.001  -1.741  1.00  0.00    -0.247 OA
HETATM   20  N5  UNL     1      -3.154  -1.779  -0.660  1.00  0.00    -0.339 N 
ATOM     21  H5  UNL     1      -3.178  -2.371   0.170  1.00  0.00     0.164 HD
ATOM     22  H4  UNL     1      -1.396  -1.084   1.147  1.00  0.00     0.165 HD
BRANCH  20  23
HETATM   23  C10 UNL     1      -4.090  -2.046  -1.751  1.00  0.00     0.078 C 
HETATM   24  C11 UNL     1      -5.465  -2.032  -1.174  1.00  0.00     0.032 C 
HETATM   25  C12 UNL     1      -3.807  -3.404  -2.356  1.00  0.00     0.032 C 
ENDBRANCH  20  23
ENDBRANCH   1  17
BRANCH   1  26
HETATM   26  C13 UNL     1      -0.669   1.542   1.449  1.00  0.00     0.141 A 
HETATM   27  N6  UNL     1      -1.054   1.264   2.713  1.00  0.00    -0.268 N 
HETATM   28  N7  UNL     1      -1.258   2.417   3.341  1.00  0.00     0.004 NA
ATOM     29  H6  UNL     1      -1.168   0.333   3.115  1.00  0.00     0.185 HD
HETATM   30  N8  UNL     1      -1.017   3.428   2.525  1.00  0.00    -0.156 N 
HETATM   31  N12 UNL     1      -0.662   2.884   1.384  1.00  0.00    -0.264 N 
ATOM     32  H12 UNL     1      -0.411   3.415   0.550  1.00  0.00     0.190 HD
BRANCH  30  33
HETATM   33  C14 UNL     1      -1.132   4.830   2.847  1.00  0.00     0.210 A 
HETATM   34  N9  UNL     1      -0.690   5.448   3.956  1.00  0.00    -0.219 N 
HETATM   35  O4  UNL     1      -0.982   6.717   3.873  1.00  0.00    -0.153 OA
ATOM     36  H9  UNL     1      -0.206   4.999   4.734  1.00  0.00     0.198 HD
HETATM   37  N10 UNL     1      -1.600   6.954   2.752  1.00  0.00    -0.222 N 
HETATM   38  C15 UNL     1      -1.718   5.806   2.072  1.00  0.00     0.170 A 
ATOM     39  H10 UNL     1      -1.939   7.865   2.442  1.00  0.00     0.198 HD
BRANCH  38  40
HETATM   40  N11 UNL     1      -2.281   5.638   0.901  1.00  0.00    -0.381 N 
ATOM     41 2H11 UNL     1      -2.371   4.764   0.383  1.00  0.00     0.157 HD
ATOM     42 1H11 UNL     1      -2.715   6.361   0.327  1.00  0.00     0.157 HD
ENDBRANCH  38  40
ENDBRANCH  30  33
ENDBRANCH   1  26
TORSDOF 9
