REMARK  7 active torsions:
REMARK  status: ('A' for Active; 'I' for Inactive)
REMARK    1  A    between atoms: C4_6  and  C5_7 
REMARK    2  A    between atoms: C5_7  and  O2_8 
REMARK    3  A    between atoms: C6_10  and  C7_11 
REMARK    4  A    between atoms: C6_10  and  O3_23 
REMARK    5  A    between atoms: C7_11  and  S1_12 
REMARK    6  A    between atoms: S1_12  and  C8_13 
REMARK    7  A    between atoms: O3_23  and  N5_24 
ROOT
HETATM    1  C5  UNL     1      -1.311   0.245   1.349  1.00  0.00     0.125 C 
HETATM    2  C6  UNL     1      -0.192   0.011   0.733  1.00  0.00     0.121 C 
ENDROOT
BRANCH   2   3
HETATM    3  C7  UNL     1       0.044  -1.025  -0.272  1.00  0.00     0.150 C 
BRANCH   3   4
HETATM    4  S1  UNL     1       1.261  -2.275   0.222  1.00  0.00    -0.112 SA
BRANCH   4   5
HETATM    5  C8  UNL     1       2.849  -1.472   0.431  1.00  0.00     0.086 A 
HETATM    6  S2  UNL     1       3.545  -0.775   1.844  1.00  0.00    -0.044 SA
HETATM    7  C9  UNL     1       5.019  -0.262   1.170  1.00  0.00     0.144 A 
HETATM    8  N2  UNL     1       6.025   0.357   1.742  1.00  0.00    -0.380 N 
HETATM    9  N3  UNL     1       4.925  -0.642  -0.107  1.00  0.00    -0.324 N 
ATOM     10  H22 UNL     1       6.097   0.647   2.717  1.00  0.00     0.158 HD
ATOM     11  H21 UNL     1       6.909   0.665   1.338  1.00  0.00     0.158 HD
HETATM   12  C10 UNL     1       3.835  -1.253  -0.491  1.00  0.00     0.142 A 
ATOM     13  H3  UNL     1       5.683  -0.460  -0.765  1.00  0.00     0.169 HD
HETATM   14  N4  UNL     1       3.634  -1.711  -1.862  1.00  0.00    -0.081 NA
ENDBRANCH   4   5
ENDBRANCH   3   4
ENDBRANCH   2   3
BRANCH   2  15
HETATM   15  O3  UNL     1       0.918   0.816   1.029  1.00  0.00    -0.234 OA
BRANCH  15  16
HETATM   16  N5  UNL     1       1.210   1.945   0.329  1.00  0.00    -0.223 N 
HETATM   17  C11 UNL     1       2.499   2.628   0.321  1.00  0.00     0.179 C 
HETATM   18  C12 UNL     1       2.021   4.055   0.022  1.00  0.00     0.144 C 
HETATM   19  N6  UNL     1       0.785   3.866  -0.690  1.00  0.00    -0.361 N 
HETATM   20  C13 UNL     1       0.335   2.666  -0.508  1.00  0.00     0.210 C 
ATOM     21  H6  UNL     1       0.327   4.578  -1.259  1.00  0.00     0.162 HD
HETATM   22  N7  UNL     1      -0.898   2.189  -1.110  1.00  0.00    -0.062 NA
ENDBRANCH  15  16
ENDBRANCH   2  15
BRANCH   1  23
HETATM   23  C4  UNL     1      -2.526  -0.507   1.120  1.00  0.00     0.077 A 
HETATM   24  C3  UNL     1      -3.137  -1.068   2.244  1.00  0.00     0.107 A 
HETATM   25  C2  UNL     1      -4.312  -1.756   2.086  1.00  0.00     0.253 A 
HETATM   26  N1  UNL     1      -4.865  -1.889   0.870  1.00  0.00    -0.271 N 
HETATM   27  O1  UNL     1      -4.837  -2.251   3.121  1.00  0.00    -0.268 OA
HETATM   28  C1  UNL     1      -6.113  -2.624   0.709  1.00  0.00     0.164 C 
HETATM   29  C14 UNL     1      -4.294  -1.356  -0.225  1.00  0.00     0.329 A 
HETATM   30  N8  UNL     1      -3.130  -0.679  -0.044  1.00  0.00    -0.306 N 
HETATM   31  O4  UNL     1      -4.822  -1.486  -1.362  1.00  0.00    -0.246 OA
ATOM     32  H8  UNL     1      -2.688  -0.272  -0.869  1.00  0.00     0.171 HD
ENDBRANCH   1  23
BRANCH   1  33
HETATM   33  O2  UNL     1      -1.312   1.304   2.297  1.00  0.00    -0.356 OA
ATOM     34  H2  UNL     1      -0.514   1.798   2.447  1.00  0.00     0.218 HD
ENDBRANCH   1  33
TORSDOF 7
