REMARK  11 active torsions:
REMARK  status: ('A' for Active; 'I' for Inactive)
REMARK    1  A    between atoms: C3_4  and  S1_5 
REMARK    2  A    between atoms: S1_5  and  C4_6 
REMARK    3  A    between atoms: C4_6  and  C5_7 
REMARK    4  A    between atoms: C6_8  and  N2_9 
REMARK    5  A    between atoms: N2_9  and  O1_11 
REMARK    6  A    between atoms: C7_17  and  C8_18 
REMARK    7  A    between atoms: C9_21  and  O4_22 
REMARK    8  A    between atoms: C11_26  and  C12_27 
REMARK    9  A    between atoms: C12_27  and  O5_28 
REMARK   10  A    between atoms: C12_27  and  N6_30 
REMARK   11  A    between atoms: N6_30  and  N7_32 
ROOT
HETATM    1  N1  UNL     1       0.482  -3.593   1.643  1.00  0.00    -0.191 NA
HETATM    2  C1  UNL     1      -0.179  -2.768   1.189  1.00  0.00     0.103 C 
HETATM    3  C2  UNL     1      -1.039  -1.719   0.681  1.00  0.00     0.091 C 
HETATM    4  C3  UNL     1      -0.705  -0.489   0.503  1.00  0.00     0.051 C 
HETATM    5  C9  UNL     1      -1.709   0.521   0.159  1.00  0.00     0.200 C 
HETATM    6  C10 UNL     1      -1.067   1.680  -0.480  1.00  0.00     0.105 C 
HETATM    7  N5  UNL     1      -0.580   2.574  -0.978  1.00  0.00    -0.194 NA
HETATM    8  C11 UNL     1      -2.787   0.050  -0.808  1.00  0.00     0.192 C 
HETATM    9  C13 UNL     1      -3.325  -1.203  -0.322  1.00  0.00     0.193 C 
HETATM   10  O6  UNL     1      -4.526  -1.553  -0.345  1.00  0.00    -0.290 OA
HETATM   11  C14 UNL     1      -2.403  -2.165   0.272  1.00  0.00     0.095 C 
HETATM   12  N8  UNL     1      -2.784  -3.421   0.452  1.00  0.00    -0.395 N 
ATOM     13  H81 UNL     1      -3.716  -3.726   0.172  1.00  0.00     0.156 HD
ATOM     14  H82 UNL     1      -2.139  -4.094   0.867  1.00  0.00     0.156 HD
ENDROOT
BRANCH   4  15
HETATM   15  S1  UNL     1       0.940   0.134   0.845  1.00  0.00    -0.124 SA
BRANCH  15  16
HETATM   16  C4  UNL     1       2.160  -0.659  -0.192  1.00  0.00     0.124 C 
BRANCH  16  17
HETATM   17  C5  UNL     1       3.601  -0.449   0.100  1.00  0.00     0.034 A 
HETATM   18  C6  UNL     1       4.378  -1.576   0.437  1.00  0.00     0.149 A 
HETATM   19  N3  UNL     1       5.640  -1.162   0.414  1.00  0.00    -0.283 N 
HETATM   20  N4  UNL     1       5.763   0.077   0.109  1.00  0.00    -0.292 N 
ATOM     21  H3  UNL     1       6.433  -1.770   0.619  1.00  0.00     0.188 HD
HETATM   22  C7  UNL     1       4.479   0.575  -0.100  1.00  0.00     0.136 A 
ATOM     23  H4  UNL     1       6.636   0.599   0.034  1.00  0.00     0.187 HD
BRANCH  18  24
HETATM   24  N2  UNL     1       3.915  -2.846   0.779  1.00  0.00    -0.251 N 
ATOM     25  H2  UNL     1       3.846  -3.013   1.783  1.00  0.00     0.196 HD
BRANCH  24  26
HETATM   26  O1  UNL     1       3.582  -3.782   0.094  1.00  0.00    -0.288 OA
ATOM     27  H1  UNL     1       3.267  -4.647   0.327  1.00  0.00     0.244 HD
ENDBRANCH  24  26
ENDBRANCH  18  24
BRANCH  22  28
HETATM   28  C8  UNL     1       4.246   1.910  -0.569  1.00  0.00     0.229 C 
HETATM   29  O2  UNL     1       3.102   2.440  -0.754  1.00  0.00    -0.643 OA
HETATM   30  O3  UNL     1       5.372   2.711  -0.867  1.00  0.00    -0.643 OA
ENDBRANCH  22  28
ENDBRANCH  16  17
ENDBRANCH  15  16
ENDBRANCH   4  15
BRANCH   5  31
HETATM   31  O4  UNL     1      -2.346   1.007   1.311  1.00  0.00    -0.370 OA
ATOM     32  H4  UNL     1      -2.997   1.662   1.088  1.00  0.00     0.212 HD
ENDBRANCH   5  31
BRANCH   8  33
HETATM   33  C12 UNL     1      -3.683   1.195  -0.868  1.00  0.00     0.146 C 
BRANCH  33  34
HETATM   34  O5  UNL     1      -3.593   2.006  -1.906  1.00  0.00    -0.348 OA
ATOM     35  H5  UNL     1      -4.178   2.754  -1.945  1.00  0.00     0.219 HD
ENDBRANCH  33  34
BRANCH  33  36
HETATM   36  N6  UNL     1      -4.666   1.527   0.023  1.00  0.00    -0.289 N 
ATOM     37  H6  UNL     1      -4.804   0.933   0.841  1.00  0.00     0.188 HD
BRANCH  36  38
HETATM   38  N7  UNL     1      -5.498   2.655  -0.139  1.00  0.00    -0.343 N 
ATOM     39  H72 UNL     1      -5.346   3.238  -0.962  1.00  0.00     0.176 HD
ATOM     40  H71 UNL     1      -6.231   2.903   0.526  1.00  0.00     0.176 HD
ENDBRANCH  36  38
ENDBRANCH  33  36
ENDBRANCH   8  33
TORSDOF 11
