REMARK  5 active torsions:
REMARK  status: ('A' for Active; 'I' for Inactive)
REMARK    1  A    between atoms: C3_8  and  C4_9 
REMARK       I    between atoms: C4_9  and  N4_11 
REMARK    2  A    between atoms: N4_11  and  C5_13 
REMARK    3  A    between atoms: C5_13  and  C6_14 
REMARK    4  A    between atoms: C6_14  and  N5_15 
REMARK    5  A    between atoms: N5_15  and  C7_18 
ROOT
HETATM    1  C4  UNL     1      -1.431  -0.090  -0.642  1.00  0.00     0.271 C 
HETATM    2  O1  UNL     1      -0.930  -1.144  -0.193  1.00  0.00    -0.266 OA
HETATM    3  N4  UNL     1      -0.715   0.903  -1.333  1.00  0.00    -0.354 N 
ATOM      4  H4  UNL     1      -1.214   1.729  -1.665  1.00  0.00     0.162 HD
ENDROOT
BRANCH   1   5
HETATM    5  C3  UNL     1      -2.871   0.105  -0.420  1.00  0.00     0.141 A 
HETATM    6  C1  UNL     1      -3.719  -0.753   0.230  1.00  0.00     0.096 A 
HETATM    7  N1  UNL     1      -3.416  -2.026   0.846  1.00  0.00    -0.098 NA
HETATM    8  C2  UNL     1      -4.974  -0.170   0.200  1.00  0.00     0.136 A 
HETATM    9  N2  UNL     1      -4.835   0.990  -0.452  1.00  0.00    -0.309 N 
HETATM   10  N3  UNL     1      -3.594   1.172  -0.828  1.00  0.00    -0.294 N 
ATOM     11  H2  UNL     1      -5.595   1.646  -0.632  1.00  0.00     0.186 HD
ATOM     12  H3  UNL     1      -3.235   1.978  -1.340  1.00  0.00     0.187 HD
ENDBRANCH   1   5
BRANCH   3  13
HETATM   13  C5  UNL     1       0.694   0.795  -1.588  1.00  0.00     0.150 C 
BRANCH  13  14
HETATM   14  C6  UNL     1       1.465   0.755  -0.295  1.00  0.00     0.252 C 
BRANCH  14  15
HETATM   15  N5  UNL     1       2.899   0.653  -0.552  1.00  0.00    -0.069 N 
ATOM     16  H52 UNL     1       3.140  -0.136  -1.152  1.00  0.00     0.277 HD
ATOM     17  H51 UNL     1       3.248   1.395  -1.159  1.00  0.00     0.277 HD
BRANCH  15  18
HETATM   18  C7  UNL     1       3.568   0.612   0.727  1.00  0.00     0.186 A 
HETATM   19  C8  UNL     1       3.211  -0.599   1.590  1.00  0.00     0.035 A 
HETATM   20  C9  UNL     1       4.588  -0.426   1.013  1.00  0.00     0.035 A 
ENDBRANCH  15  18
ENDBRANCH  14  15
ENDBRANCH  13  14
ENDBRANCH   3  13
TORSDOF 5
