REMARK  4 active torsions:
REMARK  status: ('A' for Active; 'I' for Inactive)
REMARK    1  A    between atoms: C2_2  and  C3_3 
REMARK    2  A    between atoms: C4_6  and  S3_7 
REMARK    3  A    between atoms: S3_7  and  N1_8 
REMARK    4  A    between atoms: S3_7  and  N2_12 
ROOT
HETATM    1  S3  UNL     1      -0.757   0.571  -0.330  1.00  0.00     0.141 S 
HETATM    2  O1  UNL     1      -0.456   1.025   1.066  1.00  0.00    -0.223 OA
ENDROOT
BRANCH   1   3
HETATM    3  C4  UNL     1       0.167  -0.885  -0.672  1.00  0.00     0.122 A 
HETATM    4  C3  UNL     1       1.419  -1.341  -0.373  1.00  0.00     0.040 A 
HETATM    5  S1  UNL     1       1.420  -2.884  -1.087  1.00  0.00    -0.050 SA
HETATM    6  S2  UNL     1      -0.406  -2.233  -1.532  1.00  0.00    -0.039 SA
BRANCH   4   7
HETATM    7  C2  UNL     1       2.523  -0.711   0.389  1.00  0.00     0.011 C 
HETATM    8  C1  UNL     1       2.735   0.572   0.485  1.00  0.00     0.013 C 
ENDBRANCH   4   7
ENDBRANCH   1   3
BRANCH   1   9
HETATM    9  N1  UNL     1      -0.511   1.824  -1.447  1.00  0.00    -0.341 N 
ATOM     10  H12 UNL     1       0.121   1.725  -2.242  1.00  0.00     0.167 HD
ATOM     11  H11 UNL     1      -1.047   2.669  -1.249  1.00  0.00     0.167 HD
ENDBRANCH   1   9
BRANCH   1  12
HETATM   12  N2  UNL     1      -2.311   0.257  -0.304  1.00  0.00    -0.336 N 
HETATM   13  C5  UNL     1      -2.777  -0.390   0.906  1.00  0.00     0.158 C 
ATOM     14  H2  UNL     1      -2.933   0.492  -1.077  1.00  0.00     0.170 HD
ENDBRANCH   1  12
TORSDOF 4
