REMARK  4 active torsions:
REMARK  status: ('A' for Active; 'I' for Inactive)
REMARK    1  A    between atoms: C2_2  and  C4_4 
REMARK    2  A    between atoms: C5_9  and  N3_10 
REMARK    3  A    between atoms: N3_10  and  N4_12 
REMARK    4  A    between atoms: N4_12  and  C6_14 
ROOT
HETATM    1  C4  UNL     1      -0.501  -0.437   0.297  1.00  0.00     0.073 A 
HETATM    2  N1  UNL     1       0.471   0.289  -0.193  1.00  0.00    -0.296 N 
ATOM      3  H1  UNL     1       0.255   1.167  -0.664  1.00  0.00     0.187 HD
HETATM    4  N2  UNL     1       1.682  -0.087  -0.089  1.00  0.00    -0.278 N 
ATOM      5  H2  UNL     1       2.438   0.480  -0.472  1.00  0.00     0.189 HD
HETATM    6  C5  UNL     1       1.942  -1.239   0.532  1.00  0.00     0.179 A 
HETATM    7  S2  UNL     1       0.360  -1.758   0.959  1.00  0.00    -0.036 SA
ENDROOT
BRANCH   6   8
HETATM    8  N3  UNL     1       3.106  -1.807   0.747  1.00  0.00    -0.278 N 
ATOM      9  H3  UNL     1       3.173  -2.698   1.238  1.00  0.00     0.189 HD
BRANCH   8  10
HETATM   10  N4  UNL     1       4.233  -1.164   0.290  1.00  0.00    -0.299 N 
ATOM     11  H4  UNL     1       4.703  -1.523  -0.541  1.00  0.00     0.187 HD
BRANCH  10  12
HETATM   12  C6  UNL     1       4.716  -0.122   0.877  1.00  0.00     0.188 C 
HETATM   13  S1  UNL     1       5.078   1.436   1.158  1.00  0.00    -0.073 SA
ENDBRANCH  10  12
ENDBRANCH   8  10
ENDBRANCH   6   8
BRANCH   1  14
HETATM   14  C2  UNL     1      -1.969  -0.148   0.264  1.00  0.00     0.036 C 
HETATM   15  C1  UNL     1      -2.454  -0.057  -1.162  1.00  0.00     0.016 C 
HETATM   16  C3  UNL     1      -2.220   1.167   0.940  1.00  0.00     0.016 C 
ENDBRANCH   1  14
TORSDOF 4
