REMARK  11 active torsions:
REMARK  status: ('A' for Active; 'I' for Inactive)
REMARK    1  A    between atoms: C1_4  and  C2_5 
REMARK    2  A    between atoms: C1_4  and  N4_21 
REMARK    3  A    between atoms: C2_5  and  C3_6 
REMARK    4  A    between atoms: C3_6  and  C4_7 
REMARK    5  A    between atoms: C4_7  and  C5_8 
REMARK    6  A    between atoms: C5_8  and  C6_9 
REMARK    7  A    between atoms: C6_9  and  N2_10 
REMARK    8  A    between atoms: N3_13  and  C9_14 
REMARK    9  A    between atoms: C9_14  and  C10_15 
REMARK   10  A    between atoms: C10_15  and  O1_16 
REMARK   11  A    between atoms: C15_23  and  O2_24 
ROOT
HETATM    1  C4  UNL     1       1.290  -0.136   0.498  1.00  0.00     0.002 C 
ENDROOT
BRANCH   1   2
HETATM    2  C3  UNL     1       2.171   1.001   0.137  1.00  0.00     0.007 C 
BRANCH   2   3
HETATM    3  C2  UNL     1       3.608   0.880   0.442  1.00  0.00     0.076 C 
BRANCH   3   4
HETATM    4  C1  UNL     1       4.346  -0.209  -0.191  1.00  0.00     0.072 C 
HETATM    5  N1  UNL     1       3.898  -1.047  -1.028  1.00  0.00    -0.389 N 
ATOM      6  H12 UNL     1       2.916  -0.967  -1.294  1.00  0.00     0.157 HD
ATOM      7  H11 UNL     1       4.414  -1.808  -1.470  1.00  0.00     0.157 HD
BRANCH   4   8
HETATM    8  N4  UNL     1       5.739  -0.322   0.186  1.00  0.00    -0.366 N 
HETATM    9  C14 UNL     1       6.556  -0.040   1.344  1.00  0.00     0.157 C 
HETATM   10  C15 UNL     1       7.722   0.189   0.375  1.00  0.00     0.154 C 
HETATM   11  C16 UNL     1       6.935  -0.791  -0.489  1.00  0.00     0.157 C 
BRANCH  10  12
HETATM   12  O2  UNL     1       7.722   1.450  -0.204  1.00  0.00    -0.392 OA
ATOM     13  H2  UNL     1       8.444   1.592  -0.804  1.00  0.00     0.210 HD
ENDBRANCH  10  12
ENDBRANCH   4   8
ENDBRANCH   3   4
ENDBRANCH   2   3
ENDBRANCH   1   2
BRANCH   1  14
HETATM   14  C5  UNL     1      -0.157   0.203   0.100  1.00  0.00     0.028 C 
BRANCH  14  15
HETATM   15  C6  UNL     1      -0.984  -1.001   0.502  1.00  0.00     0.239 C 
BRANCH  15  16
HETATM   16  N2  UNL     1      -2.360  -0.890   0.218  1.00  0.00    -0.040 N 
HETATM   17  C7  UNL     1      -3.248  -1.456   1.194  1.00  0.00     0.267 C 
HETATM   18  C8  UNL     1      -4.575  -0.766   0.841  1.00  0.00     0.267 C 
HETATM   19  N3  UNL     1      -4.233   0.184  -0.187  1.00  0.00    -0.038 N 
HETATM   20  C11 UNL     1      -4.027  -0.535  -1.411  1.00  0.00     0.267 C 
HETATM   21  C13 UNL     1      -2.844   0.500   0.189  1.00  0.00     0.473 C 
HETATM   22  C12 UNL     1      -2.763  -1.346  -1.088  1.00  0.00     0.267 C 
BRANCH  19  23
HETATM   23  C9  UNL     1      -5.065   1.318  -0.270  1.00  0.00     0.265 C 
BRANCH  23  24
HETATM   24  C10 UNL     1      -6.517   0.978  -0.035  1.00  0.00     0.192 C 
BRANCH  24  25
HETATM   25  O1  UNL     1      -7.250   2.182  -0.141  1.00  0.00    -0.399 OA
ATOM     26  H1  UNL     1      -8.164   1.968   0.007  1.00  0.00     0.209 HD
ENDBRANCH  24  25
ENDBRANCH  23  24
ENDBRANCH  19  23
ENDBRANCH  15  16
ENDBRANCH  14  15
ENDBRANCH   1  14
TORSDOF 11
