REMARK  12 active torsions:
REMARK  status: ('A' for Active; 'I' for Inactive)
REMARK    1  A    between atoms: C2_2  and  C3_3 
REMARK       I    between atoms: C3_3  and  N1_5 
REMARK    2  A    between atoms: N1_5  and  C4_7 
REMARK    3  A    between atoms: C4_7  and  C5_8 
REMARK    4  A    between atoms: C5_8  and  N2_9 
REMARK    5  A    between atoms: N2_9  and  C6_10 
REMARK    6  A    between atoms: C6_10  and  C7_11 
REMARK    7  A    between atoms: C7_11  and  N3_12 
REMARK    8  A    between atoms: N3_12  and  C8_14 
REMARK    9  A    between atoms: C8_14  and  O2_15 
REMARK   10  A    between atoms: C8_14  and  C9_17 
REMARK   11  A    between atoms: C9_17  and  C10_18 
REMARK   12  A    between atoms: C15_23  and  C16_24 
ROOT
HETATM    1  N2  UNL     1      -0.307  -0.538   0.932  1.00  0.00    -0.054 N 
HETATM    2  C12 UNL     1       0.148  -0.203   2.271  1.00  0.00     0.238 C 
HETATM    3  C13 UNL     1       0.115  -1.446   3.108  1.00  0.00     0.030 C 
HETATM    4  C14 UNL     1      -0.001  -2.564   2.098  1.00  0.00     0.042 C 
HETATM    5  C15 UNL     1      -0.803  -1.876   1.000  1.00  0.00     0.251 C 
ENDROOT
BRANCH   1   6
HETATM    6  C5  UNL     1      -1.265   0.391   0.386  1.00  0.00     0.258 C 
BRANCH   6   7
HETATM    7  C4  UNL     1      -1.744   1.459   1.292  1.00  0.00     0.151 C 
BRANCH   7   8
HETATM    8  N1  UNL     1      -2.709   2.340   0.610  1.00  0.00    -0.356 N 
HETATM    9  C3  UNL     1      -3.299   3.417   1.301  1.00  0.00     0.240 C 
HETATM   10  O1  UNL     1      -2.998   3.614   2.494  1.00  0.00    -0.269 OA
ATOM     11  H1  UNL     1      -2.951   2.169  -0.366  1.00  0.00     0.162 HD
BRANCH   9  12
HETATM   12  C2  UNL     1      -4.241   4.284   0.643  1.00  0.00     0.064 C 
HETATM   13  C1  UNL     1      -4.635   4.187  -0.613  1.00  0.00     0.017 C 
ENDBRANCH   9  12
ENDBRANCH   7   8
ENDBRANCH   6   7
ENDBRANCH   1   6
BRANCH   1  14
HETATM   14  C6  UNL     1       0.848  -0.481   0.070  1.00  0.00     0.258 C 
BRANCH  14  15
HETATM   15  C7  UNL     1       0.956  -1.547  -0.967  1.00  0.00     0.150 C 
BRANCH  15  16
HETATM   16  N3  UNL     1       2.183  -1.264  -1.763  1.00  0.00    -0.369 N 
ATOM     17  H3  UNL     1       2.757  -0.454  -1.528  1.00  0.00     0.161 HD
BRANCH  16  18
HETATM   18  C8  UNL     1       2.557  -2.080  -2.815  1.00  0.00     0.135 C 
BRANCH  18  19
HETATM   19  O2  UNL     1       1.756  -3.087  -3.035  1.00  0.00    -0.346 OA
ATOM     20  H2  UNL     1       2.013  -3.648  -3.758  1.00  0.00     0.219 HD
ENDBRANCH  18  19
BRANCH  18  21
HETATM   21  C9  UNL     1       3.687  -1.963  -3.672  1.00  0.00     0.051 C 
BRANCH  21  22
HETATM   22  C10 UNL     1       4.646  -1.082  -3.693  1.00  0.00    -0.027 C 
HETATM   23  C11 UNL     1       4.836   0.054  -2.827  1.00  0.00     0.036 C 
ENDBRANCH  21  22
ENDBRANCH  18  21
ENDBRANCH  16  18
ENDBRANCH  15  16
ENDBRANCH  14  15
ENDBRANCH   1  14
BRANCH   5  24
HETATM   24  C16 UNL     1      -2.229  -1.967   1.447  1.00  0.00     0.264 C 
HETATM   25  O3  UNL     1      -2.729  -3.072   1.543  1.00  0.00    -0.305 OA
ENDBRANCH   5  24
TORSDOF 12
