REMARK  10 active torsions:
REMARK  status: ('A' for Active; 'I' for Inactive)
REMARK    1  A    between atoms: N1_2  and  C4_5 
REMARK    2  A    between atoms: C4_5  and  C5_6 
REMARK    3  A    between atoms: C5_6  and  C6_7 
REMARK    4  A    between atoms: C6_7  and  C7_8 
REMARK    5  A    between atoms: C7_8  and  C8_9 
REMARK    6  A    between atoms: C8_9  and  C9_10 
REMARK    7  A    between atoms: C9_10  and  N2_11 
REMARK    8  A    between atoms: C15_17  and  O1_18 
REMARK    9  A    between atoms: C16_20  and  C17_21 
REMARK   10  A    between atoms: C17_21  and  O2_22 
ROOT
HETATM    1  N2  UNL     1      -1.749   0.709  -0.656  1.00  0.00     0.009 N 
HETATM    2  C10 UNL     1      -2.520   1.964  -0.894  1.00  0.00     0.265 C 
HETATM    3  C11 UNL     1      -3.910   1.758  -0.407  1.00  0.00     0.037 C 
HETATM    4  C12 UNL     1      -4.406   0.451  -0.988  1.00  0.00     0.020 C 
HETATM    5  C13 UNL     1      -3.553   0.117  -2.188  1.00  0.00     0.037 C 
HETATM    6  C14 UNL     1      -2.121  -0.151  -1.748  1.00  0.00     0.265 C 
HETATM    7  C15 UNL     1      -4.324  -0.675  -0.007  1.00  0.00     0.148 C 
HETATM    8  C16 UNL     1      -3.038  -0.764   0.741  1.00  0.00     0.159 C 
HETATM    9  N3  UNL     1      -2.119   0.291   0.574  1.00  0.00    -0.243 N 
ATOM     10  H3  UNL     1      -1.726   0.747   1.397  1.00  0.00     0.187 HD
ENDROOT
BRANCH   1  11
HETATM   11  C9  UNL     1      -0.384   1.116  -0.657  1.00  0.00     0.264 C 
BRANCH  11  12
HETATM   12  C8  UNL     1       0.658   0.195  -1.120  1.00  0.00     0.030 C 
BRANCH  12  13
HETATM   13  C7  UNL     1       0.822  -1.004  -0.264  1.00  0.00     0.002 C 
BRANCH  13  14
HETATM   14  C6  UNL     1       1.265  -0.640   1.122  1.00  0.00     0.002 C 
BRANCH  14  15
HETATM   15  C5  UNL     1       2.596   0.075   1.073  1.00  0.00     0.028 C 
BRANCH  15  16
HETATM   16  C4  UNL     1       3.609  -0.814   0.428  1.00  0.00     0.236 C 
BRANCH  16  17
HETATM   17  N1  UNL     1       4.925  -0.193   0.367  1.00  0.00    -0.079 N 
HETATM   18  C1  UNL     1       5.960  -1.206   0.483  1.00  0.00     0.271 C 
HETATM   19  C2  UNL     1       5.123   0.746   1.463  1.00  0.00     0.271 C 
HETATM   20  C3  UNL     1       5.031   0.552  -0.875  1.00  0.00     0.271 C 
ENDBRANCH  16  17
ENDBRANCH  15  16
ENDBRANCH  14  15
ENDBRANCH  13  14
ENDBRANCH  12  13
ENDBRANCH  11  12
ENDBRANCH   1  11
BRANCH   8  21
HETATM   21  C17 UNL     1      -3.419  -0.771   2.237  1.00  0.00     0.193 C 
BRANCH  21  22
HETATM   22  O2  UNL     1      -4.319  -1.771   2.514  1.00  0.00    -0.399 OA
ATOM     23  H2  UNL     1      -4.553  -1.775   3.435  1.00  0.00     0.209 HD
ENDBRANCH  21  22
ENDBRANCH   8  21
BRANCH   7  24
HETATM   24  O1  UNL     1      -4.477  -1.868  -0.745  1.00  0.00    -0.393 OA
ATOM     25  H1  UNL     1      -4.425  -2.583  -0.122  1.00  0.00     0.210 HD
ENDBRANCH   7  24
TORSDOF 10
