REMARK  9 active torsions:
REMARK  status: ('A' for Active; 'I' for Inactive)
REMARK    1  A    between atoms: C2_2  and  C4_4 
REMARK    2  A    between atoms: C4_4  and  C5_5 
REMARK    3  A    between atoms: C6_6  and  C7_7 
REMARK    4  A    between atoms: C7_7  and  C8_8 
REMARK    5  A    between atoms: C10_13  and  C11_14 
REMARK       I    between atoms: C11_14  and  N2_16 
REMARK    6  A    between atoms: N2_16  and  C12_18 
REMARK    7  A    between atoms: C12_18  and  C13_19 
REMARK    8  A    between atoms: C14_20  and  C15_21 
REMARK    9  A    between atoms: N3_23  and  N4_25 
ROOT
HETATM    1  C11 UNL     1       1.243   0.934  -0.234  1.00  0.00     0.241 C 
HETATM    2  O2  UNL     1       1.357  -0.295  -0.299  1.00  0.00    -0.271 OA
HETATM    3  N2  UNL     1       2.342   1.774  -0.237  1.00  0.00    -0.356 N 
ATOM      4  H2  UNL     1       2.083   2.758  -0.161  1.00  0.00     0.162 HD
ENDROOT
BRANCH   1   5
HETATM    5  C10 UNL     1      -0.083   1.625  -0.122  1.00  0.00     0.190 C 
HETATM    6  C8  UNL     1      -1.286   1.013   0.294  1.00  0.00     0.113 C 
HETATM    7  C9  UNL     1      -0.573   0.779   1.602  1.00  0.00     0.225 C 
HETATM    8  O1  UNL     1      -0.448  -0.049   2.514  1.00  0.00    -0.273 OA
HETATM    9  N1  UNL     1      -0.016   2.034   1.356  1.00  0.00    -0.347 N 
ATOM     10  H1  UNL     1       0.290   2.841   1.900  1.00  0.00     0.163 HD
BRANCH   6  11
HETATM   11  C7  UNL     1      -2.149  -0.068  -0.152  1.00  0.00     0.043 C 
BRANCH  11  12
HETATM   12  C6  UNL     1      -3.189  -0.270   0.951  1.00  0.00    -0.029 C 
HETATM   13  C5  UNL     1      -4.437  -0.194   0.949  1.00  0.00    -0.026 C 
BRANCH  13  14
HETATM   14  C4  UNL     1      -5.407   0.122  -0.157  1.00  0.00     0.059 C 
BRANCH  14  15
HETATM   15  C2  UNL     1      -6.401  -1.007  -0.277  1.00  0.00    -0.090 C 
HETATM   16  C1  UNL     1      -7.546  -0.876   0.414  1.00  0.00     0.014 C 
HETATM   17  C3  UNL     1      -6.157  -2.182  -1.115  1.00  0.00     0.043 C 
ENDBRANCH  14  15
ENDBRANCH  13  14
ENDBRANCH  11  12
ENDBRANCH   6  11
ENDBRANCH   1   5
BRANCH   3  18
HETATM   18  C12 UNL     1       3.764   1.582  -0.322  1.00  0.00     0.150 C 
BRANCH  18  19
HETATM   19  C13 UNL     1       4.220   0.439   0.463  1.00  0.00    -0.005 C 
HETATM   20  C14 UNL     1       5.151  -0.448   0.226  1.00  0.00     0.024 C 
BRANCH  20  21
HETATM   21  C15 UNL     1       6.043  -0.573  -0.869  1.00  0.00     0.023 C 
HETATM   22  C16 UNL     1       6.205   0.437  -1.958  1.00  0.00     0.070 C 
HETATM   23  N3  UNL     1       6.894  -1.579  -0.970  1.00  0.00    -0.291 N 
ATOM     24  H3  UNL     1       7.506  -1.595  -1.786  1.00  0.00     0.188 HD
BRANCH  23  25
HETATM   25  N4  UNL     1       7.019  -2.598  -0.070  1.00  0.00    -0.249 N 
HETATM   26  N5  UNL     1       8.152  -3.088   0.282  1.00  0.00    -0.331 N 
ATOM     27  H52 UNL     1       8.989  -2.686  -0.140  1.00  0.00     0.178 HD
ATOM     28  H51 UNL     1       8.245  -3.849   0.954  1.00  0.00     0.178 HD
ATOM     29  H4  UNL     1       6.172  -2.989   0.342  1.00  0.00     0.207 HD
ENDBRANCH  23  25
ENDBRANCH  20  21
ENDBRANCH  18  19
ENDBRANCH   3  18
TORSDOF 9
