REMARK  4 active torsions:
REMARK  status: ('A' for Active; 'I' for Inactive)
REMARK    1  A    between atoms: C2_2  and  C3_3 
REMARK    2  A    between atoms: C3_3  and  C4_7 
REMARK    3  A    between atoms: C6_9  and  C7_10 
REMARK    4  A    between atoms: C7_10  and  N2_11 
REMARK       I    between atoms: N2_11  and  C8_13 
ROOT
HETATM    1  C4  UNL     1       1.304  -0.270   0.494  1.00  0.00     0.173 C 
HETATM    2  C5  UNL     1       0.213   0.495  -0.166  1.00  0.00     0.072 C 
HETATM    3  C6  UNL     1      -0.116  -0.879  -0.680  1.00  0.00     0.143 C 
HETATM    4  O1  UNL     1       1.242  -1.201  -0.514  1.00  0.00    -0.373 OA
ENDROOT
BRANCH   3   5
HETATM    5  C7  UNL     1      -1.059  -1.634   0.184  1.00  0.00     0.154 C 
BRANCH   5   6
HETATM    6  N2  UNL     1      -2.440  -1.288  -0.028  1.00  0.00    -0.362 N 
HETATM    7  C8  UNL     1      -3.005  -0.042   0.345  1.00  0.00     0.181 C 
HETATM    8  N3  UNL     1      -3.231   0.270   1.582  1.00  0.00    -0.374 N 
HETATM    9  N4  UNL     1      -3.366   0.929  -0.624  1.00  0.00    -0.064 NA
ATOM     10  H32 UNL     1      -2.971  -0.428   2.279  1.00  0.00     0.158 HD
ATOM     11  H31 UNL     1      -3.637   1.166   1.850  1.00  0.00     0.158 HD
ATOM     12  H2  UNL     1      -3.046  -1.978  -0.472  1.00  0.00     0.162 HD
ENDBRANCH   5   6
ENDBRANCH   3   5
BRANCH   1  13
HETATM   13  C3  UNL     1       2.594   0.389   0.713  1.00  0.00     0.031 C 
HETATM   14  N1  UNL     1       2.982   0.591   1.938  1.00  0.00    -0.400 N 
ATOM     15  H12 UNL     1       3.880   1.050   2.090  1.00  0.00     0.156 HD
ATOM     16  H11 UNL     1       2.359   0.263   2.676  1.00  0.00     0.156 HD
BRANCH  13  17
HETATM   17  C2  UNL     1       3.471   0.851  -0.327  1.00  0.00     0.017 C 
HETATM   18  C1  UNL     1       3.272   0.738  -1.623  1.00  0.00     0.013 C 
ENDBRANCH  13  17
ENDBRANCH   1  13
TORSDOF 4
