REMARK  4 active torsions:
REMARK  status: ('A' for Active; 'I' for Inactive)
REMARK    1  A    between atoms: C2_2  and  C3_3 
REMARK    2  A    between atoms: C3_3  and  N1_4 
REMARK       I    between atoms: N1_4  and  C4_6 
REMARK       I    between atoms: C4_6  and  N3_10 
REMARK    3  A    between atoms: N3_10  and  N4_12 
REMARK    4  A    between atoms: C5_14  and  C6_15 
ROOT
HETATM    1  N1  UNL     1      -1.647  -0.080  -0.395  1.00  0.00    -0.222 N 
ATOM      2  H1  UNL     1      -0.805   0.449  -0.624  1.00  0.00     0.178 HD
HETATM    3  C4  UNL     1      -1.569  -1.135   0.584  1.00  0.00     0.686 C 
HETATM    4  N2  UNL     1      -2.621  -1.713   1.018  1.00  0.00    -0.234 N 
ATOM      5  H21 UNL     1      -2.566  -2.460   1.711  1.00  0.00     0.174 HD
ATOM      6  H22 UNL     1      -3.526  -1.413   0.656  1.00  0.00     0.174 HD
HETATM    7  N3  UNL     1      -0.307  -1.554   1.089  1.00  0.00    -0.133 N 
ATOM      8  H3  UNL     1      -0.219  -2.477   1.514  1.00  0.00     0.205 HD
ENDROOT
BRANCH   7   9
HETATM    9  N4  UNL     1       0.824  -0.718   1.013  1.00  0.00    -0.295 N 
HETATM   10  C5  UNL     1       1.992  -1.155   0.746  1.00  0.00     0.138 C 
ATOM     11  H4  UNL     1       0.704   0.281   1.179  1.00  0.00     0.186 HD
BRANCH  10  12
HETATM   12  C6  UNL     1       3.117  -0.249   0.681  1.00  0.00     0.066 A 
HETATM   13  C7  UNL     1       4.436  -0.576   0.404  1.00  0.00     0.051 A 
HETATM   14  C8  UNL     1       5.147   0.615   0.451  1.00  0.00     0.109 A 
HETATM   15  N5  UNL     1       4.295   1.591   0.740  1.00  0.00    -0.311 N 
HETATM   16  N6  UNL     1       3.084   1.080   0.878  1.00  0.00    -0.300 N 
ATOM     17  H5  UNL     1       4.536   2.577   0.840  1.00  0.00     0.186 HD
ATOM     18  H6  UNL     1       2.246   1.617   1.102  1.00  0.00     0.187 HD
ENDBRANCH  10  12
ENDBRANCH   7   9
BRANCH   1  19
HETATM   19  C3  UNL     1      -2.870   0.243  -1.051  1.00  0.00     0.164 C 
BRANCH  19  20
HETATM   20  C2  UNL     1      -3.908   0.846  -0.187  1.00  0.00    -0.017 C 
HETATM   21  C1  UNL     1      -4.426   2.044  -0.388  1.00  0.00     0.008 C 
ENDBRANCH  19  20
ENDBRANCH   1  19
TORSDOF 4
