REMARK  5 active torsions:
REMARK  status: ('A' for Active; 'I' for Inactive)
REMARK    1  A    between atoms: C2_2  and  C4_10 
REMARK    2  A    between atoms: N1_3  and  N2_5 
REMARK    3  A    between atoms: C7_13  and  C8_14 
REMARK    4  A    between atoms: C8_14  and  N5_15 
REMARK    5  A    between atoms: N5_15  and  N6_16 
ROOT
HETATM    1  C4  UNL     1      -0.297   0.489   0.117  1.00  0.00    -0.013 A 
HETATM    2  C5  UNL     1       0.008  -0.700  -0.484  1.00  0.00     0.014 A 
HETATM    3  C6  UNL     1       1.349  -1.119  -0.497  1.00  0.00     0.009 A 
HETATM    4  C7  UNL     1       2.348  -0.383   0.067  1.00  0.00    -0.042 A 
HETATM    5  C9  UNL     1       2.027   0.806   0.666  1.00  0.00     0.009 A 
HETATM    6  C10 UNL     1       0.732   1.230   0.688  1.00  0.00     0.014 A 
ENDROOT
BRANCH   1   7
HETATM    7  C2  UNL     1      -1.672   1.010   0.181  1.00  0.00     0.032 C 
HETATM    8  C1  UNL     1      -1.891   2.347   0.871  1.00  0.00     0.070 C 
HETATM    9  N1  UNL     1      -2.646   0.441  -0.283  1.00  0.00    -0.302 N 
ATOM     10  H1  UNL     1      -3.469   1.016  -0.102  1.00  0.00     0.186 HD
BRANCH   9  11
HETATM   11  N2  UNL     1      -3.037  -0.655  -0.940  1.00  0.00    -0.276 N 
HETATM   12  C3  UNL     1      -4.261  -1.024  -0.993  1.00  0.00     0.215 C 
HETATM   13  N3  UNL     1      -5.237  -0.259  -0.343  1.00  0.00    -0.065 NA
HETATM   14  N4  UNL     1      -4.595  -2.197  -1.708  1.00  0.00    -0.065 NA
ATOM     15  H2  UNL     1      -2.333  -1.219  -1.417  1.00  0.00     0.189 HD
ENDBRANCH   9  11
ENDBRANCH   1   7
BRANCH   4  16
HETATM   16  C8  UNL     1       3.735  -0.877   0.024  1.00  0.00     0.172 C 
BRANCH  16  17
HETATM   17  N5  UNL     1       4.606   0.148   0.535  1.00  0.00    -0.144 NA
BRANCH  17  18
HETATM   18  N6  UNL     1       5.945  -0.282   0.524  1.00  0.00    -0.348 N 
ATOM     19  H62 UNL     1       6.243  -1.200   0.195  1.00  0.00     0.172 HD
ATOM     20  H61 UNL     1       6.562   0.445   0.886  1.00  0.00     0.172 HD
ENDBRANCH  17  18
ENDBRANCH  16  17
ENDBRANCH   4  16
TORSDOF 5
