REMARK  4 active torsions:
REMARK  status: ('A' for Active; 'I' for Inactive)
REMARK       I    between atoms: N1_2  and  C2_4 
REMARK    1  A    between atoms: C2_4  and  C3_6 
REMARK    2  A    between atoms: C7_10  and  N2_11 
REMARK    3  A    between atoms: N2_11  and  C8_13 
REMARK    4  A    between atoms: C8_13  and  C9_14 
ROOT
HETATM    1  C3  UNL     1      -1.494  -0.075   0.058  1.00  0.00     0.034 A 
HETATM    2  C4  UNL     1      -1.604  -1.117   0.944  1.00  0.00     0.017 A 
HETATM    3  C5  UNL     1      -0.481  -1.753   1.493  1.00  0.00     0.003 A 
HETATM    4  C6  UNL     1       0.781  -1.329   1.142  1.00  0.00     0.029 A 
HETATM    5  C7  UNL     1       0.893  -0.283   0.253  1.00  0.00     0.029 A 
HETATM    6  C10 UNL     1      -0.219   0.345  -0.290  1.00  0.00     0.046 A 
ENDROOT
BRANCH   5   7
HETATM    7  N2  UNL     1       2.195   0.157  -0.112  1.00  0.00    -0.382 N 
ATOM      8  H2  UNL     1       2.300   0.930  -0.769  1.00  0.00     0.160 HD
BRANCH   7   9
HETATM    9  C8  UNL     1       3.360  -0.473   0.433  1.00  0.00     0.219 C 
BRANCH   9  10
HETATM   10  C9  UNL     1       4.595   0.150  -0.089  1.00  0.00     0.248 C 
HETATM   11  N3  UNL     1       4.548   1.234  -1.011  1.00  0.00    -0.061 NA
HETATM   12  O2  UNL     1       5.708  -0.320   0.320  1.00  0.00    -0.275 OA
ENDBRANCH   9  10
ENDBRANCH   7   9
ENDBRANCH   5   7
BRANCH   1  13
HETATM   13  C2  UNL     1      -2.651   0.594  -0.520  1.00  0.00     0.251 C 
HETATM   14  N1  UNL     1      -3.976   0.222  -0.213  1.00  0.00    -0.361 N 
HETATM   15  C1  UNL     1      -5.124   0.895  -0.794  1.00  0.00     0.149 C 
ATOM     16  H1  UNL     1      -4.133  -0.546   0.439  1.00  0.00     0.162 HD
HETATM   17  O1  UNL     1      -2.503   1.562  -1.342  1.00  0.00    -0.268 OA
ENDBRANCH   1  13
TORSDOF 4
