REMARK  3 active torsions:
REMARK  status: ('A' for Active; 'I' for Inactive)
REMARK    1  A    between atoms: C2_2  and  C3_3 
REMARK    2  A    between atoms: C7_7  and  C8_8 
REMARK    3  A    between atoms: N2_10  and  N3_12 
REMARK       I    between atoms: N3_12  and  C9_14 
ROOT
HETATM    1  C8  UNL     1       1.218  -1.099   0.225  1.00  0.00     0.141 C 
HETATM    2  N1  UNL     1       1.861  -2.357   0.178  1.00  0.00    -0.080 NA
HETATM    3  N2  UNL     1       1.901  -0.034   0.133  1.00  0.00    -0.285 N 
ATOM      4  H2  UNL     1       1.401   0.854   0.172  1.00  0.00     0.188 HD
ENDROOT
BRANCH   1   5
HETATM    5  C7  UNL     1      -0.223  -1.062   0.380  1.00  0.00     0.007 A 
HETATM    6  C6  UNL     1      -0.978  -2.222   0.482  1.00  0.00     0.015 A 
HETATM    7  C5  UNL     1      -2.335  -2.221   0.628  1.00  0.00     0.002 A 
HETATM    8  C4  UNL     1      -3.015  -1.037   0.681  1.00  0.00     0.007 A 
HETATM    9  C3  UNL     1      -2.295   0.133   0.583  1.00  0.00    -0.058 A 
HETATM   10  C10 UNL     1      -0.927   0.124   0.436  1.00  0.00     0.022 A 
BRANCH   9  11
HETATM   11  C2  UNL     1      -3.023   1.448   0.639  1.00  0.00     0.034 C 
HETATM   12  C1  UNL     1      -3.421   1.863  -0.763  1.00  0.00     0.010 C 
ENDBRANCH   9  11
ENDBRANCH   1   5
BRANCH   3  13
HETATM   13  N3  UNL     1       3.286   0.010  -0.017  1.00  0.00    -0.273 N 
HETATM   14  C9  UNL     1       3.987   1.046  -0.689  1.00  0.00     0.200 C 
HETATM   15  N4  UNL     1       5.030   0.847  -1.412  1.00  0.00    -0.372 N 
HETATM   16  N5  UNL     1       3.504   2.391  -0.556  1.00  0.00    -0.062 NA
ATOM     17  H42 UNL     1       5.373  -0.109  -1.507  1.00  0.00     0.158 HD
ATOM     18  H41 UNL     1       5.534   1.591  -1.895  1.00  0.00     0.158 HD
ATOM     19  H3  UNL     1       3.832  -0.753   0.383  1.00  0.00     0.189 HD
ENDBRANCH   3  13
TORSDOF 3
