REMARK  5 active torsions:
REMARK  status: ('A' for Active; 'I' for Inactive)
REMARK    1  A    between atoms: C2_2  and  C3_3 
REMARK    2  A    between atoms: C5_5  and  C6_6 
REMARK    3  A    between atoms: C6_6  and  N1_7 
REMARK    4  A    between atoms: N1_7  and  N2_8 
REMARK       I    between atoms: N2_8  and  C7_10 
REMARK    5  A    between atoms: C10_17  and  O1_18 
ROOT
HETATM    1  C3  UNL     1      -2.345  -0.644   0.233  1.00  0.00    -0.003 A 
HETATM    2  C4  UNL     1      -1.108  -1.258   0.138  1.00  0.00     0.022 A 
HETATM    3  C5  UNL     1       0.049  -0.530  -0.130  1.00  0.00    -0.041 A 
HETATM    4  C8  UNL     1      -0.088   0.829  -0.298  1.00  0.00     0.011 A 
HETATM    5  C9  UNL     1      -1.334   1.442  -0.201  1.00  0.00     0.038 A 
HETATM    6  C10 UNL     1      -2.479   0.728   0.063  1.00  0.00     0.078 A 
ENDROOT
BRANCH   3   7
HETATM    7  C6  UNL     1       1.384  -1.164  -0.237  1.00  0.00     0.173 C 
BRANCH   7   8
HETATM    8  N1  UNL     1       2.366  -0.169  -0.524  1.00  0.00    -0.135 NA
BRANCH   8   9
HETATM    9  N2  UNL     1       3.656  -0.686  -0.640  1.00  0.00    -0.278 N 
HETATM   10  C7  UNL     1       4.815   0.065  -0.298  1.00  0.00     0.197 C 
HETATM   11  N3  UNL     1       5.934  -0.165  -0.873  1.00  0.00    -0.373 N 
HETATM   12  N4  UNL     1       4.788   1.096   0.684  1.00  0.00    -0.063 NA
ATOM     13  H32 UNL     1       5.953  -0.903  -1.576  1.00  0.00     0.158 HD
ATOM     14  H31 UNL     1       6.765   0.373  -0.628  1.00  0.00     0.158 HD
ATOM     15  H2  UNL     1       3.773  -1.639  -0.983  1.00  0.00     0.185 HD
ENDBRANCH   8   9
ENDBRANCH   7   8
ENDBRANCH   3   7
BRANCH   1  16
HETATM   16  C2  UNL     1      -3.559  -1.392   0.512  1.00  0.00     0.004 C 
HETATM   17  C1  UNL     1      -3.532  -2.691   0.687  1.00  0.00     0.012 C 
ENDBRANCH   1  16
BRANCH   6  18
HETATM   18  O1  UNL     1      -3.728   1.341   0.160  1.00  0.00    -0.355 OA
HETATM   19  C11 UNL     1      -3.941   2.706   0.003  1.00  0.00     0.210 C 
ENDBRANCH   6  18
TORSDOF 5
