REMARK  4 active torsions:
REMARK  status: ('A' for Active; 'I' for Inactive)
REMARK    1  A    between atoms: C1_4  and  C2_6 
REMARK    2  A    between atoms: C5_9  and  N3_10 
REMARK    3  A    between atoms: N3_10  and  N4_11 
REMARK    4  A    between atoms: N3_10  and  C6_14 
ROOT
HETATM    1  C2  UNL     1       1.467   0.352  -0.008  1.00  0.00     0.005 A 
HETATM    2  C3  UNL     1       0.941  -0.602  -0.859  1.00  0.00     0.017 A 
HETATM    3  C4  UNL     1      -0.414  -0.842  -0.782  1.00  0.00     0.032 A 
HETATM    4  C5  UNL     1      -1.234  -0.174   0.097  1.00  0.00     0.058 A 
HETATM    5  C7  UNL     1      -0.694   0.773   0.937  1.00  0.00     0.032 A 
HETATM    6  C8  UNL     1       0.678   1.046   0.890  1.00  0.00     0.017 A 
ENDROOT
BRANCH   4   7
HETATM    7  N3  UNL     1      -2.613  -0.500   0.105  1.00  0.00    -0.238 N 
BRANCH   7   8
HETATM    8  N4  UNL     1      -3.410  -0.007  -0.920  1.00  0.00    -0.336 N 
ATOM      9  H42 UNL     1      -3.050   0.577  -1.675  1.00  0.00     0.177 HD
ATOM     10  H41 UNL     1      -4.403  -0.242  -0.914  1.00  0.00     0.177 HD
ENDBRANCH   7   8
BRANCH   7  11
HETATM   11  C6  UNL     1      -3.112  -1.308   1.150  1.00  0.00     0.376 C 
HETATM   12  O1  UNL     1      -2.273  -1.723   2.017  1.00  0.00    -0.281 OA
ENDBRANCH   7  11
ENDBRANCH   4   7
BRANCH   1  13
HETATM   13  C1  UNL     1       2.909   0.601  -0.075  1.00  0.00     0.120 C 
HETATM   14  N1  UNL     1       3.510   1.482   0.649  1.00  0.00    -0.387 N 
ATOM     15  H12 UNL     1       4.514   1.655   0.602  1.00  0.00     0.157 HD
ATOM     16  H11 UNL     1       2.930   2.028   1.286  1.00  0.00     0.157 HD
HETATM   17  N2  UNL     1       3.713  -0.156  -0.959  1.00  0.00    -0.082 NA
ENDBRANCH   1  13
TORSDOF 4
