REMARK  4 active torsions:
REMARK  status: ('A' for Active; 'I' for Inactive)
REMARK    1  A    between atoms: C2_2  and  C3_3 
REMARK    2  A    between atoms: C3_3  and  N1_4 
REMARK       I    between atoms: N1_4  and  C4_6 
REMARK       I    between atoms: C4_6  and  N3_10 
REMARK    3  A    between atoms: N3_10  and  N4_12 
REMARK    4  A    between atoms: C5_14  and  C6_15 
ROOT
HETATM    1  N1  UNL     1      -1.960  -0.342  -0.583  1.00  0.00    -0.201 N 
ATOM      2  H1  UNL     1      -1.384  -0.142  -1.401  1.00  0.00     0.183 HD
HETATM    3  C4  UNL     1      -1.315  -0.308   0.660  1.00  0.00     0.690 C 
HETATM    4  N2  UNL     1      -1.783   0.354   1.641  1.00  0.00    -0.233 N 
ATOM      5  H21 UNL     1      -1.313   0.379   2.546  1.00  0.00     0.174 HD
ATOM      6  H22 UNL     1      -2.649   0.865   1.469  1.00  0.00     0.174 HD
HETATM    7  N3  UNL     1      -0.090  -1.030   0.903  1.00  0.00    -0.133 N 
ATOM      8  H3  UNL     1      -0.153  -2.018   1.149  1.00  0.00     0.205 HD
ENDROOT
BRANCH   7   9
HETATM    9  N4  UNL     1       1.162  -0.457   0.821  1.00  0.00    -0.295 N 
HETATM   10  C5  UNL     1       2.255  -1.036   0.500  1.00  0.00     0.138 C 
ATOM     11  H4  UNL     1       1.222   0.537   1.041  1.00  0.00     0.186 HD
BRANCH  10  12
HETATM   12  C6  UNL     1       3.518  -0.280   0.460  1.00  0.00     0.065 A 
HETATM   13  C7  UNL     1       4.728  -0.783   0.129  1.00  0.00     0.119 A 
HETATM   14  N5  UNL     1       5.610   0.243   0.219  1.00  0.00    -0.360 N 
HETATM   15  C8  UNL     1       4.952   1.349   0.598  1.00  0.00     0.180 A 
ATOM     16  H5  UNL     1       6.610   0.184   0.029  1.00  0.00     0.166 HD
HETATM   17  N6  UNL     1       3.652   1.023   0.747  1.00  0.00    -0.350 N 
ATOM     18  H6  UNL     1       2.903   1.656   1.028  1.00  0.00     0.166 HD
ENDBRANCH  10  12
ENDBRANCH   7   9
BRANCH   1  19
HETATM   19  C3  UNL     1      -3.311  -0.621  -0.823  1.00  0.00     0.105 C 
BRANCH  19  20
HETATM   20  C2  UNL     1      -4.359   0.329  -0.502  1.00  0.00     0.007 C 
HETATM   21  C1  UNL     1      -4.339   1.539  -0.038  1.00  0.00     0.012 C 
ENDBRANCH  19  20
ENDBRANCH   1  19
TORSDOF 4
