REMARK  5 active torsions:
REMARK  status: ('A' for Active; 'I' for Inactive)
REMARK    1  A    between atoms: C2_2  and  C3_3 
REMARK    2  A    between atoms: C5_5  and  N1_6 
REMARK    3  A    between atoms: N1_6  and  C6_8 
REMARK    4  A    between atoms: C8_11  and  C9_12 
REMARK    5  A    between atoms: C9_12  and  N2_13 
ROOT
HETATM    1  C3  UNL     1       0.222   1.224   0.949  1.00  0.00     0.210 C 
HETATM    2  C4  UNL     1       1.064   0.044   1.291  1.00  0.00     0.062 C 
HETATM    3  C5  UNL     1       0.903  -1.142   0.412  1.00  0.00     0.088 C 
HETATM    4  C7  UNL     1      -0.461  -1.336  -0.157  1.00  0.00     0.059 C 
HETATM    5  C8  UNL     1      -1.359  -0.149  -0.047  1.00  0.00     0.213 C 
HETATM    6  N3  UNL     1      -0.582   1.048  -0.242  1.00  0.00    -0.062 N 
ATOM      7  H31 UNL     1      -0.031   1.034  -1.100  1.00  0.00     0.278 HD
ATOM      8  H32 UNL     1      -1.151   1.864  -0.467  1.00  0.00     0.278 HD
ENDROOT
BRANCH   5   9
HETATM    9  C9  UNL     1      -2.480  -0.146  -1.045  1.00  0.00     0.262 C 
BRANCH   9  10
HETATM   10  N2  UNL     1      -3.279  -1.332  -0.830  1.00  0.00    -0.077 N 
ATOM     11  H23 UNL     1      -2.727  -2.189  -0.861  1.00  0.00     0.274 HD
ATOM     12  H22 UNL     1      -3.609  -1.415   0.132  1.00  0.00     0.274 HD
ATOM     13  H21 UNL     1      -4.041  -1.330  -1.508  1.00  0.00     0.274 HD
ENDBRANCH   9  10
ENDBRANCH   5   9
BRANCH   3  14
HETATM   14  N1  UNL     1       1.934  -1.127  -0.630  1.00  0.00    -0.363 N 
ATOM     15  H1  UNL     1       1.916  -0.372  -1.316  1.00  0.00     0.162 HD
BRANCH  14  16
HETATM   16  C6  UNL     1       2.941  -2.091  -0.735  1.00  0.00     0.348 C 
HETATM   17  O1  UNL     1       3.053  -3.059   0.057  1.00  0.00    -0.284 OA
ENDBRANCH  14  16
ENDBRANCH   3  14
BRANCH   1  18
HETATM   18  C2  UNL     1       0.983   2.478   0.791  1.00  0.00    -0.005 C 
HETATM   19  C1  UNL     1       0.413   3.507   0.202  1.00  0.00     0.009 C 
ENDBRANCH   1  18
TORSDOF 5
