REMARK  5 active torsions:
REMARK  status: ('A' for Active; 'I' for Inactive)
REMARK    1  A    between atoms: C2_2  and  C3_3 
REMARK    2  A    between atoms: C3_3  and  N1_4 
REMARK       I    between atoms: N1_4  and  C4_6 
REMARK    3  A    between atoms: N3_8  and  N4_10 
REMARK    4  A    between atoms: N4_10  and  C5_11 
REMARK    5  A    between atoms: C5_11  and  C6_12 
ROOT
HETATM    1  N1  UNL     1      -1.514   0.716  -1.380  1.00  0.00    -0.359 N 
ATOM      2  H1  UNL     1      -1.357   1.651  -1.756  1.00  0.00     0.162 HD
HETATM    3  C4  UNL     1      -0.480   0.022  -0.674  1.00  0.00     0.213 C 
HETATM    4  N2  UNL     1      -0.432  -1.384  -0.835  1.00  0.00    -0.061 NA
HETATM    5  N3  UNL     1       0.367   0.634   0.078  1.00  0.00    -0.207 N 
ATOM      6  H3  UNL     1       0.220   1.643   0.109  1.00  0.00     0.204 HD
ENDROOT
BRANCH   5   7
HETATM    7  N4  UNL     1       1.352   0.248   0.793  1.00  0.00    -0.332 NA
BRANCH   7   8
HETATM    8  C5  UNL     1       2.122  -0.197   1.567  1.00  0.00     0.260 C 
BRANCH   8   9
HETATM    9  C6  UNL     1       3.588  -0.010   1.485  1.00  0.00     0.168 A 
HETATM   10  N5  UNL     1       4.691  -0.370   2.175  1.00  0.00    -0.268 N 
HETATM   11  N6  UNL     1       5.493   0.260   1.339  1.00  0.00    -0.239 N 
ATOM     12  H5  UNL     1       4.845  -0.920   3.020  1.00  0.00     0.190 HD
HETATM   13  N7  UNL     1       4.429   0.621   0.652  1.00  0.00    -0.268 N 
ATOM     14  H6  UNL     1       6.500   0.405   1.259  1.00  0.00     0.208 HD
ATOM     15  H7  UNL     1       4.295   1.173  -0.195  1.00  0.00     0.190 HD
ENDBRANCH   8   9
ENDBRANCH   7   8
ENDBRANCH   5   7
BRANCH   1  16
HETATM   16  C3  UNL     1      -2.806   0.042  -1.546  1.00  0.00     0.148 C 
BRANCH  16  17
HETATM   17  C2  UNL     1      -3.444  -0.050  -0.209  1.00  0.00    -0.018 C 
HETATM   18  C1  UNL     1      -4.610   0.519  -0.007  1.00  0.00     0.008 C 
ENDBRANCH  16  17
ENDBRANCH   1  16
TORSDOF 5
