REMARK  4 active torsions:
REMARK  status: ('A' for Active; 'I' for Inactive)
REMARK    1  A    between atoms: O1_2  and  C2_3 
REMARK    2  A    between atoms: C5_6  and  C6_7 
REMARK    3  A    between atoms: C6_7  and  N2_11 
REMARK    4  A    between atoms: N2_11  and  N3_13 
ROOT
HETATM    1  C6  UNL     1       1.051   0.576   0.155  1.00  0.00     0.123 C 
HETATM    2  N1  UNL     1       1.467   1.221   1.163  1.00  0.00    -0.384 N 
ATOM      3  H11 UNL     1       2.458   1.422   1.300  1.00  0.00     0.157 HD
ATOM      4  H12 UNL     1       0.799   1.551   1.860  1.00  0.00     0.157 HD
ENDROOT
BRANCH   1   5
HETATM    5  C5  UNL     1      -0.356   0.291  -0.040  1.00  0.00     0.009 A 
HETATM    6  C4  UNL     1      -1.289   0.721   0.880  1.00  0.00     0.018 A 
HETATM    7  C3  UNL     1      -2.651   0.447   0.695  1.00  0.00     0.037 A 
HETATM    8  C2  UNL     1      -3.087  -0.256  -0.407  1.00  0.00     0.068 A 
HETATM    9  C9  UNL     1      -2.126  -0.671  -1.308  1.00  0.00     0.037 A 
HETATM   10  C8  UNL     1      -0.798  -0.423  -1.160  1.00  0.00     0.018 A 
BRANCH   8  11
HETATM   11  O1  UNL     1      -4.426  -0.533  -0.603  1.00  0.00    -0.356 OA
HETATM   12  C1  UNL     1      -5.388  -0.096   0.336  1.00  0.00     0.210 C 
ENDBRANCH   8  11
ENDBRANCH   1   5
BRANCH   1  13
HETATM   13  N2  UNL     1       1.978   0.118  -0.812  1.00  0.00    -0.283 N 
ATOM     14  H2  UNL     1       1.965   0.564  -1.729  1.00  0.00     0.188 HD
BRANCH  13  15
HETATM   15  N3  UNL     1       2.895  -0.886  -0.603  1.00  0.00    -0.274 N 
HETATM   16  C7  UNL     1       4.073  -0.604  -0.182  1.00  0.00     0.215 C 
HETATM   17  N4  UNL     1       4.430   0.743   0.068  1.00  0.00    -0.065 NA
HETATM   18  N5  UNL     1       5.036  -1.627   0.041  1.00  0.00    -0.065 NA
ATOM     19  H3  UNL     1       2.637  -1.856  -0.783  1.00  0.00     0.189 HD
ENDBRANCH  13  15
ENDBRANCH   1  13
TORSDOF 4
