REMARK  3 active torsions:
REMARK  status: ('A' for Active; 'I' for Inactive)
REMARK    1  A    between atoms: N1_2  and  S1_4 
REMARK    2  A    between atoms: S1_4  and  C2_7 
REMARK    3  A    between atoms: C5_10  and  C6_11 
ROOT
HETATM    1  C2  UNL     1      -0.655  -0.699  -0.516  1.00  0.00     0.079 A 
HETATM    2  C3  UNL     1       0.232  -0.881   0.524  1.00  0.00     0.026 A 
HETATM    3  C4  UNL     1       1.408  -0.206   0.508  1.00  0.00     0.016 A 
HETATM    4  C5  UNL     1       1.726   0.658  -0.533  1.00  0.00     0.005 A 
HETATM    5  C7  UNL     1       0.831   0.825  -1.556  1.00  0.00     0.016 A 
HETATM    6  C8  UNL     1      -0.357   0.154  -1.558  1.00  0.00     0.026 A 
ENDROOT
BRANCH   1   7
HETATM    7  S1  UNL     1      -2.185  -1.567  -0.511  1.00  0.00     0.258 S 
HETATM    8  O1  UNL     1      -2.038  -2.914   0.130  1.00  0.00    -0.201 OA
HETATM    9  O2  UNL     1      -2.598  -1.722  -1.948  1.00  0.00    -0.201 OA
BRANCH   7  10
HETATM   10  N1  UNL     1      -3.375  -0.639   0.286  1.00  0.00    -0.320 N 
HETATM   11  C1  UNL     1      -3.085  -0.364   1.661  1.00  0.00     0.159 C 
ATOM     12  H1  UNL     1      -4.221  -0.308  -0.178  1.00  0.00     0.171 HD
ENDBRANCH   7  10
ENDBRANCH   1   7
BRANCH   4  13
HETATM   13  C6  UNL     1       2.992   1.374  -0.533  1.00  0.00     0.120 C 
HETATM   14  N2  UNL     1       3.322   2.162  -1.448  1.00  0.00    -0.387 N 
ATOM     15  H22 UNL     1       2.681   2.311  -2.227  1.00  0.00     0.157 HD
ATOM     16  H21 UNL     1       4.210   2.664  -1.448  1.00  0.00     0.157 HD
HETATM   17  N3  UNL     1       3.884   1.166   0.551  1.00  0.00    -0.082 NA
ENDBRANCH   4  13
TORSDOF 3
