REMARK  3 active torsions:
REMARK  status: ('A' for Active; 'I' for Inactive)
REMARK    1  A    between atoms: C2_2  and  C4_10 
REMARK    2  A    between atoms: N1_3  and  N2_5 
REMARK       I    between atoms: N2_5  and  C3_7 
REMARK    3  A    between atoms: C7_13  and  C8_14 
ROOT
HETATM    1  C4  UNL     1      -0.108  -0.142  -0.267  1.00  0.00    -0.013 A 
HETATM    2  C5  UNL     1      -0.511  -0.120   1.054  1.00  0.00     0.014 A 
HETATM    3  C6  UNL     1      -1.837  -0.026   1.366  1.00  0.00     0.016 A 
HETATM    4  C7  UNL     1      -2.798   0.049   0.374  1.00  0.00     0.004 A 
HETATM    5  C9  UNL     1      -2.389   0.027  -0.946  1.00  0.00     0.016 A 
HETATM    6  C10 UNL     1      -1.056  -0.067  -1.266  1.00  0.00     0.014 A 
ENDROOT
BRANCH   1   7
HETATM    7  C2  UNL     1       1.309  -0.242  -0.574  1.00  0.00     0.032 C 
HETATM    8  C1  UNL     1       1.705  -0.263  -2.013  1.00  0.00     0.070 C 
HETATM    9  N1  UNL     1       2.158  -0.309   0.380  1.00  0.00    -0.301 N 
ATOM     10  H1  UNL     1       1.789  -0.288   1.331  1.00  0.00     0.186 HD
BRANCH   9  11
HETATM   11  N2  UNL     1       3.522  -0.407   0.243  1.00  0.00    -0.254 N 
HETATM   12  C3  UNL     1       4.462   0.168   1.147  1.00  0.00     0.347 C 
HETATM   13  N3  UNL     1       5.851   0.026   0.941  1.00  0.00    -0.038 NA
HETATM   14  O1  UNL     1       4.063   0.815   2.149  1.00  0.00    -0.249 OA
ATOM     15  H2  UNL     1       3.885  -0.925  -0.557  1.00  0.00     0.191 HD
ENDBRANCH   9  11
ENDBRANCH   1   7
BRANCH   4  16
HETATM   16  C8  UNL     1      -4.212   0.149   0.713  1.00  0.00     0.120 C 
HETATM   17  N4  UNL     1      -4.534   0.165   1.960  1.00  0.00    -0.387 N 
ATOM     18  H42 UNL     1      -3.855   0.111   2.719  1.00  0.00     0.157 HD
ATOM     19  H41 UNL     1      -5.524   0.235   2.197  1.00  0.00     0.157 HD
HETATM   20  N5  UNL     1      -5.150   0.223  -0.336  1.00  0.00    -0.082 NA
ENDBRANCH   4  16
TORSDOF 3
