REMARK  2 active torsions:
REMARK  status: ('A' for Active; 'I' for Inactive)
REMARK       I    between atoms: C1_4  and  N2_5 
REMARK       I    between atoms: C1_4  and  N5_17 
REMARK    1  A    between atoms: N2_5  and  N3_7 
REMARK    2  A    between atoms: C2_9  and  C3_10 
REMARK       I    between atoms: N5_17  and  C8_19 
ROOT
HETATM    1  N1  UNL     1       1.310   0.138  -2.096  1.00  0.00    -0.233 N 
ATOM      2  H11 UNL     1       1.919   0.415  -2.866  1.00  0.00     0.174 HD
ATOM      3  H12 UNL     1       0.335  -0.107  -2.266  1.00  0.00     0.174 HD
HETATM    4  C1  UNL     1       1.783   0.101  -0.914  1.00  0.00     0.694 C 
HETATM    5  N2  UNL     1       0.935  -0.285   0.157  1.00  0.00    -0.133 N 
ATOM      6  H2  UNL     1       0.700   0.398   0.877  1.00  0.00     0.205 HD
HETATM    7  N5  UNL     1       3.135   0.441  -0.679  1.00  0.00    -0.143 N 
ATOM      8  H5  UNL     1       3.716   0.715  -1.471  1.00  0.00     0.189 HD
HETATM    9  C8  UNL     1       3.718   0.416   0.618  1.00  0.00     0.347 C 
HETATM   10  N6  UNL     1       5.075   0.765   0.802  1.00  0.00    -0.039 NA
HETATM   11  O1  UNL     1       3.033   0.085   1.601  1.00  0.00    -0.250 OA
ENDROOT
BRANCH   5  12
HETATM   12  N3  UNL     1       0.420  -1.568   0.246  1.00  0.00    -0.295 N 
HETATM   13  C2  UNL     1      -0.825  -1.816   0.229  1.00  0.00     0.137 C 
ATOM     14  H3  UNL     1       1.071  -2.349   0.329  1.00  0.00     0.186 HD
BRANCH  13  15
HETATM   15  C3  UNL     1      -1.883  -0.843   0.117  1.00  0.00     0.049 A 
HETATM   16  C4  UNL     1      -3.216  -1.275   0.112  1.00  0.00     0.031 A 
HETATM   17  C5  UNL     1      -4.214  -0.335   0.005  1.00  0.00     0.004 A 
HETATM   18  C6  UNL     1      -3.968   1.024  -0.099  1.00  0.00     0.017 A 
HETATM   19  C7  UNL     1      -2.644   1.400  -0.089  1.00  0.00     0.088 A 
HETATM   20  N4  UNL     1      -1.681   0.470   0.016  1.00  0.00    -0.365 N 
ATOM     21  H4  UNL     1      -0.714   0.796   0.019  1.00  0.00     0.165 HD
ENDBRANCH  13  15
ENDBRANCH   5  12
TORSDOF 2
