REMARK  6 active torsions:
REMARK  status: ('A' for Active; 'I' for Inactive)
REMARK    1  A    between atoms: C2_2  and  C3_3 
REMARK    2  A    between atoms: C4_4  and  C5_5 
REMARK    3  A    between atoms: C7_9  and  C8_10 
REMARK    4  A    between atoms: C8_10  and  C9_11 
REMARK    5  A    between atoms: C9_11  and  N3_15 
REMARK    6  A    between atoms: N3_15  and  N4_17 
ROOT
HETATM    1  C5  UNL     1       1.353  -0.799  -0.401  1.00  0.00     0.103 A 
HETATM    2  C6  UNL     1       0.591  -1.941  -0.261  1.00  0.00     0.128 A 
HETATM    3  N1  UNL     1      -0.675  -1.610  -0.516  1.00  0.00    -0.353 N 
ATOM      4  H1  UNL     1      -1.465  -2.255  -0.490  1.00  0.00     0.166 HD
HETATM    5  C7  UNL     1      -0.757  -0.298  -0.814  1.00  0.00     0.089 A 
HETATM    6  N5  UNL     1       0.496   0.179  -0.738  1.00  0.00    -0.337 N 
ATOM      7  H5  UNL     1       0.760   1.149  -0.912  1.00  0.00     0.168 HD
ENDROOT
BRANCH   5   8
HETATM    8  C8  UNL     1      -2.014   0.390  -1.145  1.00  0.00     0.153 C 
BRANCH   8   9
HETATM    9  C9  UNL     1      -2.620   0.912   0.117  1.00  0.00     0.096 C 
HETATM   10  N2  UNL     1      -2.044   0.728   1.258  1.00  0.00    -0.388 N 
ATOM     11  H22 UNL     1      -1.161   0.226   1.348  1.00  0.00     0.157 HD
ATOM     12  H21 UNL     1      -2.458   1.084   2.120  1.00  0.00     0.157 HD
BRANCH   9  13
HETATM   13  N3  UNL     1      -3.859   1.617  -0.009  1.00  0.00    -0.296 N 
ATOM     14  H3  UNL     1      -3.885   2.613  -0.225  1.00  0.00     0.187 HD
BRANCH  13  15
HETATM   15  N4  UNL     1      -5.023   0.885   0.176  1.00  0.00    -0.344 N 
ATOM     16  H42 UNL     1      -4.980  -0.111   0.392  1.00  0.00     0.176 HD
ATOM     17  H41 UNL     1      -5.906   1.387   0.086  1.00  0.00     0.176 HD
ENDBRANCH  13  15
ENDBRANCH   9  13
ENDBRANCH   8   9
ENDBRANCH   5   8
BRANCH   1  18
HETATM   18  C4  UNL     1       2.770  -0.654  -0.229  1.00  0.00    -0.043 C 
HETATM   19  C3  UNL     1       3.961  -0.548  -0.070  1.00  0.00    -0.072 C 
BRANCH  19  20
HETATM   20  C2  UNL     1       5.399  -0.438   0.138  1.00  0.00     0.054 C 
HETATM   21  C1  UNL     1       5.834   0.619   0.780  1.00  0.00     0.021 C 
ENDBRANCH  19  20
ENDBRANCH   1  18
TORSDOF 6
