REMARK  4 active torsions:
REMARK  status: ('A' for Active; 'I' for Inactive)
REMARK    1  A    between atoms: C4_4  and  N1_5 
REMARK    2  A    between atoms: N1_5  and  C5_7 
REMARK    3  A    between atoms: C5_7  and  C6_8 
REMARK    4  A    between atoms: C9_13  and  N3_14 
ROOT
HETATM    1  C6  UNL     1      -1.959   0.467   0.029  1.00  0.00     0.045 A 
HETATM    2  C7  UNL     1      -2.707   1.623  -0.188  1.00  0.00     0.045 A 
HETATM    3  C8  UNL     1      -4.053   1.541  -0.416  1.00  0.00     0.108 A 
HETATM    4  N2  UNL     1      -4.630   0.322  -0.426  1.00  0.00    -0.202 N 
ATOM      5  H2  UNL     1      -5.633   0.250  -0.596  1.00  0.00     0.183 HD
HETATM    6  C9  UNL     1      -3.925  -0.796  -0.219  1.00  0.00     0.675 A 
HETATM    7  N4  UNL     1      -2.609  -0.715   0.004  1.00  0.00    -0.194 N 
ATOM      8  H4  UNL     1      -2.080  -1.573   0.160  1.00  0.00     0.184 HD
ENDROOT
BRANCH   1   9
HETATM    9  C5  UNL     1      -0.522   0.622   0.268  1.00  0.00     0.179 C 
BRANCH   9  10
HETATM   10  N1  UNL     1       0.110  -0.667   0.472  1.00  0.00    -0.370 N 
ATOM     11  H1  UNL     1      -0.460  -1.501   0.613  1.00  0.00     0.161 HD
BRANCH  10  12
HETATM   12  C4  UNL     1       1.418  -0.753   0.474  1.00  0.00     0.117 A 
HETATM   13  C3  UNL     1       2.328   0.270   0.300  1.00  0.00     0.075 A 
HETATM   14  C2  UNL     1       3.617  -0.245   0.373  1.00  0.00     0.025 A 
HETATM   15  C1  UNL     1       4.910   0.478   0.244  1.00  0.00     0.070 C 
HETATM   16  N6  UNL     1       3.447  -1.562   0.588  1.00  0.00    -0.304 N 
HETATM   17  N5  UNL     1       2.160  -1.861   0.648  1.00  0.00    -0.286 N 
ATOM     18  H6  UNL     1       4.205  -2.236   0.691  1.00  0.00     0.186 HD
ATOM     19  H5  UNL     1       1.785  -2.797   0.804  1.00  0.00     0.188 HD
ENDBRANCH  10  12
ENDBRANCH   9  10
ENDBRANCH   1   9
BRANCH   6  20
HETATM   20  N3  UNL     1      -4.547  -1.930  -0.243  1.00  0.00    -0.234 N 
ATOM     21  H32 UNL     1      -5.551  -1.992  -0.413  1.00  0.00     0.174 HD
ATOM     22  H31 UNL     1      -4.009  -2.782  -0.085  1.00  0.00     0.174 HD
ENDBRANCH   6  20
TORSDOF 4
