REMARK  4 active torsions:
REMARK  status: ('A' for Active; 'I' for Inactive)
REMARK    1  A    between atoms: C2_2  and  C3_3 
REMARK    2  A    between atoms: C3_3  and  N1_4 
REMARK    3  A    between atoms: N1_4  and  C4_6 
REMARK    4  A    between atoms: C8_14  and  N5_15 
ROOT
HETATM    1  C4  UNL     1       0.250   0.432  -0.254  1.00  0.00     0.681 A 
HETATM    2  N2  UNL     1       0.922  -0.477   0.444  1.00  0.00    -0.177 N 
ATOM      3  H2  UNL     1       0.406  -1.209   0.931  1.00  0.00     0.185 HD
HETATM    4  C5  UNL     1       2.267  -0.458   0.526  1.00  0.00     0.156 A 
HETATM    5  N3  UNL     1       2.991  -1.430   1.273  1.00  0.00    -0.080 NA
HETATM    6  C6  UNL     1       3.013   0.519  -0.120  1.00  0.00     0.130 A 
HETATM    7  C7  UNL     1       4.448   0.540  -0.034  1.00  0.00     0.106 C 
HETATM    8  N4  UNL     1       5.613   0.552   0.025  1.00  0.00    -0.191 NA
HETATM    9  C8  UNL     1       2.301   1.456  -0.841  1.00  0.00     0.139 A 
HETATM   10  N6  UNL     1       0.958   1.391  -0.890  1.00  0.00    -0.176 N 
ATOM     11  H6  UNL     1       0.454   2.095  -1.429  1.00  0.00     0.186 HD
ENDROOT
BRANCH   9  12
HETATM   12  N5  UNL     1       2.980   2.377  -1.453  1.00  0.00    -0.384 N 
ATOM     13  H52 UNL     1       3.998   2.426  -1.416  1.00  0.00     0.157 HD
ATOM     14  H51 UNL     1       2.454   3.070  -1.986  1.00  0.00     0.157 HD
ENDBRANCH   9  12
BRANCH   1  15
HETATM   15  N1  UNL     1      -1.023   0.476  -0.376  1.00  0.00    -0.226 N 
ATOM     16  H1  UNL     1      -1.403   1.232  -0.945  1.00  0.00     0.177 HD
BRANCH  15  17
HETATM   17  C3  UNL     1      -1.962  -0.424   0.202  1.00  0.00     0.137 C 
BRANCH  17  18
HETATM   18  C2  UNL     1      -3.343  -0.051  -0.300  1.00  0.00     0.016 C 
HETATM   19  C1  UNL     1      -4.423  -0.931   0.241  1.00  0.00     0.006 C 
ENDBRANCH  17  18
ENDBRANCH  15  17
ENDBRANCH   1  15
TORSDOF 4
