REMARK  3 active torsions:
REMARK  status: ('A' for Active; 'I' for Inactive)
REMARK    1  A    between atoms: C2_3  and  N5_11 
REMARK    2  A    between atoms: N2_4  and  N3_6 
REMARK       I    between atoms: N3_6  and  C3_8 
REMARK    3  A    between atoms: N5_11  and  C4_13 
ROOT
HETATM    1  N1  UNL     1       0.100  -0.462  -3.628  1.00  0.00    -0.188 NA
HETATM    2  C1  UNL     1       0.451  -0.330  -2.528  1.00  0.00     0.138 C 
HETATM    3  C2  UNL     1       0.897  -0.184  -1.168  1.00  0.00     0.200 C 
HETATM    4  N2  UNL     1       2.028  -0.721  -0.862  1.00  0.00    -0.273 N 
ATOM      5  H2  UNL     1       2.545  -1.217  -1.588  1.00  0.00     0.189 HD
ENDROOT
BRANCH   3   6
HETATM    6  N5  UNL     1       0.088   0.530  -0.248  1.00  0.00    -0.339 N 
ATOM      7  H5  UNL     1       0.516   0.947   0.579  1.00  0.00     0.163 HD
BRANCH   6   8
HETATM    8  C4  UNL     1      -1.332   0.676  -0.464  1.00  0.00     0.286 C 
HETATM    9  C5  UNL     1      -1.925  -0.715  -0.505  1.00  0.00     0.056 C 
HETATM   10  C6  UNL     1      -2.456  -0.858   0.905  1.00  0.00     0.031 C 
HETATM   11  C7  UNL     1      -3.035   0.548   1.117  1.00  0.00     0.235 C 
HETATM   12  N6  UNL     1      -1.968   1.391   0.598  1.00  0.00    -0.054 N 
ATOM     13  H62 UNL     1      -1.314   1.694   1.320  1.00  0.00     0.279 HD
ATOM     14  H61 UNL     1      -2.294   2.315   0.316  1.00  0.00     0.279 HD
ENDBRANCH   6   8
ENDBRANCH   3   6
BRANCH   4  15
HETATM   15  N3  UNL     1       2.577  -0.654   0.421  1.00  0.00    -0.252 N 
HETATM   16  C3  UNL     1       3.663   0.191   0.742  1.00  0.00     0.347 C 
HETATM   17  N4  UNL     1       4.190   0.229   2.056  1.00  0.00    -0.038 NA
HETATM   18  O1  UNL     1       4.152   0.912  -0.177  1.00  0.00    -0.249 OA
ATOM     19  H3  UNL     1       2.178  -1.239   1.155  1.00  0.00     0.191 HD
ENDBRANCH   4  15
TORSDOF 3
