REMARK  3 active torsions:
REMARK  status: ('A' for Active; 'I' for Inactive)
REMARK       I    between atoms: C1_4  and  N3_6 
REMARK       I    between atoms: N3_6  and  C2_7 
REMARK       I    between atoms: C2_7  and  N4_9 
REMARK    1  A    between atoms: C5_12  and  C6_13 
REMARK    2  A    between atoms: C6_13  and  C7_14 
REMARK    3  A    between atoms: C7_14  and  N5_15 
ROOT
HETATM    1  N1  UNL     1      -4.041   1.398   0.139  1.00  0.00    -0.362 N 
ATOM      2  H11 UNL     1      -3.171   1.870  -0.108  1.00  0.00     0.159 HD
ATOM      3  H12 UNL     1      -5.008   1.713   0.056  1.00  0.00     0.159 HD
HETATM    4  C1  UNL     1      -3.827   0.176   0.657  1.00  0.00     0.266 C 
HETATM    5  N2  UNL     1      -5.024  -0.473   0.997  1.00  0.00    -0.049 NA
HETATM    6  N3  UNL     1      -2.560  -0.237   0.766  1.00  0.00    -0.319 NA
HETATM    7  C2  UNL     1      -1.252  -0.663   0.879  1.00  0.00     0.399 C 
HETATM    8  O1  UNL     1      -0.909  -1.792   1.379  1.00  0.00    -0.230 OA
HETATM    9  N4  UNL     1      -0.137   0.147   0.432  1.00  0.00    -0.317 N 
HETATM   10  C3  UNL     1       0.038   1.437  -0.189  1.00  0.00     0.131 C 
HETATM   11  C4  UNL     1       1.364   1.542   0.501  1.00  0.00     0.045 C 
HETATM   12  C5  UNL     1       1.298   0.013   0.450  1.00  0.00     0.093 C 
ENDROOT
BRANCH  12  13
HETATM   13  C6  UNL     1       1.870  -0.588  -0.799  1.00  0.00     0.052 C 
BRANCH  13  14
HETATM   14  C7  UNL     1       3.384  -0.711  -0.700  1.00  0.00     0.231 C 
BRANCH  14  15
HETATM   15  N5  UNL     1       3.945  -1.276  -1.874  1.00  0.00    -0.079 N 
ATOM     16  H53 UNL     1       3.513  -2.173  -2.097  1.00  0.00     0.274 HD
ATOM     17  H52 UNL     1       3.669  -0.754  -2.706  1.00  0.00     0.274 HD
ATOM     18  H51 UNL     1       4.959  -1.358  -1.808  1.00  0.00     0.274 HD
ENDBRANCH  14  15
ENDBRANCH  13  14
ENDBRANCH  12  13
TORSDOF 3
