REMARK  4 active torsions:
REMARK  status: ('A' for Active; 'I' for Inactive)
REMARK    1  A    between atoms: C2_2  and  C3_3 
REMARK       I    between atoms: C3_3  and  N1_5 
REMARK    2  A    between atoms: N1_5  and  C4_7 
REMARK    3  A    between atoms: C4_7  and  N2_9 
REMARK    4  A    between atoms: N2_9  and  N3_11 
REMARK       I    between atoms: N3_11  and  C5_12 
ROOT
HETATM    1  C4  UNL     1       0.337  -0.383   0.904  1.00  0.00     0.203 C 
HETATM    2  S1  UNL     1       0.823  -1.140   2.309  1.00  0.00    -0.038 SA
ENDROOT
BRANCH   1   3
HETATM    3  N1  UNL     1      -1.021  -0.187   0.775  1.00  0.00    -0.302 N 
HETATM    4  C3  UNL     1      -1.731   0.420  -0.320  1.00  0.00     0.223 C 
HETATM    5  O1  UNL     1      -1.200   0.856  -1.311  1.00  0.00    -0.273 OA
ATOM      6  H1  UNL     1      -1.595  -0.513   1.553  1.00  0.00     0.171 HD
BRANCH   4   7
HETATM    7  C2  UNL     1      -3.246   0.471  -0.168  1.00  0.00     0.099 C 
HETATM    8  C1  UNL     1      -3.907  -0.112  -1.439  1.00  0.00     0.014 C 
ENDBRANCH   4   7
ENDBRANCH   1   3
BRANCH   1   9
HETATM    9  N2  UNL     1       1.381   0.044   0.052  1.00  0.00    -0.204 N 
ATOM     10  H2  UNL     1       1.122   0.595  -0.766  1.00  0.00     0.204 HD
BRANCH   9  11
HETATM   11  N3  UNL     1       2.679  -0.215   0.231  1.00  0.00    -0.265 NA
HETATM   12  C5  UNL     1       3.975  -0.475   0.411  1.00  0.00     0.424 C 
HETATM   13  N4  UNL     1       4.800   0.648   0.727  1.00  0.00    -0.024 NA
HETATM   14  O2  UNL     1       4.578  -1.569   0.336  1.00  0.00    -0.232 OA
ENDBRANCH   9  11
ENDBRANCH   1   9
TORSDOF 4
