REMARK  11 active torsions:
REMARK  status: ('A' for Active; 'I' for Inactive)
REMARK    1  A    between atoms: C5_8  and  C6_9 
REMARK    2  A    between atoms: C6_9  and  C7_10 
REMARK    3  A    between atoms: C7_10  and  C8_11 
REMARK    4  A    between atoms: C8_11  and  C9_12 
REMARK    5  A    between atoms: C9_12  and  C10_13 
REMARK    6  A    between atoms: C10_13  and  C11_14 
REMARK    7  A    between atoms: C11_14  and  C12_15 
REMARK    8  A    between atoms: C12_15  and  C13_16 
REMARK    9  A    between atoms: C13_16  and  C14_17 
REMARK   10  A    between atoms: C14_17  and  C15_18 
REMARK   11  A    between atoms: C15_18  and  N2_19 
ROOT
HETATM    1  C12 UNL     1       0.969  -0.713  -0.180  1.00  0.00     0.000 C 
ENDROOT
BRANCH   1   2
HETATM    2  C11 UNL     1      -0.286  -0.704   0.679  1.00  0.00     0.000 C 
BRANCH   2   3
HETATM    3  C10 UNL     1      -1.466  -1.280  -0.045  1.00  0.00     0.000 C 
BRANCH   3   4
HETATM    4  C9  UNL     1      -2.719  -1.278   0.785  1.00  0.00     0.000 C 
BRANCH   4   5
HETATM    5  C8  UNL     1      -3.148   0.109   1.219  1.00  0.00     0.000 C 
BRANCH   5   6
HETATM    6  C7  UNL     1      -3.420   1.010   0.064  1.00  0.00     0.002 C 
BRANCH   6   7
HETATM    7  C6  UNL     1      -4.493   0.560  -0.864  1.00  0.00     0.025 C 
BRANCH   7   8
HETATM    8  C5  UNL     1      -5.844   0.395  -0.245  1.00  0.00     0.082 C 
HETATM    9  C4  UNL     1      -6.317   1.711   0.337  1.00  0.00     0.025 C 
HETATM   10  C3  UNL     1      -7.780   1.708   0.666  1.00  0.00     0.009 C 
HETATM   11  C2  UNL     1      -8.662   1.303  -0.458  1.00  0.00     0.075 C 
HETATM   12  C1  UNL     1      -8.188   0.011  -1.006  1.00  0.00     0.070 C 
HETATM   13  N1  UNL     1      -9.023  -0.922  -1.300  1.00  0.00    -0.389 N 
HETATM   14  N4  UNL     1      -6.792  -0.160  -1.192  1.00  0.00    -0.376 N 
ATOM     15  H12 UNL     1     -10.027  -0.799  -1.166  1.00  0.00     0.157 HD
ATOM     16  H11 UNL     1      -8.697  -1.812  -1.677  1.00  0.00     0.157 HD
ATOM     17  H4  UNL     1      -6.451  -0.679  -2.001  1.00  0.00     0.161 HD
ENDBRANCH   7   8
ENDBRANCH   6   7
ENDBRANCH   5   6
ENDBRANCH   4   5
ENDBRANCH   3   4
ENDBRANCH   2   3
ENDBRANCH   1   2
BRANCH   1  18
HETATM   18  C13 UNL     1       1.364  -2.083  -0.599  1.00  0.00     0.002 C 
BRANCH  18  19
HETATM   19  C14 UNL     1       2.560  -2.179  -1.462  1.00  0.00     0.020 C 
BRANCH  19  20
HETATM   20  C15 UNL     1       3.852  -1.680  -0.948  1.00  0.00     0.121 C 
BRANCH  20  21
HETATM   21  N2  UNL     1       3.948  -0.301  -0.624  1.00  0.00    -0.379 N 
HETATM   22  C16 UNL     1       5.059   0.142  -0.146  1.00  0.00     0.084 C 
HETATM   23  C17 UNL     1       5.111   1.594   0.177  1.00  0.00     0.160 C 
HETATM   24  N3  UNL     1       6.207  -0.628   0.088  1.00  0.00    -0.345 N 
HETATM   25  C18 UNL     1       6.487   2.099   0.270  1.00  0.00     0.168 C 
HETATM   26  O1  UNL     1       6.681   3.336   0.139  1.00  0.00    -0.292 OA
HETATM   27  C19 UNL     1       7.649   1.266   0.505  1.00  0.00     0.037 A 
HETATM   28  C20 UNL     1       8.893   1.783   0.818  1.00  0.00     0.017 A 
HETATM   29  C24 UNL     1       7.490  -0.095   0.410  1.00  0.00     0.047 A 
HETATM   30  C21 UNL     1       9.993   0.949   1.038  1.00  0.00     0.001 A 
HETATM   31  C22 UNL     1       9.836  -0.419   0.942  1.00  0.00     0.002 A 
HETATM   32  C23 UNL     1       8.590  -0.915   0.631  1.00  0.00     0.030 A 
ATOM     33  H3  UNL     1       6.118  -1.642   0.023  1.00  0.00     0.167 HD
ATOM     34  H2  UNL     1       3.155   0.325  -0.767  1.00  0.00     0.160 HD
ENDBRANCH  20  21
ENDBRANCH  19  20
ENDBRANCH  18  19
ENDBRANCH   1  18
TORSDOF 11
