REMARK  11 active torsions:
REMARK  status: ('A' for Active; 'I' for Inactive)
REMARK    1  A    between atoms: C2_2  and  C3_3 
REMARK    2  A    between atoms: C3_3  and  C4_4 
REMARK    3  A    between atoms: C4_4  and  C5_5 
REMARK    4  A    between atoms: C5_5  and  C6_6 
REMARK    5  A    between atoms: C6_6  and  C7_7 
REMARK    6  A    between atoms: C7_7  and  C8_8 
REMARK    7  A    between atoms: C8_8  and  N1_9 
REMARK    8  A    between atoms: N1_9  and  C9_11 
REMARK    9  A    between atoms: C12_14  and  C13_15 
REMARK   10  A    between atoms: C13_15  and  C14_16 
REMARK   11  A    between atoms: C14_16  and  C15_17 
ROOT
HETATM    1  N1  UNL     1       1.351  -0.009  -0.443  1.00  0.00    -0.390 N 
ATOM      2  H1  UNL     1       0.669   0.744  -0.354  1.00  0.00     0.159 HD
ENDROOT
BRANCH   1   3
HETATM    3  C8  UNL     1       0.895  -1.371  -0.582  1.00  0.00     0.119 C 
BRANCH   3   4
HETATM    4  C7  UNL     1      -0.659  -1.314  -0.559  1.00  0.00     0.020 C 
BRANCH   4   5
HETATM    5  C6  UNL     1      -1.135  -2.687  -0.699  1.00  0.00     0.002 C 
BRANCH   5   6
HETATM    6  C5  UNL     1      -2.564  -2.983  -0.679  1.00  0.00     0.000 C 
BRANCH   6   7
HETATM    7  C4  UNL     1      -3.427  -2.421  -1.688  1.00  0.00     0.004 C 
BRANCH   7   8
HETATM    8  C3  UNL     1      -3.775  -1.013  -1.905  1.00  0.00     0.036 C 
BRANCH   8   9
HETATM    9  C2  UNL     1      -4.541  -0.359  -0.842  1.00  0.00    -0.061 A 
HETATM   10  C1  UNL     1      -5.847  -0.087  -1.070  1.00  0.00     0.018 A 
HETATM   11  C24 UNL     1      -6.719   0.550  -0.121  1.00  0.00    -0.009 A 
HETATM   12  C19 UNL     1      -6.215   0.915   1.107  1.00  0.00     0.038 A 
HETATM   13  C23 UNL     1      -8.047   0.823  -0.364  1.00  0.00     0.013 A 
HETATM   14  N6  UNL     1      -4.862   0.646   1.377  1.00  0.00    -0.385 N 
HETATM   15  C20 UNL     1      -7.054   1.533   2.034  1.00  0.00     0.030 A 
HETATM   16  C18 UNL     1      -3.957   0.080   0.424  1.00  0.00     0.154 A 
ATOM     17  H6  UNL     1      -4.504   0.867   2.306  1.00  0.00     0.160 HD
HETATM   18  C21 UNL     1      -8.379   1.797   1.771  1.00  0.00     0.002 A 
HETATM   19  C22 UNL     1      -8.881   1.431   0.541  1.00  0.00     0.001 A 
ENDBRANCH   8   9
ENDBRANCH   7   8
ENDBRANCH   6   7
ENDBRANCH   5   6
ENDBRANCH   4   5
ENDBRANCH   3   4
ENDBRANCH   1   3
BRANCH   1  20
HETATM   20  C9  UNL     1       2.764   0.300  -0.428  1.00  0.00     0.027 A 
HETATM   21  C10 UNL     1       3.714  -0.687  -0.545  1.00  0.00     0.029 A 
HETATM   22  C11 UNL     1       5.064  -0.394  -0.532  1.00  0.00     0.009 A 
HETATM   23  C12 UNL     1       5.514   0.905  -0.399  1.00  0.00    -0.058 A 
HETATM   24  C16 UNL     1       4.555   1.892  -0.281  1.00  0.00     0.009 A 
HETATM   25  C17 UNL     1       3.203   1.597  -0.295  1.00  0.00     0.029 A 
BRANCH  23  26
HETATM   26  C13 UNL     1       6.971   1.205  -0.387  1.00  0.00     0.046 C 
BRANCH  26  27
HETATM   27  C14 UNL     1       7.420   1.137   1.060  1.00  0.00     0.084 C 
BRANCH  27  28
HETATM   28  C15 UNL     1       8.870   1.423   1.195  1.00  0.00     0.113 A 
HETATM   29  N2  UNL     1       9.789   1.717   0.273  1.00  0.00    -0.272 N 
HETATM   30  N3  UNL     1      10.931   1.881   0.917  1.00  0.00    -0.227 N 
ATOM     31  H2  UNL     1       9.639   1.799  -0.733  1.00  0.00     0.190 HD
HETATM   32  N4  UNL     1      10.773   1.703   2.204  1.00  0.00    -0.227 N 
ATOM     33  H3  UNL     1      11.818   2.115   0.471  1.00  0.00     0.210 HD
HETATM   34  N5  UNL     1       9.499   1.419   2.381  1.00  0.00    -0.272 N 
ATOM     35  H4  UNL     1      11.492   1.771   2.925  1.00  0.00     0.210 HD
ATOM     36  H5  UNL     1       9.058   1.226   3.280  1.00  0.00     0.190 HD
ENDBRANCH  27  28
ENDBRANCH  26  27
ENDBRANCH  23  26
ENDBRANCH   1  20
TORSDOF 11
