REMARK  12 active torsions:
REMARK  status: ('A' for Active; 'I' for Inactive)
REMARK    1  A    between atoms: N1_1  and  C1_5 
REMARK    2  A    between atoms: C1_5  and  C2_6 
REMARK    3  A    between atoms: C2_6  and  C3_7 
REMARK    4  A    between atoms: C3_7  and  C4_8 
REMARK    5  A    between atoms: C4_8  and  C5_9 
REMARK    6  A    between atoms: C5_9  and  C6_10 
REMARK    7  A    between atoms: C6_10  and  C7_11 
REMARK    8  A    between atoms: C10_14  and  C11_15 
REMARK    9  A    between atoms: C11_15  and  C12_16 
REMARK   10  A    between atoms: C12_16  and  N2_17 
REMARK   11  A    between atoms: N2_17  and  C13_19 
REMARK   12  A    between atoms: C16_22  and  C17_23 
ROOT
HETATM    1  N2  UNL     1       0.418   0.934  -0.693  1.00  0.00    -0.390 N 
ATOM      2  H2  UNL     1      -0.088   1.403   0.058  1.00  0.00     0.159 HD
ENDROOT
BRANCH   1   3
HETATM    3  C12 UNL     1      -0.366   0.384  -1.753  1.00  0.00     0.120 C 
BRANCH   3   4
HETATM    4  C11 UNL     1      -0.317  -1.131  -1.828  1.00  0.00     0.024 C 
BRANCH   4   5
HETATM    5  C10 UNL     1      -0.853  -1.642  -0.505  1.00  0.00    -0.012 C 
HETATM    6  C9  UNL     1      -0.873  -3.120  -0.414  1.00  0.00     0.005 C 
HETATM    7  C8  UNL     1      -2.296  -3.531  -0.194  1.00  0.00     0.009 C 
HETATM    8  C7  UNL     1      -2.908  -2.264   0.522  1.00  0.00     0.008 C 
HETATM    9  C25 UNL     1      -2.290  -1.214  -0.292  1.00  0.00     0.013 C 
BRANCH   8  10
HETATM   10  C6  UNL     1      -4.342  -2.484   0.631  1.00  0.00    -0.022 C 
BRANCH  10  11
HETATM   11  C5  UNL     1      -5.265  -1.580   1.260  1.00  0.00    -0.008 C 
BRANCH  11  12
HETATM   12  C4  UNL     1      -5.750  -0.271   0.910  1.00  0.00    -0.027 C 
BRANCH  12  13
HETATM   13  C3  UNL     1      -4.944   0.940   0.752  1.00  0.00     0.028 C 
BRANCH  13  14
HETATM   14  C2  UNL     1      -5.800   2.194   0.508  1.00  0.00     0.031 C 
BRANCH  14  15
HETATM   15  C1  UNL     1      -6.635   2.120  -0.720  1.00  0.00     0.230 C 
BRANCH  15  16
HETATM   16  N1  UNL     1      -7.408   3.352  -0.903  1.00  0.00    -0.079 N 
ATOM     17  H13 UNL     1      -7.968   3.571  -0.079  1.00  0.00     0.274 HD
ATOM     18  H12 UNL     1      -6.808   4.177  -0.905  1.00  0.00     0.274 HD
ATOM     19  H11 UNL     1      -7.981   3.301  -1.745  1.00  0.00     0.274 HD
ENDBRANCH  15  16
ENDBRANCH  14  15
ENDBRANCH  13  14
ENDBRANCH  12  13
ENDBRANCH  11  12
ENDBRANCH  10  11
ENDBRANCH   8  10
ENDBRANCH   4   5
ENDBRANCH   3   4
ENDBRANCH   1   3
BRANCH   1  20
HETATM   20  C13 UNL     1       1.824   0.891  -0.585  1.00  0.00     0.028 A 
HETATM   21  C14 UNL     1       2.645   0.457  -1.615  1.00  0.00     0.030 A 
HETATM   22  C15 UNL     1       4.016   0.422  -1.460  1.00  0.00     0.017 A 
HETATM   23  C16 UNL     1       4.592   0.815  -0.288  1.00  0.00     0.008 A 
HETATM   24  C23 UNL     1       3.814   1.251   0.755  1.00  0.00     0.017 A 
HETATM   25  C24 UNL     1       2.448   1.282   0.590  1.00  0.00     0.030 A 
BRANCH  23  26
HETATM   26  C17 UNL     1       6.058   0.770  -0.141  1.00  0.00     0.117 A 
HETATM   27  N3  UNL     1       6.961   0.372  -1.052  1.00  0.00    -0.326 N 
HETATM   28  C18 UNL     1       8.215   0.465  -0.570  1.00  0.00     0.134 A 
ATOM     29  H3  UNL     1       6.727   0.042  -1.988  1.00  0.00     0.169 HD
HETATM   30  N4  UNL     1       9.441   0.201  -1.059  1.00  0.00    -0.350 N 
HETATM   31  C22 UNL     1       8.079   0.953   0.725  1.00  0.00     0.078 A 
HETATM   32  C19 UNL     1      10.547   0.400  -0.319  1.00  0.00     0.090 A 
ATOM     33  H4  UNL     1       9.533  -0.157  -2.010  1.00  0.00     0.166 HD
HETATM   34  C20 UNL     1      10.483   0.884   0.976  1.00  0.00     0.019 A 
HETATM   35  C21 UNL     1       9.224   1.151   1.469  1.00  0.00     0.035 A 
HETATM   36  N5  UNL     1       6.762   1.125   0.947  1.00  0.00    -0.339 N 
ATOM     37  H5  UNL     1       6.357   1.474   1.816  1.00  0.00     0.167 HD
ENDBRANCH  23  26
ENDBRANCH   1  20
TORSDOF 12
