REMARK  10 active torsions:
REMARK  status: ('A' for Active; 'I' for Inactive)
REMARK    1  A    between atoms: C2_3  and  C3_4 
REMARK    2  A    between atoms: C2_3  and  C12_20 
REMARK    3  A    between atoms: C3_4  and  C4_5 
REMARK    4  A    between atoms: C4_5  and  C5_6 
REMARK    5  A    between atoms: C5_6  and  C6_7 
REMARK    6  A    between atoms: C6_7  and  C7_8 
REMARK    7  A    between atoms: C7_8  and  N2_9 
REMARK    8  A    between atoms: N2_9  and  C8_12 
REMARK    9  A    between atoms: C8_12  and  C9_13 
REMARK   10  A    between atoms: C14_22  and  C15_23 
ROOT
HETATM    1  N1  UNL     1      -1.366   4.459   2.322  1.00  0.00    -0.197 NA
HETATM    2  C1  UNL     1      -1.023   3.444   1.899  1.00  0.00     0.070 C 
HETATM    3  C2  UNL     1      -0.597   2.072   1.338  1.00  0.00     0.142 C 
ENDROOT
BRANCH   3   4
HETATM    4  C3  UNL     1       0.755   2.292   0.842  1.00  0.00     0.025 C 
BRANCH   4   5
HETATM    5  C4  UNL     1       1.477   1.049   0.277  1.00  0.00     0.002 C 
BRANCH   5   6
HETATM    6  C5  UNL     1       1.581   0.025   1.332  1.00  0.00     0.002 C 
BRANCH   6   7
HETATM    7  C6  UNL     1       2.338  -1.203   1.067  1.00  0.00     0.027 C 
BRANCH   7   8
HETATM    8  C7  UNL     1       3.790  -1.149   0.812  1.00  0.00     0.232 C 
BRANCH   8   9
HETATM    9  N2  UNL     1       4.291  -0.686  -0.410  1.00  0.00    -0.069 N 
ATOM     10  H22 UNL     1       4.123  -1.369  -1.149  1.00  0.00     0.277 HD
ATOM     11  H21 UNL     1       3.726   0.088  -0.760  1.00  0.00     0.277 HD
BRANCH   9  12
HETATM   12  C8  UNL     1       5.684  -0.318  -0.366  1.00  0.00     0.308 C 
BRANCH  12  13
HETATM   13  C9  UNL     1       6.667  -1.086  -1.113  1.00  0.00     0.106 A 
HETATM   14  N3  UNL     1       6.861  -1.433  -2.386  1.00  0.00    -0.353 N 
HETATM   15  C10 UNL     1       8.017  -2.105  -2.561  1.00  0.00     0.106 A 
ATOM     16  H3  UNL     1       6.210  -1.215  -3.140  1.00  0.00     0.166 HD
HETATM   17  C11 UNL     1       8.596  -2.187  -1.293  1.00  0.00     0.106 A 
HETATM   18  N4  UNL     1       7.784  -1.576  -0.445  1.00  0.00    -0.353 N 
ATOM     19  H4  UNL     1       7.953  -1.478   0.556  1.00  0.00     0.166 HD
ENDBRANCH  12  13
ENDBRANCH   9  12
ENDBRANCH   8   9
ENDBRANCH   7   8
ENDBRANCH   6   7
ENDBRANCH   5   6
ENDBRANCH   4   5
ENDBRANCH   3   4
BRANCH   3  20
HETATM   20  C12 UNL     1      -1.640   1.800   0.285  1.00  0.00     0.027 A 
HETATM   21  C13 UNL     1      -2.862   1.206   0.561  1.00  0.00     0.040 A 
HETATM   22  C14 UNL     1      -3.592   1.172  -0.636  1.00  0.00    -0.008 A 
HETATM   23  C24 UNL     1      -2.763   1.743  -1.570  1.00  0.00     0.100 A 
HETATM   24  N6  UNL     1      -1.585   2.119  -1.003  1.00  0.00    -0.367 N 
ATOM     25  H6  UNL     1      -0.802   2.565  -1.480  1.00  0.00     0.165 HD
BRANCH  22  26
HETATM   26  C15 UNL     1      -4.962   0.664  -0.777  1.00  0.00    -0.013 A 
HETATM   27  C16 UNL     1      -5.961   1.559  -1.193  1.00  0.00     0.013 A 
HETATM   28  C17 UNL     1      -7.257   1.129  -1.258  1.00  0.00     0.002 A 
HETATM   29  C18 UNL     1      -7.528  -0.178  -0.907  1.00  0.00     0.013 A 
HETATM   30  C19 UNL     1      -6.564  -1.068  -0.499  1.00  0.00    -0.010 A 
HETATM   31  C20 UNL     1      -6.938  -2.372  -0.191  1.00  0.00     0.099 A 
HETATM   32  C23 UNL     1      -5.248  -0.636  -0.432  1.00  0.00    -0.012 A 
HETATM   33  N5  UNL     1      -5.951  -3.223   0.184  1.00  0.00    -0.374 N 
HETATM   34  C21 UNL     1      -4.674  -2.835   0.253  1.00  0.00     0.088 A 
ATOM     35  H5  UNL     1      -6.190  -4.186   0.420  1.00  0.00     0.164 HD
HETATM   36  C22 UNL     1      -4.280  -1.530  -0.053  1.00  0.00     0.030 A 
ENDBRANCH  22  26
ENDBRANCH   3  20
TORSDOF 10
