REMARK  14 active torsions:
REMARK  status: ('A' for Active; 'I' for Inactive)
REMARK    1  A    between atoms: N2_13  and  C8_14 
REMARK    2  A    between atoms: C8_14  and  C9_15 
REMARK    3  A    between atoms: C9_15  and  C10_16 
REMARK    4  A    between atoms: C10_16  and  C11_17 
REMARK    5  A    between atoms: C12_18  and  N3_19 
REMARK    6  A    between atoms: N3_19  and  C13_21 
REMARK    7  A    between atoms: C17_29  and  C18_30 
REMARK    8  A    between atoms: C18_30  and  O3_31 
REMARK    9  A    between atoms: C19_33  and  O4_34 
REMARK   10  A    between atoms: O4_34  and  C20_35 
REMARK   11  A    between atoms: C20_35  and  C21_36 
REMARK   12  A    between atoms: C21_36  and  O5_37 
REMARK   13  A    between atoms: C21_36  and  C22_39 
REMARK   14  A    between atoms: C22_39  and  O6_40 
ROOT
HETATM    1  C13 UNL     1      -1.232   0.731   0.840  1.00  0.00     0.120 A 
HETATM    2  N4  UNL     1      -0.433   0.952   1.867  1.00  0.00    -0.338 N 
ATOM      3  H4  UNL     1       0.554   0.716   1.767  1.00  0.00     0.168 HD
HETATM    4  C14 UNL     1      -0.844   1.469   3.034  1.00  0.00     0.182 A 
HETATM    5  N5  UNL     1      -2.154   1.794   3.165  1.00  0.00    -0.351 N 
ATOM      6  H5  UNL     1      -2.492   2.195   4.040  1.00  0.00     0.166 HD
HETATM    7  C15 UNL     1      -3.018   1.588   2.137  1.00  0.00     0.049 A 
HETATM    8  C16 UNL     1      -4.337   2.008   2.252  1.00  0.00     0.042 A 
HETATM    9  C17 UNL     1      -5.173   1.858   1.182  1.00  0.00     0.002 A 
HETATM   10  C19 UNL     1      -4.784   1.302  -0.019  1.00  0.00     0.095 A 
HETATM   11  C23 UNL     1      -3.444   0.885  -0.135  1.00  0.00     0.061 A 
HETATM   12 BR1  UNL     1      -2.806   0.175  -1.763  1.00  0.00    -0.047 Br
HETATM   13  C24 UNL     1      -2.587   1.040   0.944  1.00  0.00     0.055 A 
ENDROOT
BRANCH   1  14
HETATM   14  N3  UNL     1      -0.773   0.697  -0.448  1.00  0.00    -0.352 N 
ATOM     15  H3  UNL     1      -1.353   0.495  -1.262  1.00  0.00     0.166 HD
BRANCH  14  16
HETATM   16  C12 UNL     1       0.608   0.979  -0.501  1.00  0.00     0.085 C 
HETATM   17  C11 UNL     1       1.828   0.366  -0.685  1.00  0.00    -0.010 C 
BRANCH  17  18
HETATM   18  C10 UNL     1       2.394  -0.284  -1.942  1.00  0.00     0.030 C 
BRANCH  18  19
HETATM   19  C9  UNL     1       3.774  -0.614  -1.523  1.00  0.00     0.024 C 
BRANCH  19  20
HETATM   20  C8  UNL     1       4.837  -1.163  -2.389  1.00  0.00     0.136 C 
BRANCH  20  21
HETATM   21  N2  UNL     1       6.001  -1.261  -1.431  1.00  0.00    -0.279 N 
HETATM   22  C1  UNL     1       6.955  -0.260  -1.110  1.00  0.00     0.263 A 
HETATM   23  O1  UNL     1       7.002   0.870  -1.674  1.00  0.00    -0.267 OA
HETATM   24  C2  UNL     1       7.836  -0.763  -0.042  1.00  0.00     0.066 A 
HETATM   25  C3  UNL     1       8.875  -0.168   0.638  1.00  0.00     0.045 A 
HETATM   26  C6  UNL     1       7.423  -2.070   0.279  1.00  0.00     0.117 A 
HETATM   27  C4  UNL     1       9.556  -0.851   1.659  1.00  0.00     0.050 A 
HETATM   28 CL1  UNL     1      10.867  -0.120   2.512  1.00  0.00    -0.083 Cl
HETATM   29  C5  UNL     1       9.124  -2.119   1.931  1.00  0.00     0.112 A 
HETATM   30  N1  UNL     1       8.099  -2.688   1.261  1.00  0.00    -0.359 N 
ATOM     31  H1  UNL     1       7.824  -3.637   1.514  1.00  0.00     0.165 HD
HETATM   32  C7  UNL     1       6.281  -2.369  -0.590  1.00  0.00     0.278 A 
HETATM   33  O2  UNL     1       5.618  -3.431  -0.620  1.00  0.00    -0.265 OA
ENDBRANCH  20  21
ENDBRANCH  19  20
ENDBRANCH  18  19
ENDBRANCH  17  18
ENDBRANCH  14  16
ENDBRANCH   1  14
BRANCH  10  34
HETATM   34  O4  UNL     1      -5.683   1.199  -1.025  1.00  0.00    -0.346 OA
BRANCH  34  35
HETATM   35  C20 UNL     1      -6.765   0.313  -1.084  1.00  0.00     0.209 C 
BRANCH  35  36
HETATM   36  C21 UNL     1      -6.508  -1.129  -0.939  1.00  0.00     0.166 C 
BRANCH  36  37
HETATM   37  O5  UNL     1      -5.799  -1.490   0.180  1.00  0.00    -0.391 OA
ATOM     38  H5  UNL     1      -5.633  -2.421   0.274  1.00  0.00     0.210 HD
ENDBRANCH  36  37
BRANCH  36  39
HETATM   39  C22 UNL     1      -6.229  -1.850  -2.205  1.00  0.00     0.198 C 
BRANCH  39  40
HETATM   40  O6  UNL     1      -6.526  -3.233  -2.005  1.00  0.00    -0.398 OA
ATOM     41  H6  UNL     1      -6.347  -3.695  -2.816  1.00  0.00     0.209 HD
ENDBRANCH  39  40
ENDBRANCH  36  39
ENDBRANCH  35  36
ENDBRANCH  34  35
ENDBRANCH  10  34
BRANCH   9  42
HETATM   42  C18 UNL     1      -6.614   2.296   1.211  1.00  0.00     0.205 C 
BRANCH  42  43
HETATM   43  O3  UNL     1      -6.825   3.399   0.362  1.00  0.00    -0.396 OA
ATOM     44  H3  UNL     1      -7.734   3.675   0.380  1.00  0.00     0.209 HD
ENDBRANCH  42  43
ENDBRANCH   9  42
TORSDOF 14
