REMARK  13 active torsions:
REMARK  status: ('A' for Active; 'I' for Inactive)
REMARK    1  A    between atoms: O1_2  and  C2_3 
REMARK    2  A    between atoms: C2_3  and  C3_4 
REMARK    3  A    between atoms: C3_4  and  O2_5 
REMARK    4  A    between atoms: O2_5  and  C4_6 
REMARK    5  A    between atoms: C4_6  and  N1_7 
REMARK    6  A    between atoms: C4_6  and  C5_11 
REMARK    7  A    between atoms: C5_11  and  N2_12 
REMARK       I    between atoms: N2_12  and  C6_14 
REMARK    8  A    between atoms: C6_14  and  C7_16 
REMARK    9  A    between atoms: C13_25  and  C14_26 
REMARK   10  A    between atoms: C14_26  and  N5_27 
REMARK   11  A    between atoms: N5_27  and  C16_29 
REMARK   12  A    between atoms: C16_29  and  C17_30 
REMARK       I    between atoms: C17_30  and  N6_32 
REMARK   13  A    between atoms: N6_32  and  C18_33 
ROOT
HETATM    1  C7  UNL     1       2.110   0.949  -0.665  1.00  0.00     0.056 A 
HETATM    2  C8  UNL     1       2.937   1.054   0.478  1.00  0.00     0.051 A 
HETATM    3  C9  UNL     1       2.592   0.495   1.659  1.00  0.00     0.063 A 
HETATM    4  C10 UNL     1       1.426  -0.190   1.805  1.00  0.00     0.019 A 
HETATM    5  C11 UNL     1       1.299  -0.647   3.104  1.00  0.00     0.121 A 
HETATM    6  N3  UNL     1       2.386  -0.240   3.742  1.00  0.00    -0.309 N 
ATOM      7  H3  UNL     1       2.592  -0.420   4.725  1.00  0.00     0.186 HD
HETATM    8  N4  UNL     1       3.174   0.443   2.902  1.00  0.00    -0.296 N 
HETATM    9  C12 UNL     1       4.420   1.120   3.151  1.00  0.00     0.178 C 
HETATM   10  C13 UNL     1       0.616  -0.268   0.664  1.00  0.00    -0.004 A 
HETATM   11  C26 UNL     1       0.958   0.286  -0.535  1.00  0.00     0.058 A 
HETATM   12 CL2  UNL     1      -0.109   0.079  -1.924  1.00  0.00    -0.083 Cl
ENDROOT
BRANCH  10  13
HETATM   13  C14 UNL     1      -0.650  -1.101   0.892  1.00  0.00     0.158 C 
BRANCH  13  14
HETATM   14  N5  UNL     1      -1.701  -0.344   0.416  1.00  0.00    -0.403 N 
HETATM   15  C15 UNL     1      -1.649   0.923   1.375  1.00  0.00     0.144 C 
BRANCH  14  16
HETATM   16  C16 UNL     1      -2.905  -0.363  -0.126  1.00  0.00     0.236 C 
BRANCH  16  17
HETATM   17  C17 UNL     1      -4.013  -0.882   0.883  1.00  0.00     0.311 C 
HETATM   18  O4  UNL     1      -3.471  -1.463   1.895  1.00  0.00    -0.255 OA
HETATM   19  N6  UNL     1      -5.257  -0.682   0.655  1.00  0.00    -0.350 NA
BRANCH  19  20
HETATM   20  C18 UNL     1      -6.434  -0.510   0.419  1.00  0.00     0.190 A 
HETATM   21  N7  UNL     1      -7.133   0.344   1.273  1.00  0.00    -0.334 N 
HETATM   22  C19 UNL     1      -8.378   0.722   1.051  1.00  0.00     0.015 A 
ATOM     23  H7  UNL     1      -6.660   0.692   2.107  1.00  0.00     0.168 HD
HETATM   24  C20 UNL     1      -9.019   1.696   1.994  1.00  0.00     0.069 C 
HETATM   25  C21 UNL     1      -9.103   0.310  -0.037  1.00  0.00    -0.017 A 
HETATM   26  C22 UNL     1     -10.492   0.771  -0.251  1.00  0.00     0.052 C 
HETATM   27  C23 UNL     1      -8.432  -0.554  -0.921  1.00  0.00     0.052 A 
HETATM   28 CL1  UNL     1      -9.300  -1.063  -2.331  1.00  0.00    -0.083 Cl
HETATM   29  C24 UNL     1      -7.131  -0.940  -0.673  1.00  0.00     0.019 A 
HETATM   30  C25 UNL     1      -6.497  -1.925  -1.610  1.00  0.00     0.055 C 
ENDBRANCH  19  20
ENDBRANCH  16  17
ENDBRANCH  14  16
ENDBRANCH  13  14
ENDBRANCH  10  13
BRANCH   1  31
HETATM   31  C6  UNL     1       2.844   1.328  -1.927  1.00  0.00     0.253 C 
HETATM   32  N2  UNL     1       3.962   0.497  -2.151  1.00  0.00    -0.353 N 
ATOM     33  H2  UNL     1       4.049  -0.248  -1.460  1.00  0.00     0.162 HD
HETATM   34  O3  UNL     1       2.447   2.272  -2.573  1.00  0.00    -0.268 OA
BRANCH  32  35
HETATM   35  C5  UNL     1       5.000   0.470  -3.134  1.00  0.00     0.184 C 
BRANCH  35  36
HETATM   36  C4  UNL     1       6.077  -0.467  -2.518  1.00  0.00     0.336 C 
BRANCH  36  37
HETATM   37  O2  UNL     1       7.276  -0.522  -3.128  1.00  0.00    -0.356 OA
BRANCH  37  38
HETATM   38  C3  UNL     1       8.242   0.038  -2.209  1.00  0.00     0.196 C 
BRANCH  38  39
HETATM   39  C2  UNL     1       8.396  -0.747  -0.966  1.00  0.00     0.193 C 
BRANCH  39  40
HETATM   40  O1  UNL     1       9.330  -0.149  -0.117  1.00  0.00    -0.394 OA
HETATM   41  C1  UNL     1       8.925   1.120   0.289  1.00  0.00     0.201 C 
ENDBRANCH  39  40
ENDBRANCH  38  39
ENDBRANCH  37  38
ENDBRANCH  36  37
BRANCH  36  42
HETATM   42  N1  UNL     1       5.532  -1.803  -2.452  1.00  0.00    -0.051 N 
ATOM     43  H13 UNL     1       5.485  -2.252  -3.367  1.00  0.00     0.277 HD
ATOM     44  H12 UNL     1       6.168  -2.463  -2.005  1.00  0.00     0.277 HD
ATOM     45  H11 UNL     1       4.624  -1.761  -1.990  1.00  0.00     0.277 HD
ENDBRANCH  36  42
ENDBRANCH  35  36
ENDBRANCH  32  35
ENDBRANCH   1  31
TORSDOF 13
