REMARK  15 active torsions:
REMARK  status: ('A' for Active; 'I' for Inactive)
REMARK    1  A    between atoms: N1_1  and  C1_5 
REMARK    2  A    between atoms: C3_7  and  N2_8 
REMARK    3  A    between atoms: C4_12  and  O1_13 
REMARK    4  A    between atoms: O1_13  and  C5_14 
REMARK    5  A    between atoms: C5_14  and  C6_15 
REMARK    6  A    between atoms: C7_17  and  N3_18 
REMARK    7  A    between atoms: C13_31  and  O4_32 
REMARK    8  A    between atoms: N7_34  and  N8_35 
REMARK    9  A    between atoms: C14_38  and  N9_39 
REMARK       I    between atoms: N9_39  and  C15_41 
REMARK   10  A    between atoms: C15_41  and  C16_43 
REMARK   11  A    between atoms: C16_43  and  O6_44 
REMARK   12  A    between atoms: C16_43  and  C17_46 
REMARK   13  A    between atoms: C17_46  and  O7_47 
REMARK   14  A    between atoms: C17_46  and  O8_49 
REMARK   15  A    between atoms: C18_51  and  O9_52 
ROOT
HETATM    1  C1  UNL     1      -3.112  -0.995  -3.676  1.00  0.00     0.216 C 
HETATM    2  C2  UNL     1      -2.651  -2.432  -3.717  1.00  0.00     0.070 C 
HETATM    3  C3  UNL     1      -1.373  -2.459  -2.871  1.00  0.00     0.216 C 
HETATM    4  C4  UNL     1      -1.593  -2.074  -1.453  1.00  0.00     0.177 C 
HETATM    5  C14 UNL     1      -2.604  -1.015  -1.195  1.00  0.00     0.146 C 
HETATM    6  C18 UNL     1      -3.546  -0.689  -2.289  1.00  0.00     0.173 C 
ENDROOT
BRANCH   4   7
HETATM    7  O1  UNL     1      -0.352  -1.589  -0.981  1.00  0.00    -0.378 OA
BRANCH   7   8
HETATM    8  C5  UNL     1       0.201  -2.383  -0.008  1.00  0.00     0.217 C 
BRANCH   8   9
HETATM    9  C6  UNL     1       1.511  -1.756   0.394  1.00  0.00     0.244 C 
HETATM   10  O2  UNL     1       1.343  -0.473   0.913  1.00  0.00    -0.338 OA
HETATM   11  C7  UNL     1       2.681  -0.243   1.322  1.00  0.00     0.277 C 
HETATM   12  C13 UNL     1       2.907  -1.447   2.201  1.00  0.00     0.263 C 
HETATM   13  N7  UNL     1       2.214  -2.492   1.427  1.00  0.00    -0.174 NA
BRANCH  11  14
HETATM   14  N3  UNL     1       2.818   1.014   1.991  1.00  0.00    -0.296 N 
HETATM   15  C8  UNL     1       2.088   1.546   2.979  1.00  0.00     0.188 A 
HETATM   16  N4  UNL     1       2.575   2.770   3.308  1.00  0.00    -0.345 N 
HETATM   17  C9  UNL     1       3.626   3.034   2.530  1.00  0.00     0.146 A 
ATOM     18  H4  UNL     1       2.200   3.385   4.030  1.00  0.00     0.167 HD
HETATM   19  C10 UNL     1       4.473   4.118   2.446  1.00  0.00     0.277 A 
HETATM   20  C12 UNL     1       3.769   1.920   1.704  1.00  0.00     0.144 A 
HETATM   21  O3  UNL     1       4.386   5.140   3.163  1.00  0.00    -0.266 OA
HETATM   22  N5  UNL     1       5.459   4.064   1.525  1.00  0.00    -0.318 N 
HETATM   23  C11 UNL     1       5.619   3.005   0.719  1.00  0.00     0.185 A 
ATOM     24  H5  UNL     1       6.101   4.852   1.440  1.00  0.00     0.169 HD
HETATM   25  N6  UNL     1       4.789   1.969   0.817  1.00  0.00    -0.336 N 
ATOM     26  H6  UNL     1       4.929   1.174   0.193  1.00  0.00     0.168 HD
ENDBRANCH  11  14
BRANCH  12  27
HETATM   27  O4  UNL     1       2.274  -1.232   3.410  1.00  0.00    -0.375 OA
ATOM     28  H4  UNL     1       2.416  -1.991   3.964  1.00  0.00     0.211 HD
ENDBRANCH  12  27
BRANCH  13  29
HETATM   29  N8  UNL     1       1.363  -3.231   2.240  1.00  0.00    -0.359 NA
ATOM     30  H82 UNL     1       0.883  -3.954   1.704  1.00  0.00     0.171 HD
ATOM     31  H81 UNL     1       1.857  -3.749   2.967  1.00  0.00     0.171 HD
ENDBRANCH  13  29
ENDBRANCH   8   9
ENDBRANCH   7   8
ENDBRANCH   4   7
BRANCH   3  32
HETATM   32  N2  UNL     1      -0.845  -3.798  -2.987  1.00  0.00    -0.072 N 
ATOM     33  H23 UNL     1      -1.516  -4.523  -2.733  1.00  0.00     0.274 HD
ATOM     34  H22 UNL     1      -0.700  -4.096  -3.952  1.00  0.00     0.274 HD
ATOM     35  H21 UNL     1       0.005  -3.816  -2.424  1.00  0.00     0.274 HD
ENDBRANCH   3  32
BRANCH   5  36
HETATM   36  N9  UNL     1      -1.979   0.206  -0.669  1.00  0.00    -0.349 N 
HETATM   37  C15 UNL     1      -2.206   0.690   0.642  1.00  0.00     0.251 C 
HETATM   38  O5  UNL     1      -2.980   0.035   1.379  1.00  0.00    -0.270 OA
ATOM     39  H9  UNL     1      -1.351   0.731  -1.278  1.00  0.00     0.163 HD
BRANCH  37  40
HETATM   40  C16 UNL     1      -1.560   1.924   1.142  1.00  0.00     0.264 C 
BRANCH  40  41
HETATM   41  O6  UNL     1      -0.741   2.515   0.200  1.00  0.00    -0.381 OA
ATOM     42  H6  UNL     1      -0.326   3.307   0.521  1.00  0.00     0.210 HD
ENDBRANCH  40  41
BRANCH  40  43
HETATM   43  C17 UNL     1      -2.647   2.882   1.647  1.00  0.00     0.291 C 
BRANCH  43  44
HETATM   44  O7  UNL     1      -3.405   3.253   0.531  1.00  0.00    -0.368 OA
ATOM     45  H7  UNL     1      -4.078   3.846   0.844  1.00  0.00     0.212 HD
ENDBRANCH  43  44
BRANCH  43  46
HETATM   46  O8  UNL     1      -2.120   3.957   2.316  1.00  0.00    -0.368 OA
ATOM     47  H8  UNL     1      -2.793   4.550   2.629  1.00  0.00     0.212 HD
ENDBRANCH  43  46
ENDBRANCH  40  43
ENDBRANCH  37  40
ENDBRANCH   5  36
BRANCH   6  48
HETATM   48  O9  UNL     1      -4.789  -1.271  -2.059  1.00  0.00    -0.391 OA
ATOM     49  H9  UNL     1      -5.067  -1.075  -1.172  1.00  0.00     0.210 HD
ENDBRANCH   6  48
BRANCH   1  50
HETATM   50  N1  UNL     1      -2.087  -0.153  -4.207  1.00  0.00    -0.072 N 
ATOM     51  H13 UNL     1      -1.194  -0.286  -3.732  1.00  0.00     0.274 HD
ATOM     52  H12 UNL     1      -1.798  -0.439  -5.142  1.00  0.00     0.274 HD
ATOM     53  H11 UNL     1      -2.398   0.818  -4.179  1.00  0.00     0.274 HD
ENDBRANCH   1  50
TORSDOF 15
