REMARK  17 active torsions:
REMARK  status: ('A' for Active; 'I' for Inactive)
REMARK    1  A    between atoms: N1_2  and  C2_3 
REMARK    2  A    between atoms: N1_2  and  S1_18 
REMARK    3  A    between atoms: C2_3  and  O1_4 
REMARK    4  A    between atoms: C2_3  and  C3_6 
REMARK    5  A    between atoms: C3_6  and  N2_7 
REMARK    6  A    between atoms: C3_6  and  C4_11 
REMARK    7  A    between atoms: C4_11  and  O2_12 
REMARK    8  A    between atoms: C4_11  and  N3_14 
REMARK    9  A    between atoms: N3_14  and  N4_15 
REMARK   10  A    between atoms: S1_18  and  O5_21 
REMARK   11  A    between atoms: O5_21  and  C5_22 
REMARK   12  A    between atoms: C6_24  and  N5_25 
REMARK   13  A    between atoms: C9_30  and  N7_31 
REMARK   14  A    between atoms: C10_36  and  N9_37 
REMARK   15  A    between atoms: C12_43  and  O7_44 
REMARK   16  A    between atoms: C13_46  and  O8_47 
REMARK   17  A    between atoms: C14_49  and  N11_50 
ROOT
HETATM    1  C5  UNL     1       0.521   0.260   0.182  1.00  0.00     0.316 C 
HETATM    2  O6  UNL     1       1.463   0.896   0.890  1.00  0.00    -0.330 OA
HETATM    3  C6  UNL     1       2.742   0.490   0.914  1.00  0.00     0.265 C 
HETATM    4  C12 UNL     1       2.848  -1.011   0.950  1.00  0.00     0.198 C 
HETATM    5  C13 UNL     1       2.242  -1.507  -0.321  1.00  0.00     0.186 C 
HETATM    6  C14 UNL     1       0.797  -1.093  -0.343  1.00  0.00     0.270 C 
ENDROOT
BRANCH   1   7
HETATM    7  O5  UNL     1      -0.645   0.178   0.984  1.00  0.00    -0.224 OA
BRANCH   7   8
HETATM    8  S1  UNL     1      -1.910   1.062   0.388  1.00  0.00     0.364 S 
HETATM    9  O3  UNL     1      -2.520   1.822   1.557  1.00  0.00    -0.175 OA
HETATM   10  O4  UNL     1      -1.464   2.100  -0.621  1.00  0.00    -0.175 OA
BRANCH   8  11
HETATM   11  N1  UNL     1      -3.086   0.084  -0.294  1.00  0.00    -0.263 N 
HETATM   12  C1  UNL     1      -2.988  -0.230  -1.651  1.00  0.00     0.168 C 
BRANCH  11  13
HETATM   13  C2  UNL     1      -3.911  -0.668   0.541  1.00  0.00     0.266 C 
BRANCH  13  14
HETATM   14  O1  UNL     1      -3.807  -2.054   0.403  1.00  0.00    -0.374 OA
ATOM     15  H1  UNL     1      -4.369  -2.566   0.972  1.00  0.00     0.212 HD
ENDBRANCH  13  14
BRANCH  13  16
HETATM   16  C3  UNL     1      -5.359  -0.216   0.461  1.00  0.00     0.278 C 
BRANCH  16  17
HETATM   17  N2  UNL     1      -5.404   1.203   0.606  1.00  0.00    -0.067 N 
ATOM     18  H23 UNL     1      -4.942   1.523   1.457  1.00  0.00     0.275 HD
ATOM     19  H22 UNL     1      -4.807   1.683  -0.068  1.00  0.00     0.275 HD
ATOM     20  H21 UNL     1      -6.376   1.507   0.552  1.00  0.00     0.275 HD
ENDBRANCH  16  17
BRANCH  16  21
HETATM   21  C4  UNL     1      -6.047  -0.678  -0.775  1.00  0.00     0.265 C 
BRANCH  21  22
HETATM   22  O2  UNL     1      -5.929  -2.092  -0.818  1.00  0.00    -0.376 OA
ATOM     23  H2  UNL     1      -6.368  -2.387  -1.607  1.00  0.00     0.211 HD
ENDBRANCH  21  22
BRANCH  21  24
HETATM   24  N3  UNL     1      -7.449  -0.321  -0.697  1.00  0.00    -0.114 NA
BRANCH  24  25
HETATM   25  N4  UNL     1      -7.644   1.031  -0.626  1.00  0.00    -0.346 N 
ATOM     26  H42 UNL     1      -6.876   1.702  -0.629  1.00  0.00     0.172 HD
ATOM     27  H41 UNL     1      -8.631   1.282  -0.571  1.00  0.00     0.172 HD
ENDBRANCH  24  25
ENDBRANCH  21  24
ENDBRANCH  16  21
ENDBRANCH  13  16
ENDBRANCH  11  13
ENDBRANCH   8  11
ENDBRANCH   7   8
ENDBRANCH   1   7
BRANCH   6  28
HETATM   28  N11 UNL     1       0.068  -2.112   0.420  1.00  0.00    -0.068 N 
ATOM     29 3H11 UNL     1       0.267  -2.048   1.418  1.00  0.00     0.275 HD
ATOM     30 2H11 UNL     1      -0.933  -1.916   0.448  1.00  0.00     0.275 HD
ATOM     31 1H11 UNL     1       0.259  -3.046   0.058  1.00  0.00     0.275 HD
ENDBRANCH   6  28
BRANCH   3  32
HETATM   32  N5  UNL     1       3.597   1.043  -0.117  1.00  0.00    -0.297 N 
HETATM   33  C7  UNL     1       3.284   1.579  -1.295  1.00  0.00     0.188 A 
HETATM   34  N6  UNL     1       4.417   1.955  -1.912  1.00  0.00    -0.346 N 
HETATM   35  C8  UNL     1       5.475   1.657  -1.119  1.00  0.00     0.123 A 
ATOM     36  H6  UNL     1       4.472   2.395  -2.831  1.00  0.00     0.167 HD
HETATM   37  C9  UNL     1       6.837   1.828  -1.268  1.00  0.00     0.145 A 
HETATM   38  C11 UNL     1       4.937   1.087  -0.003  1.00  0.00     0.157 A 
HETATM   39  N8  UNL     1       7.640   1.408  -0.259  1.00  0.00    -0.175 N 
HETATM   40  C10 UNL     1       7.131   0.845   0.848  1.00  0.00     0.679 A 
ATOM     41  H8  UNL     1       8.650   1.522  -0.343  1.00  0.00     0.186 HD
HETATM   42  N10 UNL     1       5.804   0.687   0.973  1.00  0.00    -0.174 N 
ATOM     43  H10 UNL     1       5.433   0.256   1.820  1.00  0.00     0.186 HD
BRANCH  37  44
HETATM   44  N7  UNL     1       7.286   2.366  -2.332  1.00  0.00    -0.383 N 
ATOM     45  H72 UNL     1       6.682   2.682  -3.091  1.00  0.00     0.157 HD
ATOM     46  H71 UNL     1       8.292   2.492  -2.442  1.00  0.00     0.157 HD
ENDBRANCH  37  44
BRANCH  40  47
HETATM   47  N9  UNL     1       7.944   0.456   1.793  1.00  0.00    -0.234 N 
ATOM     48  H92 UNL     1       8.952   0.576   1.698  1.00  0.00     0.174 HD
ATOM     49  H91 UNL     1       7.557   0.028   2.634  1.00  0.00     0.174 HD
ENDBRANCH  40  47
ENDBRANCH   3  32
BRANCH   5  50
HETATM   50  O8  UNL     1       2.384  -2.881  -0.458  1.00  0.00    -0.391 OA
ATOM     51  H8  UNL     1       1.998  -3.197  -1.267  1.00  0.00     0.210 HD
ENDBRANCH   5  50
BRANCH   4  52
HETATM   52  O7  UNL     1       2.098  -1.453   2.039  1.00  0.00    -0.389 OA
ATOM     53  H7  UNL     1       2.165  -2.400   2.062  1.00  0.00     0.210 HD
ENDBRANCH   4  52
TORSDOF 17
