REMARK  14 active torsions:
REMARK  status: ('A' for Active; 'I' for Inactive)
REMARK    1  A    between atoms: N1_1  and  C1_4 
REMARK    2  A    between atoms: N3_8  and  C3_9 
REMARK    3  A    between atoms: C4_11  and  C5_12 
REMARK    4  A    between atoms: C5_12  and  O2_13 
REMARK    5  A    between atoms: C5_12  and  C6_15 
REMARK    6  A    between atoms: C6_15  and  O3_16 
REMARK    7  A    between atoms: C6_15  and  C7_18 
REMARK       I    between atoms: C7_18  and  N4_20 
REMARK    8  A    between atoms: N4_20  and  C8_22 
REMARK    9  A    between atoms: C8_22  and  C9_23 
REMARK   10  A    between atoms: C9_23  and  O5_24 
REMARK   11  A    between atoms: C10_27  and  C11_28 
REMARK   12  A    between atoms: C13_35  and  O10_36 
REMARK   13  A    between atoms: C14_38  and  O11_39 
REMARK   14  A    between atoms: C15_41  and  O12_42 
ROOT
HETATM    1  C3  UNL     1      -3.827  -1.210  -0.183  1.00  0.00     0.280 C 
HETATM    2  O1  UNL     1      -2.571  -0.887   0.322  1.00  0.00    -0.351 OA
HETATM    3  C4  UNL     1      -1.596  -1.034  -0.662  1.00  0.00     0.187 C 
HETATM    4  C13 UNL     1      -1.768   0.063  -1.637  1.00  0.00     0.181 C 
HETATM    5  C14 UNL     1      -3.080  -0.227  -2.387  1.00  0.00     0.182 C 
HETATM    6  C15 UNL     1      -3.914  -1.248  -1.671  1.00  0.00     0.200 C 
ENDROOT
BRANCH   3   7
HETATM    7  C5  UNL     1      -0.245  -1.298  -0.121  1.00  0.00     0.187 C 
BRANCH   7   8
HETATM    8  O2  UNL     1      -0.345  -2.505   0.618  1.00  0.00    -0.390 OA
ATOM      9  H2  UNL     1       0.523  -2.675   0.965  1.00  0.00     0.210 HD
ENDBRANCH   7   8
BRANCH   7  10
HETATM   10  C6  UNL     1       0.353  -0.303   0.801  1.00  0.00     0.241 C 
BRANCH  10  11
HETATM   11  O3  UNL     1       0.545   0.963   0.255  1.00  0.00    -0.383 OA
ATOM     12  H3  UNL     1       0.928   1.601   0.846  1.00  0.00     0.210 HD
ENDBRANCH  10  11
BRANCH  10  13
HETATM   13  C7  UNL     1       1.724  -0.816   1.152  1.00  0.00     0.249 C 
HETATM   14  O4  UNL     1       1.859  -1.952   1.677  1.00  0.00    -0.271 OA
HETATM   15  N4  UNL     1       2.900  -0.057   0.912  1.00  0.00    -0.353 N 
ATOM     16  H4  UNL     1       2.816   0.867   0.488  1.00  0.00     0.162 HD
BRANCH  15  17
HETATM   17  C8  UNL     1       4.203  -0.554   1.250  1.00  0.00     0.201 C 
BRANCH  17  18
HETATM   18  C9  UNL     1       5.220   0.488   0.866  1.00  0.00     0.264 C 
HETATM   19  O6  UNL     1       6.531   0.052   1.100  1.00  0.00    -0.310 OA
HETATM   20  C10 UNL     1       7.260   1.006   0.369  1.00  0.00     0.330 C 
HETATM   21  N5  UNL     1       6.610   0.920  -0.927  1.00  0.00    -0.321 N 
HETATM   22  C12 UNL     1       5.233   0.635  -0.613  1.00  0.00     0.284 C 
ATOM     23  H5  UNL     1       7.032   1.035  -1.849  1.00  0.00     0.165 HD
HETATM   24  O9  UNL     1       4.290   0.540  -1.422  1.00  0.00    -0.267 OA
BRANCH  18  25
HETATM   25  O5  UNL     1       4.996   1.667   1.533  1.00  0.00    -0.357 OA
ATOM     26  H5  UNL     1       5.638   2.324   1.291  1.00  0.00     0.213 HD
ENDBRANCH  18  25
BRANCH  20  27
HETATM   27  C11 UNL     1       8.692   0.691   0.297  1.00  0.00     0.224 C 
HETATM   28  O7  UNL     1       9.291   0.383  -0.758  1.00  0.00    -0.645 OA
HETATM   29  O8  UNL     1       9.428   0.736   1.472  1.00  0.00    -0.645 OA
ENDBRANCH  20  27
ENDBRANCH  17  18
ENDBRANCH  15  17
ENDBRANCH  10  13
ENDBRANCH   7  10
ENDBRANCH   3   7
BRANCH   4  30
HETATM   30  O10 UNL     1      -1.962   1.327  -1.077  1.00  0.00    -0.390 OA
ATOM     31  H10 UNL     1      -2.073   2.032  -1.704  1.00  0.00     0.210 HD
ENDBRANCH   4  30
BRANCH   1  32
HETATM   32  N3  UNL     1      -4.849  -0.341   0.406  1.00  0.00    -0.210 N 
HETATM   33  N2  UNL     1      -5.348   0.701  -0.237  1.00  0.00    -0.300 N 
HETATM   34  C2  UNL     1      -6.286   1.506   0.290  1.00  0.00     0.155 A 
ATOM     35  H2  UNL     1      -5.005   0.903  -1.176  1.00  0.00     0.186 HD
HETATM   36  C1  UNL     1      -6.772   1.262   1.559  1.00  0.00     0.119 A 
HETATM   37  N6  UNL     1      -6.264   0.201   2.212  1.00  0.00    -0.292 N 
HETATM   38  C16 UNL     1      -5.325  -0.577   1.645  1.00  0.00     0.345 A 
ATOM     39  H6  UNL     1      -6.596  -0.017   3.152  1.00  0.00     0.172 HD
HETATM   40  O13 UNL     1      -4.854  -1.580   2.282  1.00  0.00    -0.245 OA
BRANCH  36  41
HETATM   41  N1  UNL     1      -7.679   2.017   2.101  1.00  0.00    -0.384 N 
ATOM     42  H12 UNL     1      -8.064   2.821   1.606  1.00  0.00     0.157 HD
ATOM     43  H11 UNL     1      -8.038   1.837   3.039  1.00  0.00     0.157 HD
ENDBRANCH  36  41
ENDBRANCH   1  32
BRANCH   5  44
HETATM   44  O11 UNL     1      -2.795  -0.752  -3.657  1.00  0.00    -0.390 OA
ATOM     45  H11 UNL     1      -3.605  -0.931  -4.120  1.00  0.00     0.210 HD
ENDBRANCH   5  44
BRANCH   6  46
HETATM   46  O12 UNL     1      -5.257  -1.009  -2.049  1.00  0.00    -0.388 OA
ATOM     47  H12 UNL     1      -5.312  -1.033  -2.997  1.00  0.00     0.210 HD
ENDBRANCH   6  46
TORSDOF 14
