REMARK  13 active torsions:
REMARK  status: ('A' for Active; 'I' for Inactive)
REMARK    1  A    between atoms: C1_2  and  C2_4 
REMARK    2  A    between atoms: C3_8  and  O2_9 
REMARK    3  A    between atoms: C3_8  and  C4_11 
REMARK    4  A    between atoms: C4_11  and  O3_12 
REMARK    5  A    between atoms: C4_11  and  O4_14 
REMARK    6  A    between atoms: C5_16  and  N3_17 
REMARK    7  A    between atoms: C6_20  and  C7_21 
REMARK    8  A    between atoms: C9_26  and  O5_27 
REMARK    9  A    between atoms: C10_29  and  O6_30 
REMARK   10  A    between atoms: C13_38  and  O9_39 
REMARK   11  A    between atoms: C13_38  and  C14_41 
REMARK   12  A    between atoms: C14_41  and  O10_42 
REMARK   13  A    between atoms: O10_42  and  S1_43 
ROOT
HETATM    1  C2  UNL     1      -1.936   0.197   1.078  1.00  0.00     0.316 C 
HETATM    2  N2  UNL     1      -1.194  -0.974   1.449  1.00  0.00    -0.020 N 
ATOM      3  H21 UNL     1      -1.379  -1.293   2.400  1.00  0.00     0.282 HD
ATOM      4  H22 UNL     1      -0.195  -0.805   1.571  1.00  0.00     0.282 HD
HETATM    5  C3  UNL     1      -1.503  -1.977   0.418  1.00  0.00     0.300 C 
HETATM    6  C5  UNL     1      -1.506  -1.129  -0.853  1.00  0.00     0.220 C 
HETATM    7  C13 UNL     1      -2.173   0.096  -0.374  1.00  0.00     0.144 C 
ENDROOT
BRANCH   6   8
HETATM    8  N3  UNL     1      -0.186  -0.956  -1.375  1.00  0.00    -0.229 N 
HETATM    9  N4  UNL     1       0.817  -0.382  -0.731  1.00  0.00    -0.291 N 
HETATM   10  C6  UNL     1       2.049  -0.222  -1.222  1.00  0.00     0.127 A 
ATOM     11  H4  UNL     1       0.636  -0.036   0.211  1.00  0.00     0.187 HD
HETATM   12  C11 UNL     1       2.326  -0.679  -2.493  1.00  0.00     0.275 A 
HETATM   13  O7  UNL     1       3.469  -0.536  -2.963  1.00  0.00    -0.266 OA
HETATM   14  N6  UNL     1       1.313  -1.271  -3.173  1.00  0.00    -0.272 N 
HETATM   15  C12 UNL     1       0.095  -1.398  -2.614  1.00  0.00     0.344 A 
ATOM     16  H6  UNL     1       1.475  -1.623  -4.116  1.00  0.00     0.173 HD
HETATM   17  O8  UNL     1      -0.800  -1.964  -3.314  1.00  0.00    -0.245 OA
BRANCH  10  18
HETATM   18  C7  UNL     1       3.149   0.437  -0.447  1.00  0.00     0.273 C 
HETATM   19  N5  UNL     1       4.285  -0.414  -0.287  1.00  0.00    -0.060 N 
HETATM   20  C8  UNL     1       4.818  -0.225   1.032  1.00  0.00     0.267 C 
ATOM     21  H52 UNL     1       4.072  -1.391  -0.486  1.00  0.00     0.278 HD
ATOM     22  H51 UNL     1       4.985  -0.272  -1.015  1.00  0.00     0.278 HD
HETATM   23  C9  UNL     1       3.816   0.522   1.848  1.00  0.00     0.174 C 
HETATM   24  C10 UNL     1       2.690   0.874   0.905  1.00  0.00     0.185 C 
BRANCH  23  25
HETATM   25  O5  UNL     1       4.412   1.641   2.415  1.00  0.00    -0.391 OA
ATOM     26  H5  UNL     1       3.774   2.116   2.934  1.00  0.00     0.210 HD
ENDBRANCH  23  25
BRANCH  24  27
HETATM   27  O6  UNL     1       2.357   2.227   0.966  1.00  0.00    -0.390 OA
ATOM     28  H6  UNL     1       2.065   2.505   1.826  1.00  0.00     0.210 HD
ENDBRANCH  24  27
ENDBRANCH  10  18
ENDBRANCH   6   8
BRANCH   5  29
HETATM   29  O2  UNL     1      -2.772  -2.506   0.593  1.00  0.00    -0.359 OA
ATOM     30  H2  UNL     1      -2.972  -3.154  -0.073  1.00  0.00     0.212 HD
ENDBRANCH   5  29
BRANCH   5  31
HETATM   31  C4  UNL     1      -0.437  -3.013   0.458  1.00  0.00     0.320 C 
BRANCH  31  32
HETATM   32  O3  UNL     1      -0.652  -4.022  -0.510  1.00  0.00    -0.367 OA
ATOM     33  H3  UNL     1       0.029  -4.684  -0.484  1.00  0.00     0.212 HD
ENDBRANCH  31  32
BRANCH  31  34
HETATM   34  O4  UNL     1      -0.554  -3.702   1.691  1.00  0.00    -0.367 OA
ATOM     35  H4  UNL     1       0.127  -4.364   1.717  1.00  0.00     0.212 HD
ENDBRANCH  31  34
ENDBRANCH   5  31
BRANCH   7  36
HETATM   36  O9  UNL     1      -3.574  -0.143  -0.524  1.00  0.00    -0.383 OA
ATOM     37  H9  UNL     1      -3.727  -0.208  -1.459  1.00  0.00     0.210 HD
ENDBRANCH   7  36
BRANCH   7  38
HETATM   38  C14 UNL     1      -1.847   1.338  -1.156  1.00  0.00     0.236 C 
BRANCH  38  39
HETATM   39  O10 UNL     1      -2.566   2.433  -0.687  1.00  0.00    -0.254 OA
BRANCH  39  40
HETATM   40  S1  UNL     1      -2.238   3.827  -1.521  1.00  0.00     0.251 S 
HETATM   41  O11 UNL     1      -1.453   4.798  -0.688  1.00  0.00    -0.572 OA
HETATM   42  O12 UNL     1      -1.424   3.515  -2.740  1.00  0.00    -0.572 OA
HETATM   43  O13 UNL     1      -3.631   4.612  -2.034  1.00  0.00    -0.572 OA
ENDBRANCH  39  40
ENDBRANCH  38  39
ENDBRANCH   7  38
BRANCH   1  44
HETATM   44  C1  UNL     1      -3.198   0.249   1.879  1.00  0.00     0.265 C 
HETATM   45  N1  UNL     1      -4.074   1.342   1.659  1.00  0.00    -0.060 NA
HETATM   46  O1  UNL     1      -3.512  -0.622   2.726  1.00  0.00    -0.274 OA
ENDBRANCH   1  44
TORSDOF 13
