REMARK  14 active torsions:
REMARK  status: ('A' for Active; 'I' for Inactive)
REMARK    1  A    between atoms: N1_1  and  N2_4 
REMARK       I    between atoms: N2_4  and  C1_6 
REMARK    2  A    between atoms: C1_6  and  C2_8 
REMARK       I    between atoms: C2_8  and  N3_10 
REMARK    3  A    between atoms: N3_10  and  C3_12 
REMARK    4  A    between atoms: C3_12  and  N4_13 
REMARK    5  A    between atoms: C3_12  and  C14_45 
REMARK    6  A    between atoms: N4_13  and  N5_15 
REMARK    7  A    between atoms: C4_17  and  C5_18 
REMARK    8  A    between atoms: C6_19  and  O3_20 
REMARK    9  A    between atoms: C7_22  and  O4_23 
REMARK   10  A    between atoms: C8_25  and  N6_26 
REMARK   11  A    between atoms: C9_29  and  C10_30 
REMARK   12  A    between atoms: C11_35  and  N10_36 
REMARK   13  A    between atoms: C12_39  and  O8_40 
REMARK   14  A    between atoms: C13_42  and  O9_43 
ROOT
HETATM    1  C5  UNL     1       0.304   0.956  -0.660  1.00  0.00     0.088 C 
HETATM    2  C6  UNL     1       0.906   0.223  -1.811  1.00  0.00     0.160 C 
HETATM    3  C7  UNL     1       2.395   0.381  -1.832  1.00  0.00     0.175 C 
HETATM    4  C8  UNL     1       2.887  -0.343  -0.569  1.00  0.00     0.174 C 
HETATM    5  C12 UNL     1       2.482   0.566   0.574  1.00  0.00     0.175 C 
HETATM    6  C13 UNL     1       1.033   0.886   0.628  1.00  0.00     0.160 C 
ENDROOT
BRANCH   1   7
HETATM    7  C4  UNL     1      -1.094   0.425  -0.443  1.00  0.00     0.089 C 
HETATM    8  N5  UNL     1      -1.313  -0.529   0.378  1.00  0.00    -0.317 N 
ATOM      9  H5  UNL     1      -0.539  -0.942   0.898  1.00  0.00     0.185 HD
BRANCH   8  10
HETATM   10  N4  UNL     1      -2.604  -1.004   0.562  1.00  0.00    -0.305 N 
ATOM     11  H4  UNL     1      -2.820  -1.984   0.378  1.00  0.00     0.183 HD
BRANCH  10  12
HETATM   12  C3  UNL     1      -3.638  -0.107   1.014  1.00  0.00     0.290 C 
BRANCH  12  13
HETATM   13  N3  UNL     1      -4.871  -0.912   1.055  1.00  0.00    -0.323 N 
HETATM   14  C2  UNL     1      -6.022  -0.595   0.334  1.00  0.00     0.313 C 
HETATM   15  O2  UNL     1      -6.040   0.424  -0.397  1.00  0.00    -0.262 OA
ATOM     16  H3  UNL     1      -4.884  -1.746   1.642  1.00  0.00     0.165 HD
BRANCH  14  17
HETATM   17  C1  UNL     1      -7.198  -1.440   0.426  1.00  0.00     0.327 C 
HETATM   18  N2  UNL     1      -8.355  -1.096  -0.317  1.00  0.00    -0.268 N 
ATOM     19  H2  UNL     1      -8.348  -0.263  -0.906  1.00  0.00     0.190 HD
HETATM   20  O1  UNL     1      -7.226  -2.477   1.147  1.00  0.00    -0.261 OA
BRANCH  18  21
HETATM   21  N1  UNL     1      -9.520  -1.897  -0.250  1.00  0.00    -0.342 N 
ATOM     22  H12 UNL     1      -9.510  -2.727   0.343  1.00  0.00     0.176 HD
ATOM     23  H11 UNL     1     -10.353  -1.649  -0.785  1.00  0.00     0.176 HD
ENDBRANCH  18  21
ENDBRANCH  14  17
ENDBRANCH  12  13
BRANCH  12  24
HETATM   24  C14 UNL     1      -3.304   0.338   2.400  1.00  0.00     0.275 C 
HETATM   25  N11 UNL     1      -2.165   1.142   2.632  1.00  0.00    -0.059 NA
HETATM   26  O10 UNL     1      -4.019   0.015   3.381  1.00  0.00    -0.272 OA
ENDBRANCH  12  24
ENDBRANCH  10  12
ENDBRANCH   8  10
ENDBRANCH   1   7
BRANCH   2  27
HETATM   27  O3  UNL     1       0.639  -1.160  -1.761  1.00  0.00    -0.392 OA
ATOM     28  H3  UNL     1       1.022  -1.627  -2.494  1.00  0.00     0.210 HD
ENDBRANCH   2  27
BRANCH   6  29
HETATM   29  O9  UNL     1       0.931   2.153   1.256  1.00  0.00    -0.392 OA
ATOM     30  H9  UNL     1       1.398   2.108   2.082  1.00  0.00     0.210 HD
ENDBRANCH   6  29
BRANCH   3  31
HETATM   31  O4  UNL     1       2.987  -0.147  -2.960  1.00  0.00    -0.391 OA
ATOM     32  H4  UNL     1       3.932  -0.047  -2.973  1.00  0.00     0.210 HD
ENDBRANCH   3  31
BRANCH   5  33
HETATM   33  O8  UNL     1       2.879  -0.057   1.756  1.00  0.00    -0.391 OA
ATOM     34  H8  UNL     1       2.625   0.513   2.472  1.00  0.00     0.210 HD
ENDBRANCH   5  33
BRANCH   4  35
HETATM   35  N6  UNL     1       4.336  -0.335  -0.610  1.00  0.00    -0.245 N 
HETATM   36  N7  UNL     1       4.969   0.771  -1.040  1.00  0.00    -0.276 N 
HETATM   37  C9  UNL     1       6.276   0.544  -0.985  1.00  0.00     0.189 A 
ATOM     38  H7  UNL     1       4.523   1.633  -1.353  1.00  0.00     0.189 HD
HETATM   39  N9  UNL     1       6.439  -0.711  -0.516  1.00  0.00    -0.303 N 
HETATM   40  C11 UNL     1       5.227  -1.258  -0.283  1.00  0.00     0.269 A 
ATOM     41  H9  UNL     1       7.335  -1.173  -0.362  1.00  0.00     0.171 HD
BRANCH  37  42
HETATM   42  C10 UNL     1       7.294   1.500  -1.371  1.00  0.00     0.300 C 
HETATM   43  N8  UNL     1       6.927   2.760  -1.866  1.00  0.00    -0.054 NA
HETATM   44  O5  UNL     1       8.494   1.197  -1.261  1.00  0.00    -0.268 OA
ENDBRANCH  37  42
BRANCH  40  45
HETATM   45  N10 UNL     1       4.943  -2.557   0.214  1.00  0.00    -0.077 N 
HETATM   46  O6  UNL     1       3.821  -3.027   0.421  1.00  0.00    -0.529 OA
HETATM   47  O7  UNL     1       5.998  -3.420   0.512  1.00  0.00    -0.529 OA
ENDBRANCH  40  45
ENDBRANCH   4  35
TORSDOF 14
