REMARK  15 active torsions:
REMARK  status: ('A' for Active; 'I' for Inactive)
REMARK    1  A    between atoms: N2_7  and  C5_8 
REMARK    2  A    between atoms: C6_12  and  O2_13 
REMARK    3  A    between atoms: O2_13  and  N4_14 
REMARK    4  A    between atoms: C7_17  and  C8_18 
REMARK    5  A    between atoms: C8_18  and  O3_19 
REMARK    6  A    between atoms: C8_18  and  N5_21 
REMARK    7  A    between atoms: C9_23  and  C10_24 
REMARK    8  A    between atoms: C10_24  and  O4_25 
REMARK    9  A    between atoms: C10_24  and  C11_27 
REMARK   10  A    between atoms: C11_27  and  O5_28 
REMARK   11  A    between atoms: C11_27  and  C12_30 
REMARK   12  A    between atoms: C12_30  and  O6_31 
REMARK   13  A    between atoms: C13_33  and  O7_34 
REMARK   14  A    between atoms: C14_36  and  O8_37 
REMARK   15  A    between atoms: C15_39  and  O9_40 
ROOT
HETATM    1  C5  UNL     1      -1.236   0.688   0.138  1.00  0.00     0.340 C 
HETATM    2  N3  UNL     1      -0.211  -0.234  -0.231  1.00  0.00    -0.021 N 
ATOM      3  H31 UNL     1      -0.409  -0.715  -1.109  1.00  0.00     0.283 HD
ATOM      4  H32 UNL     1      -0.184  -1.057   0.371  1.00  0.00     0.283 HD
HETATM    5  C6  UNL     1       1.071   0.501  -0.256  1.00  0.00     0.362 C 
HETATM    6  C7  UNL     1       1.526   0.605   1.139  1.00  0.00     0.124 C 
HETATM    7  C13 UNL     1       1.180   1.929   1.790  1.00  0.00     0.162 C 
HETATM    8  C14 UNL     1      -0.259   2.219   1.900  1.00  0.00     0.180 C 
HETATM    9  C15 UNL     1      -1.227   1.149   1.555  1.00  0.00     0.201 C 
ENDROOT
BRANCH   6  10
HETATM   10  C8  UNL     1       2.999   0.402   1.317  1.00  0.00     0.228 C 
BRANCH  10  11
HETATM   11  O3  UNL     1       3.151   0.631   2.751  1.00  0.00    -0.376 OA
ATOM     12  H3  UNL     1       4.085   0.502   2.864  1.00  0.00     0.212 HD
ENDBRANCH  10  11
BRANCH  10  13
HETATM   13  N5  UNL     1       3.467  -0.871   1.120  1.00  0.00    -0.374 N 
HETATM   14  C9  UNL     1       3.515  -1.674   0.019  1.00  0.00     0.092 C 
ATOM     15  H5  UNL     1       3.855  -1.301   1.960  1.00  0.00     0.161 HD
BRANCH  14  16
HETATM   16  C10 UNL     1       4.431  -1.318  -1.111  1.00  0.00     0.187 C 
BRANCH  16  17
HETATM   17  O4  UNL     1       4.325  -2.266  -2.124  1.00  0.00    -0.388 OA
ATOM     18  H4  UNL     1       4.906  -2.040  -2.841  1.00  0.00     0.210 HD
ENDBRANCH  16  17
BRANCH  16  19
HETATM   19  C11 UNL     1       5.874  -1.285  -0.657  1.00  0.00     0.175 C 
BRANCH  19  20
HETATM   20  O5  UNL     1       6.001  -0.339   0.364  1.00  0.00    -0.391 OA
ATOM     21  H5  UNL     1       6.907  -0.318   0.649  1.00  0.00     0.210 HD
ENDBRANCH  19  20
BRANCH  19  22
HETATM   22  C12 UNL     1       6.688  -0.798  -1.865  1.00  0.00     0.198 C 
BRANCH  22  23
HETATM   23  O6  UNL     1       8.032  -0.653  -1.528  1.00  0.00    -0.398 OA
ATOM     24  H6  UNL     1       8.535  -0.352  -2.275  1.00  0.00     0.209 HD
ENDBRANCH  22  23
ENDBRANCH  19  22
ENDBRANCH  16  19
ENDBRANCH  14  16
ENDBRANCH  10  13
ENDBRANCH   6  10
BRANCH   5  25
HETATM   25  O2  UNL     1       0.770   1.807  -0.717  1.00  0.00    -0.253 OA
BRANCH  25  26
HETATM   26  N4  UNL     1       1.421   2.079  -1.861  1.00  0.00    -0.309 N 
ATOM     27  H42 UNL     1       2.047   1.420  -2.325  1.00  0.00     0.184 HD
ATOM     28  H41 UNL     1       1.204   3.019  -2.193  1.00  0.00     0.184 HD
ENDBRANCH  25  26
ENDBRANCH   5  25
BRANCH   7  29
HETATM   29  O7  UNL     1       1.829   2.932   1.072  1.00  0.00    -0.392 OA
ATOM     30  H7  UNL     1       1.612   3.762   1.480  1.00  0.00     0.210 HD
ENDBRANCH   7  29
BRANCH   8  31
HETATM   31  O8  UNL     1      -0.601   3.401   1.228  1.00  0.00    -0.390 OA
ATOM     32  H8  UNL     1      -1.530   3.588   1.299  1.00  0.00     0.210 HD
ENDBRANCH   8  31
BRANCH   1  33
HETATM   33  N2  UNL     1      -2.562   0.110  -0.120  1.00  0.00    -0.267 N 
HETATM   34  C4  UNL     1      -2.872  -1.148  -0.443  1.00  0.00     0.133 A 
HETATM   35  C3  UNL     1      -4.231  -1.209  -0.588  1.00  0.00     0.095 A 
HETATM   36  C2  UNL     1      -5.155  -2.202  -0.910  1.00  0.00     0.266 A 
HETATM   37  C16 UNL     1      -4.746   0.055  -0.342  1.00  0.00     0.143 A 
HETATM   38  N1  UNL     1      -6.452  -1.886  -0.961  1.00  0.00    -0.270 N 
HETATM   39  O1  UNL     1      -4.704  -3.364  -1.138  1.00  0.00    -0.267 OA
HETATM   40  C1  UNL     1      -7.409  -2.917  -1.296  1.00  0.00     0.164 C 
HETATM   41  C18 UNL     1      -6.913  -0.640  -0.714  1.00  0.00     0.332 A 
HETATM   42  N7  UNL     1      -6.056   0.345  -0.401  1.00  0.00    -0.288 N 
HETATM   43  O10 UNL     1      -8.132  -0.349  -0.765  1.00  0.00    -0.246 OA
HETATM   44  C17 UNL     1      -6.464   1.699  -0.124  1.00  0.00     0.163 C 
HETATM   45  N6  UNL     1      -3.678   0.830  -0.059  1.00  0.00    -0.281 N 
ATOM     46  H6  UNL     1      -3.721   1.823   0.169  1.00  0.00     0.189 HD
ENDBRANCH   1  33
BRANCH   9  47
HETATM   47  O9  UNL     1      -1.246   0.092   2.480  1.00  0.00    -0.389 OA
ATOM     48  H9  UNL     1      -1.240   0.386   3.383  1.00  0.00     0.210 HD
ENDBRANCH   9  47
TORSDOF 15
