REMARK  5 active torsions:
REMARK  status: ('A' for Active; 'I' for Inactive)
REMARK    1  A    between atoms: N1_1  and  C1_5 
REMARK    2  A    between atoms: C1_5  and  O1_6 
REMARK    3  A    between atoms: C1_5  and  C2_8 
REMARK    4  A    between atoms: C2_8  and  N2_9 
REMARK    5  A    between atoms: N2_9  and  C3_11 
ROOT
HETATM    1  C3  UNL     1      -0.230   0.414  -0.078  1.00  0.00     0.132 A 
HETATM    2  N3  UNL     1      -0.153   1.732  -0.279  1.00  0.00    -0.337 N 
ATOM      3  H3  UNL     1       0.760   2.172  -0.396  1.00  0.00     0.168 HD
HETATM    4  C4  UNL     1      -1.273   2.491  -0.329  1.00  0.00     0.182 A 
HETATM    5  N4  UNL     1      -2.494   1.957  -0.181  1.00  0.00    -0.346 N 
ATOM      6  H4  UNL     1      -3.319   2.556  -0.225  1.00  0.00     0.167 HD
HETATM    7  C5  UNL     1      -2.636   0.639   0.025  1.00  0.00     0.132 A 
HETATM    8  C6  UNL     1      -3.889   0.084   0.178  1.00  0.00     0.275 A 
HETATM    9  O2  UNL     1      -4.952   0.750   0.139  1.00  0.00    -0.266 OA
HETATM   10  N5  UNL     1      -3.995  -1.239   0.382  1.00  0.00    -0.318 N 
ATOM     11  H5  UNL     1      -4.912  -1.671   0.499  1.00  0.00     0.169 HD
HETATM   12  C7  UNL     1      -2.878  -1.989   0.431  1.00  0.00     0.184 A 
HETATM   13  N6  UNL     1      -1.649  -1.460   0.283  1.00  0.00    -0.347 N 
ATOM     14  H6  UNL     1      -0.833  -2.071   0.329  1.00  0.00     0.167 HD
HETATM   15  C8  UNL     1      -1.475  -0.143   0.076  1.00  0.00     0.110 A 
ENDROOT
BRANCH   1  16
HETATM   16  N2  UNL     1       0.839  -0.289  -0.033  1.00  0.00    -0.370 N 
ATOM     17  H2  UNL     1       0.745  -1.293   0.123  1.00  0.00     0.161 HD
BRANCH  16  18
HETATM   18  C2  UNL     1       2.151   0.242  -0.187  1.00  0.00     0.182 C 
BRANCH  18  19
HETATM   19  C1  UNL     1       3.129  -0.937  -0.164  1.00  0.00     0.334 C 
BRANCH  19  20
HETATM   20  N1  UNL     1       4.498  -0.450  -0.342  1.00  0.00    -0.051 N 
ATOM     21  H13 UNL     1       4.817   0.106   0.451  1.00  0.00     0.277 HD
ATOM     22  H12 UNL     1       5.186  -1.200  -0.279  1.00  0.00     0.277 HD
ATOM     23  H11 UNL     1       4.562   0.060  -1.223  1.00  0.00     0.277 HD
ENDBRANCH  19  20
BRANCH  19  24
HETATM   24  O1  UNL     1       3.042  -1.629   1.030  1.00  0.00    -0.369 OA
ATOM     25  H1  UNL     1       2.154  -1.945   1.146  1.00  0.00     0.212 HD
ENDBRANCH  19  24
ENDBRANCH  18  19
ENDBRANCH  16  18
ENDBRANCH   1  16
TORSDOF 5
