REMARK  4 active torsions:
REMARK  status: ('A' for Active; 'I' for Inactive)
REMARK    1  A    between atoms: O1_2  and  S1_3 
REMARK    2  A    between atoms: S1_3  and  N1_5 
REMARK    3  A    between atoms: S1_3  and  C2_10 
REMARK    4  A    between atoms: N1_5  and  N2_7 
ROOT
HETATM    1  C2  UNL     1       0.553   0.104  -0.048  1.00  0.00     0.194 A 
HETATM    2  N3  UNL     1       1.111   1.018  -0.895  1.00  0.00    -0.283 N 
ATOM      3  H3  UNL     1       0.490   1.607  -1.449  1.00  0.00     0.188 HD
HETATM    4  N4  UNL     1       2.414   1.177  -1.032  1.00  0.00    -0.250 N 
ATOM      5  H4  UNL     1       2.797   1.870  -1.675  1.00  0.00     0.192 HD
HETATM    6  C3  UNL     1       3.218   0.392  -0.294  1.00  0.00     0.340 A 
HETATM    7  O3  UNL     1       4.473   0.546  -0.426  1.00  0.00    -0.245 OA
HETATM    8  N5  UNL     1       2.710  -0.518   0.548  1.00  0.00    -0.291 N 
ATOM      9  H5  UNL     1       3.352  -1.095   1.091  1.00  0.00     0.172 HD
HETATM   10  C4  UNL     1       1.365  -0.703   0.708  1.00  0.00     0.144 A 
HETATM   11  N6  UNL     1       0.980  -1.613   1.523  1.00  0.00    -0.383 N 
ATOM     12  H61 UNL     1       1.584  -2.213   2.085  1.00  0.00     0.157 HD
ATOM     13  H62 UNL     1      -0.024  -1.751   1.642  1.00  0.00     0.157 HD
ENDROOT
BRANCH   1  14
HETATM   14  S1  UNL     1      -1.184  -0.010   0.035  1.00  0.00     0.212 S 
HETATM   15  O2  UNL     1      -1.597  -0.149   1.461  1.00  0.00    -0.213 OA
BRANCH  14  16
HETATM   16  O1  UNL     1      -1.802  -1.188  -0.974  1.00  0.00    -0.290 OA
HETATM   17  C1  UNL     1      -2.938  -1.786  -0.447  1.00  0.00     0.224 C 
ENDBRANCH  14  16
BRANCH  14  18
HETATM   18  N1  UNL     1      -1.772   1.414  -0.404  1.00  0.00    -0.240 N 
ATOM     19  H1  UNL     1      -2.366   1.532  -1.225  1.00  0.00     0.198 HD
BRANCH  18  20
HETATM   20  N2  UNL     1      -1.412   2.480   0.418  1.00  0.00    -0.336 N 
ATOM     21  H22 UNL     1      -0.817   2.347   1.236  1.00  0.00     0.177 HD
ATOM     22  H21 UNL     1      -1.786   3.387   0.138  1.00  0.00     0.177 HD
ENDBRANCH  18  20
ENDBRANCH  14  18
ENDBRANCH   1  14
TORSDOF 4
