REMARK  5 active torsions:
REMARK  status: ('A' for Active; 'I' for Inactive)
REMARK    1  A    between atoms: C2_2  and  N1_5 
REMARK       I    between atoms: N1_5  and  C5_7 
REMARK       I    between atoms: C5_7  and  N4_12 
REMARK    2  A    between atoms: N4_12  and  N5_14 
REMARK    3  A    between atoms: C7_16  and  C8_17 
REMARK    4  A    between atoms: C13_22  and  O1_23 
REMARK    5  A    between atoms: O1_23  and  C14_24 
ROOT
HETATM    1  N1  UNL     1      -1.927  -0.008  -0.324  1.00  0.00    -0.216 N 
ATOM      2  H1  UNL     1      -1.131   0.452  -0.766  1.00  0.00     0.178 HD
HETATM    3  C5  UNL     1      -1.769  -1.373   0.034  1.00  0.00     0.702 C 
HETATM    4  N2  UNL     1      -2.672  -2.263  -0.163  1.00  0.00    -0.125 N 
ATOM      5  H2  UNL     1      -3.552  -1.987  -0.598  1.00  0.00     0.197 HD
HETATM    6  C6  UNL     1      -2.485  -3.597   0.201  1.00  0.00     0.196 C 
HETATM    7  N3  UNL     1      -2.327  -4.714   0.512  1.00  0.00    -0.171 NA
HETATM    8  N4  UNL     1      -0.548  -1.809   0.649  1.00  0.00    -0.132 N 
ATOM      9  H4  UNL     1      -0.285  -2.793   0.597  1.00  0.00     0.205 HD
ENDROOT
BRANCH   1  10
HETATM   10  C2  UNL     1      -3.089   0.770  -0.122  1.00  0.00     0.036 C 
HETATM   11  C1  UNL     1      -2.868   2.173  -0.635  1.00  0.00     0.038 C 
HETATM   12  C3  UNL     1      -4.335   0.241  -0.774  1.00  0.00     0.038 C 
HETATM   13  C4  UNL     1      -3.380   0.890   1.364  1.00  0.00     0.038 C 
ENDBRANCH   1  10
BRANCH   8  14
HETATM   14  N5  UNL     1       0.257  -0.944   1.293  1.00  0.00    -0.297 N 
HETATM   15  C7  UNL     1       1.325  -0.367   1.196  1.00  0.00     0.121 C 
ATOM     16  H5  UNL     1      -0.183  -0.677   2.174  1.00  0.00     0.186 HD
BRANCH  15  17
HETATM   17  C8  UNL     1       2.269  -0.463   0.103  1.00  0.00     0.014 A 
HETATM   18  C9  UNL     1       2.013  -1.262  -0.972  1.00  0.00     0.015 A 
HETATM   19  C10 UNL     1       2.917  -1.358  -2.026  1.00  0.00     0.001 A 
HETATM   20  C11 UNL     1       4.083  -0.639  -1.983  1.00  0.00     0.003 A 
HETATM   21  C12 UNL     1       4.355   0.177  -0.895  1.00  0.00     0.038 A 
HETATM   22  C13 UNL     1       3.469   0.269   0.134  1.00  0.00     0.086 A 
BRANCH  22  23
HETATM   23  O1  UNL     1       3.668   1.044   1.227  1.00  0.00    -0.289 OA
BRANCH  23  24
HETATM   24  C14 UNL     1       4.749   1.866   1.526  1.00  0.00     0.505 C 
HETATM   25  F1  UNL     1       5.241   1.446   2.764  1.00  0.00    -0.184 F 
HETATM   26  F2  UNL     1       4.250   3.161   1.742  1.00  0.00    -0.184 F 
ENDBRANCH  23  24
ENDBRANCH  22  23
ENDBRANCH  15  17
ENDBRANCH   8  14
TORSDOF 5
