REMARK  7 active torsions:
REMARK  status: ('A' for Active; 'I' for Inactive)
REMARK    1  A    between atoms: C2_2  and  C4_4 
REMARK    2  A    between atoms: C2_2  and  C10_20 
REMARK    3  A    between atoms: C6_9  and  C7_10 
REMARK    4  A    between atoms: C7_10  and  N2_11 
REMARK    5  A    between atoms: C7_10  and  C8_15 
REMARK    6  A    between atoms: C8_15  and  C9_16 
REMARK    7  A    between atoms: C9_16  and  O1_17 
ROOT
HETATM    1  C4  UNL     1       1.442  -0.058   0.460  1.00  0.00     0.137 A 
HETATM    2  N1  UNL     1       1.395  -0.545   1.700  1.00  0.00    -0.331 N 
ATOM      3  H1  UNL     1       2.211  -0.712   2.289  1.00  0.00     0.168 HD
HETATM    4  C5  UNL     1       0.133  -0.784   2.065  1.00  0.00     0.113 A 
HETATM    5 BR1  UNL     1      -0.617  -1.453   3.678  1.00  0.00    -0.028 Br
HETATM    6  C6  UNL     1      -0.618  -0.407   0.960  1.00  0.00     0.119 A 
HETATM    7  O2  UNL     1       0.198   0.017   0.029  1.00  0.00    -0.296 OA
ENDROOT
BRANCH   6   8
HETATM    8  C7  UNL     1      -2.110  -0.473   0.881  1.00  0.00     0.245 C 
BRANCH   8   9
HETATM    9  N2  UNL     1      -2.384  -1.914   0.730  1.00  0.00    -0.069 N 
ATOM     10  H23 UNL     1      -1.900  -2.356  -0.051  1.00  0.00     0.275 HD
ATOM     11  H22 UNL     1      -1.973  -2.500   1.456  1.00  0.00     0.275 HD
ATOM     12  H21 UNL     1      -3.402  -1.959   0.676  1.00  0.00     0.275 HD
ENDBRANCH   8   9
BRANCH   8  13
HETATM   13  C8  UNL     1      -2.636   0.209  -0.386  1.00  0.00     0.066 C 
BRANCH  13  14
HETATM   14  C9  UNL     1      -4.135   0.203  -0.413  1.00  0.00     0.166 C 
BRANCH  14  15
HETATM   15  O1  UNL     1      -4.601   0.832  -1.590  1.00  0.00    -0.401 OA
ATOM     16  H1  UNL     1      -5.551   0.828  -1.607  1.00  0.00     0.209 HD
ENDBRANCH  14  15
ENDBRANCH  13  14
ENDBRANCH   8  13
ENDBRANCH   6   8
BRANCH   1  17
HETATM   17  C2  UNL     1       2.649   0.336  -0.308  1.00  0.00     0.062 C 
HETATM   18  C1  UNL     1       3.132   1.702   0.156  1.00  0.00     0.028 C 
HETATM   19  C3  UNL     1       2.306   0.429  -1.800  1.00  0.00     0.028 C 
BRANCH  17  20
HETATM   20  C10 UNL     1       3.759  -0.649  -0.075  1.00  0.00     0.281 C 
HETATM   21  F1  UNL     1       3.463  -1.917  -0.470  1.00  0.00    -0.232 F 
HETATM   22 CL1  UNL     1       4.063  -0.656   1.712  1.00  0.00    -0.088 Cl
ENDBRANCH  17  20
ENDBRANCH   1  17
TORSDOF 7
