REMARK  5 active torsions:
REMARK  status: ('A' for Active; 'I' for Inactive)
REMARK    1  A    between atoms: C1_2  and  C2_4 
REMARK    2  A    between atoms: C2_4  and  C3_5 
REMARK    3  A    between atoms: C3_5  and  O1_6 
REMARK    4  A    between atoms: O1_6  and  C4_7 
REMARK    5  A    between atoms: C8_17  and  C9_18 
ROOT
HETATM    1  C4  UNL     1       0.270  -1.649  -0.296  1.00  0.00     0.158 A 
HETATM    2  N1  UNL     1       1.052  -2.684   0.048  1.00  0.00    -0.332 N 
ATOM      3  H1  UNL     1       2.063  -2.585  -0.046  1.00  0.00     0.168 HD
HETATM    4  C5  UNL     1       0.562  -3.840   0.509  1.00  0.00     0.184 A 
HETATM    5  N2  UNL     1      -0.762  -4.046   0.659  1.00  0.00    -0.338 N 
ATOM      6  H2  UNL     1      -1.108  -4.938   1.012  1.00  0.00     0.168 HD
HETATM    7  C6  UNL     1      -1.622  -3.063   0.338  1.00  0.00     0.121 A 
HETATM    8  N3  UNL     1      -2.983  -2.994   0.376  1.00  0.00    -0.351 N 
ATOM      9  H3  UNL     1      -3.622  -3.728   0.683  1.00  0.00     0.166 HD
HETATM   10  C7  UNL     1      -3.319  -1.775  -0.068  1.00  0.00     0.098 A 
HETATM   11  C8  UNL     1      -2.188  -1.054  -0.393  1.00  0.00    -0.019 A 
HETATM   12  C13 UNL     1      -1.119  -1.870  -0.137  1.00  0.00     0.067 A 
ENDROOT
BRANCH   1  13
HETATM   13  O1  UNL     1       0.639  -0.456  -0.770  1.00  0.00    -0.334 OA
BRANCH  13  14
HETATM   14  C3  UNL     1       1.781   0.156  -1.054  1.00  0.00     0.192 C 
BRANCH  14  15
HETATM   15  C2  UNL     1       2.822   0.552  -0.091  1.00  0.00     0.041 C 
HETATM   16  C14 UNL     1       2.383   1.579   0.948  1.00  0.00     0.017 C 
HETATM   17  C15 UNL     1       3.296   0.907   1.937  1.00  0.00     0.002 C 
HETATM   18  C16 UNL     1       3.404  -0.273   0.949  1.00  0.00     0.017 C 
BRANCH  15  19
HETATM   19  C1  UNL     1       3.965   1.227  -0.920  1.00  0.00     0.363 C 
HETATM   20  F1  UNL     1       3.488   2.332  -1.585  1.00  0.00    -0.214 F 
HETATM   21  F2  UNL     1       5.042   1.523  -0.151  1.00  0.00    -0.214 F 
ENDBRANCH  15  19
ENDBRANCH  14  15
ENDBRANCH  13  14
ENDBRANCH   1  13
BRANCH  11  22
HETATM   22  C9  UNL     1      -2.145   0.324  -0.896  1.00  0.00     0.048 C 
HETATM   23  C10 UNL     1      -3.556   0.786  -1.333  1.00  0.00     0.038 C 
HETATM   24  C11 UNL     1      -3.276   2.293  -1.408  1.00  0.00     0.233 C 
HETATM   25  N4  UNL     1      -2.491   2.574  -0.223  1.00  0.00    -0.074 N 
HETATM   26  C12 UNL     1      -2.003   1.310   0.282  1.00  0.00     0.241 C 
ATOM     27  H42 UNL     1      -1.746   3.251  -0.390  1.00  0.00     0.277 HD
ATOM     28  H41 UNL     1      -3.004   3.111   0.476  1.00  0.00     0.277 HD
ENDBRANCH  11  22
TORSDOF 5
