REMARK  5 active torsions:
REMARK  status: ('A' for Active; 'I' for Inactive)
REMARK    1  A    between atoms: C2_2  and  O1_3 
REMARK    2  A    between atoms: O1_3  and  N1_4 
REMARK    3  A    between atoms: N1_4  and  C4_6 
REMARK       I    between atoms: N2_7  and  C5_9 
REMARK       I    between atoms: C5_9  and  N4_14 
REMARK    4  A    between atoms: N3_10  and  O2_12 
REMARK    5  A    between atoms: N4_14  and  C6_16 
ROOT
HETATM    1  C4  UNL     1       1.701   0.521   0.369  1.00  0.00     0.224 C 
HETATM    2  N2  UNL     1       0.708  -0.230   0.221  1.00  0.00    -0.184 N 
ATOM      3  H2  UNL     1       0.838  -1.203  -0.056  1.00  0.00     0.185 HD
HETATM    4  C5  UNL     1      -0.609   0.286   0.443  1.00  0.00     0.701 C 
HETATM    5  N3  UNL     1      -0.983   0.918   1.461  1.00  0.00    -0.099 N 
ATOM      6  H3  UNL     1      -1.949   1.245   1.471  1.00  0.00     0.213 HD
HETATM    7  N4  UNL     1      -1.474   0.037  -0.676  1.00  0.00    -0.186 N 
ATOM      8  H4  UNL     1      -1.096  -0.032  -1.621  1.00  0.00     0.181 HD
ENDROOT
BRANCH   5   9
HETATM    9  O2  UNL     1      -0.239   1.204   2.531  1.00  0.00    -0.276 OA
ATOM     10  H2  UNL     1      -0.522   1.682   3.301  1.00  0.00     0.245 HD
ENDBRANCH   5   9
BRANCH   7  11
HETATM   11  C6  UNL     1      -2.859  -0.110  -0.441  1.00  0.00     0.193 C 
HETATM   12  C7  UNL     1      -3.667  -0.701  -1.583  1.00  0.00     0.100 C 
HETATM   13  C8  UNL     1      -4.564   0.427  -1.181  1.00  0.00     0.135 C 
HETATM   14  C9  UNL     1      -5.464   0.099   0.001  1.00  0.00     0.085 C 
HETATM   15  O3  UNL     1      -3.505   1.139  -0.655  1.00  0.00    -0.349 OA
HETATM   16  C10 UNL     1      -4.650  -0.650   0.992  1.00  0.00     0.036 C 
HETATM   17 CL1  UNL     1      -5.336  -1.433   2.418  1.00  0.00    -0.087 Cl
HETATM   18  C11 UNL     1      -3.326  -0.780   0.780  1.00  0.00     0.085 C 
HETATM   19 CL2  UNL     1      -2.305  -1.722   1.808  1.00  0.00    -0.082 Cl
ENDBRANCH   7  11
BRANCH   1  20
HETATM   20  N1  UNL     1       2.987  -0.080   0.071  1.00  0.00    -0.258 N 
HETATM   21  C3  UNL     1       3.267  -0.291  -1.364  1.00  0.00     0.186 C 
BRANCH  20  22
HETATM   22  O1  UNL     1       3.846  -0.266   1.039  1.00  0.00    -0.278 OA
BRANCH  22  23
HETATM   23  C2  UNL     1       5.086  -0.709   0.524  1.00  0.00     0.197 C 
HETATM   24  C1  UNL     1       6.054   0.394   0.897  1.00  0.00     0.036 C 
ENDBRANCH  22  23
ENDBRANCH  20  22
ENDBRANCH   1  20
TORSDOF 5
