REMARK  5 active torsions:
REMARK  status: ('A' for Active; 'I' for Inactive)
REMARK    1  A    between atoms: O1_2  and  C2_3 
REMARK    2  A    between atoms: C2_3  and  C3_4 
REMARK    3  A    between atoms: C3_4  and  O2_5 
REMARK    4  A    between atoms: O2_5  and  C4_6 
REMARK    5  A    between atoms: C9_15  and  N2_16 
ROOT
HETATM    1  C4  UNL     1       0.045   0.569   0.436  1.00  0.00     0.122 A 
HETATM    2  C5  UNL     1      -0.116   1.108   1.695  1.00  0.00     0.115 A 
HETATM    3 BR1  UNL     1       1.374   1.555   2.794  1.00  0.00    -0.028 Br
HETATM    4  N1  UNL     1      -1.435   1.234   1.947  1.00  0.00    -0.347 N 
ATOM      5  H1  UNL     1      -1.838   1.606   2.807  1.00  0.00     0.167 HD
HETATM    6  C6  UNL     1      -2.148   0.785   0.870  1.00  0.00     0.056 A 
HETATM    7  C7  UNL     1      -3.508   0.725   0.683  1.00  0.00     0.076 A 
HETATM    8  C8  UNL     1      -4.168   0.269  -0.408  1.00  0.00     0.151 A 
HETATM    9  F1  UNL     1      -5.550   0.286  -0.415  1.00  0.00    -0.203 F 
HETATM   10  C9  UNL     1      -3.599  -0.231  -1.562  1.00  0.00     0.107 A 
HETATM   11  S1  UNL     1      -1.893  -0.236  -1.518  1.00  0.00    -0.065 SA
HETATM   12  C10 UNL     1      -1.247   0.372  -0.068  1.00  0.00     0.070 A 
ENDROOT
BRANCH   1  13
HETATM   13  O2  UNL     1       1.152   0.244  -0.290  1.00  0.00    -0.345 OA
BRANCH  13  14
HETATM   14  C3  UNL     1       1.815  -0.988  -0.294  1.00  0.00     0.202 C 
BRANCH  14  15
HETATM   15  C2  UNL     1       2.991  -0.924  -1.235  1.00  0.00     0.193 C 
BRANCH  15  16
HETATM   16  O1  UNL     1       3.929   0.030  -0.924  1.00  0.00    -0.394 OA
HETATM   17  C1  UNL     1       4.495  -0.142   0.308  1.00  0.00     0.201 C 
ENDBRANCH  15  16
ENDBRANCH  14  15
ENDBRANCH  13  14
ENDBRANCH   1  13
BRANCH  10  18
HETATM   18  N2  UNL     1      -4.330  -0.636  -2.538  1.00  0.00    -0.391 N 
ATOM     19  H22 UNL     1      -5.350  -0.633  -2.564  1.00  0.00     0.157 HD
ATOM     20  H21 UNL     1      -3.910  -1.005  -3.391  1.00  0.00     0.157 HD
ENDBRANCH  10  18
TORSDOF 5
