REMARK  5 active torsions:
REMARK  status: ('A' for Active; 'I' for Inactive)
REMARK    1  A    between atoms: C2_2  and  C3_3 
REMARK    2  A    between atoms: C3_3  and  N1_4 
REMARK    3  A    between atoms: N1_4  and  C4_6 
REMARK    4  A    between atoms: C6_8  and  C7_9 
REMARK    5  A    between atoms: C11_15  and  C12_16 
ROOT
HETATM    1  C4  UNL     1       1.626  -0.383   0.611  1.00  0.00     0.132 A 
HETATM    2  C5  UNL     1       1.341  -1.716   0.295  1.00  0.00     0.075 A 
HETATM    3  C6  UNL     1       0.141  -2.140  -0.211  1.00  0.00     0.018 A 
HETATM    4  N2  UNL     1      -0.805  -1.196  -0.409  1.00  0.00    -0.342 N 
ATOM      5  H2  UNL     1      -1.717  -1.454  -0.785  1.00  0.00     0.167 HD
HETATM    6  C10 UNL     1      -0.535   0.083  -0.107  1.00  0.00     0.160 A 
HETATM    7  C11 UNL     1      -1.351   1.180  -0.233  1.00  0.00     0.141 A 
HETATM    8  N4  UNL     1      -0.622   2.212   0.198  1.00  0.00    -0.281 N 
ATOM      9  H4  UNL     1      -0.954   3.176   0.229  1.00  0.00     0.188 HD
HETATM   10  N5  UNL     1       0.568   1.832   0.574  1.00  0.00    -0.232 N 
ATOM     11  H5  UNL     1       1.309   2.430   0.940  1.00  0.00     0.209 HD
HETATM   12  N6  UNL     1       0.632   0.516   0.389  1.00  0.00    -0.207 N 
ENDROOT
BRANCH   7  13
HETATM   13  C12 UNL     1      -2.725   1.294  -0.720  1.00  0.00     0.315 C 
HETATM   14  F1  UNL     1      -2.823   0.982  -2.057  1.00  0.00    -0.204 F 
HETATM   15  C13 UNL     1      -3.200   2.714  -0.524  1.00  0.00     0.086 C 
HETATM   16  C14 UNL     1      -4.704   2.552  -0.663  1.00  0.00     0.072 C 
HETATM   17  C15 UNL     1      -4.955   1.062  -0.529  1.00  0.00     0.372 C 
HETATM   18  F2  UNL     1      -6.015   0.785   0.288  1.00  0.00    -0.219 F 
HETATM   19  N3  UNL     1      -3.699   0.543   0.004  1.00  0.00    -0.001 N 
ATOM     20  H32 UNL     1      -3.593  -0.470  -0.057  1.00  0.00     0.285 HD
ATOM     21  H31 UNL     1      -3.611   0.591   1.019  1.00  0.00     0.285 HD
ENDBRANCH   7  13
BRANCH   3  22
HETATM   22  C7  UNL     1      -0.040  -3.579  -0.505  1.00  0.00     0.036 A 
HETATM   23  C8  UNL     1       0.653  -4.617   0.288  1.00  0.00     0.011 A 
HETATM   24  C9  UNL     1       1.170  -4.274  -1.075  1.00  0.00     0.011 A 
ENDBRANCH   3  22
BRANCH   1  25
HETATM   25  N1  UNL     1       2.760  -0.059   1.078  1.00  0.00    -0.354 N 
ATOM     26  H1  UNL     1       3.385  -0.858   1.181  1.00  0.00     0.166 HD
BRANCH  25  27
HETATM   27  C3  UNL     1       3.347   1.138   1.482  1.00  0.00     0.062 C 
BRANCH  27  28
HETATM   28  C2  UNL     1       4.033   1.920   0.378  1.00  0.00     0.040 C 
HETATM   29  C1  UNL     1       5.150   1.110  -0.251  1.00  0.00     0.010 C 
ENDBRANCH  27  28
ENDBRANCH  25  27
ENDBRANCH   1  25
TORSDOF 5
