REMARK  1 active torsions:
REMARK  status: ('A' for Active; 'I' for Inactive)
REMARK       I    between atoms: C1_2  and  N2_4 
REMARK       I    between atoms: C2_6  and  N4_8 
REMARK    1  A    between atoms: N4_8  and  N5_10 
REMARK       I    between atoms: N5_10  and  C3_12 
ROOT
HETATM    1  N1  UNL     1      -3.556   0.619   0.220  1.00  0.00    -0.040 NA
HETATM    2  C1  UNL     1      -2.345  -0.164   0.111  1.00  0.00     0.335 C 
HETATM    3  O1  UNL     1      -2.287  -1.330   0.522  1.00  0.00    -0.251 OA
HETATM    4  N2  UNL     1      -1.244   0.458  -0.482  1.00  0.00    -0.284 N 
ATOM      5  H2  UNL     1      -1.387   1.310  -1.025  1.00  0.00     0.172 HD
HETATM    6  C2  UNL     1      -0.053  -0.016  -0.361  1.00  0.00     0.210 C 
HETATM    7  N3  UNL     1       0.143  -1.198   0.396  1.00  0.00    -0.062 NA
HETATM    8  N4  UNL     1       1.029   0.652  -0.997  1.00  0.00    -0.268 N 
ATOM      9  H4  UNL     1       0.847   1.425  -1.637  1.00  0.00     0.190 HD
ENDROOT
BRANCH   8  10
HETATM   10  N5  UNL     1       2.330   0.252  -0.747  1.00  0.00    -0.241 N 
HETATM   11  C3  UNL     1       2.989   0.337   0.501  1.00  0.00     0.303 C 
HETATM   12  O2  UNL     1       2.484   0.787   1.559  1.00  0.00    -0.628 OA
HETATM   13  O3  UNL     1       4.315  -0.104   0.623  1.00  0.00    -0.628 OA
ATOM     14  H5  UNL     1       2.858  -0.137  -1.529  1.00  0.00     0.193 HD
ENDBRANCH   8  10
TORSDOF 1
