REMARK  3 active torsions:
REMARK  status: ('A' for Active; 'I' for Inactive)
REMARK       I    between atoms: C1_4  and  N3_6 
REMARK       I    between atoms: C2_8  and  N5_10 
REMARK    1  A    between atoms: C3_12  and  N6_13 
REMARK    2  A    between atoms: N6_13  and  N7_14 
REMARK    3  A    between atoms: N6_13  and  O1_17 
ROOT
HETATM    1  N1  UNL     1      -3.456  -0.654   0.693  1.00  0.00    -0.373 N 
ATOM      2  H11 UNL     1      -3.087  -1.536   1.049  1.00  0.00     0.158 HD
ATOM      3  H12 UNL     1      -4.433  -0.618   0.402  1.00  0.00     0.158 HD
HETATM    4  C1  UNL     1      -2.658   0.354   0.636  1.00  0.00     0.188 C 
HETATM    5  N2  UNL     1      -3.170   1.579   0.142  1.00  0.00    -0.064 NA
HETATM    6  N3  UNL     1      -1.299   0.304   1.041  1.00  0.00    -0.305 N 
ATOM      7  H3  UNL     1      -1.019   0.701   1.938  1.00  0.00     0.171 HD
HETATM    8  C2  UNL     1      -0.426  -0.239   0.282  1.00  0.00     0.195 C 
HETATM    9  N4  UNL     1      -0.797  -0.795  -0.965  1.00  0.00    -0.063 NA
HETATM   10  N5  UNL     1       0.954  -0.299   0.675  1.00  0.00    -0.323 N 
ATOM     11  H5  UNL     1       1.213  -0.587   1.619  1.00  0.00     0.169 HD
HETATM   12  C3  UNL     1       1.854   0.016  -0.182  1.00  0.00     0.236 C 
ENDROOT
BRANCH  12  13
HETATM   13  N6  UNL     1       3.224  -0.026   0.156  1.00  0.00    -0.166 N 
BRANCH  13  14
HETATM   14  N7  UNL     1       3.621  -0.568   1.385  1.00  0.00    -0.318 N 
ATOM     15  H72 UNL     1       2.889  -0.919   2.002  1.00  0.00     0.179 HD
ATOM     16  H71 UNL     1       4.611  -0.598   1.629  1.00  0.00     0.179 HD
ENDBRANCH  13  14
BRANCH  13  17
HETATM   17  O1  UNL     1       4.187   0.435  -0.656  1.00  0.00    -0.268 OA
ATOM     18  H1  UNL     1       5.109   0.407  -0.429  1.00  0.00     0.247 HD
ENDBRANCH  13  17
ENDBRANCH  12  13
TORSDOF 3
