REMARK  2 active torsions:
REMARK  status: ('A' for Active; 'I' for Inactive)
REMARK    1  A    between atoms: C1_2  and  C2_3 
REMARK    2  A    between atoms: C2_3  and  O2_4 
ROOT
HETATM    1  C2  UNL     1      -0.876  -0.037  -0.385  1.00  0.00     0.288 C 
HETATM    2  N1  UNL     1       0.012  -1.156  -0.674  1.00  0.00    -0.263 N 
ATOM      3  H1  UNL     1      -0.279  -1.919  -1.285  1.00  0.00     0.187 HD
HETATM    4  N2  UNL     1       1.273  -1.144  -0.084  1.00  0.00    -0.239 N 
ATOM      5  H2  UNL     1       1.754  -2.038   0.017  1.00  0.00     0.208 HD
HETATM    6  N3  UNL     1       1.869  -0.111   0.337  1.00  0.00    -0.237 N 
ATOM      7  H3  UNL     1       2.794  -0.177   0.761  1.00  0.00     0.193 HD
HETATM    8  C3  UNL     1       1.217   1.141   0.204  1.00  0.00     0.340 C 
HETATM    9  O3  UNL     1       1.791   2.187   0.615  1.00  0.00    -0.245 OA
HETATM   10  N4  UNL     1      -0.067   1.163  -0.392  1.00  0.00    -0.285 N 
ATOM     11  H4  UNL     1      -0.419   2.018  -0.823  1.00  0.00     0.169 HD
ENDROOT
BRANCH   1  12
HETATM   12  C1  UNL     1      -1.455  -0.185   0.976  1.00  0.00     0.317 C 
HETATM   13  O1  UNL     1      -0.720  -0.266   1.969  1.00  0.00    -0.299 OA
ENDBRANCH   1  12
BRANCH   1  14
HETATM   14  O2  UNL     1      -1.920   0.028  -1.295  1.00  0.00    -0.347 OA
ATOM     15  H2  UNL     1      -1.550   0.123  -2.165  1.00  0.00     0.215 HD
ENDBRANCH   1  14
TORSDOF 2
