REMARK  4 active torsions:
REMARK  status: ('A' for Active; 'I' for Inactive)
REMARK    1  A    between atoms: N1_2  and  N2_3 
REMARK       I    between atoms: N1_2  and  C3_12 
REMARK    2  A    between atoms: N2_3  and  C2_5 
REMARK    3  A    between atoms: C2_5  and  N3_7 
REMARK    4  A    between atoms: N3_7  and  N4_9 
ROOT
HETATM    1  N2  UNL     1      -0.191  -0.106  -0.018  1.00  0.00    -0.270 N 
ATOM      2  H2  UNL     1      -0.194  -0.831  -0.735  1.00  0.00     0.189 HD
ENDROOT
BRANCH   1   3
HETATM    3  N1  UNL     1       0.936   0.698   0.106  1.00  0.00    -0.247 N 
HETATM    4  C1  UNL     1       0.821   2.138   0.131  1.00  0.00     0.182 C 
HETATM    5  C3  UNL     1       2.223   0.116   0.211  1.00  0.00     0.349 C 
HETATM    6  N5  UNL     1       2.408  -1.292   0.195  1.00  0.00    -0.038 NA
HETATM    7  O1  UNL     1       3.246   0.838   0.323  1.00  0.00    -0.249 OA
ENDBRANCH   1   3
BRANCH   1   8
HETATM    8  C2  UNL     1      -1.333   0.033   0.802  1.00  0.00     0.205 C 
HETATM    9  S1  UNL     1      -1.308   1.195   1.941  1.00  0.00    -0.038 SA
BRANCH   8  10
HETATM   10  N3  UNL     1      -2.477  -0.790   0.669  1.00  0.00    -0.282 N 
ATOM     11  H3  UNL     1      -3.279  -0.653   1.285  1.00  0.00     0.189 HD
BRANCH  10  12
HETATM   12  N4  UNL     1      -2.508  -1.803  -0.318  1.00  0.00    -0.343 N 
ATOM     13  H42 UNL     1      -1.698  -1.927  -0.925  1.00  0.00     0.176 HD
ATOM     14  H41 UNL     1      -3.332  -2.396  -0.414  1.00  0.00     0.176 HD
ENDBRANCH  10  12
ENDBRANCH   8  10
ENDBRANCH   1   8
TORSDOF 4
