REMARK  5 active torsions:
REMARK  status: ('A' for Active; 'I' for Inactive)
REMARK    1  A    between atoms: N1_1  and  N2_4 
REMARK    2  A    between atoms: N2_4  and  C1_6 
REMARK    3  A    between atoms: C1_6  and  N3_8 
REMARK    4  A    between atoms: N3_8  and  N4_10 
REMARK       I    between atoms: N4_10  and  C2_12 
REMARK    5  A    between atoms: C2_12  and  C3_14 
ROOT
HETATM    1  N3  UNL     1       0.018   0.079   0.427  1.00  0.00    -0.272 N 
ATOM      2  H3  UNL     1       0.035   0.121   1.446  1.00  0.00     0.189 HD
ENDROOT
BRANCH   1   3
HETATM    3  C1  UNL     1       1.235   0.253  -0.271  1.00  0.00     0.205 C 
HETATM    4  S1  UNL     1       1.288   0.198  -1.903  1.00  0.00    -0.038 SA
BRANCH   3   5
HETATM    5  N2  UNL     1       2.450   0.480   0.412  1.00  0.00    -0.282 N 
ATOM      6  H2  UNL     1       2.434   0.517   1.431  1.00  0.00     0.189 HD
BRANCH   5   7
HETATM    7  N1  UNL     1       3.676   0.657  -0.242  1.00  0.00    -0.343 N 
ATOM      8  H12 UNL     1       3.674   0.617  -1.261  1.00  0.00     0.176 HD
ATOM      9  H11 UNL     1       4.554   0.821   0.251  1.00  0.00     0.176 HD
ENDBRANCH   5   7
ENDBRANCH   3   5
ENDBRANCH   1   3
BRANCH   1  10
HETATM   10  N4  UNL     1      -1.202  -0.146  -0.204  1.00  0.00    -0.262 N 
HETATM   11  C2  UNL     1      -2.398   0.070   0.491  1.00  0.00     0.297 C 
HETATM   12  O1  UNL     1      -2.375   0.464   1.674  1.00  0.00    -0.263 OA
ATOM     13  H4  UNL     1      -1.225  -0.468  -1.172  1.00  0.00     0.190 HD
BRANCH  11  14
HETATM   14  C3  UNL     1      -3.674  -0.160  -0.150  1.00  0.00     0.334 C 
HETATM   15  O2  UNL     1      -3.724  -0.561  -1.342  1.00  0.00    -0.296 OA
ENDBRANCH  11  14
ENDBRANCH   1  10
TORSDOF 5
