REMARK  1 active torsions:
REMARK  status: ('A' for Active; 'I' for Inactive)
REMARK       I    between atoms: C1_4  and  N2_5 
REMARK       I    between atoms: C1_4  and  N4_10 
REMARK    1  A    between atoms: N2_5  and  N3_7 
ROOT
HETATM    1  N1  UNL     1      -0.677  -1.422   0.990  1.00  0.00    -0.230 N 
ATOM      2  H11 UNL     1       0.086  -2.012   1.322  1.00  0.00     0.174 HD
ATOM      3  H12 UNL     1      -1.625  -1.703   1.240  1.00  0.00     0.174 HD
HETATM    4  C1  UNL     1      -0.437  -0.373   0.288  1.00  0.00     0.726 C 
HETATM    5  N2  UNL     1      -1.495   0.445  -0.173  1.00  0.00    -0.136 N 
ATOM      6  H2  UNL     1      -1.303   1.405  -0.459  1.00  0.00     0.205 HD
HETATM    7  N4  UNL     1       0.884   0.019  -0.061  1.00  0.00    -0.011 N 
HETATM    8  N5  UNL     1       1.638   1.101   0.164  1.00  0.00    -0.214 N 
ATOM      9  H5  UNL     1       1.484   1.978   0.661  1.00  0.00     0.194 HD
HETATM   10  C2  UNL     1       2.658   0.596  -0.505  1.00  0.00     0.357 A 
HETATM   11  O1  UNL     1       3.815   0.968  -0.796  1.00  0.00    -0.244 OA
HETATM   12  N6  UNL     1       1.910  -0.493  -0.736  1.00  0.00    -0.214 N 
ATOM     13  H6  UNL     1       2.066  -1.370  -1.234  1.00  0.00     0.194 HD
ENDROOT
BRANCH   5  14
HETATM   14  N3  UNL     1      -2.819  -0.055  -0.241  1.00  0.00    -0.331 N 
ATOM     15  H32 UNL     1      -2.994  -1.017   0.049  1.00  0.00     0.177 HD
ATOM     16  H31 UNL     1      -3.582   0.535  -0.573  1.00  0.00     0.177 HD
ENDBRANCH   5  14
TORSDOF 1
