REMARK  0 active torsions:
REMARK  status: ('A' for Active; 'I' for Inactive)
REMARK       I    between atoms: C1_4  and  N3_6 
ROOT
HETATM    1  N1  UNL     1      -2.240   0.929  -0.105  1.00  0.00    -0.373 N 
ATOM      2  H11 UNL     1      -1.857   1.874  -0.130  1.00  0.00     0.158 HD
ATOM      3  H12 UNL     1      -3.250   0.791  -0.135  1.00  0.00     0.158 HD
HETATM    4  C1  UNL     1      -1.451  -0.073  -0.036  1.00  0.00     0.200 C 
HETATM    5  N2  UNL     1      -1.980  -1.379  -0.002  1.00  0.00    -0.063 NA
HETATM    6  N3  UNL     1      -0.056   0.118   0.005  1.00  0.00    -0.185 N 
HETATM    7  C2  UNL     1       0.638   1.144   0.557  1.00  0.00     0.351 A 
HETATM    8  O1  UNL     1       0.158   2.144   1.150  1.00  0.00    -0.244 OA
HETATM    9  N4  UNL     1       1.947   0.891   0.350  1.00  0.00    -0.247 N 
ATOM     10  H4  UNL     1       2.713   1.491   0.656  1.00  0.00     0.192 HD
HETATM   11  N5  UNL     1       2.092  -0.245  -0.305  1.00  0.00    -0.247 N 
ATOM     12  H5  UNL     1       2.974  -0.671  -0.590  1.00  0.00     0.192 HD
HETATM   13  C3  UNL     1       0.861  -0.737  -0.527  1.00  0.00     0.351 A 
HETATM   14  O2  UNL     1       0.660  -1.820  -1.135  1.00  0.00    -0.244 OA
ENDROOT
TORSDOF 0
