REMARK  2 active torsions:
REMARK  status: ('A' for Active; 'I' for Inactive)
REMARK    1  A    between atoms: N2_4  and  N3_6 
REMARK       I    between atoms: N3_6  and  C1_8 
REMARK    2  A    between atoms: N5_10  and  N6_12 
REMARK       I    between atoms: N6_12  and  C2_14 
ROOT
HETATM    1  N3  UNL     1      -1.298  -1.044   1.557  1.00  0.00    -0.258 N 
ATOM      2  H3  UNL     1      -1.012  -1.992   1.803  1.00  0.00     0.191 HD
HETATM    3  C1  UNL     1      -0.545  -0.311   0.606  1.00  0.00     0.223 C 
HETATM    4  N4  UNL     1       0.267   0.757   1.060  1.00  0.00    -0.061 NA
HETATM    5  N5  UNL     1      -0.593  -0.605  -0.659  1.00  0.00    -0.269 N 
ATOM      6  H5  UNL     1      -1.173  -1.371  -1.003  1.00  0.00     0.190 HD
ENDROOT
BRANCH   1   7
HETATM    7  N2  UNL     1      -2.416  -0.490   2.156  1.00  0.00    -0.247 N 
HETATM    8  N1  UNL     1      -3.337  -1.196   2.689  1.00  0.00    -0.331 N 
ATOM      9  H12 UNL     1      -3.229  -2.210   2.664  1.00  0.00     0.178 HD
ATOM     10  H11 UNL     1      -4.161  -0.788   3.130  1.00  0.00     0.178 HD
ATOM     11  H2  UNL     1      -2.508   0.526   2.172  1.00  0.00     0.207 HD
ENDBRANCH   1   7
BRANCH   5  12
HETATM   12  N6  UNL     1       0.177   0.165  -1.527  1.00  0.00    -0.252 N 
HETATM   13  C2  UNL     1       1.473  -0.256  -1.962  1.00  0.00     0.347 C 
HETATM   14  N7  UNL     1       2.171   0.604  -2.845  1.00  0.00    -0.038 NA
HETATM   15  O1  UNL     1       1.967  -1.347  -1.574  1.00  0.00    -0.249 OA
ATOM     16  H6  UNL     1      -0.194   1.054  -1.862  1.00  0.00     0.191 HD
ENDBRANCH   5  12
TORSDOF 2
