REMARK  1 active torsions:
REMARK  status: ('A' for Active; 'I' for Inactive)
REMARK       I    between atoms: C1_2  and  N2_4 
REMARK       I    between atoms: N2_4  and  C2_6 
REMARK       I    between atoms: C2_6  and  N3_8 
REMARK    1  A    between atoms: N3_8  and  C3_10 
ROOT
HETATM    1  N1  UNL     1       2.252   0.906   0.552  1.00  0.00    -0.040 NA
HETATM    2  C1  UNL     1       2.738   0.062  -0.470  1.00  0.00     0.336 C 
HETATM    3  O1  UNL     1       3.986  -0.076  -0.547  1.00  0.00    -0.251 OA
HETATM    4  N2  UNL     1       1.899  -0.622  -1.392  1.00  0.00    -0.263 N 
ATOM      5  H2  UNL     1       2.321  -1.216  -2.106  1.00  0.00     0.174 HD
HETATM    6  C2  UNL     1       0.497  -0.495  -1.339  1.00  0.00     0.342 C 
HETATM    7  O2  UNL     1      -0.240  -1.102  -2.158  1.00  0.00    -0.246 OA
HETATM    8  N3  UNL     1      -0.154   0.332  -0.352  1.00  0.00    -0.139 N 
ATOM      9  H3  UNL     1       0.279   1.192  -0.016  1.00  0.00     0.189 HD
ENDROOT
BRANCH   8  10
HETATM   10  C3  UNL     1      -1.303  -0.054   0.092  1.00  0.00     0.712 A 
HETATM   11  N4  UNL     1      -2.021  -1.155  -0.236  1.00  0.00    -0.117 N 
HETATM   12  N5  UNL     1      -3.151  -1.164   0.461  1.00  0.00     0.006 NA
ATOM     13  H4  UNL     1      -1.738  -1.865  -0.912  1.00  0.00     0.202 HD
HETATM   14  N6  UNL     1      -3.176  -0.089   1.233  1.00  0.00     0.006 NA
HETATM   15  N7  UNL     1      -2.058   0.580   1.007  1.00  0.00    -0.117 N 
ATOM     16  H7  UNL     1      -1.803   1.456   1.463  1.00  0.00     0.202 HD
ENDBRANCH   8  10
TORSDOF 1
