REMARK  4 active torsions:
REMARK  status: ('A' for Active; 'I' for Inactive)
REMARK    1  A    between atoms: N1_1  and  N2_4 
REMARK    2  A    between atoms: N2_4  and  C1_6 
REMARK    3  A    between atoms: C1_6  and  N3_8 
REMARK    4  A    between atoms: N3_8  and  C2_10 
ROOT
HETATM    1  C2  UNL     1      -0.639  -0.155  -0.543  1.00  0.00     0.703 A 
HETATM    2  N4  UNL     1      -1.525   0.428  -1.351  1.00  0.00    -0.128 N 
ATOM      3  H4  UNL     1      -1.370   0.696  -2.323  1.00  0.00     0.205 HD
HETATM    4  N5  UNL     1      -2.636   0.594  -0.665  1.00  0.00    -0.237 N 
ATOM      5  H5  UNL     1      -3.488   1.019  -1.030  1.00  0.00     0.192 HD
HETATM    6  C3  UNL     1      -2.487   0.124   0.583  1.00  0.00     0.353 A 
HETATM    7  O1  UNL     1      -3.359   0.123   1.512  1.00  0.00    -0.245 OA
HETATM    8  N6  UNL     1      -1.230  -0.342   0.643  1.00  0.00    -0.139 N 
ATOM      9  H6  UNL     1      -0.795  -0.770   1.461  1.00  0.00     0.189 HD
ENDROOT
BRANCH   1  10
HETATM   10  N3  UNL     1       0.554  -0.462  -0.891  1.00  0.00    -0.163 N 
ATOM     11  H3  UNL     1       0.833  -0.242  -1.847  1.00  0.00     0.186 HD
BRANCH  10  12
HETATM   12  C1  UNL     1       1.513  -1.078  -0.064  1.00  0.00     0.204 C 
HETATM   13  S1  UNL     1       1.482  -2.696   0.124  1.00  0.00    -0.039 SA
BRANCH  12  14
HETATM   14  N2  UNL     1       2.524  -0.359   0.629  1.00  0.00    -0.282 N 
ATOM     15  H2  UNL     1       3.191  -0.862   1.214  1.00  0.00     0.189 HD
BRANCH  14  16
HETATM   16  N1  UNL     1       2.613   1.029   0.516  1.00  0.00    -0.343 N 
ATOM     17  H12 UNL     1       1.938   1.517  -0.073  1.00  0.00     0.176 HD
ATOM     18  H11 UNL     1       3.339   1.545   1.013  1.00  0.00     0.176 HD
ENDBRANCH  14  16
ENDBRANCH  12  14
ENDBRANCH  10  12
ENDBRANCH   1  10
TORSDOF 4
