REMARK  1 active torsions:
REMARK  status: ('A' for Active; 'I' for Inactive)
REMARK       I    between atoms: C1_2  and  N2_4 
REMARK       I    between atoms: N2_4  and  C2_6 
REMARK       I    between atoms: C2_6  and  N3_8 
REMARK    1  A    between atoms: N3_8  and  C3_10 
ROOT
HETATM    1  N1  UNL     1       3.913   0.819  -0.429  1.00  0.00    -0.040 NA
HETATM    2  C1  UNL     1       2.966  -0.151  -0.036  1.00  0.00     0.336 C 
HETATM    3  O1  UNL     1       3.273  -1.361  -0.097  1.00  0.00    -0.251 OA
HETATM    4  N2  UNL     1       1.680   0.312   0.420  1.00  0.00    -0.263 N 
ATOM      5  H2  UNL     1       1.489   1.314   0.447  1.00  0.00     0.174 HD
HETATM    6  C2  UNL     1       0.674  -0.600   0.832  1.00  0.00     0.342 C 
HETATM    7  O2  UNL     1       0.942  -1.832   0.786  1.00  0.00    -0.246 OA
HETATM    8  N3  UNL     1      -0.565  -0.112   1.269  1.00  0.00    -0.140 N 
ATOM      9  H3  UNL     1      -0.612   0.247   2.222  1.00  0.00     0.189 HD
ENDROOT
BRANCH   8  10
HETATM   10  C3  UNL     1      -1.636  -0.077   0.583  1.00  0.00     0.701 A 
HETATM   11  N4  UNL     1      -2.807   0.408   1.062  1.00  0.00    -0.185 N 
HETATM   12  C4  UNL     1      -3.746   0.311   0.110  1.00  0.00     0.215 A 
ATOM     13  H4  UNL     1      -2.951   0.787   1.998  1.00  0.00     0.185 HD
HETATM   14  N5  UNL     1      -3.174  -0.233  -0.971  1.00  0.00    -0.281 N 
HETATM   15  N6  UNL     1      -1.904  -0.463  -0.677  1.00  0.00    -0.131 N 
ATOM     16  H5  UNL     1      -3.633  -0.434  -1.859  1.00  0.00     0.188 HD
ATOM     17  H6  UNL     1      -1.224  -0.875  -1.316  1.00  0.00     0.205 HD
ENDBRANCH   8  10
TORSDOF 1
