REMARK  3 active torsions:
REMARK  status: ('A' for Active; 'I' for Inactive)
REMARK    1  A    between atoms: C3_3  and  N1_4 
REMARK    2  A    between atoms: C3_3  and  C4_8 
REMARK       I    between atoms: C4_8  and  N2_10 
REMARK    3  A    between atoms: N2_10  and  N3_12 
ROOT
HETATM    1  C1  UNL     1       2.820   0.745  -2.241  1.00  0.00     0.015 C 
HETATM    2  C2  UNL     1       2.489   0.200  -1.214  1.00  0.00    -0.075 C 
HETATM    3  C3  UNL     1       2.096  -0.482   0.018  1.00  0.00     0.353 C 
ENDROOT
BRANCH   3   4
HETATM    4  N1  UNL     1       2.521   0.279   1.171  1.00  0.00    -0.056 N 
ATOM      5  H13 UNL     1       3.521   0.477   1.148  1.00  0.00     0.276 HD
ATOM      6  H12 UNL     1       2.177   1.239   1.141  1.00  0.00     0.276 HD
ATOM      7  H11 UNL     1       2.247  -0.197   2.031  1.00  0.00     0.276 HD
ENDBRANCH   3   4
BRANCH   3   8
HETATM    8  C4  UNL     1       0.640  -0.775   0.060  1.00  0.00     0.278 C 
HETATM    9  O1  UNL     1       0.170  -1.438  -0.906  1.00  0.00    -0.268 OA
HETATM   10  N2  UNL     1      -0.193  -0.341   1.123  1.00  0.00    -0.265 N 
ATOM     11  H2  UNL     1       0.201   0.193   1.897  1.00  0.00     0.190 HD
BRANCH  10  12
HETATM   12  N3  UNL     1      -1.534  -0.644   1.105  1.00  0.00    -0.273 N 
HETATM   13  C5  UNL     1      -2.420  -0.089   0.375  1.00  0.00     0.215 C 
HETATM   14  N4  UNL     1      -2.180   0.945  -0.552  1.00  0.00    -0.065 NA
HETATM   15  N5  UNL     1      -3.766  -0.555   0.511  1.00  0.00    -0.065 NA
ATOM     16  H3  UNL     1      -1.850  -1.382   1.735  1.00  0.00     0.189 HD
ENDBRANCH  10  12
ENDBRANCH   3   8
TORSDOF 3
