REMARK  4 active torsions:
REMARK  status: ('A' for Active; 'I' for Inactive)
REMARK       I    between atoms: C1_4  and  N2_5 
REMARK       I    between atoms: C1_4  and  N5_11 
REMARK    1  A    between atoms: N2_5  and  N3_7 
REMARK    2  A    between atoms: N3_7  and  N4_8 
REMARK    3  A    between atoms: N5_11  and  S1_13 
REMARK    4  A    between atoms: S1_13  and  N6_14 
ROOT
HETATM    1  N1  UNL     1      -0.502  -1.644   0.899  1.00  0.00    -0.233 N 
ATOM      2  H11 UNL     1      -1.467  -1.428   1.148  1.00  0.00     0.174 HD
ATOM      3  H12 UNL     1      -0.077  -2.525   1.187  1.00  0.00     0.174 HD
HETATM    4  C1  UNL     1       0.233  -0.841   0.221  1.00  0.00     0.699 C 
HETATM    5  N2  UNL     1       1.574  -1.141  -0.125  1.00  0.00    -0.116 N 
ATOM      6  H2  UNL     1       1.951  -2.074   0.045  1.00  0.00     0.203 HD
HETATM    7  N5  UNL     1      -0.359   0.388  -0.181  1.00  0.00    -0.099 N 
ATOM      8  H5  UNL     1       0.203   1.239  -0.202  1.00  0.00     0.199 HD
ENDROOT
BRANCH   5   9
HETATM    9  N3  UNL     1       2.379  -0.153  -0.701  1.00  0.00    -0.015 NA
BRANCH   9  10
HETATM   10  N4  UNL     1       2.847   0.648   0.351  1.00  0.00    -0.328 N 
ATOM     11  H42 UNL     1       2.633   0.522   1.340  1.00  0.00     0.174 HD
ATOM     12  H41 UNL     1       3.434   1.369  -0.069  1.00  0.00     0.174 HD
ENDBRANCH   9  10
ENDBRANCH   5   9
BRANCH   7  13
HETATM   13  S1  UNL     1      -2.030   0.447  -0.636  1.00  0.00     0.330 S 
HETATM   14  O1  UNL     1      -2.466  -0.904  -1.161  1.00  0.00    -0.182 OA
HETATM   15  O2  UNL     1      -2.202   1.523  -1.671  1.00  0.00    -0.182 OA
BRANCH  13  16
HETATM   16  N6  UNL     1      -2.941   0.774   0.774  1.00  0.00    -0.311 N 
ATOM     17  H62 UNL     1      -2.555   0.908   1.709  1.00  0.00     0.170 HD
ATOM     18  H61 UNL     1      -3.925   0.809   0.506  1.00  0.00     0.170 HD
ENDBRANCH  13  16
ENDBRANCH   7  13
TORSDOF 4
