REMARK  3 active torsions:
REMARK  status: ('A' for Active; 'I' for Inactive)
REMARK       I    between atoms: C1_2  and  N2_4 
REMARK    1  A    between atoms: N2_4  and  N3_6 
REMARK    2  A    between atoms: N3_6  and  C2_8 
REMARK    3  A    between atoms: N7_15  and  O2_16 
ROOT
HETATM    1  C2  UNL     1      -0.844  -0.543  -0.387  1.00  0.00     0.755 A 
HETATM    2  N4  UNL     1      -1.130   0.644   0.140  1.00  0.00    -0.112 N 
ATOM      3  H4  UNL     1      -0.461   1.396   0.303  1.00  0.00     0.207 HD
HETATM    4  N5  UNL     1      -2.413   0.691   0.417  1.00  0.00    -0.211 N 
ATOM      5  H5  UNL     1      -2.918   1.475   0.829  1.00  0.00     0.210 HD
HETATM    6  N6  UNL     1      -2.923  -0.473   0.059  1.00  0.00    -0.186 N 
ATOM      7  H6  UNL     1      -3.904  -0.736   0.151  1.00  0.00     0.213 HD
HETATM    8  N7  UNL     1      -1.977  -1.244  -0.435  1.00  0.00     0.035 N 
ENDROOT
BRANCH   1   9
HETATM    9  N3  UNL     1       0.291  -1.000  -0.796  1.00  0.00    -0.123 N 
ATOM     10  H3  UNL     1       0.320  -1.946  -1.176  1.00  0.00     0.206 HD
BRANCH   9  11
HETATM   11  N2  UNL     1       1.482  -0.273  -0.748  1.00  0.00    -0.239 N 
HETATM   12  C1  UNL     1       2.218  -0.026   0.418  1.00  0.00     0.347 C 
HETATM   13  N1  UNL     1       3.415   0.728   0.338  1.00  0.00    -0.038 NA
HETATM   14  O1  UNL     1       1.883  -0.436   1.557  1.00  0.00    -0.249 OA
ATOM     15  H2  UNL     1       1.842   0.105  -1.624  1.00  0.00     0.192 HD
ENDBRANCH   9  11
ENDBRANCH   1   9
BRANCH   8  16
HETATM   16  O2  UNL     1      -2.141  -2.408  -0.862  1.00  0.00    -0.253 OA
ATOM     17  H2  UNL     1      -2.948  -2.908  -0.896  1.00  0.00     0.247 HD
ENDBRANCH   8  16
TORSDOF 3
