REMARK  5 active torsions:
REMARK  status: ('A' for Active; 'I' for Inactive)
REMARK    1  A    between atoms: C2_2  and  C4_4 
REMARK    2  A    between atoms: C4_4  and  C5_5 
REMARK    3  A    between atoms: C5_5  and  N1_6 
REMARK    4  A    between atoms: C5_5  and  C6_10 
REMARK       I    between atoms: C6_10  and  N2_12 
REMARK       I    between atoms: N3_19  and  C13_20 
REMARK       I    between atoms: C13_20  and  N4_22 
REMARK    5  A    between atoms: N4_22  and  C14_24 
ROOT
HETATM    1  C6  UNL     1      -1.890  -1.050  -0.698  1.00  0.00     0.251 C 
HETATM    2  O1  UNL     1      -1.217  -1.715  -1.562  1.00  0.00    -0.271 OA
HETATM    3  N2  UNL     1      -1.129  -0.132   0.075  1.00  0.00    -0.339 N 
HETATM    4  C7  UNL     1      -1.757   0.701   1.115  1.00  0.00     0.127 C 
HETATM    5  C8  UNL     1      -0.702   0.772   2.201  1.00  0.00     0.022 C 
HETATM    6  C9  UNL     1       0.547   0.914   1.383  1.00  0.00     0.034 C 
HETATM    7  C10 UNL     1       0.242   0.207   0.083  1.00  0.00     0.053 C 
HETATM    8  C11 UNL     1       0.702   1.115  -1.035  1.00  0.00     0.053 C 
HETATM    9  C12 UNL     1       2.219   1.113  -0.779  1.00  0.00     0.130 C 
HETATM   10  N3  UNL     1       2.476  -0.159  -0.129  1.00  0.00    -0.332 N 
HETATM   11  C13 UNL     1       3.738  -0.583   0.355  1.00  0.00     0.318 C 
HETATM   12  O2  UNL     1       3.841  -1.715   0.903  1.00  0.00    -0.247 OA
HETATM   13  N4  UNL     1       4.911   0.200   0.260  1.00  0.00    -0.339 N 
ATOM     14  H4  UNL     1       4.835   1.116  -0.181  1.00  0.00     0.164 HD
HETATM   15  C17 UNL     1       1.218  -0.927  -0.056  1.00  0.00     0.158 C 
ENDROOT
BRANCH   1  16
HETATM   16  C5  UNL     1      -3.349  -1.252  -0.545  1.00  0.00     0.275 C 
BRANCH  16  17
HETATM   17  C4  UNL     1      -4.145  -0.048  -0.974  1.00  0.00     0.046 C 
BRANCH  17  18
HETATM   18  C2  UNL     1      -5.630  -0.263  -0.862  1.00  0.00    -0.020 C 
HETATM   19  C1  UNL     1      -6.093  -0.569   0.520  1.00  0.00     0.009 C 
HETATM   20  C3  UNL     1      -6.405   0.927  -1.382  1.00  0.00     0.009 C 
ENDBRANCH  17  18
ENDBRANCH  16  17
BRANCH  16  21
HETATM   21  N1  UNL     1      -3.712  -2.398  -1.402  1.00  0.00    -0.066 N 
ATOM     22  H13 UNL     1      -4.716  -2.577  -1.406  1.00  0.00     0.275 HD
ATOM     23  H12 UNL     1      -3.600  -2.192  -2.395  1.00  0.00     0.275 HD
ATOM     24  H11 UNL     1      -3.173  -3.214  -1.111  1.00  0.00     0.275 HD
ENDBRANCH  16  21
ENDBRANCH   1  16
BRANCH  13  25
HETATM   25  C14 UNL     1       6.195  -0.203   0.739  1.00  0.00     0.078 C 
HETATM   26  C15 UNL     1       7.220  -0.307  -0.389  1.00  0.00     0.032 C 
HETATM   27  C16 UNL     1       6.765   0.666   1.816  1.00  0.00     0.032 C 
ENDBRANCH  13  25
TORSDOF 5
