REMARK  4 active torsions:
REMARK  status: ('A' for Active; 'I' for Inactive)
REMARK    1  A    between atoms: C1_2  and  C2_3 
REMARK       I    between atoms: C1_2  and  N3_17 
REMARK    2  A    between atoms: C2_3  and  N1_4 
REMARK    3  A    between atoms: N3_17  and  C12_19 
REMARK    4  A    between atoms: C12_19  and  C13_20 
ROOT
HETATM    1  N1  UNL     1      -0.726  -1.590  -1.001  1.00  0.00    -0.323 N 
HETATM    2  C3  UNL     1      -1.194  -0.233  -0.926  1.00  0.00     0.159 C 
HETATM    3  C4  UNL     1      -2.366  -0.223   0.051  1.00  0.00     0.051 C 
HETATM    4  C5  UNL     1      -2.258   0.968   0.900  1.00  0.00     0.033 C 
HETATM    5  C6  UNL     1      -3.470   1.795   1.086  1.00  0.00     0.002 C 
HETATM    6  C7  UNL     1      -4.183   2.161  -0.174  1.00  0.00     0.000 C 
HETATM    7  C8  UNL     1      -5.376   1.247  -0.322  1.00  0.00     0.000 C 
HETATM    8  C9  UNL     1      -4.881  -0.167  -0.014  1.00  0.00     0.002 C 
HETATM    9  C10 UNL     1      -3.612  -0.369  -0.758  1.00  0.00     0.033 C 
HETATM   10  N2  UNL     1      -2.172  -1.450   0.793  1.00  0.00    -0.332 N 
ATOM     11  H2  UNL     1      -2.481  -1.636   1.747  1.00  0.00     0.165 HD
HETATM   12  C11 UNL     1      -1.470  -2.349  -0.057  1.00  0.00     0.319 C 
HETATM   13  O2  UNL     1      -1.463  -3.610  -0.034  1.00  0.00    -0.247 OA
ENDROOT
BRANCH   1  14
HETATM   14  C2  UNL     1       0.294  -2.055  -1.894  1.00  0.00     0.230 C 
BRANCH  14  15
HETATM   15  C1  UNL     1       1.659  -1.970  -1.224  1.00  0.00     0.239 C 
HETATM   16  O1  UNL     1       2.596  -2.367  -1.988  1.00  0.00    -0.271 OA
HETATM   17  N3  UNL     1       1.785  -1.501   0.078  1.00  0.00    -0.339 N 
ATOM     18  H3  UNL     1       0.912  -1.243   0.537  1.00  0.00     0.167 HD
BRANCH  17  19
HETATM   19  C12 UNL     1       2.935  -1.334   0.843  1.00  0.00     0.068 C 
BRANCH  19  20
HETATM   20  C13 UNL     1       3.977  -0.352   0.525  1.00  0.00     0.028 C 
HETATM   21  C14 UNL     1       4.664  -0.495  -0.786  1.00  0.00     0.036 C 
HETATM   22  C15 UNL     1       5.861   0.509  -0.700  1.00  0.00     0.168 C 
HETATM   23  O3  UNL     1       5.269   1.768  -0.752  1.00  0.00    -0.391 OA
HETATM   24  C16 UNL     1       4.521   2.081   0.357  1.00  0.00     0.168 C 
HETATM   25  C17 UNL     1       3.439   1.074   0.685  1.00  0.00     0.036 C 
ENDBRANCH  19  20
ENDBRANCH  17  19
ENDBRANCH  14  15
ENDBRANCH   1  14
TORSDOF 4
