REMARK  5 active torsions:
REMARK  status: ('A' for Active; 'I' for Inactive)
REMARK       I    between atoms: C2_2  and  N1_4 
REMARK    1  A    between atoms: C7_10  and  C8_11 
REMARK    2  A    between atoms: C8_11  and  N3_12 
REMARK    3  A    between atoms: N3_12  and  C9_14 
REMARK    4  A    between atoms: C9_14  and  N4_16 
REMARK    5  A    between atoms: N4_16  and  C10_18 
ROOT
HETATM    1  C8  UNL     1      -0.694   1.244   1.137  1.00  0.00     0.159 C 
ENDROOT
BRANCH   1   2
HETATM    2  C7  UNL     1      -1.351   0.536  -0.060  1.00  0.00     0.258 C 
HETATM    3  N2  UNL     1      -1.956   1.576  -0.857  1.00  0.00     0.098 N 
HETATM    4  C4  UNL     1      -3.288   1.823  -0.401  1.00  0.00     0.237 C 
HETATM    5  C6  UNL     1      -1.906   1.130  -2.241  1.00  0.00     0.311 C 
HETATM    6  C3  UNL     1      -4.130   0.645  -0.830  1.00  0.00     0.161 C 
HETATM    7  C5  UNL     1      -3.835   3.118  -0.983  1.00  0.00     0.044 C 
HETATM    8  N1  UNL     1      -3.586  -0.539  -0.210  1.00  0.00    -0.348 N 
HETATM    9  C2  UNL     1      -4.364  -1.755  -0.277  1.00  0.00     0.215 C 
HETATM   10  C16 UNL     1      -2.325  -0.495   0.446  1.00  0.00     0.163 C 
HETATM   11  C1  UNL     1      -3.841  -3.001   0.346  1.00  0.00     0.117 C 
HETATM   12  O1  UNL     1      -5.474  -1.803  -0.845  1.00  0.00    -0.274 OA
ENDBRANCH   1   2
BRANCH   1  13
HETATM   13  N3  UNL     1      -0.067   0.224   1.947  1.00  0.00    -0.365 N 
ATOM     14  H3  UNL     1      -0.526  -0.007   2.828  1.00  0.00     0.161 HD
BRANCH  13  15
HETATM   15  C9  UNL     1       1.102  -0.478   1.648  1.00  0.00     0.167 C 
HETATM   16  S1  UNL     1       1.579  -1.660   2.708  1.00  0.00    -0.041 SA
BRANCH  15  17
HETATM   17  N4  UNL     1       1.884  -0.267   0.501  1.00  0.00    -0.363 N 
ATOM     18  H4  UNL     1       1.591   0.444  -0.170  1.00  0.00     0.162 HD
BRANCH  17  19
HETATM   19  C10 UNL     1       3.105  -1.031   0.233  1.00  0.00     0.083 C 
HETATM   20  C11 UNL     1       3.558  -0.691  -1.158  1.00  0.00     0.025 C 
HETATM   21  C12 UNL     1       5.014  -0.885  -1.425  1.00  0.00     0.002 C 
HETATM   22  C13 UNL     1       5.910  -0.333  -0.352  1.00  0.00     0.000 C 
HETATM   23  C14 UNL     1       5.172   0.312   0.766  1.00  0.00     0.002 C 
HETATM   24  C15 UNL     1       4.118  -0.644   1.280  1.00  0.00     0.025 C 
ENDBRANCH  17  19
ENDBRANCH  15  17
ENDBRANCH  13  15
ENDBRANCH   1  13
TORSDOF 5
