REMARK  4 active torsions:
REMARK  status: ('A' for Active; 'I' for Inactive)
REMARK       I    between atoms: N1_2  and  C2_3 
REMARK    1  A    between atoms: N1_2  and  C11_20 
REMARK       I    between atoms: C2_3  and  N3_7 
REMARK    2  A    between atoms: C3_8  and  C4_9 
REMARK    3  A    between atoms: C4_9  and  C5_10 
REMARK    4  A    between atoms: C5_10  and  O1_11 
ROOT
HETATM    1  C1  UNL     1       0.466   2.345  -1.904  1.00  0.00     0.175 C 
HETATM    2  N1  UNL     1       0.429   0.871  -1.844  1.00  0.00    -0.191 N 
HETATM    3  C2  UNL     1      -0.881   0.315  -1.727  1.00  0.00     0.695 C 
HETATM    4  N2  UNL     1      -1.149  -0.459  -2.750  1.00  0.00    -0.233 N 
ATOM      5  H21 UNL     1      -2.085  -0.856  -2.666  1.00  0.00     0.174 HD
ATOM      6  H22 UNL     1      -0.493  -0.676  -3.500  1.00  0.00     0.174 HD
HETATM    7  N3  UNL     1      -1.793   0.616  -0.685  1.00  0.00    -0.114 N 
HETATM    8  C3  UNL     1      -1.540   0.239   0.762  1.00  0.00     0.133 C 
HETATM    9  C6  UNL     1      -2.676   0.845   1.563  1.00  0.00     0.021 C 
HETATM   10  C7  UNL     1      -2.680   2.363   1.412  1.00  0.00     0.029 C 
HETATM   11  C8  UNL     1      -2.985   2.660  -0.141  1.00  0.00     0.153 C 
HETATM   12  N4  UNL     1      -3.003   1.281  -0.535  1.00  0.00    -0.244 N 
HETATM   13  C9  UNL     1      -4.195   0.602  -0.316  1.00  0.00     0.239 C 
HETATM   14  O2  UNL     1      -5.222   0.144  -0.826  1.00  0.00    -0.272 OA
HETATM   15  C10 UNL     1      -4.076   0.370   1.263  1.00  0.00     0.111 C 
ENDROOT
BRANCH   2  16
HETATM   16  C11 UNL     1       1.678   0.207  -1.953  1.00  0.00     0.040 C 
HETATM   17  C12 UNL     1       1.728  -1.252  -1.775  1.00  0.00     0.057 C 
HETATM   18  C13 UNL     1       2.681  -1.848  -0.805  1.00  0.00     0.014 C 
HETATM   19  C14 UNL     1       3.195  -1.004   0.304  1.00  0.00    -0.044 C 
HETATM   20  C15 UNL     1       2.788  -1.510   1.661  1.00  0.00     0.015 C 
HETATM   21  C16 UNL     1       4.714  -0.980   0.291  1.00  0.00     0.015 C 
HETATM   22  C17 UNL     1       2.751   0.440   0.205  1.00  0.00     0.052 C 
HETATM   23  C18 UNL     1       2.830   0.848  -1.246  1.00  0.00     0.217 C 
HETATM   24  F1  UNL     1       3.034   2.161  -1.452  1.00  0.00    -0.243 F 
ENDBRANCH   2  16
BRANCH   8  25
HETATM   25  C4  UNL     1      -1.183  -1.107   1.074  1.00  0.00     0.054 C 
BRANCH  25  26
HETATM   26  C5  UNL     1      -2.024  -2.292   0.841  1.00  0.00     0.166 C 
BRANCH  26  27
HETATM   27  O1  UNL     1      -2.428  -2.553  -0.447  1.00  0.00    -0.401 OA
ATOM     28  H1  UNL     1      -2.971  -3.318  -0.597  1.00  0.00     0.209 HD
ENDBRANCH  26  27
ENDBRANCH  25  26
ENDBRANCH   8  25
TORSDOF 4
