REMARK  7 active torsions:
REMARK  status: ('A' for Active; 'I' for Inactive)
REMARK       I    between atoms: N2_5  and  C4_6 
REMARK       I    between atoms: C4_6  and  N3_8 
REMARK    1  A    between atoms: N3_8  and  C5_10 
REMARK    2  A    between atoms: N4_13  and  C8_14 
REMARK    3  A    between atoms: C8_14  and  O2_15 
REMARK    4  A    between atoms: C8_14  and  N5_17 
REMARK    5  A    between atoms: C11_20  and  C12_22 
REMARK       I    between atoms: C12_22  and  N6_24 
REMARK    6  A    between atoms: N6_24  and  C13_26 
REMARK    7  A    between atoms: C13_26  and  C14_27 
ROOT
HETATM    1  C5  UNL     1       1.811   0.493   1.202  1.00  0.00     0.089 C 
HETATM    2  C6  UNL     1       1.775   1.591   2.236  1.00  0.00     0.045 C 
HETATM    3  C7  UNL     1       0.418   2.111   2.506  1.00  0.00     0.128 C 
HETATM    4  N4  UNL     1      -0.678   1.199   2.190  1.00  0.00    -0.347 N 
HETATM    5  C18 UNL     1      -0.587   0.253   1.117  1.00  0.00     0.128 C 
HETATM    6  C19 UNL     1       0.636   0.731   0.282  1.00  0.00     0.045 C 
ENDROOT
BRANCH   4   7
HETATM    7  C8  UNL     1      -1.849   1.296   2.970  1.00  0.00     0.220 C 
BRANCH   7   8
HETATM    8  O2  UNL     1      -1.852   2.223   3.893  1.00  0.00    -0.332 OA
ATOM      9  H2  UNL     1      -2.641   2.288   4.418  1.00  0.00     0.220 HD
ENDBRANCH   7   8
BRANCH   7  10
HETATM   10  N5  UNL     1      -3.021   0.521   2.880  1.00  0.00    -0.303 N 
HETATM   11  C9  UNL     1      -4.276   0.657   3.671  1.00  0.00     0.136 C 
HETATM   12  C10 UNL     1      -4.546  -0.786   3.396  1.00  0.00     0.097 C 
HETATM   13  C11 UNL     1      -3.614  -0.556   2.212  1.00  0.00     0.263 C 
HETATM   14  F1  UNL     1      -2.889  -1.685   1.899  1.00  0.00    -0.208 F 
BRANCH  13  15
HETATM   15  C12 UNL     1      -4.491  -0.208   1.024  1.00  0.00     0.279 C 
HETATM   16  O3  UNL     1      -4.602   1.001   0.810  1.00  0.00    -0.268 OA
HETATM   17  N6  UNL     1      -5.090  -1.207   0.281  1.00  0.00    -0.356 N 
ATOM     18  H6  UNL     1      -4.900  -2.156   0.602  1.00  0.00     0.162 HD
BRANCH  17  19
HETATM   19  C13 UNL     1      -5.924  -1.118  -0.853  1.00  0.00     0.131 C 
BRANCH  19  20
HETATM   20  C14 UNL     1      -5.432  -0.576  -2.127  1.00  0.00    -0.035 C 
HETATM   21  C15 UNL     1      -4.944   0.810  -2.219  1.00  0.00     0.016 C 
HETATM   22  C16 UNL     1      -4.296  -1.502  -2.615  1.00  0.00     0.016 C 
HETATM   23  C17 UNL     1      -6.574  -0.723  -3.169  1.00  0.00     0.016 C 
ENDBRANCH  19  20
ENDBRANCH  17  19
ENDBRANCH  13  15
ENDBRANCH   7  10
ENDBRANCH   4   7
BRANCH   1  24
HETATM   24  N3  UNL     1       3.015   0.533   0.405  1.00  0.00    -0.338 N 
HETATM   25  C4  UNL     1       3.961  -0.504   0.363  1.00  0.00     0.318 C 
HETATM   26  N2  UNL     1       5.111  -0.417  -0.426  1.00  0.00    -0.331 N 
HETATM   27  O1  UNL     1       3.765  -1.530   1.054  1.00  0.00    -0.247 OA
HETATM   28  C3  UNL     1       6.095  -1.478  -0.449  1.00  0.00     0.147 C 
HETATM   29  C20 UNL     1       5.352   0.735  -1.251  1.00  0.00     0.147 C 
HETATM   30  C2  UNL     1       7.481  -0.978  -0.791  1.00  0.00     0.136 C 
HETATM   31  N1  UNL     1       7.500  -0.222  -2.018  1.00  0.00    -0.414 N 
HETATM   32  C1  UNL     1       8.617   0.656  -2.148  1.00  0.00     0.143 C 
HETATM   33  C21 UNL     1       6.238   0.303  -2.401  1.00  0.00     0.136 C 
ATOM     34  H3  UNL     1       3.188   1.364  -0.161  1.00  0.00     0.164 HD
ENDBRANCH   1  24
TORSDOF 7
