REMARK  5 active torsions:
REMARK  status: ('A' for Active; 'I' for Inactive)
REMARK    1  A    between atoms: O1_2  and  C2_3 
REMARK    2  A    between atoms: C2_3  and  N5_30 
REMARK       I    between atoms: N1_4  and  C3_6 
REMARK       I    between atoms: N3_8  and  C4_10 
REMARK    3  A    between atoms: C4_10  and  C5_12 
REMARK    4  A    between atoms: C14_21  and  N4_22 
REMARK       I    between atoms: N4_22  and  C15_24 
REMARK    5  A    between atoms: C15_24  and  C16_26 
ROOT
HETATM    1  C5  UNL     1       0.644   0.199  -0.352  1.00  0.00     0.079 C 
HETATM    2  C6  UNL     1       1.001  -1.160   0.141  1.00  0.00     0.018 C 
HETATM    3  C7  UNL     1       1.667  -2.048  -0.847  1.00  0.00    -0.011 C 
HETATM    4  C8  UNL     1       1.104  -1.681  -2.198  1.00  0.00     0.010 C 
HETATM    5  C9  UNL     1       1.774  -0.334  -2.567  1.00  0.00    -0.007 C 
HETATM    6  C10 UNL     1       1.274   0.667  -1.615  1.00  0.00     0.019 C 
HETATM    7  C11 UNL     1       3.186  -0.692  -2.557  1.00  0.00     0.018 C 
HETATM    8  C12 UNL     1       4.360  -0.080  -3.069  1.00  0.00     0.010 C 
HETATM    9  C13 UNL     1       5.060  -0.968  -2.073  1.00  0.00     0.032 C 
HETATM   10  C14 UNL     1       3.813  -0.839  -1.237  1.00  0.00     0.037 C 
HETATM   11  C19 UNL     1       3.152  -2.164  -0.782  1.00  0.00     0.036 C 
ENDROOT
BRANCH   1  12
HETATM   12  C4  UNL     1      -0.840   0.468  -0.328  1.00  0.00     0.228 C 
HETATM   13  N3  UNL     1      -1.601   0.438   0.854  1.00  0.00    -0.301 N 
HETATM   14  C3  UNL     1      -2.589  -0.358   1.041  1.00  0.00     0.198 C 
ATOM     15  H3  UNL     1      -1.354   1.084   1.603  1.00  0.00     0.171 HD
HETATM   16  N1  UNL     1      -3.284  -0.298   2.275  1.00  0.00    -0.296 N 
HETATM   17  N2  UNL     1      -3.030  -1.305   0.069  1.00  0.00    -0.063 NA
HETATM   18  C2  UNL     1      -4.537  -0.040   2.386  1.00  0.00     0.223 C 
ATOM     19  H1  UNL     1      -2.755  -0.471   3.130  1.00  0.00     0.172 HD
HETATM   20  O2  UNL     1      -1.402   0.729  -1.422  1.00  0.00    -0.273 OA
BRANCH  18  21
HETATM   21  O1  UNL     1      -5.090  -0.015   3.673  1.00  0.00    -0.327 OA
HETATM   22  C1  UNL     1      -4.294  -0.495   4.749  1.00  0.00     0.213 C 
ENDBRANCH  18  21
BRANCH  18  23
HETATM   23  N5  UNL     1      -5.346   0.213   1.242  1.00  0.00    -0.344 N 
HETATM   24  C20 UNL     1      -6.415  -0.626   0.772  1.00  0.00     0.129 C 
HETATM   25  C21 UNL     1      -7.257   0.245  -0.148  1.00  0.00     0.058 C 
HETATM   26  C22 UNL     1      -6.719   1.623   0.061  1.00  0.00     0.189 C 
HETATM   27  F1  UNL     1      -7.304   2.208   1.149  1.00  0.00    -0.248 F 
HETATM   28  C23 UNL     1      -5.238   1.352   0.351  1.00  0.00     0.163 C 
ENDBRANCH  18  23
ENDBRANCH   1  12
BRANCH  10  29
HETATM   29  N4  UNL     1       4.037   0.031  -0.193  1.00  0.00    -0.351 N 
HETATM   30  C15 UNL     1       4.819   1.162  -0.027  1.00  0.00     0.222 C 
HETATM   31  O3  UNL     1       5.567   1.658  -0.894  1.00  0.00    -0.273 OA
ATOM     32  H4  UNL     1       3.509  -0.212   0.645  1.00  0.00     0.163 HD
BRANCH  30  33
HETATM   33  C16 UNL     1       4.821   1.926   1.304  1.00  0.00     0.078 A 
HETATM   34  C17 UNL     1       6.193   2.306   1.745  1.00  0.00     0.015 A 
HETATM   35  C18 UNL     1       5.152   3.347   1.340  1.00  0.00     0.015 A 
ENDBRANCH  30  33
ENDBRANCH  10  29
TORSDOF 5
