REMARK  3 active torsions:
REMARK  status: ('A' for Active; 'I' for Inactive)
REMARK    1  A    between atoms: C1_2  and  C2_4 
REMARK    2  A    between atoms: C5_7  and  N1_8 
REMARK       I    between atoms: N1_8  and  C6_10 
REMARK       I    between atoms: C6_10  and  N2_12 
REMARK       I    between atoms: N3_17  and  C11_18 
REMARK       I    between atoms: C11_18  and  N4_20 
REMARK    3  A    between atoms: C15_24  and  C16_25 
ROOT
HETATM    1  N1  UNL     1       3.193   0.267  -1.008  1.00  0.00    -0.338 N 
ATOM      2  H1  UNL     1       3.043  -0.690  -0.689  1.00  0.00     0.164 HD
HETATM    3  C6  UNL     1       2.132   0.933  -1.664  1.00  0.00     0.318 C 
HETATM    4  O3  UNL     1       2.380   2.134  -2.042  1.00  0.00    -0.247 OA
HETATM    5  N2  UNL     1       0.872   0.340  -1.900  1.00  0.00    -0.332 N 
HETATM    6  C7  UNL     1       0.260  -0.934  -1.628  1.00  0.00     0.142 C 
HETATM    7  C8  UNL     1      -1.049  -0.274  -1.702  1.00  0.00     0.025 A 
HETATM    8  C9  UNL     1      -0.359   0.752  -2.521  1.00  0.00     0.142 C 
HETATM    9  C10 UNL     1      -2.230  -0.960  -2.196  1.00  0.00     0.142 A 
HETATM   10  N3  UNL     1      -2.902  -0.614  -0.921  1.00  0.00    -0.332 N 
HETATM   11  C11 UNL     1      -4.185  -0.942  -0.410  1.00  0.00     0.320 C 
HETATM   12  O4  UNL     1      -4.963  -1.669  -1.119  1.00  0.00    -0.247 OA
HETATM   13  N4  UNL     1      -4.685  -0.536   0.822  1.00  0.00    -0.329 N 
HETATM   14  C12 UNL     1      -4.059   0.291   1.818  1.00  0.00     0.128 C 
HETATM   15  C13 UNL     1      -5.219   1.261   2.109  1.00  0.00     0.022 C 
HETATM   16  C14 UNL     1      -6.372   0.305   2.252  1.00  0.00     0.028 C 
HETATM   17  C15 UNL     1      -5.989  -0.875   1.389  1.00  0.00     0.099 C 
HETATM   18  C17 UNL     1      -1.751   0.137  -0.477  1.00  0.00     0.142 A 
ENDROOT
BRANCH   1  19
HETATM   19  C5  UNL     1       4.473   0.877  -0.770  1.00  0.00     0.087 C 
HETATM   20  C4  UNL     1       5.620   0.123  -1.397  1.00  0.00     0.026 C 
HETATM   21  C3  UNL     1       6.687  -0.022  -0.333  1.00  0.00     0.017 C 
HETATM   22  C2  UNL     1       6.341   1.082   0.632  1.00  0.00     0.089 C 
HETATM   23  C18 UNL     1       4.818   0.933   0.715  1.00  0.00     0.040 C 
BRANCH  22  24
HETATM   24  C1  UNL     1       6.972   0.926   1.951  1.00  0.00     0.177 C 
HETATM   25  O1  UNL     1       7.747   1.827   2.364  1.00  0.00    -0.648 OA
HETATM   26  O2  UNL     1       6.761  -0.157   2.761  1.00  0.00    -0.648 OA
ENDBRANCH  22  24
ENDBRANCH   1  19
BRANCH  17  27
HETATM   27  C16 UNL     1      -5.884  -2.073   2.324  1.00  0.00     0.110 C 
HETATM   28 BR1  UNL     1      -5.230  -3.620   1.417  1.00  0.00    -0.094 Br
ENDBRANCH  17  27
TORSDOF 3
