REMARK  3 active torsions:
REMARK  status: ('A' for Active; 'I' for Inactive)
REMARK    1  A    between atoms: C4_7  and  C5_8 
REMARK    2  A    between atoms: C5_8  and  N2_9 
REMARK       I    between atoms: N2_9  and  C6_11 
REMARK    3  A    between atoms: C6_11  and  C7_13 
REMARK       I    between atoms: N3_15  and  C9_16 
REMARK       I    between atoms: C9_16  and  N4_18 
ROOT
HETATM    1  C7  UNL     1      -0.039   2.747   0.804  1.00  0.00     0.114 C 
HETATM    2  C8  UNL     1      -0.619   1.361   0.570  1.00  0.00     0.143 C 
HETATM    3  N3  UNL     1      -1.791   1.891  -0.061  1.00  0.00    -0.332 N 
HETATM    4  C9  UNL     1      -3.030   1.445  -0.526  1.00  0.00     0.321 C 
HETATM    5  O3  UNL     1      -3.836   2.310  -1.058  1.00  0.00    -0.247 OA
HETATM    6  N4  UNL     1      -3.527   0.117  -0.484  1.00  0.00    -0.322 N 
HETATM    7  C10 UNL     1      -2.704  -0.909   0.074  1.00  0.00     0.171 C 
HETATM    8  C11 UNL     1      -3.182  -2.311  -0.061  1.00  0.00     0.116 C 
HETATM    9  C12 UNL     1      -3.791  -2.727   1.281  1.00  0.00     0.053 C 
HETATM   10  F1  UNL     1      -2.144  -3.216  -0.319  1.00  0.00    -0.242 F 
HETATM   11  C13 UNL     1      -4.206  -2.483  -1.161  1.00  0.00     0.047 C 
HETATM   12  C14 UNL     1      -5.341  -1.541  -0.797  1.00  0.00     0.033 C 
HETATM   13  C15 UNL     1      -4.844  -0.141  -1.001  1.00  0.00     0.030 C 
HETATM   14  C16 UNL     1      -5.814   0.798  -0.293  1.00  0.00     0.038 C 
HETATM   15  C17 UNL     1      -4.864   0.140  -2.507  1.00  0.00     0.038 C 
HETATM   16  C18 UNL     1      -1.167   3.221  -0.050  1.00  0.00     0.143 C 
ENDROOT
BRANCH   1  17
HETATM   17  C6  UNL     1       1.266   2.981   0.164  1.00  0.00     0.225 C 
HETATM   18  N2  UNL     1       2.373   2.166   0.493  1.00  0.00    -0.358 N 
ATOM     19  H2  UNL     1       2.259   1.417   1.175  1.00  0.00     0.162 HD
HETATM   20  O2  UNL     1       1.422   3.896  -0.675  1.00  0.00    -0.273 OA
BRANCH  18  21
HETATM   21  C5  UNL     1       3.688   2.381  -0.133  1.00  0.00     0.164 C 
BRANCH  21  22
HETATM   22  C4  UNL     1       4.621   1.343   0.444  1.00  0.00     0.231 C 
HETATM   23  C3  UNL     1       5.955   1.371  -0.209  1.00  0.00     0.248 C 
HETATM   24  N1  UNL     1       6.673   0.139  -0.210  1.00  0.00    -0.352 N 
HETATM   25  O1  UNL     1       6.466   2.382  -0.740  1.00  0.00    -0.271 OA
HETATM   26  C2  UNL     1       6.187  -0.892   0.689  1.00  0.00     0.109 C 
ATOM     27  H1  UNL     1       7.484  -0.010  -0.810  1.00  0.00     0.163 HD
HETATM   28  C1  UNL     1       6.688  -2.263   0.284  1.00  0.00     0.035 C 
HETATM   29  C19 UNL     1       4.707  -0.853   0.889  1.00  0.00     0.141 C 
HETATM   30  O4  UNL     1       4.058   0.091   0.103  1.00  0.00    -0.368 OA
HETATM   31  C20 UNL     1       4.059  -2.201   0.549  1.00  0.00     0.041 C 
ENDBRANCH  21  22
ENDBRANCH  18  21
ENDBRANCH   1  17
TORSDOF 3
