REMARK  4 active torsions:
REMARK  status: ('A' for Active; 'I' for Inactive)
REMARK    1  A    between atoms: N1_7  and  C5_8 
REMARK    2  A    between atoms: C5_8  and  C6_9 
REMARK    3  A    between atoms: C9_12  and  O3_13 
REMARK    4  A    between atoms: C12_17  and  N2_18 
REMARK       I    between atoms: N2_18  and  C13_20 
REMARK       I    between atoms: C13_20  and  N3_22 
ROOT
HETATM    1  C6  UNL     1      -2.394  -0.387  -1.326  1.00  0.00    -0.023 C 
HETATM    2  C7  UNL     1      -2.772  -0.756  -2.773  1.00  0.00     0.014 C 
HETATM    3  C8  UNL     1      -1.985  -1.967  -3.143  1.00  0.00     0.039 C 
HETATM    4  C9  UNL     1      -0.806  -2.172  -2.257  1.00  0.00     0.067 C 
HETATM    5  C10 UNL     1      -1.247  -2.521  -0.828  1.00  0.00     0.023 C 
HETATM    6  C11 UNL     1      -0.116  -2.013   0.067  1.00  0.00     0.033 C 
HETATM    7  C12 UNL     1       0.895  -1.406  -0.879  1.00  0.00     0.093 C 
HETATM    8  C19 UNL     1      -0.030  -0.886  -1.973  1.00  0.00     0.044 C 
HETATM    9  C20 UNL     1      -0.968   0.105  -1.373  1.00  0.00     0.021 C 
HETATM   10  C21 UNL     1      -2.501  -1.698  -0.570  1.00  0.00     0.019 C 
ENDROOT
BRANCH   7  11
HETATM   11  N2  UNL     1       1.697  -0.389  -0.278  1.00  0.00    -0.338 N 
HETATM   12  C13 UNL     1       3.125  -0.457  -0.376  1.00  0.00     0.318 C 
HETATM   13  O4  UNL     1       3.624  -1.422  -0.996  1.00  0.00    -0.247 OA
HETATM   14  N3  UNL     1       3.966   0.525   0.201  1.00  0.00    -0.334 N 
HETATM   15  C14 UNL     1       5.384   0.408   0.073  1.00  0.00     0.130 C 
HETATM   16  C18 UNL     1       3.318   1.625   0.910  1.00  0.00     0.130 C 
HETATM   17  C15 UNL     1       6.151   0.872   1.280  1.00  0.00     0.057 C 
HETATM   18  C16 UNL     1       5.318   1.576   2.296  1.00  0.00     0.173 C 
HETATM   19  F1  UNL     1       6.142   2.359   3.086  1.00  0.00    -0.249 F 
HETATM   20  C17 UNL     1       4.341   2.482   1.578  1.00  0.00     0.057 C 
ATOM     21  H2  UNL     1       1.255   0.384   0.220  1.00  0.00     0.164 HD
ENDBRANCH   7  11
BRANCH   4  22
HETATM   22  O3  UNL     1       0.086  -3.084  -2.761  1.00  0.00    -0.389 OA
ATOM     23  H3  UNL     1       0.838  -3.215  -2.196  1.00  0.00     0.210 HD
ENDBRANCH   4  22
BRANCH   1  24
HETATM   24  C5  UNL     1      -3.321   0.662  -0.814  1.00  0.00     0.138 C 
BRANCH  24  25
HETATM   25  N1  UNL     1      -3.087   1.129   0.521  1.00  0.00    -0.321 N 
HETATM   26  C2  UNL     1      -3.548   0.667   1.809  1.00  0.00     0.109 C 
HETATM   27  C1  UNL     1      -4.951   0.175   1.816  1.00  0.00     0.034 C 
HETATM   28  C3  UNL     1      -3.481   1.962   2.633  1.00  0.00     0.205 C 
HETATM   29  O1  UNL     1      -2.177   2.405   2.208  1.00  0.00    -0.302 OA
HETATM   30  C4  UNL     1      -2.257   2.266   0.809  1.00  0.00     0.363 C 
HETATM   31  O2  UNL     1      -1.669   3.051   0.008  1.00  0.00    -0.238 OA
ENDBRANCH  24  25
ENDBRANCH   1  24
TORSDOF 4
