REMARK  3 active torsions:
REMARK  status: ('A' for Active; 'I' for Inactive)
REMARK       I    between atoms: C2_4  and  N3_6 
REMARK    1  A    between atoms: N3_6  and  C3_8 
REMARK    2  A    between atoms: C3_8  and  C4_9 
REMARK    3  A    between atoms: C4_9  and  N4_10 
ROOT
HETATM    1  N4  UNL     1       0.427  -0.349   0.987  1.00  0.00    -0.369 N 
ATOM      2  H4  UNL     1       0.606  -0.403   1.990  1.00  0.00     0.161 HD
HETATM    3  C5  UNL     1      -0.690   0.168   0.670  1.00  0.00     0.137 C 
HETATM    4  N5  UNL     1      -1.039   0.294  -0.690  1.00  0.00    -0.366 N 
ATOM      5  H5  UNL     1      -0.268   0.238  -1.355  1.00  0.00     0.162 HD
HETATM    6  C6  UNL     1      -2.338   0.491  -1.255  1.00  0.00     0.092 C 
HETATM    7  C7  UNL     1      -2.883   1.763  -0.590  1.00  0.00     0.033 C 
HETATM    8  C8  UNL     1      -3.732   0.894   0.261  1.00  0.00     0.022 C 
HETATM    9  C9  UNL     1      -3.391   0.844   1.706  1.00  0.00     0.132 C 
HETATM   10 BR1  UNL     1      -3.985   2.544   2.473  1.00  0.00    -0.079 Br
HETATM   11  S1  UNL     1      -1.663   0.660   2.107  1.00  0.00    -0.078 SA
HETATM   12  C10 UNL     1      -3.440  -0.293  -0.559  1.00  0.00    -0.022 C 
HETATM   13  C11 UNL     1      -4.515  -0.571  -1.610  1.00  0.00     0.017 C 
HETATM   14  C12 UNL     1      -3.036  -1.566   0.116  1.00  0.00     0.017 C 
ENDROOT
BRANCH   1  15
HETATM   15  C4  UNL     1       1.460  -0.861   0.171  1.00  0.00     0.141 C 
BRANCH  15  16
HETATM   16  C3  UNL     1       2.810  -0.282   0.647  1.00  0.00     0.142 C 
BRANCH  16  17
HETATM   17  N3  UNL     1       3.861  -0.762  -0.189  1.00  0.00    -0.363 N 
HETATM   18  C2  UNL     1       5.213  -0.582   0.159  1.00  0.00     0.183 C 
HETATM   19  N1  UNL     1       5.837   0.488  -0.052  1.00  0.00    -0.369 N 
HETATM   20  N2  UNL     1       5.879  -1.721   0.783  1.00  0.00    -0.064 NA
HETATM   21  C1  UNL     1       5.314   1.651  -0.642  1.00  0.00     0.148 C 
ATOM     22  H1  UNL     1       6.816   0.515   0.232  1.00  0.00     0.161 HD
ATOM     23  H3  UNL     1       3.628  -1.245  -1.056  1.00  0.00     0.162 HD
ENDBRANCH  16  17
ENDBRANCH  15  16
ENDBRANCH   1  15
TORSDOF 3
