REMARK  5 active torsions:
REMARK  status: ('A' for Active; 'I' for Inactive)
REMARK       I    between atoms: C2_4  and  N2_5 
REMARK       I    between atoms: C2_4  and  N4_12 
REMARK    1  A    between atoms: C3_7  and  N3_9 
REMARK    2  A    between atoms: N4_12  and  C5_14 
REMARK    3  A    between atoms: C5_14  and  C6_15 
REMARK    4  A    between atoms: C6_15  and  C7_16 
REMARK    5  A    between atoms: C7_16  and  O1_17 
ROOT
HETATM    1  C5  UNL     1       0.922   0.511   0.274  1.00  0.00     0.141 C 
ENDROOT
BRANCH   1   2
HETATM    2  N4  UNL     1       1.776  -0.200   1.208  1.00  0.00    -0.226 N 
HETATM    3  C2  UNL     1       3.185   0.011   1.267  1.00  0.00     0.675 C 
HETATM    4  N1  UNL     1       3.635   0.585   2.341  1.00  0.00    -0.231 N 
HETATM    5  N2  UNL     1       4.086  -0.356   0.257  1.00  0.00    -0.166 N 
HETATM    6  C1  UNL     1       5.051   0.859   2.531  1.00  0.00     0.165 C 
ATOM      7  H1  UNL     1       2.977   0.852   3.073  1.00  0.00     0.177 HD
HETATM    8  C3  UNL     1       3.979  -1.423  -0.447  1.00  0.00     0.189 C 
ATOM      9  H2  UNL     1       4.875   0.263   0.071  1.00  0.00     0.186 HD
HETATM   10 CL1  UNL     1       2.648  -2.498  -0.157  1.00  0.00    -0.045 Cl
ATOM     11  H4  UNL     1       1.353  -0.875   1.845  1.00  0.00     0.177 HD
BRANCH   8  12
HETATM   12  N3  UNL     1       4.952  -1.692  -1.443  1.00  0.00    -0.370 N 
HETATM   13  C4  UNL     1       6.006  -0.776  -1.767  1.00  0.00     0.148 C 
ATOM     14  H3  UNL     1       4.900  -2.575  -1.951  1.00  0.00     0.161 HD
ENDBRANCH   8  12
ENDBRANCH   1   2
BRANCH   1  15
HETATM   15  C6  UNL     1      -0.492   0.033   0.500  1.00  0.00     0.059 C 
BRANCH  15  16
HETATM   16  C7  UNL     1      -1.485   0.699  -0.413  1.00  0.00     0.071 C 
HETATM   17  C8  UNL     1      -1.612   2.163  -0.205  1.00  0.00     0.065 C 
HETATM   18  C9  UNL     1      -2.976   2.684   0.029  1.00  0.00     0.170 C 
HETATM   19  O2  UNL     1      -3.846   1.881   0.696  1.00  0.00    -0.390 OA
HETATM   20  C10 UNL     1      -3.407   0.629   1.039  1.00  0.00     0.180 C 
HETATM   21  C11 UNL     1      -2.815   0.004  -0.218  1.00  0.00     0.012 C 
HETATM   22  C12 UNL     1      -3.760   0.216  -1.381  1.00  0.00     0.014 C 
HETATM   23  C15 UNL     1      -2.685  -1.499  -0.098  1.00  0.00     0.014 C 
HETATM   24  C13 UNL     1      -4.332  -1.107  -1.772  1.00  0.00     0.001 C 
HETATM   25  C14 UNL     1      -4.017  -2.044  -0.626  1.00  0.00     0.001 C 
BRANCH  16  26
HETATM   26  O1  UNL     1      -1.080   0.379  -1.731  1.00  0.00    -0.389 OA
ATOM     27  H1  UNL     1      -1.707   0.800  -2.308  1.00  0.00     0.210 HD
ENDBRANCH  16  26
ENDBRANCH  15  16
ENDBRANCH   1  15
TORSDOF 5
