REMARK  5 active torsions:
REMARK  status: ('A' for Active; 'I' for Inactive)
REMARK    1  A    between atoms: C2_2  and  C4_13 
REMARK    2  A    between atoms: N1_3  and  N2_5 
REMARK       I    between atoms: N2_5  and  C3_7 
REMARK    3  A    between atoms: N4_9  and  O1_11 
REMARK    4  A    between atoms: C5_15  and  N5_16 
REMARK    5  A    between atoms: C11_22  and  C12_23 
ROOT
HETATM    1  C4  UNL     1       0.007   1.179   0.012  1.00  0.00     0.108 A 
HETATM    2  O2  UNL     1      -0.679   0.027  -0.043  1.00  0.00    -0.285 OA
HETATM    3  C5  UNL     1      -1.953  -0.091   0.139  1.00  0.00     0.248 A 
HETATM    4  C9  UNL     1      -2.680   1.021   0.409  1.00  0.00     0.065 A 
HETATM    5  C10 UNL     1      -2.066   2.234   0.485  1.00  0.00     0.015 A 
HETATM    6  C11 UNL     1      -0.691   2.334   0.285  1.00  0.00    -0.012 A 
ENDROOT
BRANCH   1   7
HETATM    7  C2  UNL     1       1.431   1.141  -0.216  1.00  0.00     0.056 C 
HETATM    8  C1  UNL     1       2.425   2.204  -0.222  1.00  0.00     0.072 C 
HETATM    9  N1  UNL     1       1.927  -0.063  -0.467  1.00  0.00    -0.300 N 
ATOM     10  H1  UNL     1       1.283  -0.854  -0.478  1.00  0.00     0.186 HD
BRANCH   9  11
HETATM   11  N2  UNL     1       3.256  -0.308  -0.713  1.00  0.00    -0.272 N 
HETATM   12  C3  UNL     1       4.049  -1.199   0.058  1.00  0.00     0.227 C 
HETATM   13  N3  UNL     1       3.663  -1.698   1.325  1.00  0.00    -0.060 NA
HETATM   14  N4  UNL     1       5.181  -1.580  -0.415  1.00  0.00    -0.240 N 
ATOM     15  H4  UNL     1       5.443  -1.212  -1.329  1.00  0.00     0.197 HD
ATOM     16  H2  UNL     1       3.698   0.177  -1.493  1.00  0.00     0.189 HD
BRANCH  14  17
HETATM   17  O1  UNL     1       6.058  -2.418   0.175  1.00  0.00    -0.287 OA
ATOM     18  H1  UNL     1       6.895  -2.700  -0.175  1.00  0.00     0.244 HD
ENDBRANCH  14  17
ENDBRANCH   9  11
ENDBRANCH   1   7
BRANCH   6  19
HETATM   19  C12 UNL     1      -0.080   3.656   0.388  1.00  0.00     0.126 C 
HETATM   20 BR1  UNL     1      -1.518   4.988   0.538  1.00  0.00    -0.091 Br
ENDBRANCH   6  19
BRANCH   3  21
HETATM   21  N5  UNL     1      -2.645  -1.337   0.071  1.00  0.00    -0.028 N 
HETATM   22  C6  UNL     1      -1.726  -2.452   0.171  1.00  0.00     0.281 C 
HETATM   23  C7  UNL     1      -3.313  -1.423  -1.207  1.00  0.00     0.281 C 
HETATM   24  C8  UNL     1      -3.615  -1.440   1.119  1.00  0.00     0.281 C 
ENDBRANCH   3  21
TORSDOF 5
