REMARK  3 active torsions:
REMARK  status: ('A' for Active; 'I' for Inactive)
REMARK    1  A    between atoms: C3_6  and  C4_7 
REMARK    2  A    between atoms: C4_7  and  N2_8 
REMARK    3  A    between atoms: N2_8  and  C5_11 
ROOT
HETATM    1  N2  UNL     1       0.660   0.428   0.621  1.00  0.00    -0.020 N 
ATOM      2  H21 UNL     1       0.521  -0.566   0.803  1.00  0.00     0.281 HD
ATOM      3  H22 UNL     1       0.517   0.792   1.563  1.00  0.00     0.281 HD
ENDROOT
BRANCH   1   4
HETATM    4  C4  UNL     1      -0.334   0.926  -0.274  1.00  0.00     0.269 C 
BRANCH   4   5
HETATM    5  C3  UNL     1      -1.692   0.608   0.290  1.00  0.00     0.211 C 
HETATM    6  N1  UNL     1      -2.767   1.094  -0.586  1.00  0.00    -0.069 N 
HETATM    7  C2  UNL     1      -3.940   0.393  -0.069  1.00  0.00     0.233 C 
ATOM      8  H12 UNL     1      -2.597   0.967  -1.584  1.00  0.00     0.277 HD
ATOM      9  H11 UNL     1      -2.859   2.109  -0.629  1.00  0.00     0.277 HD
HETATM   10  C1  UNL     1      -3.464  -0.893   0.516  1.00  0.00     0.029 C 
HETATM   11  C8  UNL     1      -1.976  -0.893   0.232  1.00  0.00     0.036 C 
ENDBRANCH   4   5
ENDBRANCH   1   4
BRANCH   1  12
HETATM   12  C5  UNL     1       2.013   0.686   0.166  1.00  0.00     0.580 C 
HETATM   13  N3  UNL     1       2.994   0.167   1.099  1.00  0.00    -0.020 N 
HETATM   14  C6  UNL     1       4.053  -0.367   0.228  1.00  0.00     0.264 C 
ATOM     15  H32 UNL     1       3.318   0.844   1.790  1.00  0.00     0.281 HD
ATOM     16  H31 UNL     1       2.623  -0.504   1.771  1.00  0.00     0.281 HD
HETATM   17  C7  UNL     1       3.190  -1.053  -0.838  1.00  0.00     0.264 C 
HETATM   18  N4  UNL     1       2.201  -0.006  -1.082  1.00  0.00    -0.020 N 
ATOM     19  H42 UNL     1       1.331  -0.359  -1.481  1.00  0.00     0.281 HD
ATOM     20  H41 UNL     1       2.453   0.614  -1.852  1.00  0.00     0.281 HD
ENDBRANCH   1  12
TORSDOF 3
