REMARK  5 active torsions:
REMARK  status: ('A' for Active; 'I' for Inactive)
REMARK    1  A    between atoms: N1_1  and  O1_4 
REMARK    2  A    between atoms: O1_4  and  C1_5 
REMARK    3  A    between atoms: C1_5  and  C2_6 
REMARK    4  A    between atoms: C2_6  and  N2_7 
REMARK    5  A    between atoms: N2_7  and  C3_9 
ROOT
HETATM    1  C3  UNL     1      -0.259  -0.324  -0.659  1.00  0.00     0.177 C 
HETATM    2  C4  UNL     1      -1.075  -0.917   0.437  1.00  0.00     0.048 C 
HETATM    3  C5  UNL     1      -2.464  -0.443   0.560  1.00  0.00     0.023 C 
HETATM    4  C6  UNL     1      -2.678   1.029   0.362  1.00  0.00     0.120 C 
HETATM    5  N3  UNL     1      -2.616   1.429  -1.030  1.00  0.00    -0.386 N 
ATOM      6  H3  UNL     1      -3.037   2.321  -1.291  1.00  0.00     0.160 HD
HETATM    7  C7  UNL     1      -1.995   0.644  -2.070  1.00  0.00     0.173 C 
HETATM    8  N4  UNL     1      -0.964  -0.122  -1.907  1.00  0.00    -0.365 N 
ATOM      9  H4  UNL     1      -0.620  -0.624  -2.725  1.00  0.00     0.162 HD
ENDROOT
BRANCH   1  10
HETATM   10  N2  UNL     1       0.864  -1.188  -0.899  1.00  0.00    -0.399 N 
ATOM     11  H2  UNL     1       1.000  -1.667  -1.789  1.00  0.00     0.155 HD
BRANCH  10  12
HETATM   12  C2  UNL     1       1.776  -1.332   0.187  1.00  0.00     0.144 C 
BRANCH  12  13
HETATM   13  C1  UNL     1       2.532  -0.047   0.385  1.00  0.00     0.219 C 
BRANCH  13  14
HETATM   14  O1  UNL     1       3.451  -0.099   1.434  1.00  0.00    -0.286 OA
BRANCH  14  15
HETATM   15  N1  UNL     1       4.046   1.125   1.485  1.00  0.00    -0.311 N 
ATOM     16  H12 UNL     1       3.848   1.915   0.870  1.00  0.00     0.184 HD
ATOM     17  H11 UNL     1       4.718   1.087   2.252  1.00  0.00     0.184 HD
ENDBRANCH  14  15
ENDBRANCH  13  14
ENDBRANCH  12  13
ENDBRANCH  10  12
ENDBRANCH   1  10
TORSDOF 5
