REMARK  4 active torsions:
REMARK  status: ('A' for Active; 'I' for Inactive)
REMARK    1  A    between atoms: N1_1  and  C1_4 
REMARK    2  A    between atoms: C2_11  and  C3_12 
REMARK    3  A    between atoms: N5_13  and  N6_15 
REMARK    4  A    between atoms: N6_15  and  C4_17 
ROOT
HETATM    1  C1  UNL     1      -2.605  -0.866  -0.276  1.00  0.00     0.144 A 
HETATM    2  N2  UNL     1      -3.697  -0.144  -0.526  1.00  0.00    -0.269 N 
ATOM      3  H2  UNL     1      -4.566  -0.530  -0.896  1.00  0.00     0.190 HD
HETATM    4  N3  UNL     1      -3.519   1.126  -0.238  1.00  0.00    -0.241 N 
ATOM      5  H3  UNL     1      -4.197   1.881  -0.338  1.00  0.00     0.208 HD
HETATM    6  N4  UNL     1      -2.280   1.221   0.208  1.00  0.00    -0.281 N 
ATOM      7  H4  UNL     1      -1.847   2.093   0.513  1.00  0.00     0.188 HD
HETATM    8  C2  UNL     1      -1.661   0.034   0.212  1.00  0.00     0.111 A 
ENDROOT
BRANCH   8   9
HETATM    9  C3  UNL     1      -0.298  -0.249   0.634  1.00  0.00     0.141 C 
HETATM   10  N5  UNL     1       0.420   0.723   1.056  1.00  0.00    -0.314 N 
ATOM     11  H5  UNL     1       0.019   1.660   1.083  1.00  0.00     0.185 HD
BRANCH  10  12
HETATM   12  N6  UNL     1       1.718   0.538   1.474  1.00  0.00    -0.332 N 
ATOM     13  H6  UNL     1       1.897   0.455   2.475  1.00  0.00     0.180 HD
BRANCH  12  14
HETATM   14  C4  UNL     1       2.836   0.455   0.570  1.00  0.00     0.099 A 
HETATM   15  C5  UNL     1       2.944  -0.567  -0.468  1.00  0.00     0.029 A 
HETATM   16  C6  UNL     1       2.494   0.834  -0.846  1.00  0.00     0.029 A 
ENDBRANCH  12  14
ENDBRANCH  10  12
ENDBRANCH   8   9
BRANCH   1  17
HETATM   17  N1  UNL     1      -2.438  -2.139  -0.445  1.00  0.00    -0.382 N 
ATOM     18  H12 UNL     1      -3.129  -2.798  -0.802  1.00  0.00     0.157 HD
ATOM     19  H11 UNL     1      -1.602  -2.692  -0.254  1.00  0.00     0.157 HD
ENDBRANCH   1  17
TORSDOF 4
