REMARK  5 active torsions:
REMARK  status: ('A' for Active; 'I' for Inactive)
REMARK    1  A    between atoms: N1_1  and  C1_4 
REMARK    2  A    between atoms: C4_7  and  N2_8 
REMARK    3  A    between atoms: N2_8  and  C5_10 
REMARK    4  A    between atoms: C5_10  and  C6_11 
REMARK    5  A    between atoms: C6_11  and  N3_12 
ROOT
HETATM    1  C1  UNL     1       2.969  -0.508   1.027  1.00  0.00     0.104 A 
HETATM    2  C2  UNL     1       2.807  -0.530  -0.322  1.00  0.00     0.051 A 
HETATM    3  C3  UNL     1       1.659  -0.251  -1.026  1.00  0.00     0.042 A 
HETATM    4  C4  UNL     1       0.476   0.100  -0.424  1.00  0.00     0.086 A 
HETATM    5  S1  UNL     1       0.506   0.174   1.265  1.00  0.00     0.005 SA
HETATM    6  N4  UNL     1       2.001  -0.201   1.932  1.00  0.00    -0.311 N 
ATOM      7  H4  UNL     1       2.170  -0.199   2.938  1.00  0.00     0.176 HD
ENDROOT
BRANCH   4   8
HETATM    8  N2  UNL     1      -0.557   0.347  -1.125  1.00  0.00    -0.382 N 
ATOM      9  H2  UNL     1      -0.527   0.289  -2.143  1.00  0.00     0.160 HD
BRANCH   8  10
HETATM   10  C5  UNL     1      -1.780   0.714  -0.432  1.00  0.00     0.147 C 
BRANCH  10  11
HETATM   11  C6  UNL     1      -2.940  -0.148  -0.871  1.00  0.00     0.249 C 
BRANCH  11  12
HETATM   12  N3  UNL     1      -4.111   0.278  -0.140  1.00  0.00    -0.078 N 
ATOM     13  H33 UNL     1      -3.971   0.268   0.870  1.00  0.00     0.274 HD
ATOM     14  H32 UNL     1      -4.299   1.275  -0.241  1.00  0.00     0.274 HD
ATOM     15  H31 UNL     1      -4.894  -0.304  -0.436  1.00  0.00     0.274 HD
ENDBRANCH  11  12
ENDBRANCH  10  11
ENDBRANCH   8  10
ENDBRANCH   4   8
BRANCH   1  16
HETATM   16  N1  UNL     1       4.130  -0.798   1.575  1.00  0.00    -0.385 N 
ATOM     17  H12 UNL     1       4.856  -1.028   0.896  1.00  0.00     0.157 HD
ATOM     18  H11 UNL     1       4.252  -0.781   2.588  1.00  0.00     0.157 HD
ENDBRANCH   1  16
TORSDOF 5
