REMARK  5 active torsions:
REMARK  status: ('A' for Active; 'I' for Inactive)
REMARK    1  A    between atoms: C2_3  and  C3_4 
REMARK    2  A    between atoms: C3_4  and  N2_5 
REMARK    3  A    between atoms: N2_5  and  N3_6 
REMARK    4  A    between atoms: N2_5  and  C4_9 
REMARK    5  A    between atoms: C5_14  and  N6_15 
ROOT
HETATM    1  N1  UNL     1       4.268   1.957  -0.008  1.00  0.00    -0.197 NA
HETATM    2  C1  UNL     1       3.170   1.568   0.066  1.00  0.00     0.060 C 
HETATM    3  C2  UNL     1       1.777   1.049   0.149  1.00  0.00     0.146 C 
ENDROOT
BRANCH   3   4
HETATM    4  C3  UNL     1       1.867  -0.429   0.293  1.00  0.00     0.181 C 
BRANCH   4   5
HETATM    5  N2  UNL     1       0.592  -1.069   0.367  1.00  0.00    -0.128 N 
BRANCH   5   6
HETATM    6  N3  UNL     1       0.633  -2.439   0.770  1.00  0.00    -0.329 N 
ATOM      7  H32 UNL     1       1.551  -2.826   0.988  1.00  0.00     0.177 HD
ATOM      8  H31 UNL     1      -0.277  -2.896   0.823  1.00  0.00     0.177 HD
ENDBRANCH   5   6
BRANCH   5   9
HETATM    9  C4  UNL     1      -0.679  -0.534   0.065  1.00  0.00     0.728 A 
HETATM   10  N4  UNL     1      -1.591  -1.181  -0.747  1.00  0.00    -0.116 N 
HETATM   11  N5  UNL     1      -2.687  -0.454  -0.851  1.00  0.00    -0.117 N 
ATOM     12  H4  UNL     1      -1.440  -2.084  -1.198  1.00  0.00     0.206 HD
HETATM   13  C5  UNL     1      -2.527   0.669  -0.127  1.00  0.00     0.705 A 
ATOM     14  H5  UNL     1      -3.517  -0.702  -1.390  1.00  0.00     0.206 HD
HETATM   15  N7  UNL     1      -1.305   0.592   0.417  1.00  0.00    -0.018 N 
ATOM     16  H7  UNL     1      -0.902   1.305   1.025  1.00  0.00     0.203 HD
BRANCH  13  17
HETATM   17  N6  UNL     1      -3.436   1.579  -0.031  1.00  0.00    -0.233 N 
ATOM     18  H62 UNL     1      -4.366   1.638  -0.445  1.00  0.00     0.174 HD
ATOM     19  H61 UNL     1      -3.315   2.430   0.518  1.00  0.00     0.174 HD
ENDBRANCH  13  17
ENDBRANCH   5   9
ENDBRANCH   4   5
ENDBRANCH   3   4
TORSDOF 5
