REMARK  6 active torsions:
REMARK  status: ('A' for Active; 'I' for Inactive)
REMARK    1  A    between atoms: C2_3  and  C3_4 
REMARK    2  A    between atoms: C3_4  and  C4_5 
REMARK    3  A    between atoms: C4_5  and  N2_6 
REMARK    4  A    between atoms: N2_6  and  N3_8 
REMARK    5  A    between atoms: N3_8  and  C5_10 
REMARK    6  A    between atoms: C6_15  and  N6_16 
ROOT
HETATM    1  N1  UNL     1      -2.844   4.294   0.270  1.00  0.00    -0.197 NA
HETATM    2  C1  UNL     1      -2.528   3.239   0.624  1.00  0.00     0.059 C 
HETATM    3  C2  UNL     1      -2.148   1.902   1.088  1.00  0.00     0.129 C 
ENDROOT
BRANCH   3   4
HETATM    4  C3  UNL     1      -0.662   1.734   0.800  1.00  0.00     0.060 C 
BRANCH   4   5
HETATM    5  C4  UNL     1      -0.413   1.868  -0.658  1.00  0.00     0.081 C 
BRANCH   5   6
HETATM    6  N2  UNL     1      -0.440   0.824  -1.382  1.00  0.00    -0.301 N 
ATOM      7  H2  UNL     1      -0.267   0.933  -2.381  1.00  0.00     0.186 HD
BRANCH   6   8
HETATM    8  N3  UNL     1      -0.688  -0.447  -0.906  1.00  0.00    -0.131 N 
ATOM      9  H3  UNL     1      -1.653  -0.760  -0.799  1.00  0.00     0.205 HD
BRANCH   8  10
HETATM   10  C5  UNL     1       0.271  -1.245  -0.594  1.00  0.00     0.726 A 
HETATM   11  N4  UNL     1       0.074  -2.488  -0.128  1.00  0.00    -0.116 N 
HETATM   12  N5  UNL     1       1.259  -3.028   0.090  1.00  0.00    -0.117 N 
ATOM     13  H4  UNL     1      -0.829  -2.935   0.030  1.00  0.00     0.206 HD
HETATM   14  C6  UNL     1       2.201  -2.127  -0.238  1.00  0.00     0.705 A 
ATOM     15  H5  UNL     1       1.430  -3.968   0.446  1.00  0.00     0.206 HD
HETATM   16  N7  UNL     1       1.589  -1.003  -0.669  1.00  0.00    -0.019 N 
ATOM     17  H7  UNL     1       2.038  -0.144  -0.987  1.00  0.00     0.203 HD
BRANCH  14  18
HETATM   18  N6  UNL     1       3.466  -2.296  -0.160  1.00  0.00    -0.233 N 
ATOM     19  H62 UNL     1       3.928  -3.145   0.166  1.00  0.00     0.174 HD
ATOM     20  H61 UNL     1       4.181  -1.612  -0.409  1.00  0.00     0.174 HD
ENDBRANCH  14  18
ENDBRANCH   8  10
ENDBRANCH   6   8
ENDBRANCH   5   6
ENDBRANCH   4   5
ENDBRANCH   3   4
TORSDOF 6
