REMARK  4 active torsions:
REMARK  status: ('A' for Active; 'I' for Inactive)
REMARK    1  A    between atoms: N1_1  and  C1_4 
REMARK    2  A    between atoms: N3_7  and  C2_8 
REMARK    3  A    between atoms: C2_8  and  C3_9 
REMARK    4  A    between atoms: C3_9  and  N4_10 
ROOT
HETATM    1  C1  UNL     1      -1.231  -1.347   0.845  1.00  0.00     0.145 A 
HETATM    2  N2  UNL     1       0.045  -0.950   1.022  1.00  0.00    -0.280 N 
ATOM      3  H2  UNL     1       0.759  -1.493   1.507  1.00  0.00     0.189 HD
HETATM    4  N3  UNL     1       0.244   0.240   0.480  1.00  0.00    -0.271 N 
HETATM    5  C4  UNL     1      -0.924   0.629  -0.062  1.00  0.00     0.154 A 
HETATM    6  N5  UNL     1      -1.561   1.622  -0.752  1.00  0.00    -0.335 N 
ATOM      7  H5  UNL     1      -1.130   2.492  -1.064  1.00  0.00     0.168 HD
HETATM    8  C5  UNL     1      -2.840   1.274  -0.955  1.00  0.00     0.182 A 
HETATM    9  N6  UNL     1      -3.018   0.048  -0.388  1.00  0.00    -0.346 N 
ATOM     10  H6  UNL     1      -3.888  -0.484  -0.376  1.00  0.00     0.167 HD
HETATM   11  C6  UNL     1      -1.853  -0.339   0.152  1.00  0.00     0.124 A 
ENDROOT
BRANCH   4  12
HETATM   12  C2  UNL     1       1.449   1.019   0.443  1.00  0.00     0.178 C 
BRANCH  12  13
HETATM   13  C3  UNL     1       2.305   0.743  -0.765  1.00  0.00     0.251 C 
BRANCH  13  14
HETATM   14  N4  UNL     1       2.739  -0.603  -0.873  1.00  0.00    -0.078 N 
ATOM     15  H43 UNL     1       3.219  -0.893  -0.021  1.00  0.00     0.274 HD
ATOM     16  H42 UNL     1       1.942  -1.239  -0.847  1.00  0.00     0.274 HD
ATOM     17  H41 UNL     1       3.319  -0.790  -1.691  1.00  0.00     0.274 HD
ENDBRANCH  13  14
ENDBRANCH  12  13
ENDBRANCH   4  12
BRANCH   1  18
HETATM   18  N1  UNL     1      -1.762  -2.471   1.256  1.00  0.00    -0.382 N 
ATOM     19  H12 UNL     1      -1.300  -3.220   1.771  1.00  0.00     0.157 HD
ATOM     20  H11 UNL     1      -2.728  -2.771   1.122  1.00  0.00     0.157 HD
ENDBRANCH   1  18
TORSDOF 4
