REMARK  2 active torsions:
REMARK  status: ('A' for Active; 'I' for Inactive)
REMARK    1  A    between atoms: C7_8  and  N1_10 
REMARK    2  A    between atoms: C9_12  and  C10_13 
ROOT
HETATM    1  N1  UNL     1       0.644  -0.112   0.192  1.00  0.00    -0.315 N 
HETATM    2  C8  UNL     1       1.369  -1.217  -0.013  1.00  0.00     0.117 A 
HETATM    3  C9  UNL     1       2.616  -1.281  -0.588  1.00  0.00     0.107 A 
HETATM    4  C11 UNL     1       3.145  -0.070  -0.981  1.00  0.00     0.211 A 
HETATM    5  O3  UNL     1       4.260   0.050  -1.517  1.00  0.00    -0.286 OA
HETATM    6  C12 UNL     1       2.420   1.117  -0.786  1.00  0.00     0.103 A 
HETATM    7  S1  UNL     1       2.678   2.775  -1.108  1.00  0.00    -0.049 SA
HETATM    8  C13 UNL     1       1.203   3.386  -0.493  1.00  0.00     0.161 A 
HETATM    9  N2  UNL     1       0.734   4.758  -0.441  1.00  0.00    -0.074 NA
HETATM   10  N3  UNL     1       0.603   2.303  -0.081  1.00  0.00    -0.324 N 
ATOM     11  H3  UNL     1      -0.322   2.372   0.344  1.00  0.00     0.169 HD
HETATM   12  C14 UNL     1       1.176   1.118  -0.206  1.00  0.00     0.132 A 
ENDROOT
BRANCH   1  13
HETATM   13  C7  UNL     1      -0.632  -0.109   0.787  1.00  0.00     0.144 C 
HETATM   14  C2  UNL     1      -1.846  -0.289  -0.097  1.00  0.00    -0.000 C 
HETATM   15  C1  UNL     1      -1.845   0.099  -1.470  1.00  0.00     0.019 C 
HETATM   16  C3  UNL     1      -2.926   0.240   0.861  1.00  0.00     0.015 C 
HETATM   17  C6  UNL     1      -1.852  -1.741   0.323  1.00  0.00     0.042 C 
HETATM   18  C4  UNL     1      -2.469  -0.467   2.137  1.00  0.00     0.030 C 
HETATM   19  C5  UNL     1      -1.216  -1.194   1.570  1.00  0.00     0.078 C 
HETATM   20 CL1  UNL     1      -0.361  -2.181   2.657  1.00  0.00    -0.115 Cl
HETATM   21 CL2  UNL     1      -0.850   1.443   1.698  1.00  0.00    -0.092 Cl
ENDBRANCH   1  13
BRANCH   3  22
HETATM   22  C10 UNL     1       3.334  -2.521  -0.773  1.00  0.00     0.214 C 
HETATM   23  O1  UNL     1       4.473  -2.530  -1.303  1.00  0.00    -0.644 OA
HETATM   24  O2  UNL     1       2.782  -3.726  -0.369  1.00  0.00    -0.644 OA
ENDBRANCH   3  22
TORSDOF 2
