REMARK  5 active torsions:
REMARK  status: ('A' for Active; 'I' for Inactive)
REMARK    1  A    between atoms: C2_2  and  O1_5 
REMARK    2  A    between atoms: O1_5  and  C5_6 
REMARK       I    between atoms: C5_6  and  N1_8 
REMARK    3  A    between atoms: N2_12  and  C9_13 
REMARK    4  A    between atoms: C11_17  and  C12_18 
REMARK    5  A    between atoms: N5_20  and  O3_22 
ROOT
HETATM    1  C5  UNL     1      -2.982   0.025   0.291  1.00  0.00     0.363 C 
HETATM    2  O2  UNL     1      -3.340   0.577   1.355  1.00  0.00    -0.238 OA
HETATM    3  N1  UNL     1      -1.620  -0.317   0.105  1.00  0.00    -0.326 N 
HETATM    4  C6  UNL     1      -1.388  -0.945  -1.177  1.00  0.00     0.129 C 
HETATM    5  C7  UNL     1      -0.024  -0.625  -1.742  1.00  0.00     0.040 C 
HETATM    6  C8  UNL     1       0.945  -1.588  -1.040  1.00  0.00     0.126 C 
HETATM    7  N2  UNL     1       1.264  -0.927   0.213  1.00  0.00    -0.364 N 
HETATM    8  C15 UNL     1       0.459  -0.738   1.369  1.00  0.00     0.144 C 
HETATM    9  C16 UNL     1      -0.790   0.030   1.212  1.00  0.00     0.148 C 
ENDROOT
BRANCH   7  10
HETATM   10  C9  UNL     1       2.611  -0.412   0.226  1.00  0.00     0.125 A 
HETATM   11  N3  UNL     1       2.785   0.896   0.339  1.00  0.00    -0.350 N 
HETATM   12  C10 UNL     1       4.032   1.453   0.354  1.00  0.00     0.104 A 
ATOM     13  H3  UNL     1       1.968   1.502   0.417  1.00  0.00     0.166 HD
HETATM   14  C11 UNL     1       5.128   0.651   0.250  1.00  0.00     0.024 A 
HETATM   15  C13 UNL     1       4.940  -0.697   0.134  1.00  0.00     0.044 A 
HETATM   16  C14 UNL     1       3.675  -1.278   0.118  1.00  0.00     0.078 A 
HETATM   17 CL1  UNL     1       3.488  -3.010  -0.028  1.00  0.00    -0.080 Cl
BRANCH  14  18
HETATM   18  C12 UNL     1       6.455   1.261   0.268  1.00  0.00     0.147 C 
HETATM   19  N4  UNL     1       7.576   0.398   0.158  1.00  0.00    -0.080 NA
HETATM   20  N5  UNL     1       6.605   2.529   0.378  1.00  0.00    -0.255 N 
ATOM     21  H5  UNL     1       5.796   3.145   0.456  1.00  0.00     0.195 HD
BRANCH  20  22
HETATM   22  O3  UNL     1       7.878   3.038   0.388  1.00  0.00    -0.288 OA
ATOM     23  H3  UNL     1       7.989   3.978   0.470  1.00  0.00     0.244 HD
ENDBRANCH  20  22
ENDBRANCH  14  18
ENDBRANCH   7  10
BRANCH   1  24
HETATM   24  O1  UNL     1      -3.979  -0.215  -0.651  1.00  0.00    -0.294 OA
BRANCH  24  25
HETATM   25  C2  UNL     1      -5.336   0.152  -0.410  1.00  0.00     0.061 C 
HETATM   26  C1  UNL     1      -6.106  -0.273  -1.665  1.00  0.00     0.046 C 
HETATM   27  C3  UNL     1      -5.935  -0.569   0.754  1.00  0.00     0.046 C 
HETATM   28  C4  UNL     1      -5.471   1.640  -0.202  1.00  0.00     0.046 C 
ENDBRANCH  24  25
ENDBRANCH   1  24
TORSDOF 5
