REMARK  3 active torsions:
REMARK  status: ('A' for Active; 'I' for Inactive)
REMARK    1  A    between atoms: C3_4  and  N2_5 
REMARK       I    between atoms: N2_5  and  C4_7 
REMARK       I    between atoms: C4_7  and  N3_9 
REMARK    2  A    between atoms: C7_13  and  C8_14 
REMARK    3  A    between atoms: C8_14  and  O2_15 
ROOT
HETATM    1  N1  UNL     1       1.384  -1.031   3.133  1.00  0.00    -0.191 NA
HETATM    2  C1  UNL     1       1.458  -0.787   1.983  1.00  0.00     0.103 C 
HETATM    3  C2  UNL     1       1.597  -0.447   0.540  1.00  0.00     0.086 A 
HETATM    4  C3  UNL     1       0.519  -0.156  -0.222  1.00  0.00     0.100 A 
HETATM    5  S2  UNL     1       1.322   0.267  -1.758  1.00  0.00    -0.075 SA
HETATM    6  C9  UNL     1       2.916   0.040  -1.315  1.00  0.00    -0.002 A 
HETATM    7  C10 UNL     1       2.840  -0.352  -0.014  1.00  0.00    -0.020 A 
HETATM    8  C11 UNL     1       4.207  -0.631   0.625  1.00  0.00     0.066 C 
HETATM    9  C12 UNL     1       5.047   0.576   0.259  1.00  0.00     0.169 C 
HETATM   10  C13 UNL     1       4.357   1.801   0.652  1.00  0.00     0.070 C 
HETATM   11  N4  UNL     1       3.828   2.763   0.961  1.00  0.00    -0.197 NA
HETATM   12  C14 UNL     1       5.356   0.510  -1.196  1.00  0.00     0.264 C 
HETATM   13  F1  UNL     1       6.390  -0.411  -1.368  1.00  0.00    -0.204 F 
HETATM   14  F2  UNL     1       5.890   1.751  -1.566  1.00  0.00    -0.204 F 
HETATM   15  C15 UNL     1       4.196   0.192  -2.064  1.00  0.00     0.127 C 
ENDROOT
BRANCH   4  16
HETATM   16  N2  UNL     1      -0.883  -0.194  -0.114  1.00  0.00    -0.301 N 
HETATM   17  C4  UNL     1      -1.755  -0.735   0.782  1.00  0.00     0.324 C 
HETATM   18  O1  UNL     1      -1.433  -1.390   1.788  1.00  0.00    -0.247 OA
HETATM   19  N3  UNL     1      -3.212  -0.569   0.607  1.00  0.00    -0.318 N 
HETATM   20  C5  UNL     1      -4.127  -1.143   1.571  1.00  0.00     0.202 C 
HETATM   21  C7  UNL     1      -3.887   0.114  -0.433  1.00  0.00     0.122 C 
HETATM   22  S1  UNL     1      -5.545  -1.577   0.524  1.00  0.00    -0.147 SA
HETATM   23  C6  UNL     1      -4.904  -0.877  -1.052  1.00  0.00     0.103 C 
ATOM     24  H2  UNL     1      -1.352   0.293  -0.878  1.00  0.00     0.171 HD
BRANCH  21  25
HETATM   25  C8  UNL     1      -4.690   1.308   0.058  1.00  0.00     0.190 C 
BRANCH  25  26
HETATM   26  O2  UNL     1      -5.669   0.971   0.965  1.00  0.00    -0.399 OA
ATOM     27  H2  UNL     1      -6.171   1.717   1.272  1.00  0.00     0.209 HD
ENDBRANCH  25  26
ENDBRANCH  21  25
ENDBRANCH   4  16
TORSDOF 3
