REMARK  3 active torsions:
REMARK  status: ('A' for Active; 'I' for Inactive)
REMARK    1  A    between atoms: C2_2  and  C3_3 
REMARK    2  A    between atoms: C3_3  and  C5_5 
REMARK    3  A    between atoms: C11_11  and  O1_12 
ROOT
HETATM    1  C5  UNL     1      -0.631   0.315   0.136  1.00  0.00     0.088 C 
HETATM    2  C6  UNL     1      -0.458  -0.958   0.896  1.00  0.00     0.048 C 
HETATM    3  C7  UNL     1       0.962  -1.449   0.716  1.00  0.00    -0.008 C 
HETATM    4  C8  UNL     1       1.417  -1.462  -0.708  1.00  0.00     0.012 C 
HETATM    5  C9  UNL     1       1.289  -0.116  -1.339  1.00  0.00     0.020 C 
HETATM    6  C10 UNL     1      -0.202   0.257  -1.290  1.00  0.00     0.050 C 
HETATM    7  C11 UNL     1       1.994   0.987  -0.594  1.00  0.00     0.151 C 
HETATM    8  C12 UNL     1       1.502   0.904   0.845  1.00  0.00     0.152 C 
HETATM    9  C13 UNL     1       1.831  -0.429   1.464  1.00  0.00     0.039 C 
HETATM   10  O2  UNL     1       0.178   1.244   0.854  1.00  0.00    -0.367 OA
ENDROOT
BRANCH   1  11
HETATM   11  C3  UNL     1      -2.018   0.783   0.215  1.00  0.00    -0.034 C 
HETATM   12  C4  UNL     1      -2.218   1.988   0.793  1.00  0.00     0.022 C 
BRANCH  11  13
HETATM   13  C2  UNL     1      -3.196   0.096  -0.254  1.00  0.00    -0.001 C 
HETATM   14  C1  UNL     1      -3.274  -1.060  -0.841  1.00  0.00     0.012 C 
ENDBRANCH  11  13
ENDBRANCH   1  11
BRANCH   7  15
HETATM   15  O1  UNL     1       3.363   0.931  -0.682  1.00  0.00    -0.393 OA
ATOM     16  H1  UNL     1       3.808   1.627  -0.212  1.00  0.00     0.210 HD
ENDBRANCH   7  15
TORSDOF 3
