REMARK  3 active torsions:
REMARK  status: ('A' for Active; 'I' for Inactive)
REMARK    1  A    between atoms: N1_1  and  C1_5 
REMARK    2  A    between atoms: C1_5  and  C2_6 
REMARK    3  A    between atoms: N2_9  and  C5_10 
ROOT
HETATM    1  C2  UNL     1       2.776   0.285  -0.138  1.00  0.00     0.017 C 
HETATM    2  C3  UNL     1       2.039  -0.953  -0.645  1.00  0.00     0.026 C 
HETATM    3  C4  UNL     1       0.656  -0.403  -1.022  1.00  0.00     0.123 C 
HETATM    4  N2  UNL     1      -0.040   0.173   0.049  1.00  0.00    -0.389 N 
HETATM    5  C11 UNL     1       0.636   0.762   1.101  1.00  0.00     0.059 C 
HETATM    6  C12 UNL     1       2.120   0.669   1.146  1.00  0.00     0.050 C 
ENDROOT
BRANCH   4   7
HETATM    7  C5  UNL     1      -1.351  -0.289   0.206  1.00  0.00     0.083 C 
HETATM    8  C6  UNL     1      -2.146   0.262   1.327  1.00  0.00     0.025 C 
HETATM    9  C7  UNL     1      -3.479  -0.501   1.368  1.00  0.00     0.002 C 
HETATM   10  C8  UNL     1      -4.253  -0.137   0.145  1.00  0.00     0.000 C 
HETATM   11  C9  UNL     1      -3.486  -0.682  -1.058  1.00  0.00     0.002 C 
HETATM   12  C10 UNL     1      -2.139  -0.004  -1.082  1.00  0.00     0.025 C 
ENDBRANCH   4   7
BRANCH   1  13
HETATM   13  C1  UNL     1       4.212  -0.106   0.172  1.00  0.00     0.234 C 
BRANCH  13  14
HETATM   14  N1  UNL     1       4.935   1.048   0.655  1.00  0.00    -0.079 N 
ATOM     15  H13 UNL     1       4.882   1.834   0.007  1.00  0.00     0.274 HD
ATOM     16  H12 UNL     1       4.474   1.484   1.454  1.00  0.00     0.274 HD
ATOM     17  H11 UNL     1       5.898   0.786   0.863  1.00  0.00     0.274 HD
ENDBRANCH  13  14
ENDBRANCH   1  13
TORSDOF 3
