REMARK  3 active torsions:
REMARK  status: ('A' for Active; 'I' for Inactive)
REMARK    1  A    between atoms: N1_1  and  C1_5 
REMARK    2  A    between atoms: C5_9  and  C6_10 
REMARK    3  A    between atoms: C6_10  and  N2_11 
ROOT
HETATM    1  C1  UNL     1      -3.319   0.507   0.726  1.00  0.00     0.183 C 
HETATM    2  C2  UNL     1      -3.579  -0.538  -0.294  1.00  0.00     0.033 C 
HETATM    3  C3  UNL     1      -2.425  -1.438  -0.611  1.00  0.00     0.002 C 
HETATM    4  C4  UNL     1      -1.179  -0.595  -0.701  1.00  0.00     0.006 C 
HETATM    5  C5  UNL     1      -0.865  -0.094   0.690  1.00  0.00     0.016 C 
HETATM    6  C12 UNL     1      -2.040   0.357   1.470  1.00  0.00     0.039 C 
ENDROOT
BRANCH   5   7
HETATM    7  C6  UNL     1       0.262   0.909   0.586  1.00  0.00     0.277 C 
BRANCH   7   8
HETATM    8  N2  UNL     1       1.391   0.174   0.008  1.00  0.00     0.088 N 
HETATM    9  C7  UNL     1       1.862  -0.762   0.967  1.00  0.00     0.272 C 
HETATM   10  C8  UNL     1       3.347  -0.994   0.951  1.00  0.00     0.030 C 
HETATM   11  C9  UNL     1       3.771  -0.893  -0.514  1.00  0.00     0.003 C 
HETATM   12  C10 UNL     1       3.688   0.590  -0.835  1.00  0.00     0.030 C 
HETATM   13  C11 UNL     1       2.308   1.081  -0.563  1.00  0.00     0.272 C 
ENDBRANCH   7   8
ENDBRANCH   5   7
BRANCH   1  14
HETATM   14  N1  UNL     1      -3.423   1.866   0.233  1.00  0.00    -0.075 N 
ATOM     15  H13 UNL     1      -2.814   1.999  -0.575  1.00  0.00     0.274 HD
ATOM     16  H12 UNL     1      -4.331   2.016  -0.206  1.00  0.00     0.274 HD
ATOM     17  H11 UNL     1      -3.244   2.585   0.934  1.00  0.00     0.274 HD
ENDBRANCH   1  14
TORSDOF 3
