REMARK  10 active torsions:
REMARK  status: ('A' for Active; 'I' for Inactive)
REMARK    1  A    between atoms: C2_2  and  C4_4 
REMARK    2  A    between atoms: C6_10  and  S1_11 
REMARK    3  A    between atoms: S1_11  and  C7_12 
REMARK    4  A    between atoms: C7_12  and  C8_13 
REMARK    5  A    between atoms: N6_21  and  N7_22 
REMARK    6  A    between atoms: N7_22  and  C10_24 
REMARK    7  A    between atoms: C10_24  and  N8_25 
REMARK    8  A    between atoms: C11_32  and  N12_33 
REMARK    9  A    between atoms: C12_36  and  N13_37 
REMARK   10  A    between atoms: N13_37  and  N14_39 
ROOT
HETATM    1  C4  UNL     1       3.296   0.827  -0.318  1.00  0.00     0.086 A 
HETATM    2  N1  UNL     1       2.275   1.682  -0.213  1.00  0.00    -0.330 N 
ATOM      3  H1  UNL     1       2.367   2.695  -0.133  1.00  0.00     0.168 HD
HETATM    4  C5  UNL     1       1.101   1.008  -0.229  1.00  0.00     0.140 A 
HETATM    5  N2  UNL     1      -0.186   1.385  -0.154  1.00  0.00    -0.319 N 
ATOM      6  H2  UNL     1      -0.393   2.380  -0.065  1.00  0.00     0.169 HD
HETATM    7  C6  UNL     1      -1.203   0.532  -0.189  1.00  0.00     0.169 A 
HETATM    8  N6  UNL     1      -0.955  -0.787  -0.306  1.00  0.00    -0.216 N 
HETATM    9  C12 UNL     1       0.327  -1.248  -0.388  1.00  0.00     0.174 A 
HETATM   10  C13 UNL     1       1.394  -0.333  -0.349  1.00  0.00     0.126 A 
HETATM   11  N15 UNL     1       2.716  -0.408  -0.400  1.00  0.00    -0.339 N 
ATOM     12  H15 UNL     1       3.237  -1.280  -0.489  1.00  0.00     0.167 HD
ENDROOT
BRANCH   8  13
HETATM   13  N7  UNL     1      -2.018  -1.676  -0.343  1.00  0.00    -0.305 N 
ATOM     14  H7  UNL     1      -2.948  -1.261  -0.279  1.00  0.00     0.183 HD
BRANCH  13  15
HETATM   15  C10 UNL     1      -1.976  -3.104  -0.460  1.00  0.00     0.309 C 
BRANCH  15  16
HETATM   16  N8  UNL     1      -3.373  -3.600  -0.456  1.00  0.00    -0.088 N 
HETATM   17  N9  UNL     1      -4.106  -3.959   0.578  1.00  0.00    -0.209 N 
HETATM   18  N10 UNL     1      -5.302  -4.348   0.190  1.00  0.00    -0.213 N 
ATOM     19  H9  UNL     1      -3.790  -3.938   1.547  1.00  0.00     0.210 HD
HETATM   20  N11 UNL     1      -5.319  -4.231  -1.110  1.00  0.00    -0.115 N 
ATOM     21  H10 UNL     1      -6.063  -4.675   0.785  1.00  0.00     0.210 HD
HETATM   22  C11 UNL     1      -4.140  -3.771  -1.542  1.00  0.00     0.711 A 
ATOM     23  H11 UNL     1      -6.114  -4.457  -1.708  1.00  0.00     0.207 HD
BRANCH  22  24
HETATM   24  N12 UNL     1      -3.806  -3.535  -2.776  1.00  0.00    -0.232 N 
ATOM     25 2H12 UNL     1      -2.907  -3.184  -3.106  1.00  0.00     0.174 HD
ATOM     26 1H12 UNL     1      -4.390  -3.665  -3.602  1.00  0.00     0.174 HD
ENDBRANCH  22  24
ENDBRANCH  15  16
ENDBRANCH  13  15
ENDBRANCH   8  13
BRANCH   7  27
HETATM   27  S1  UNL     1      -2.915   1.096  -0.083  1.00  0.00    -0.084 SA
BRANCH  27  28
HETATM   28  C7  UNL     1      -2.997   2.873   0.069  1.00  0.00     0.160 C 
BRANCH  28  29
HETATM   29  C8  UNL     1      -2.438   3.399   1.339  1.00  0.00     0.106 A 
HETATM   30  N3  UNL     1      -3.106   3.600   2.506  1.00  0.00    -0.339 N 
HETATM   31  C9  UNL     1      -2.292   4.084   3.447  1.00  0.00     0.198 A 
ATOM     32  H3  UNL     1      -4.098   3.407   2.644  1.00  0.00     0.168 HD
HETATM   33  N4  UNL     1      -1.078   4.195   2.870  1.00  0.00    -0.295 N 
HETATM   34  N5  UNL     1      -1.169   3.786   1.615  1.00  0.00    -0.287 N 
ATOM     35  H4  UNL     1      -0.232   4.537   3.325  1.00  0.00     0.187 HD
ATOM     36  H5  UNL     1      -0.395   3.765   0.951  1.00  0.00     0.188 HD
ENDBRANCH  28  29
ENDBRANCH  27  28
ENDBRANCH   7  27
BRANCH   9  37
HETATM   37  N13 UNL     1       0.605  -2.465  -0.500  1.00  0.00    -0.289 N 
ATOM     38  H13 UNL     1      -0.231  -3.048  -0.521  1.00  0.00     0.188 HD
BRANCH  37  39
HETATM   39  N14 UNL     1       1.729  -3.192  -0.599  1.00  0.00    -0.344 N 
ATOM     40 2H14 UNL     1       2.551  -2.588  -0.576  1.00  0.00     0.176 HD
ATOM     41 1H14 UNL     1       1.955  -4.182  -0.690  1.00  0.00     0.176 HD
ENDBRANCH  37  39
ENDBRANCH   9  37
BRANCH   1  42
HETATM   42  C2  UNL     1       4.762   1.122  -0.341  1.00  0.00     0.045 C 
HETATM   43  C1  UNL     1       5.141   1.630   1.039  1.00  0.00     0.017 C 
HETATM   44  C3  UNL     1       5.119   2.084  -1.423  1.00  0.00     0.017 C 
ENDBRANCH   1  42
TORSDOF 10
