REMARK  10 active torsions:
REMARK  status: ('A' for Active; 'I' for Inactive)
REMARK    1  A    between atoms: C4_7  and  O1_8 
REMARK    2  A    between atoms: O1_8  and  C5_9 
REMARK    3  A    between atoms: C5_9  and  C6_10 
REMARK    4  A    between atoms: C6_10  and  S1_11 
REMARK    5  A    between atoms: S1_11  and  C7_12 
REMARK    6  A    between atoms: C8_15  and  N4_16 
REMARK    7  A    between atoms: N6_21  and  N7_22 
REMARK    8  A    between atoms: C10_27  and  N9_28 
REMARK       I    between atoms: N9_28  and  C11_30 
REMARK       I    between atoms: C11_30  and  N11_34 
REMARK    9  A    between atoms: N11_34  and  N12_36 
REMARK   10  A    between atoms: N12_36  and  O4_38 
ROOT
HETATM    1  C1  UNL     1      -4.358   2.772  -0.055  1.00  0.00     0.056 C 
HETATM    2  C2  UNL     1      -3.319   1.734  -0.320  1.00  0.00     0.024 A 
HETATM    3  C3  UNL     1      -2.262   2.074  -1.138  1.00  0.00     0.129 A 
HETATM    4  N1  UNL     1      -2.145   3.367  -1.723  1.00  0.00    -0.082 NA
HETATM    5  N2  UNL     1      -1.336   1.120  -1.361  1.00  0.00    -0.310 N 
ATOM      6  H2  UNL     1      -0.546   1.351  -1.963  1.00  0.00     0.170 HD
HETATM    7  C4  UNL     1      -1.390  -0.098  -0.846  1.00  0.00     0.226 A 
HETATM    8  N8  UNL     1      -2.447  -0.416  -0.035  1.00  0.00    -0.307 N 
ATOM      9  H8  UNL     1      -2.494  -1.352   0.367  1.00  0.00     0.171 HD
HETATM   10  C10 UNL     1      -3.420   0.457   0.249  1.00  0.00     0.133 A 
ENDROOT
BRANCH   7  11
HETATM   11  O1  UNL     1      -0.451  -1.095  -1.063  1.00  0.00    -0.321 OA
BRANCH  11  12
HETATM   12  C5  UNL     1       0.650  -0.795  -1.899  1.00  0.00     0.189 C 
BRANCH  12  13
HETATM   13  C6  UNL     1       1.488  -2.051  -1.956  1.00  0.00     0.109 C 
BRANCH  13  14
HETATM   14  S1  UNL     1       2.028  -2.460  -0.272  1.00  0.00    -0.090 SA
BRANCH  14  15
HETATM   15  C7  UNL     1       3.154  -1.189   0.292  1.00  0.00     0.168 A 
HETATM   16  N3  UNL     1       2.871  -0.039   0.944  1.00  0.00    -0.314 N 
HETATM   17  C8  UNL     1       4.035   0.597   1.162  1.00  0.00     0.219 A 
ATOM     18  H3  UNL     1       1.944   0.286   1.220  1.00  0.00     0.170 HD
HETATM   19  C9  UNL     1       5.078  -0.143   0.650  1.00  0.00     0.190 A 
HETATM   20  N5  UNL     1       6.449   0.211   0.693  1.00  0.00    -0.076 NA
HETATM   21  N6  UNL     1       4.502  -1.237   0.121  1.00  0.00    -0.222 N 
BRANCH  17  22
HETATM   22  N4  UNL     1       4.158   1.845   1.821  1.00  0.00    -0.094 N 
HETATM   23  O2  UNL     1       3.251   2.698   1.831  1.00  0.00    -0.530 OA
HETATM   24  O3  UNL     1       5.350   2.115   2.483  1.00  0.00    -0.530 OA
ENDBRANCH  17  22
BRANCH  21  25
HETATM   25  N7  UNL     1       5.182  -2.266  -0.509  1.00  0.00    -0.335 N 
ATOM     26  H72 UNL     1       4.745  -3.096  -0.910  1.00  0.00     0.177 HD
ATOM     27  H71 UNL     1       6.193  -2.302  -0.637  1.00  0.00     0.177 HD
ENDBRANCH  21  25
ENDBRANCH  14  15
ENDBRANCH  13  14
ENDBRANCH  12  13
ENDBRANCH  11  12
ENDBRANCH   7  11
BRANCH  10  28
HETATM   28  N9  UNL     1      -4.417   0.178   0.995  1.00  0.00    -0.175 N 
HETATM   29  C11 UNL     1      -4.591  -1.080   1.604  1.00  0.00     0.693 C 
HETATM   30  N10 UNL     1      -4.849  -2.110   0.880  1.00  0.00    -0.233 N 
HETATM   31  N11 UNL     1      -4.518  -1.293   3.001  1.00  0.00    -0.113 N 
ATOM     32 2H10 UNL     1      -4.902  -1.956  -0.127  1.00  0.00     0.174 HD
ATOM     33 1H10 UNL     1      -4.975  -3.021   1.321  1.00  0.00     0.174 HD
ATOM     34  H11 UNL     1      -4.830  -0.554   3.631  1.00  0.00     0.207 HD
ATOM     35  H9  UNL     1      -5.120   0.899   1.158  1.00  0.00     0.186 HD
BRANCH  31  36
HETATM   36  N12 UNL     1      -4.033  -2.480   3.540  1.00  0.00    -0.196 N 
ATOM     37  H12 UNL     1      -3.599  -2.439   4.462  1.00  0.00     0.216 HD
BRANCH  36  38
HETATM   38  O4  UNL     1      -4.091  -3.586   2.978  1.00  0.00    -0.274 OA
ATOM     39  H4  UNL     1      -3.760  -4.397   3.346  1.00  0.00     0.246 HD
ENDBRANCH  36  38
ENDBRANCH  31  36
ENDBRANCH  10  28
TORSDOF 10
