REMARK  8 active torsions:
REMARK  status: ('A' for Active; 'I' for Inactive)
REMARK    1  A    between atoms: N1_1  and  C1_4 
REMARK    2  A    between atoms: N3_8  and  C3_9 
REMARK    3  A    between atoms: C3_9  and  N4_10 
REMARK    4  A    between atoms: N4_10  and  C4_12 
REMARK    5  A    between atoms: C5_17  and  C6_18 
REMARK       I    between atoms: C6_18  and  N7_20 
REMARK    6  A    between atoms: N7_20  and  C7_22 
REMARK    7  A    between atoms: C7_22  and  C8_23 
REMARK    8  A    between atoms: N8_25  and  C10_26 
ROOT
HETATM    1  C4  UNL     1       3.058   1.938  -2.299  1.00  0.00     0.152 C 
HETATM    2  N5  UNL     1       2.804   1.433  -1.090  1.00  0.00    -0.283 N 
ATOM      3  H5  UNL     1       3.648   1.400  -0.518  1.00  0.00     0.188 HD
HETATM    4  N6  UNL     1       1.742   0.956  -0.419  1.00  0.00    -0.293 N 
ATOM      5  H6  UNL     1       1.901   0.829   0.581  1.00  0.00     0.187 HD
HETATM    6  C5  UNL     1       0.496   0.613  -0.833  1.00  0.00     0.131 C 
HETATM    7  C13 UNL     1      -0.372   1.185  -1.744  1.00  0.00     0.126 C 
HETATM    8  N14 UNL     1      -0.232   1.728  -2.989  1.00  0.00    -0.348 N 
ATOM      9  H14 UNL     1      -1.086   1.689  -3.546  1.00  0.00     0.167 HD
HETATM   10  C14 UNL     1       0.795   2.301  -3.629  1.00  0.00     0.137 A 
HETATM   11  N15 UNL     1       1.713   2.952  -4.437  1.00  0.00    -0.334 N 
ATOM     12  H15 UNL     1       1.884   3.488  -5.288  1.00  0.00     0.168 HD
HETATM   13  C15 UNL     1       2.233   2.379  -3.305  1.00  0.00     0.124 A 
ENDROOT
BRANCH   6  14
HETATM   14  C6  UNL     1      -0.030  -0.567  -0.190  1.00  0.00     0.271 C 
HETATM   15  O1  UNL     1       0.641  -1.117   0.714  1.00  0.00    -0.266 OA
HETATM   16  N7  UNL     1      -1.267  -1.113  -0.554  1.00  0.00    -0.350 N 
ATOM     17  H7  UNL     1      -1.814  -0.669  -1.292  1.00  0.00     0.163 HD
BRANCH  16  18
HETATM   18  C7  UNL     1      -1.787  -2.307   0.105  1.00  0.00     0.183 C 
BRANCH  18  19
HETATM   19  C8  UNL     1      -2.284  -1.895   1.434  1.00  0.00     0.062 A 
HETATM   20  C9  UNL     1      -3.530  -1.406   1.712  1.00  0.00     0.142 A 
HETATM   21  N8  UNL     1      -3.550  -1.164   3.034  1.00  0.00    -0.262 N 
HETATM   22  N12 UNL     1      -2.386  -1.480   3.570  1.00  0.00    -0.239 N 
HETATM   23  N13 UNL     1      -1.597  -1.931   2.600  1.00  0.00    -0.287 N 
ATOM     24  H12 UNL     1      -2.136  -1.393   4.555  1.00  0.00     0.208 HD
ATOM     25  H13 UNL     1      -0.635  -2.251   2.715  1.00  0.00     0.188 HD
BRANCH  21  26
HETATM   26  C10 UNL     1      -4.663  -0.636   3.805  1.00  0.00     0.223 C 
HETATM   27  C11 UNL     1      -5.973  -0.801   3.064  1.00  0.00     0.183 C 
HETATM   28  N9  UNL     1      -6.146   0.314   2.186  1.00  0.00    -0.137 NA
HETATM   29  N10 UNL     1      -6.144   1.524   2.890  1.00  0.00    -0.300 N 
HETATM   30  C12 UNL     1      -5.041   1.739   3.767  1.00  0.00     0.191 C 
ATOM     31  H10 UNL     1      -6.889   2.212   2.782  1.00  0.00     0.183 HD
HETATM   32  N11 UNL     1      -4.379   0.719   4.170  1.00  0.00    -0.361 N 
ATOM     33  H11 UNL     1      -3.592   0.884   4.797  1.00  0.00     0.162 HD
ENDBRANCH  21  26
ENDBRANCH  18  19
ENDBRANCH  16  18
ENDBRANCH   6  14
BRANCH   1  34
HETATM   34  N4  UNL     1       4.432   2.036  -2.573  1.00  0.00    -0.333 N 
ATOM     35  H4  UNL     1       4.677   2.430  -3.481  1.00  0.00     0.168 HD
BRANCH  34  36
HETATM   36  C3  UNL     1       5.527   1.656  -1.747  1.00  0.00     0.228 C 
BRANCH  36  37
HETATM   37  N3  UNL     1       5.662   0.248  -1.483  1.00  0.00    -0.191 N 
HETATM   38  N2  UNL     1       5.158  -0.441  -0.490  1.00  0.00    -0.286 N 
HETATM   39  C2  UNL     1       5.493  -1.732  -0.568  1.00  0.00     0.158 A 
ATOM     40  H2  UNL     1       4.581  -0.042   0.251  1.00  0.00     0.188 HD
HETATM   41  C1  UNL     1       6.267  -1.843  -1.703  1.00  0.00     0.132 A 
HETATM   42  N16 UNL     1       6.341  -0.616  -2.225  1.00  0.00    -0.263 N 
ATOM     43  H16 UNL     1       6.849  -0.377  -3.076  1.00  0.00     0.191 HD
BRANCH  41  44
HETATM   44  N1  UNL     1       6.824  -2.897  -2.201  1.00  0.00    -0.383 N 
ATOM     45  H12 UNL     1       6.767  -3.834  -1.802  1.00  0.00     0.157 HD
ATOM     46  H11 UNL     1       7.397  -2.979  -3.041  1.00  0.00     0.157 HD
ENDBRANCH  41  44
ENDBRANCH  36  37
ENDBRANCH  34  36
ENDBRANCH   1  34
TORSDOF 8
