REMARK  10 active torsions:
REMARK  status: ('A' for Active; 'I' for Inactive)
REMARK    1  A    between atoms: C2_2  and  C3_3 
REMARK    2  A    between atoms: C2_2  and  N9_33 
REMARK    3  A    between atoms: C3_3  and  N1_4 
REMARK    4  A    between atoms: N1_4  and  C4_6 
REMARK    5  A    between atoms: C4_6  and  C5_12 
REMARK    6  A    between atoms: N2_7  and  N3_9 
REMARK    7  A    between atoms: C6_14  and  O2_15 
REMARK    8  A    between atoms: C10_22  and  C11_23 
REMARK       I    between atoms: C11_23  and  N6_25 
REMARK    9  A    between atoms: N6_25  and  N7_27 
REMARK   10  A    between atoms: C13_38  and  N12_39 
ROOT
HETATM    1  C4  UNL     1      -0.893  -1.147  -2.092  1.00  0.00     0.152 C 
HETATM    2  N2  UNL     1      -0.639  -1.959  -3.054  1.00  0.00    -0.290 N 
ATOM      3  H2  UNL     1      -0.036  -1.661  -3.821  1.00  0.00     0.188 HD
ENDROOT
BRANCH   1   4
HETATM    4  N1  UNL     1      -0.322   0.149  -2.124  1.00  0.00    -0.371 N 
ATOM      5  H1  UNL     1      -0.721   0.792  -2.807  1.00  0.00     0.161 HD
BRANCH   4   6
HETATM    6  C3  UNL     1       0.729   0.668  -1.333  1.00  0.00     0.150 C 
BRANCH   6   7
HETATM    7  C2  UNL     1       2.095   0.141  -1.548  1.00  0.00     0.143 C 
HETATM    8  C1  UNL     1       2.184  -1.333  -1.292  1.00  0.00     0.038 C 
BRANCH   7   9
HETATM    9  N9  UNL     1       2.973   0.802  -0.566  1.00  0.00    -0.199 N 
HETATM   10  N10 UNL     1       2.654   1.726   0.324  1.00  0.00    -0.211 N 
HETATM   11  N11 UNL     1       3.703   2.074   1.026  1.00  0.00    -0.115 N 
ATOM     12  H10 UNL     1       1.719   2.115   0.447  1.00  0.00     0.210 HD
HETATM   13  C13 UNL     1       4.745   1.350   0.578  1.00  0.00     0.711 A 
ATOM     14  H11 UNL     1       3.726   2.766   1.775  1.00  0.00     0.207 HD
HETATM   15  N13 UNL     1       4.275   0.571  -0.404  1.00  0.00    -0.113 N 
ATOM     16  H13 UNL     1       4.827  -0.095  -0.944  1.00  0.00     0.207 HD
BRANCH  13  17
HETATM   17  N12 UNL     1       6.083   1.431   1.085  1.00  0.00    -0.224 N 
HETATM   18  C14 UNL     1       6.414   2.333   2.156  1.00  0.00     0.168 C 
HETATM   19  C15 UNL     1       7.100   0.569   0.481  1.00  0.00     0.168 C 
ENDBRANCH  13  17
ENDBRANCH   7   9
ENDBRANCH   6   7
ENDBRANCH   4   6
ENDBRANCH   1   4
BRANCH   1  20
HETATM   20  C5  UNL     1      -1.764  -1.601  -1.020  1.00  0.00     0.150 A 
HETATM   21  O1  UNL     1      -1.792  -2.847  -0.687  1.00  0.00    -0.280 OA
HETATM   22  C6  UNL     1      -2.523  -3.367   0.246  1.00  0.00     0.209 A 
HETATM   23  C7  UNL     1      -3.361  -2.518   0.967  1.00  0.00     0.119 A 
HETATM   24  N4  UNL     1      -4.162  -3.047   1.982  1.00  0.00    -0.096 NA
HETATM   25  C8  UNL     1      -3.413  -1.163   0.697  1.00  0.00     0.049 A 
HETATM   26  C9  UNL     1      -4.096  -0.071   1.187  1.00  0.00     0.093 A 
HETATM   27  C12 UNL     1      -2.547  -0.682  -0.377  1.00  0.00     0.085 A 
HETATM   28  N5  UNL     1      -5.037  -0.156   2.246  1.00  0.00    -0.099 NA
HETATM   29  C10 UNL     1      -3.677   1.023   0.459  1.00  0.00     0.128 A 
HETATM   30  N8  UNL     1      -2.763   0.639  -0.458  1.00  0.00    -0.347 N 
ATOM     31  H8  UNL     1      -2.302   1.265  -1.119  1.00  0.00     0.166 HD
BRANCH  22  32
HETATM   32  O2  UNL     1      -2.481  -4.724   0.528  1.00  0.00    -0.339 OA
ATOM     33  H2  UNL     1      -3.018  -5.106   1.213  1.00  0.00     0.220 HD
ENDBRANCH  22  32
BRANCH  29  34
HETATM   34  C11 UNL     1      -4.184   2.370   0.692  1.00  0.00     0.288 C 
HETATM   35  O3  UNL     1      -5.038   2.616   1.579  1.00  0.00    -0.264 OA
HETATM   36  N6  UNL     1      -3.731   3.487  -0.080  1.00  0.00    -0.271 N 
ATOM     37  H6  UNL     1      -3.036   3.321  -0.808  1.00  0.00     0.189 HD
BRANCH  36  38
HETATM   38  N7  UNL     1      -4.185   4.776   0.109  1.00  0.00    -0.342 N 
ATOM     39  H72 UNL     1      -4.880   4.923   0.841  1.00  0.00     0.176 HD
ATOM     40  H71 UNL     1      -3.862   5.572  -0.441  1.00  0.00     0.176 HD
ENDBRANCH  36  38
ENDBRANCH  29  34
ENDBRANCH   1  20
BRANCH   2  41
HETATM   41  N3  UNL     1      -1.177  -3.237  -3.060  1.00  0.00    -0.344 N 
ATOM     42  H32 UNL     1      -1.778  -3.519  -2.286  1.00  0.00     0.176 HD
ATOM     43  H31 UNL     1      -0.975  -3.882  -3.824  1.00  0.00     0.176 HD
ENDBRANCH   2  41
TORSDOF 10
