REMARK  2 active torsions:
REMARK  status: ('A' for Active; 'I' for Inactive)
REMARK    1  A    between atoms: C6_7  and  C7_8 
REMARK    2  A    between atoms: N1_11  and  O2_13 
ROOT
HETATM    1  C1  UNL     1       2.533  -1.431  -0.141  1.00  0.00     0.028 C 
HETATM    2  C2  UNL     1       1.208  -1.072   0.446  1.00  0.00     0.091 C 
HETATM    3  S1  UNL     1      -0.062  -2.061  -0.398  1.00  0.00    -0.158 SA
HETATM    4  C3  UNL     1      -1.648  -1.301   0.084  1.00  0.00     0.080 C 
HETATM    5  C4  UNL     1      -1.575   0.152  -0.270  1.00  0.00     0.007 C 
HETATM    6  C5  UNL     1      -1.511   0.294  -1.759  1.00  0.00     0.012 C 
HETATM    7  C6  UNL     1      -0.483   0.891   0.453  1.00  0.00     0.100 C 
HETATM    8  C8  UNL     1       0.857   0.357   0.225  1.00  0.00     0.034 C 
HETATM    9  N1  UNL     1       1.831   1.128  -0.195  1.00  0.00    -0.276 N 
ATOM     10  H1  UNL     1       2.757   0.727  -0.347  1.00  0.00     0.193 HD
ENDROOT
BRANCH   7  11
HETATM   11  C7  UNL     1      -0.845   0.946   1.903  1.00  0.00     0.242 C 
HETATM   12  O1  UNL     1      -1.193   1.965   2.466  1.00  0.00    -0.306 OA
ENDBRANCH   7  11
BRANCH   9  13
HETATM   13  O2  UNL     1       1.627   2.474  -0.436  1.00  0.00    -0.290 OA
ATOM     14  H2  UNL     1       2.333   3.033  -0.740  1.00  0.00     0.244 HD
ENDBRANCH   9  13
TORSDOF 2
