REMARK  2 active torsions:
REMARK  status: ('A' for Active; 'I' for Inactive)
REMARK    1  A    between atoms: C2_2  and  C3_4 
REMARK       I    between atoms: C3_4  and  N1_6 
REMARK    2  A    between atoms: N1_6  and  C5_8 
ROOT
HETATM    1  C5  UNL     1      -0.713  -0.187  -0.424  1.00  0.00     0.095 A 
HETATM    2  C6  UNL     1       0.257   0.509   0.399  1.00  0.00     0.015 A 
HETATM    3  C7  UNL     1       1.016   1.728   0.133  1.00  0.00     0.012 C 
HETATM    4  C8  UNL     1       2.472   1.544   0.334  1.00  0.00    -0.013 C 
HETATM    5  C9  UNL     1       3.178   0.756  -0.747  1.00  0.00     0.009 C 
HETATM    6  C10 UNL     1       2.976  -0.466   0.058  1.00  0.00    -0.013 C 
HETATM    7  C11 UNL     1       2.884   0.447   1.254  1.00  0.00     0.009 C 
HETATM    8  C12 UNL     1       1.719  -1.253  -0.186  1.00  0.00     0.012 C 
HETATM    9  C13 UNL     1       0.652  -0.450  -0.775  1.00  0.00     0.015 A 
ENDROOT
BRANCH   1  10
HETATM   10  N1  UNL     1      -1.629  -1.125   0.208  1.00  0.00    -0.350 N 
HETATM   11  C3  UNL     1      -3.022  -1.111  -0.065  1.00  0.00     0.237 C 
HETATM   12  O1  UNL     1      -3.791  -1.969   0.474  1.00  0.00    -0.272 OA
HETATM   13  C4  UNL     1      -1.159  -2.136   1.139  1.00  0.00     0.153 C 
BRANCH  11  14
HETATM   14  C2  UNL     1      -3.697  -0.143  -0.960  1.00  0.00     0.170 C 
HETATM   15  C1  UNL     1      -3.651   1.213  -0.288  1.00  0.00     0.036 C 
HETATM   16 CL1  UNL     1      -5.370  -0.559  -1.284  1.00  0.00    -0.115 Cl
ENDBRANCH  11  14
ENDBRANCH   1  10
TORSDOF 2
