REMARK  4 active torsions:
REMARK  status: ('A' for Active; 'I' for Inactive)
REMARK    1  A    between atoms: C2_2  and  N1_3 
REMARK    2  A    between atoms: N2_7  and  C6_8 
REMARK    3  A    between atoms: C6_8  and  C7_9 
REMARK    4  A    between atoms: C7_9  and  O1_10 
ROOT
HETATM    1  C6  UNL     1      -1.050   0.338   0.530  1.00  0.00     0.315 C 
ENDROOT
BRANCH   1   2
HETATM    2  N2  UNL     1      -0.193   0.130  -0.635  1.00  0.00     0.093 N 
HETATM    3  C5  UNL     1       0.658   1.331  -0.680  1.00  0.00     0.274 C 
HETATM    4  C4  UNL     1       1.650   1.391   0.445  1.00  0.00     0.060 C 
HETATM    5  C3  UNL     1       3.043   0.995  -0.065  1.00  0.00     0.274 C 
HETATM    6  N1  UNL     1       3.096  -0.480  -0.004  1.00  0.00     0.089 N 
HETATM    7  C13 UNL     1       2.045  -0.902  -0.954  1.00  0.00     0.302 C 
HETATM    8  C12 UNL     1       0.685  -1.004  -0.344  1.00  0.00     0.302 C 
BRANCH   6   9
HETATM    9  C2  UNL     1       4.387  -0.811  -0.610  1.00  0.00     0.268 C 
HETATM   10  C1  UNL     1       5.490  -0.300   0.294  1.00  0.00     0.037 C 
ENDBRANCH   6   9
ENDBRANCH   1   2
BRANCH   1  11
HETATM   11  C7  UNL     1      -2.224  -0.625   0.585  1.00  0.00     0.116 C 
HETATM   12  C8  UNL     1      -2.998  -0.476  -0.710  1.00  0.00     0.050 C 
HETATM   13  C9  UNL     1      -3.987   0.693  -0.586  1.00  0.00     0.048 C 
HETATM   14  C10 UNL     1      -5.002   0.159   0.410  1.00  0.00     0.060 C 
HETATM   15  N3  UNL     1      -4.387   0.006   1.652  1.00  0.00    -0.380 N 
HETATM   16  C11 UNL     1      -3.031  -0.295   1.796  1.00  0.00     0.099 C 
ATOM     17  H3  UNL     1      -4.953   0.119   2.493  1.00  0.00     0.164 HD
BRANCH  11  18
HETATM   18  O1  UNL     1      -1.716  -1.910   0.627  1.00  0.00    -0.383 OA
ATOM     19  H1  UNL     1      -2.450  -2.512   0.661  1.00  0.00     0.211 HD
ENDBRANCH  11  18
ENDBRANCH   1  11
TORSDOF 4
