REMARK  3 active torsions:
REMARK  status: ('A' for Active; 'I' for Inactive)
REMARK    1  A    between atoms: O1_1  and  C1_3 
REMARK    2  A    between atoms: C1_3  and  C2_4 
REMARK    3  A    between atoms: C2_4  and  N1_5 
ROOT
HETATM    1  C1  UNL     1       0.527  -0.361  -0.402  1.00  0.00     0.090 C 
HETATM    2  C7  UNL     1       1.478  -1.551  -0.301  1.00  0.00     0.072 C 
HETATM    3  C8  UNL     1       2.896  -1.114  -0.581  1.00  0.00     0.124 C 
HETATM    4  C9  UNL     1       3.384  -0.378   0.641  1.00  0.00     0.032 C 
HETATM    5  C10 UNL     1       2.369   0.653   1.006  1.00  0.00     0.010 C 
HETATM    6  C11 UNL     1       1.288   0.870  -0.008  1.00  0.00     0.024 C 
HETATM    7  C12 UNL     1       1.793   1.537  -1.252  1.00  0.00     0.034 C 
HETATM    8  C13 UNL     1       3.092   0.920  -1.663  1.00  0.00     0.168 C 
HETATM    9  O2  UNL     1       3.050  -0.443  -1.753  1.00  0.00    -0.386 OA
ENDROOT
BRANCH   1  10
HETATM   10  O1  UNL     1       0.117  -0.330  -1.733  1.00  0.00    -0.388 OA
ATOM     11  H1  UNL     1       0.880  -0.190  -2.281  1.00  0.00     0.210 HD
ENDBRANCH   1  10
BRANCH   1  12
HETATM   12  C2  UNL     1      -0.687  -0.584   0.470  1.00  0.00     0.310 C 
BRANCH  12  13
HETATM   13  N1  UNL     1      -1.698   0.414   0.358  1.00  0.00     0.094 N 
HETATM   14  C3  UNL     1      -2.416   0.473  -0.857  1.00  0.00     0.300 C 
HETATM   15  C4  UNL     1      -3.928   0.540  -0.592  1.00  0.00     0.262 C 
HETATM   16  N2  UNL     1      -4.227  -0.714   0.115  1.00  0.00    -0.072 N 
HETATM   17  C5  UNL     1      -3.648  -0.587   1.438  1.00  0.00     0.262 C 
ATOM     18  H22 UNL     1      -5.221  -0.943   0.129  1.00  0.00     0.277 HD
ATOM     19  H21 UNL     1      -3.913  -1.545  -0.386  1.00  0.00     0.277 HD
HETATM   20  C6  UNL     1      -2.534   0.411   1.527  1.00  0.00     0.300 C 
ENDBRANCH  12  13
ENDBRANCH   1  12
TORSDOF 3
