REMARK  6 active torsions:
REMARK  status: ('A' for Active; 'I' for Inactive)
REMARK    1  A    between atoms: C3_3  and  C4_4 
REMARK    2  A    between atoms: C4_4  and  N1_5 
REMARK    3  A    between atoms: N1_5  and  C5_6 
REMARK    4  A    between atoms: N1_5  and  C7_8 
REMARK    5  A    between atoms: C10_11  and  O1_12 
REMARK    6  A    between atoms: C11_14  and  O2_15 
ROOT
HETATM    1  C1  UNL     1       5.516   0.144  -1.114  1.00  0.00     0.112 C 
HETATM    2  C2  UNL     1       4.146   0.476  -0.721  1.00  0.00    -0.109 C 
HETATM    3  C3  UNL     1       2.995   0.750  -0.388  1.00  0.00    -0.077 C 
ENDROOT
BRANCH   3   4
HETATM    4  C4  UNL     1       1.618   1.112  -0.010  1.00  0.00     0.366 C 
BRANCH   4   5
HETATM    5  N1  UNL     1       0.778  -0.158  -0.146  1.00  0.00     0.104 N 
BRANCH   5   6
HETATM    6  C5  UNL     1       1.380  -0.883   0.970  1.00  0.00     0.269 C 
HETATM    7  C6  UNL     1       0.948  -2.133   1.493  1.00  0.00     0.037 C 
ENDBRANCH   5   6
BRANCH   5   8
HETATM    8  C7  UNL     1      -0.587   0.180   0.115  1.00  0.00     0.244 C 
HETATM    9  C8  UNL     1      -1.057   1.482  -0.593  1.00  0.00     0.040 C 
HETATM   10  C9  UNL     1      -2.438   1.735  -0.008  1.00  0.00     0.036 C 
HETATM   11  C10 UNL     1      -3.388   0.621   0.023  1.00  0.00     0.148 C 
HETATM   12  C11 UNL     1      -2.813  -0.771   0.161  1.00  0.00     0.166 C 
HETATM   13  C12 UNL     1      -1.539  -0.788  -0.628  1.00  0.00     0.157 C 
HETATM   14  C13 UNL     1      -1.047  -2.010  -1.097  1.00  0.00     0.069 C 
HETATM   15  N2  UNL     1      -0.671  -3.021  -1.523  1.00  0.00    -0.197 NA
BRANCH  11  16
HETATM   16  O1  UNL     1      -4.305   0.666  -1.050  1.00  0.00    -0.393 OA
ATOM     17  H1  UNL     1      -4.921  -0.057  -1.030  1.00  0.00     0.210 HD
ENDBRANCH  11  16
BRANCH  12  18
HETATM   18  O2  UNL     1      -2.662  -1.192   1.466  1.00  0.00    -0.392 OA
ATOM     19  H2  UNL     1      -2.301  -2.066   1.553  1.00  0.00     0.210 HD
ENDBRANCH  12  18
ENDBRANCH   5   8
ENDBRANCH   4   5
ENDBRANCH   3   4
TORSDOF 6
