REMARK  5 active torsions:
REMARK  status: ('A' for Active; 'I' for Inactive)
REMARK    1  A    between atoms: O1_1  and  C1_3 
REMARK    2  A    between atoms: C1_3  and  C2_4 
REMARK    3  A    between atoms: N1_6  and  C4_7 
REMARK    4  A    between atoms: C4_7  and  C5_8 
REMARK    5  A    between atoms: C12_16  and  O3_17 
ROOT
HETATM    1  C2  UNL     1      -2.758  -0.588  -0.608  1.00  0.00     0.056 C 
HETATM    2  C3  UNL     1      -1.348  -0.611  -1.167  1.00  0.00     0.131 C 
HETATM    3  N1  UNL     1      -0.433   0.074  -0.326  1.00  0.00    -0.392 N 
HETATM    4  C10 UNL     1      -0.583   1.444  -0.298  1.00  0.00     0.124 C 
HETATM    5  C11 UNL     1      -2.066   1.821  -0.413  1.00  0.00     0.052 C 
HETATM    6  C12 UNL     1      -2.960   0.728   0.089  1.00  0.00     0.127 C 
ENDROOT
BRANCH   3   7
HETATM    7  C4  UNL     1       0.720  -0.628  -0.053  1.00  0.00     0.063 C 
BRANCH   7   8
HETATM    8  C5  UNL     1       1.799   0.014   0.760  1.00  0.00     0.028 C 
HETATM    9  C6  UNL     1       2.400   1.251   0.186  1.00  0.00     0.036 C 
HETATM   10  C7  UNL     1       3.936   1.113   0.152  1.00  0.00     0.168 C 
HETATM   11  O2  UNL     1       4.176   0.090  -0.780  1.00  0.00    -0.391 OA
HETATM   12  C8  UNL     1       3.793  -1.116  -0.256  1.00  0.00     0.168 C 
HETATM   13  C9  UNL     1       2.910  -1.009   0.956  1.00  0.00     0.036 C 
ENDBRANCH   7   8
ENDBRANCH   3   7
BRANCH   1  14
HETATM   14  C1  UNL     1      -2.947  -1.766   0.335  1.00  0.00     0.172 C 
BRANCH  14  15
HETATM   15  O1  UNL     1      -4.229  -1.782   0.869  1.00  0.00    -0.400 OA
ATOM     16  H1  UNL     1      -4.347  -2.518   1.458  1.00  0.00     0.209 HD
ENDBRANCH  14  15
ENDBRANCH   1  14
BRANCH   6  17
HETATM   17  O3  UNL     1      -4.276   1.116  -0.149  1.00  0.00    -0.395 OA
ATOM     18  H3  UNL     1      -4.404   1.948   0.292  1.00  0.00     0.210 HD
ENDBRANCH   6  17
TORSDOF 5
