REMARK  5 active torsions:
REMARK  status: ('A' for Active; 'I' for Inactive)
REMARK    1  A    between atoms: C2_2  and  N1_3 
REMARK    2  A    between atoms: C5_8  and  N3_9 
REMARK    3  A    between atoms: N3_9  and  C6_11 
REMARK    4  A    between atoms: C6_11  and  C7_12 
REMARK    5  A    between atoms: C7_12  and  O1_14 
ROOT
HETATM    1  N1  UNL     1      -0.282   2.051   0.369  1.00  0.00    -0.277 N 
HETATM    2  N2  UNL     1      -1.588   2.124   0.247  1.00  0.00    -0.300 N 
ATOM      3  H2  UNL     1      -2.144   2.970   0.366  1.00  0.00     0.187 HD
HETATM    4  C3  UNL     1      -2.076   0.913  -0.059  1.00  0.00     0.039 A 
HETATM    5  C4  UNL     1      -0.995   0.059  -0.126  1.00  0.00     0.039 A 
HETATM    6  C5  UNL     1       0.133   0.775   0.144  1.00  0.00     0.128 A 
HETATM    7  C9  UNL     1      -1.134  -1.385  -0.445  1.00  0.00     0.316 C 
HETATM    8  N4  UNL     1      -2.459  -1.896  -0.353  1.00  0.00     0.088 N 
HETATM    9  C10 UNL     1      -2.527  -3.196   0.288  1.00  0.00     0.310 C 
HETATM   10  C11 UNL     1      -3.426  -1.049   0.257  1.00  0.00     0.278 C 
HETATM   11  C12 UNL     1      -3.429   0.355  -0.319  1.00  0.00     0.089 C 
ENDROOT
BRANCH   6  12
HETATM   12  N3  UNL     1       1.381   0.458   0.208  1.00  0.00    -0.372 N 
ATOM     13  H3  UNL     1       2.032   1.210   0.435  1.00  0.00     0.161 HD
BRANCH  12  14
HETATM   14  C6  UNL     1       1.946  -0.831  -0.005  1.00  0.00     0.152 C 
BRANCH  14  15
HETATM   15  C7  UNL     1       3.444  -0.689  -0.280  1.00  0.00     0.132 C 
HETATM   16  C8  UNL     1       4.082  -2.048  -0.493  1.00  0.00     0.041 C 
BRANCH  15  17
HETATM   17  O1  UNL     1       4.096  -0.089   0.790  1.00  0.00    -0.394 OA
ATOM     18  H1  UNL     1       5.026  -0.001   0.619  1.00  0.00     0.210 HD
ENDBRANCH  15  17
ENDBRANCH  14  15
ENDBRANCH  12  14
ENDBRANCH   6  12
BRANCH   1  19
HETATM   19  C2  UNL     1       0.549   3.191   0.697  1.00  0.00     0.146 C 
HETATM   20  C1  UNL     1       1.012   3.917  -0.549  1.00  0.00     0.028 C 
ENDBRANCH   1  19
TORSDOF 5
