REMARK  3 active torsions:
REMARK  status: ('A' for Active; 'I' for Inactive)
REMARK    1  A    between atoms: C2_2  and  C3_4 
REMARK    2  A    between atoms: C9_11  and  O3_12 
REMARK    3  A    between atoms: C12_16  and  N1_17 
ROOT
HETATM    1  C3  UNL     1       2.478   0.008  -0.335  1.00  0.00     0.086 C 
HETATM    2  C4  UNL     1       2.137   0.926   0.803  1.00  0.00     0.047 C 
HETATM    3  C5  UNL     1       0.616   1.043   0.841  1.00  0.00     0.128 C 
HETATM    4  O2  UNL     1       0.150  -0.143   1.418  1.00  0.00    -0.372 OA
HETATM    5  C6  UNL     1      -0.791  -0.656   0.497  1.00  0.00     0.095 C 
HETATM    6  C7  UNL     1      -1.223  -2.022   0.759  1.00  0.00     0.048 C 
HETATM    7  C8  UNL     1       0.064  -0.499  -0.771  1.00  0.00     0.058 C 
HETATM    8  C9  UNL     1       1.445  -1.050  -0.558  1.00  0.00     0.137 C 
HETATM    9  C10 UNL     1       0.158   1.028  -0.604  1.00  0.00     0.026 C 
HETATM   10  C11 UNL     1      -1.325   1.350  -0.684  1.00  0.00     0.046 C 
HETATM   11  C12 UNL     1      -1.857   0.384   0.374  1.00  0.00     0.256 C 
ENDROOT
BRANCH   1  12
HETATM   12  C2  UNL     1       3.765  -0.668  -0.009  1.00  0.00     0.129 C 
HETATM   13  C1  UNL     1       4.984   0.148   0.195  1.00  0.00     0.091 C 
HETATM   14  O1  UNL     1       3.852  -1.882   0.097  1.00  0.00    -0.298 OA
ENDBRANCH   1  12
BRANCH   8  15
HETATM   15  O3  UNL     1       1.830  -1.771  -1.710  1.00  0.00    -0.394 OA
ATOM     16  H3  UNL     1       1.174  -2.443  -1.852  1.00  0.00     0.210 HD
ENDBRANCH   8  15
BRANCH  11  17
HETATM   17  N1  UNL     1      -3.161  -0.089   0.106  1.00  0.00     0.087 N 
HETATM   18  C13 UNL     1      -4.119   0.924   0.582  1.00  0.00     0.310 C 
HETATM   19  C14 UNL     1      -3.506  -0.361  -1.246  1.00  0.00     0.310 C 
ENDBRANCH  11  17
TORSDOF 3
