REMARK  4 active torsions:
REMARK  status: ('A' for Active; 'I' for Inactive)
REMARK    1  A    between atoms: C3_3  and  C4_4 
REMARK    2  A    between atoms: C7_10  and  C9_12 
REMARK    3  A    between atoms: C9_12  and  O2_14 
REMARK    4  A    between atoms: O2_14  and  C10_15 
REMARK       I    between atoms: N2_17  and  C12_18 
ROOT
HETATM    1  C1  UNL     1      -5.512  -1.257  -0.448  1.00  0.00     0.112 C 
HETATM    2  C2  UNL     1      -4.099  -0.863  -0.664  1.00  0.00    -0.107 C 
HETATM    3  C3  UNL     1      -2.955  -0.537  -0.860  1.00  0.00    -0.053 C 
ENDROOT
BRANCH   3   4
HETATM    4  C4  UNL     1      -1.578  -0.125  -1.114  1.00  0.00     0.371 C 
HETATM    5  N1  UNL     1      -0.732  -1.254  -1.220  1.00  0.00    -0.036 N 
HETATM    6  C5  UNL     1       0.011  -1.400  -0.013  1.00  0.00     0.223 C 
ATOM      7  H12 UNL     1      -1.246  -2.101  -1.463  1.00  0.00     0.281 HD
ATOM      8  H11 UNL     1      -0.130  -1.210  -2.042  1.00  0.00     0.281 HD
HETATM    9  C6  UNL     1       1.347  -2.081  -0.205  1.00  0.00     0.043 C 
HETATM   10  C7  UNL     1       0.174   0.023   0.468  1.00  0.00     0.150 C 
HETATM   11  C8  UNL     1       0.305  -0.014   1.972  1.00  0.00     0.052 C 
HETATM   12  N2  UNL     1      -1.032   0.652   0.001  1.00  0.00    -0.293 N 
HETATM   13  C12 UNL     1      -1.672   1.829   0.470  1.00  0.00     0.219 C 
HETATM   14  C13 UNL     1      -1.120   2.629   1.604  1.00  0.00     0.117 C 
HETATM   15  O3  UNL     1      -2.721   2.239  -0.050  1.00  0.00    -0.274 OA
BRANCH  10  16
HETATM   16  C9  UNL     1       1.328   0.698  -0.172  1.00  0.00     0.289 C 
HETATM   17  O1  UNL     1       1.167   1.637  -0.979  1.00  0.00    -0.262 OA
BRANCH  16  18
HETATM   18  O2  UNL     1       2.606   0.290   0.124  1.00  0.00    -0.320 OA
BRANCH  18  19
HETATM   19  C10 UNL     1       3.769   0.882  -0.444  1.00  0.00     0.174 C 
HETATM   20  C11 UNL     1       4.959   0.134   0.150  1.00  0.00     0.034 C 
ENDBRANCH  18  19
ENDBRANCH  16  18
ENDBRANCH  10  16
ENDBRANCH   3   4
TORSDOF 4
