REMARK  1 active torsions:
REMARK  status: ('A' for Active; 'I' for Inactive)
REMARK    1  A    between atoms: C6_9  and  O2_10 
ROOT
HETATM    1  O1  UNL     1       2.815  -1.325  -1.885  1.00  0.00    -0.272 OA
HETATM    2  C1  UNL     1       2.693  -0.699  -0.789  1.00  0.00     0.239 C 
HETATM    3  C2  UNL     1       3.905  -0.802   0.044  1.00  0.00     0.115 C 
HETATM    4  C3  UNL     1       3.665  -1.204   1.465  1.00  0.00     0.083 C 
HETATM    5  S1  UNL     1       3.319   0.195   2.554  1.00  0.00    -0.167 SA
HETATM    6  C4  UNL     1       2.573   1.518   1.582  1.00  0.00     0.095 C 
HETATM    7  C5  UNL     1       1.111   1.216   1.458  1.00  0.00     0.161 C 
HETATM    8  N1  UNL     1       0.852   0.989   0.007  1.00  0.00    -0.264 N 
HETATM    9  C6  UNL     1       0.059   2.074  -0.401  1.00  0.00     0.188 C 
HETATM   10  C7  UNL     1      -0.895   2.286  -1.489  1.00  0.00     0.129 A 
HETATM   11  C8  UNL     1      -1.008   3.059  -2.633  1.00  0.00     0.123 A 
HETATM   12 CL1  UNL     1      -0.094   4.295  -3.536  1.00  0.00    -0.072 Cl
HETATM   13  S2  UNL     1      -2.500   2.541  -3.134  1.00  0.00     0.009 SA
HETATM   14  N2  UNL     1      -2.068   1.759  -1.718  1.00  0.00    -0.270 N 
HETATM   15  C9  UNL     1      -2.778   0.768  -0.937  1.00  0.00     0.192 C 
HETATM   16  N3  UNL     1      -2.397   0.682   0.438  1.00  0.00    -0.385 N 
ATOM     17  H3  UNL     1      -1.558   1.085   0.855  1.00  0.00     0.160 HD
HETATM   18  C10 UNL     1      -3.414  -0.080   1.133  1.00  0.00     0.121 C 
HETATM   19  C11 UNL     1      -2.935  -1.407   1.641  1.00  0.00     0.030 C 
HETATM   20  C12 UNL     1      -2.319  -2.298   0.595  1.00  0.00     0.075 C 
HETATM   21  S3  UNL     1      -0.563  -1.879   0.489  1.00  0.00    -0.167 SA
HETATM   22  C13 UNL     1       0.166  -2.211  -1.121  1.00  0.00     0.095 C 
HETATM   23  C14 UNL     1       0.693  -0.914  -1.694  1.00  0.00     0.162 C 
HETATM   24  N4  UNL     1       1.366  -0.079  -0.729  1.00  0.00    -0.256 N 
ENDROOT
BRANCH   9  25
HETATM   25  O2  UNL     1       0.237   3.117   0.391  1.00  0.00    -0.343 OA
ATOM     26  H2  UNL     1      -0.299   3.851   0.115  1.00  0.00     0.219 HD
ENDBRANCH   9  25
TORSDOF 1
