REMARK  2 active torsions:
REMARK  status: ('A' for Active; 'I' for Inactive)
REMARK    1  A    between atoms: C2_2  and  C4_4 
REMARK    2  A    between atoms: C18_22  and  O4_23 
ROOT
HETATM    1  C4  UNL     1       4.232   0.879   0.028  1.00  0.00    -0.017 C 
HETATM    2  C5  UNL     1       4.875   2.246   0.166  1.00  0.00     0.052 C 
HETATM    3  C6  UNL     1       2.916   0.707   0.111  1.00  0.00     0.158 C 
HETATM    4  O1  UNL     1       2.461  -0.593  -0.079  1.00  0.00    -0.193 OA
HETATM    5  O2  UNL     1       1.377  -1.043  -0.618  1.00  0.00    -0.224 OA
HETATM    6  C7  UNL     1       0.446  -1.407   0.317  1.00  0.00     0.226 C 
HETATM    7  C8  UNL     1       0.132  -0.305   1.313  1.00  0.00     0.085 C 
HETATM    8  C9  UNL     1      -0.678   0.776   0.870  1.00  0.00     0.124 A 
HETATM    9  F1  UNL     1      -1.418   1.369   1.868  1.00  0.00    -0.241 F 
HETATM   10  C10 UNL     1      -1.023   0.507  -0.494  1.00  0.00     0.101 A 
HETATM   11  C11 UNL     1      -2.043  -0.374  -0.726  1.00  0.00     0.182 C 
HETATM   12  O3  UNL     1      -3.083   0.212  -1.441  1.00  0.00    -0.343 OA
HETATM   13  C12 UNL     1      -4.123  -0.135  -0.530  1.00  0.00     0.066 C 
HETATM   14  C13 UNL     1      -5.252  -0.606  -1.484  1.00  0.00     0.046 C 
HETATM   15  C14 UNL     1      -4.708   0.860   0.351  1.00  0.00     0.046 C 
HETATM   16  C15 UNL     1      -3.133  -1.095  -0.088  1.00  0.00     0.083 C 
HETATM   17  C16 UNL     1      -2.874  -1.709   1.198  1.00  0.00     0.018 C 
HETATM   18  C17 UNL     1      -1.648  -2.592   0.896  1.00  0.00     0.072 C 
HETATM   19  C18 UNL     1      -0.762  -2.126  -0.194  1.00  0.00     0.194 C 
HETATM   20  O5  UNL     1      -1.396  -1.535  -1.292  1.00  0.00    -0.315 OA
HETATM   21  C19 UNL     1      -0.500   1.795  -0.059  1.00  0.00     0.011 A 
HETATM   22  C20 UNL     1      -1.505   2.890  -0.390  1.00  0.00     0.020 C 
HETATM   23  C21 UNL     1       0.874   2.303  -0.371  1.00  0.00     0.099 C 
HETATM   24  C22 UNL     1       2.007   1.818   0.391  1.00  0.00     0.186 C 
HETATM   25  O6  UNL     1       2.277   2.444   1.494  1.00  0.00    -0.290 OA
ENDROOT
BRANCH   1  26
HETATM   26  C2  UNL     1       5.205  -0.169  -0.237  1.00  0.00    -0.062 C 
HETATM   27  C1  UNL     1       6.499   0.102  -0.289  1.00  0.00     0.019 C 
HETATM   28  C3  UNL     1       4.756  -1.589  -0.476  1.00  0.00     0.048 C 
ENDBRANCH   1  26
BRANCH  19  29
HETATM   29  O4  UNL     1      -0.201  -3.305  -0.784  1.00  0.00    -0.363 OA
ATOM     30  H4  UNL     1      -0.968  -3.762  -1.109  1.00  0.00     0.213 HD
ENDBRANCH  19  29
TORSDOF 2
