REMARK  1 active torsions:
REMARK  status: ('A' for Active; 'I' for Inactive)
REMARK    1  A    between atoms: C4_4  and  O1_5 
ROOT
HETATM    1  C1  UNL     1       0.594  -2.616  -1.761  1.00  0.00     0.047 C 
HETATM    2  C2  UNL     1      -0.027  -1.790  -0.638  1.00  0.00     0.068 A 
HETATM    3  C3  UNL     1      -1.473  -2.116  -0.511  1.00  0.00     0.073 C 
HETATM    4  C4  UNL     1      -2.213  -1.304   0.502  1.00  0.00     0.156 C 
HETATM    5  C5  UNL     1      -2.687   0.015   0.050  1.00  0.00     0.103 C 
HETATM    6  C6  UNL     1      -3.141  -0.090  -1.391  1.00  0.00     0.050 C 
HETATM    7  O2  UNL     1      -3.865   0.342   0.808  1.00  0.00    -0.319 OA
HETATM    8  C7  UNL     1      -3.980   1.728   0.742  1.00  0.00     0.174 A 
HETATM    9  N1  UNL     1      -4.852   2.732   0.905  1.00  0.00    -0.237 N 
ATOM     10  H1  UNL     1      -5.830   2.626   1.173  1.00  0.00     0.197 HD
HETATM   11  O3  UNL     1      -4.257   3.859   0.668  1.00  0.00    -0.223 OA
HETATM   12  C8  UNL     1      -3.004   3.660   0.348  1.00  0.00     0.179 A 
HETATM   13 CL1  UNL     1      -1.759   4.813  -0.064  1.00  0.00    -0.054 Cl
HETATM   14  C9  UNL     1      -2.789   2.290   0.386  1.00  0.00     0.053 A 
HETATM   15  C10 UNL     1      -1.814   1.179   0.205  1.00  0.00     0.086 C 
HETATM   16  C11 UNL     1      -0.884   1.148   1.355  1.00  0.00    -0.015 C 
HETATM   17  C12 UNL     1       0.268   0.533   1.401  1.00  0.00     0.011 C 
HETATM   18  C13 UNL     1       0.929  -0.267   0.359  1.00  0.00     0.119 A 
HETATM   19  O4  UNL     1       0.242  -0.455  -0.800  1.00  0.00    -0.361 OA
HETATM   20  C14 UNL     1       0.789  -1.774   0.621  1.00  0.00     0.062 A 
HETATM   21  C15 UNL     1       2.166  -2.350   0.480  1.00  0.00     0.014 C 
HETATM   22  C16 UNL     1       3.069  -1.202   0.878  1.00  0.00     0.044 C 
HETATM   23  C17 UNL     1       2.411  -0.007   0.253  1.00  0.00     0.117 C 
HETATM   24  C18 UNL     1       2.745   1.210   1.089  1.00  0.00     0.209 C 
HETATM   25  O5  UNL     1       3.975   1.767   0.746  1.00  0.00    -0.386 OA
HETATM   26  C19 UNL     1       4.007   2.206  -0.562  1.00  0.00     0.194 C 
HETATM   27  C20 UNL     1       2.922   1.538  -1.391  1.00  0.00     0.195 C 
HETATM   28  O6  UNL     1       2.803   0.188  -1.072  1.00  0.00    -0.372 OA
ENDROOT
BRANCH   4  29
HETATM   29  O1  UNL     1      -3.387  -2.057   0.786  1.00  0.00    -0.392 OA
ATOM     30  H1  UNL     1      -3.857  -1.541   1.430  1.00  0.00     0.210 HD
ENDBRANCH   4  29
TORSDOF 1
