REMARK  6 active torsions:
REMARK  status: ('A' for Active; 'I' for Inactive)
REMARK    1  A    between atoms: O1_2  and  C2_3 
REMARK    2  A    between atoms: C2_3  and  C3_5 
REMARK    3  A    between atoms: C3_5  and  C5_7 
REMARK    4  A    between atoms: C3_5  and  O6_28 
REMARK    5  A    between atoms: C5_7  and  C6_8 
REMARK    6  A    between atoms: C16_19  and  O4_20 
ROOT
HETATM    1  C6  UNL     1      -1.688  -0.408  -0.267  1.00  0.00     0.195 C 
HETATM    2  O3  UNL     1      -1.379   0.396   0.790  1.00  0.00    -0.368 OA
HETATM    3  C7  UNL     1      -0.054   0.709   0.968  1.00  0.00     0.059 C 
HETATM    4  C8  UNL     1       0.474  -0.109   2.099  1.00  0.00     0.046 C 
HETATM    5  C9  UNL     1      -0.011   2.175   1.424  1.00  0.00     0.046 C 
HETATM    6  C10 UNL     1       0.772   0.637  -0.284  1.00  0.00     0.031 C 
HETATM    7  C11 UNL     1       2.127   1.183  -0.052  1.00  0.00     0.018 C 
HETATM    8  C12 UNL     1       3.213   0.464  -0.837  1.00  0.00    -0.040 C 
HETATM    9  C13 UNL     1       2.959   0.673  -2.334  1.00  0.00     0.015 C 
HETATM   10  C14 UNL     1       4.500   1.151  -0.522  1.00  0.00     0.012 C 
HETATM   11  C15 UNL     1       5.626   0.195  -0.187  1.00  0.00     0.032 C 
HETATM   12  C16 UNL     1       5.108  -0.568   1.040  1.00  0.00     0.118 C 
HETATM   13  C17 UNL     1       4.022  -1.460   0.584  1.00  0.00     0.037 C 
HETATM   14  C18 UNL     1       3.236  -1.008  -0.595  1.00  0.00    -0.003 C 
HETATM   15  C19 UNL     1       1.866  -1.618  -0.503  1.00  0.00     0.018 C 
HETATM   16  C20 UNL     1       0.748  -0.733  -0.905  1.00  0.00     0.065 C 
HETATM   17  C21 UNL     1      -0.537  -1.350  -0.465  1.00  0.00     0.160 C 
HETATM   18  O5  UNL     1      -0.594  -2.542  -0.295  1.00  0.00    -0.295 OA
ENDROOT
BRANCH   1  19
HETATM   19  C5  UNL     1      -2.895  -1.244  -0.088  1.00  0.00     0.088 C 
BRANCH  19  20
HETATM   20  C3  UNL     1      -4.195  -0.505   0.149  1.00  0.00     0.146 C 
HETATM   21  C4  UNL     1      -4.056   0.246   1.483  1.00  0.00     0.057 C 
BRANCH  20  22
HETATM   22  C2  UNL     1      -4.556   0.393  -0.937  1.00  0.00     0.293 C 
HETATM   23  O2  UNL     1      -3.889   1.446  -1.233  1.00  0.00    -0.262 OA
BRANCH  22  24
HETATM   24  O1  UNL     1      -5.652   0.180  -1.743  1.00  0.00    -0.324 OA
HETATM   25  C1  UNL     1      -6.006   1.063  -2.814  1.00  0.00     0.213 C 
ENDBRANCH  22  24
ENDBRANCH  20  22
BRANCH  20  26
HETATM   26  O6  UNL     1      -5.137  -1.493   0.302  1.00  0.00    -0.375 OA
HETATM   27  C22 UNL     1      -6.391  -1.165   0.673  1.00  0.00     0.203 C 
ENDBRANCH  20  26
ENDBRANCH  19  20
ENDBRANCH   1  19
BRANCH  12  28
HETATM   28  O4  UNL     1       6.113  -1.224   1.707  1.00  0.00    -0.396 OA
ATOM     29  H4  UNL     1       5.792  -1.696   2.466  1.00  0.00     0.210 HD
ENDBRANCH  12  28
TORSDOF 6
