REMARK  4 active torsions:
REMARK  status: ('A' for Active; 'I' for Inactive)
REMARK    1  A    between atoms: C2_2  and  C3_3 
REMARK    2  A    between atoms: C2_2  and  C19_24 
REMARK    3  A    between atoms: C3_3  and  N1_4 
REMARK    4  A    between atoms: C19_24  and  C21_26 
ROOT
HETATM    1  N1  UNL     1       2.539  -0.081  -0.089  1.00  0.00     0.112 N 
HETATM    2  C4  UNL     1       2.104  -0.334   1.250  1.00  0.00     0.280 C 
HETATM    3  C5  UNL     1       1.055  -1.428   1.198  1.00  0.00     0.104 C 
HETATM    4  C6  UNL     1      -0.157  -0.857   0.535  1.00  0.00     0.222 C 
HETATM    5  C7  UNL     1      -0.954  -1.923  -0.213  1.00  0.00     0.243 C 
HETATM    6  O1  UNL     1      -2.054  -1.218  -0.748  1.00  0.00    -0.347 OA
HETATM    7  C8  UNL     1      -2.807  -0.813   0.366  1.00  0.00     0.202 C 
HETATM    8  C9  UNL     1      -4.067  -1.651   0.344  1.00  0.00     0.076 C 
HETATM    9  C10 UNL     1      -5.210  -0.976  -0.371  1.00  0.00    -0.009 C 
HETATM   10  C11 UNL     1      -6.041  -0.127   0.540  1.00  0.00     0.009 C 
HETATM   11  C12 UNL     1      -5.398   1.172   0.922  1.00  0.00    -0.013 C 
HETATM   12  C13 UNL     1      -5.029   1.933  -0.345  1.00  0.00     0.010 C 
HETATM   13  C14 UNL     1      -3.945   1.024  -0.910  1.00  0.00    -0.004 C 
HETATM   14  C15 UNL     1      -4.694  -0.161  -1.530  1.00  0.00     0.010 C 
HETATM   15  C16 UNL     1      -3.181   0.635   0.311  1.00  0.00     0.055 C 
HETATM   16  C17 UNL     1      -4.033   0.940   1.520  1.00  0.00     0.015 C 
HETATM   17  O2  UNL     1      -2.139  -1.027   1.570  1.00  0.00    -0.197 OA
HETATM   18  O3  UNL     1      -1.004  -0.366   1.514  1.00  0.00    -0.195 OA
HETATM   19  O4  UNL     1       0.238   0.129  -0.351  1.00  0.00    -0.321 OA
HETATM   20  C18 UNL     1       1.415  -0.241  -0.990  1.00  0.00     0.443 C 
ENDROOT
BRANCH   1  21
HETATM   21  C3  UNL     1       3.315   1.070  -0.306  1.00  0.00     0.280 C 
BRANCH  21  22
HETATM   22  C2  UNL     1       4.700   0.976   0.266  1.00  0.00     0.024 C 
HETATM   23  C1  UNL     1       5.320   2.360  -0.045  1.00  0.00     0.012 C 
BRANCH  22  24
HETATM   24  C19 UNL     1       5.523  -0.070  -0.421  1.00  0.00     0.088 C 
HETATM   25  C20 UNL     1       5.053  -1.471  -0.189  1.00  0.00     0.021 C 
BRANCH  24  26
HETATM   26  C21 UNL     1       6.971   0.078  -0.084  1.00  0.00     0.177 C 
HETATM   27  O5  UNL     1       7.554  -0.829   0.597  1.00  0.00    -0.648 OA
HETATM   28  O6  UNL     1       7.638   1.202  -0.524  1.00  0.00    -0.648 OA
ENDBRANCH  24  26
ENDBRANCH  22  24
ENDBRANCH  21  22
ENDBRANCH   1  21
TORSDOF 4
