REMARK  5 active torsions:
REMARK  status: ('A' for Active; 'I' for Inactive)
REMARK    1  A    between atoms: C2_2  and  C4_4 
REMARK    2  A    between atoms: C9_12  and  C10_13 
REMARK    3  A    between atoms: C12_15  and  C13_16 
REMARK    4  A    between atoms: C18_23  and  O6_24 
REMARK    5  A    between atoms: O6_24  and  C19_25 
ROOT
HETATM    1  C4  UNL     1      -1.920  -0.336  -1.997  1.00  0.00    -0.047 C 
HETATM    2  C5  UNL     1      -0.733  -1.244  -1.924  1.00  0.00     0.120 C 
HETATM    3  C6  UNL     1      -0.393  -1.692  -0.588  1.00  0.00     0.161 C 
HETATM    4  O1  UNL     1      -1.085  -2.583  -0.069  1.00  0.00    -0.295 OA
HETATM    5  C7  UNL     1       0.728  -1.193   0.262  1.00  0.00     0.210 C 
HETATM    6  O2  UNL     1       1.668  -2.252   0.219  1.00  0.00    -0.307 OA
HETATM    7  C8  UNL     1       2.752  -2.171   1.069  1.00  0.00     0.264 C 
HETATM    8  O3  UNL     1       3.270  -3.182   1.603  1.00  0.00    -0.265 OA
HETATM    9  C9  UNL     1       3.244  -0.785   1.290  1.00  0.00     0.100 C 
HETATM   10  C12 UNL     1       2.868   0.007   0.087  1.00  0.00     0.111 C 
HETATM   11  C14 UNL     1       1.363   0.051  -0.193  1.00  0.00     0.060 C 
HETATM   12  C15 UNL     1       0.815   1.295   0.424  1.00  0.00    -0.013 C 
HETATM   13  C16 UNL     1      -0.399   1.688   0.595  1.00  0.00    -0.054 C 
HETATM   14  C17 UNL     1      -0.620   3.030   1.268  1.00  0.00     0.046 C 
HETATM   15  C18 UNL     1      -1.678   0.967   0.206  1.00  0.00     0.183 C 
HETATM   16  C21 UNL     1      -1.891   0.920  -1.244  1.00  0.00     0.018 C 
ENDROOT
BRANCH  15  17
HETATM   17  O6  UNL     1      -2.784   1.734   0.756  1.00  0.00    -0.308 OA
BRANCH  17  18
HETATM   18  C19 UNL     1      -3.512   1.236   1.812  1.00  0.00     0.255 C 
HETATM   19  C20 UNL     1      -4.649   1.980   2.405  1.00  0.00     0.126 C 
HETATM   20  O7  UNL     1      -3.215   0.121   2.296  1.00  0.00    -0.266 OA
ENDBRANCH  17  18
ENDBRANCH  15  17
BRANCH   1  21
HETATM   21  C2  UNL     1      -3.206  -1.069  -2.059  1.00  0.00    -0.065 C 
HETATM   22  C1  UNL     1      -4.320  -0.673  -1.507  1.00  0.00     0.019 C 
HETATM   23  C3  UNL     1      -3.204  -2.352  -2.818  1.00  0.00     0.048 C 
ENDBRANCH   1  21
BRANCH  10  24
HETATM   24  C13 UNL     1       3.669  -0.342  -1.092  1.00  0.00     0.178 C 
HETATM   25  O4  UNL     1       4.360   0.517  -1.749  1.00  0.00    -0.648 OA
HETATM   26  O5  UNL     1       3.744  -1.631  -1.596  1.00  0.00    -0.648 OA
ENDBRANCH  10  24
BRANCH   9  27
HETATM   27  C10 UNL     1       4.724  -0.745   1.457  1.00  0.00     0.011 C 
HETATM   28  C11 UNL     1       5.162   0.678   1.681  1.00  0.00     0.006 C 
ENDBRANCH   9  27
TORSDOF 5
