REMARK  4 active torsions:
REMARK  status: ('A' for Active; 'I' for Inactive)
REMARK    1  A    between atoms: C2_2  and  C4_4 
REMARK    2  A    between atoms: N1_9  and  C8_10 
REMARK    3  A    between atoms: C8_10  and  C9_11 
REMARK    4  A    between atoms: C14_19  and  N3_20 
ROOT
HETATM    1  C4  UNL     1      -2.557   0.804  -0.742  1.00  0.00     0.088 C 
HETATM    2  C5  UNL     1      -1.186   0.844  -1.273  1.00  0.00     0.041 C 
HETATM    3  C6  UNL     1      -0.269  -0.219  -0.729  1.00  0.00     0.078 C 
HETATM    4  C7  UNL     1       1.107   0.285  -0.775  1.00  0.00     0.239 C 
HETATM    5  O1  UNL     1       1.551   0.815  -1.808  1.00  0.00    -0.272 OA
HETATM    6  N1  UNL     1       1.992   0.186   0.364  1.00  0.00    -0.307 N 
HETATM    7  C11 UNL     1       1.668  -0.840   1.291  1.00  0.00     0.080 C 
HETATM    8  N2  UNL     1       2.435  -1.055   2.299  1.00  0.00    -0.389 N 
ATOM      9  H21 UNL     1       2.202  -1.792   2.965  1.00  0.00     0.157 HD
ATOM     10  H22 UNL     1       3.273  -0.490   2.437  1.00  0.00     0.157 HD
HETATM   11  C12 UNL     1       0.434  -1.672   1.088  1.00  0.00     0.086 C 
HETATM   12  C13 UNL     1      -0.662  -0.733   0.632  1.00  0.00     0.062 C 
HETATM   13  C14 UNL     1      -1.922  -1.486   0.263  1.00  0.00     0.190 C 
HETATM   14  C15 UNL     1      -2.937  -0.470  -0.096  1.00  0.00     0.174 C 
HETATM   15  O4  UNL     1      -4.101  -0.700   0.151  1.00  0.00    -0.294 OA
HETATM   16  C16 UNL     1      -1.428  -2.213  -0.974  1.00  0.00    -0.001 A 
HETATM   17  C17 UNL     1      -1.760  -3.399  -1.576  1.00  0.00     0.060 A 
HETATM   18  S1  UNL     1      -0.714  -3.466  -2.916  1.00  0.00    -0.113 SA
HETATM   19  C18 UNL     1       0.119  -1.999  -2.692  1.00  0.00     0.058 A 
HETATM   20  C19 UNL     1      -0.451  -1.486  -1.555  1.00  0.00    -0.023 A 
ENDROOT
BRANCH   1  21
HETATM   21  C2  UNL     1      -2.828   1.965   0.135  1.00  0.00    -0.082 C 
HETATM   22  C1  UNL     1      -1.908   2.797   0.571  1.00  0.00     0.015 C 
HETATM   23  C3  UNL     1      -4.248   2.264   0.577  1.00  0.00     0.043 C 
ENDBRANCH   1  21
BRANCH  13  24
HETATM   24  N3  UNL     1      -2.358  -2.368   1.293  1.00  0.00    -0.132 N 
HETATM   25  O2  UNL     1      -2.428  -3.582   1.060  1.00  0.00    -0.535 OA
HETATM   26  O3  UNL     1      -2.706  -1.941   2.547  1.00  0.00    -0.535 OA
ENDBRANCH  13  24
BRANCH   6  27
HETATM   27  C8  UNL     1       3.121   1.070   0.540  1.00  0.00     0.133 C 
BRANCH  27  28
HETATM   28  C9  UNL     1       4.380   0.520  -0.093  1.00  0.00     0.016 C 
HETATM   29  C10 UNL     1       5.493   1.515   0.148  1.00  0.00     0.006 C 
ENDBRANCH  27  28
ENDBRANCH   6  27
TORSDOF 4
