REMARK  7 active torsions:
REMARK  status: ('A' for Active; 'I' for Inactive)
REMARK    1  A    between atoms: C3_3  and  C4_4 
REMARK    2  A    between atoms: C4_4  and  O2_6 
REMARK    3  A    between atoms: O2_6  and  C5_7 
REMARK    4  A    between atoms: C16_20  and  O5_21 
REMARK    5  A    between atoms: C16_20  and  C17_23 
REMARK    6  A    between atoms: C17_23  and  O6_24 
REMARK    7  A    between atoms: O6_24  and  C18_25 
ROOT
HETATM    1  C5  UNL     1       1.573  -1.213   0.297  1.00  0.00     0.161 C 
HETATM    2  C6  UNL     1       0.826  -2.458   0.046  1.00  0.00     0.211 C 
HETATM    3  O3  UNL     1      -0.430  -2.575   0.673  1.00  0.00    -0.315 OA
HETATM    4  C7  UNL     1      -1.178  -1.545   1.227  1.00  0.00     0.289 C 
HETATM    5  O4  UNL     1      -1.742  -1.909   2.321  1.00  0.00    -0.260 OA
HETATM    6  C8  UNL     1      -1.388  -0.205   0.764  1.00  0.00     0.048 C 
HETATM    7  C9  UNL     1      -0.135   0.635   0.616  1.00  0.00     0.034 C 
HETATM    8  C10 UNL     1      -0.178   1.999   1.214  1.00  0.00     0.037 C 
HETATM    9  C11 UNL     1      -0.620   3.137   0.362  1.00  0.00    -0.023 C 
HETATM   10  C12 UNL     1      -1.550   3.451  -0.580  1.00  0.00    -0.077 C 
HETATM   11  C13 UNL     1      -1.517   4.801  -1.102  1.00  0.00     0.044 C 
HETATM   12  C14 UNL     1      -2.659   2.558  -1.200  1.00  0.00     0.117 C 
HETATM   13  C15 UNL     1      -2.463   1.287  -0.682  1.00  0.00    -0.134 C 
HETATM   14  C16 UNL     1      -2.381  -0.105  -0.384  1.00  0.00     0.162 C 
HETATM   15  C20 UNL     1       0.938  -0.247   1.299  1.00  0.00     0.022 C 
HETATM   16  C21 UNL     1       2.098   0.587   1.799  1.00  0.00     0.013 C 
ENDROOT
BRANCH  14  17
HETATM   17  O5  UNL     1      -1.955  -0.914  -1.433  1.00  0.00    -0.372 OA
ATOM     18  H5  UNL     1      -2.575  -0.852  -2.150  1.00  0.00     0.212 HD
ENDBRANCH  14  17
BRANCH  14  19
HETATM   19  C17 UNL     1      -3.728  -0.581   0.081  1.00  0.00     0.234 C 
BRANCH  19  20
HETATM   20  O6  UNL     1      -3.909  -1.882   0.454  1.00  0.00    -0.317 OA
BRANCH  20  21
HETATM   21  C18 UNL     1      -3.892  -3.041  -0.262  1.00  0.00     0.254 C 
HETATM   22  C19 UNL     1      -4.123  -4.315   0.498  1.00  0.00     0.126 C 
HETATM   23  O7  UNL     1      -3.695  -3.017  -1.477  1.00  0.00    -0.266 OA
ENDBRANCH  20  21
ENDBRANCH  19  20
ENDBRANCH  14  19
BRANCH   1  24
HETATM   24  O2  UNL     1       2.917  -1.468   0.568  1.00  0.00    -0.310 OA
BRANCH  24  25
HETATM   25  C4  UNL     1       3.929  -1.040  -0.247  1.00  0.00     0.283 C 
HETATM   26  O1  UNL     1       3.594  -0.392  -1.276  1.00  0.00    -0.260 OA
BRANCH  25  27
HETATM   27  C3  UNL     1       5.320  -1.326   0.071  1.00  0.00     0.077 C 
HETATM   28  C2  UNL     1       6.310  -0.921  -0.705  1.00  0.00    -0.025 C 
HETATM   29  C1  UNL     1       6.093  -0.148  -1.953  1.00  0.00     0.036 C 
ENDBRANCH  25  27
ENDBRANCH  24  25
ENDBRANCH   1  24
TORSDOF 7
