REMARK  6 active torsions:
REMARK  status: ('A' for Active; 'I' for Inactive)
REMARK    1  A    between atoms: C2_2  and  C3_3 
REMARK    2  A    between atoms: C2_2  and  C5_7 
REMARK    3  A    between atoms: C3_3  and  C4_4 
REMARK    4  A    between atoms: C4_4  and  O1_5 
REMARK    5  A    between atoms: C9_11  and  O2_12 
REMARK    6  A    between atoms: C11_15  and  C12_16 
ROOT
HETATM    1  C5  UNL     1       4.396  -0.154   0.373  1.00  0.00    -0.034 C 
HETATM    2  C6  UNL     1       4.511   0.741   1.633  1.00  0.00     0.016 C 
HETATM    3  C7  UNL     1       4.230  -1.557   0.998  1.00  0.00     0.013 C 
HETATM    4  C8  UNL     1       2.690  -1.688   1.081  1.00  0.00     0.044 C 
HETATM    5  C9  UNL     1       2.386  -1.243  -0.282  1.00  0.00     0.086 C 
HETATM    6  C10 UNL     1       1.096  -0.723  -0.638  1.00  0.00    -0.046 C 
HETATM    7  C11 UNL     1      -0.068  -1.078  -0.156  1.00  0.00     0.006 C 
HETATM    8  C25 UNL     1       1.366   0.307  -1.672  1.00  0.00     0.038 C 
HETATM    9  C26 UNL     1       2.916   0.453  -1.662  1.00  0.00     0.013 C 
HETATM   10  C27 UNL     1       3.162   0.101  -0.268  1.00  0.00     0.033 C 
ENDROOT
BRANCH   5  11
HETATM   11  O2  UNL     1       2.844  -2.066  -1.291  1.00  0.00    -0.385 OA
ATOM     12  H2  UNL     1       2.647  -1.778  -2.174  1.00  0.00     0.211 HD
ENDBRANCH   5  11
BRANCH   7  13
HETATM   13  C12 UNL     1      -1.325  -0.487  -0.584  1.00  0.00     0.004 C 
HETATM   14  C13 UNL     1      -2.475  -0.868  -0.077  1.00  0.00    -0.068 C 
HETATM   15  C14 UNL     1      -2.670  -1.896   0.950  1.00  0.00     0.036 C 
HETATM   16  C18 UNL     1      -3.789  -0.328  -0.465  1.00  0.00     0.095 C 
HETATM   17  C15 UNL     1      -3.905  -1.371   1.698  1.00  0.00     0.017 C 
HETATM   18  C16 UNL     1      -4.763  -0.789   0.565  1.00  0.00     0.002 C 
HETATM   19  C17 UNL     1      -5.600  -1.922   0.010  1.00  0.00     0.019 C 
HETATM   20  C24 UNL     1      -5.587   0.302   1.160  1.00  0.00     0.187 C 
HETATM   21  C21 UNL     1      -6.124   1.306   0.186  1.00  0.00    -0.009 C 
HETATM   22  F1  UNL     1      -6.687  -0.309   1.778  1.00  0.00    -0.248 F 
HETATM   23  C20 UNL     1      -5.142   1.778  -0.831  1.00  0.00     0.090 C 
HETATM   24  C22 UNL     1      -6.573   2.516   1.011  1.00  0.00     0.018 C 
HETATM   25  C23 UNL     1      -7.361   0.811  -0.530  1.00  0.00     0.018 C 
HETATM   26  C19 UNL     1      -3.817   1.162  -0.528  1.00  0.00     0.136 C 
HETATM   27  O3  UNL     1      -2.868   1.888  -0.355  1.00  0.00    -0.297 OA
ENDBRANCH   7  13
BRANCH   1  28
HETATM   28  C2  UNL     1       5.701   0.020  -0.280  1.00  0.00    -0.008 C 
HETATM   29  C1  UNL     1       5.964  -0.705  -1.549  1.00  0.00     0.011 C 
BRANCH  28  30
HETATM   30  C3  UNL     1       6.002   1.486  -0.490  1.00  0.00     0.031 C 
BRANCH  30  31
HETATM   31  C4  UNL     1       7.454   1.696  -0.893  1.00  0.00     0.164 C 
BRANCH  31  32
HETATM   32  O1  UNL     1       8.305   1.222   0.085  1.00  0.00    -0.401 OA
ATOM     33  H1  UNL     1       9.212   1.353  -0.167  1.00  0.00     0.209 HD
ENDBRANCH  31  32
ENDBRANCH  30  31
ENDBRANCH  28  30
ENDBRANCH   1  28
TORSDOF 6
