REMARK  5 active torsions:
REMARK  status: ('A' for Active; 'I' for Inactive)
REMARK    1  A    between atoms: C2_2  and  C4_4 
REMARK    2  A    between atoms: C6_6  and  C7_7 
REMARK    3  A    between atoms: N1_10  and  C10_11 
REMARK    4  A    between atoms: C10_11  and  C11_12 
REMARK    5  A    between atoms: C20_28  and  C21_29 
ROOT
HETATM    1  C7  UNL     1      -0.188   0.445   0.535  1.00  0.00     0.022 C 
HETATM    2  C8  UNL     1       0.761  -0.692   0.556  1.00  0.00     0.039 C 
HETATM    3  C9  UNL     1       1.632  -0.648  -0.686  1.00  0.00     0.273 C 
HETATM    4  N1  UNL     1       2.472   0.495  -0.626  1.00  0.00     0.089 N 
HETATM    5  C17 UNL     1       1.729   1.694  -0.452  1.00  0.00     0.273 C 
HETATM    6  C18 UNL     1       0.226   1.450  -0.535  1.00  0.00     0.039 C 
ENDROOT
BRANCH   4   7
HETATM    7  C10 UNL     1       3.594   0.444   0.228  1.00  0.00     0.282 C 
BRANCH   7   8
HETATM    8  C11 UNL     1       4.683  -0.488  -0.229  1.00  0.00     0.055 C 
HETATM    9  C12 UNL     1       5.232  -0.097  -1.549  1.00  0.00     0.031 C 
HETATM   10  C13 UNL     1       6.410   0.820  -1.528  1.00  0.00     0.122 C 
HETATM   11  N2  UNL     1       7.098   0.910  -0.279  1.00  0.00    -0.375 N 
HETATM   12  C14 UNL     1       6.852   0.038   0.814  1.00  0.00     0.125 A 
ATOM     13  H2  UNL     1       7.803   1.639  -0.167  1.00  0.00     0.161 HD
HETATM   14  N3  UNL     1       7.576  -0.291   1.911  1.00  0.00    -0.284 N 
HETATM   15  C16 UNL     1       5.676  -0.645   0.854  1.00  0.00     0.033 A 
HETATM   16  N4  UNL     1       6.867  -1.157   2.612  1.00  0.00    -0.288 N 
ATOM     17  H3  UNL     1       8.501   0.066   2.152  1.00  0.00     0.188 HD
HETATM   18  C15 UNL     1       5.699  -1.408   2.012  1.00  0.00     0.128 A 
ATOM     19  H4  UNL     1       7.169  -1.577   3.491  1.00  0.00     0.188 HD
HETATM   20 CL1  UNL     1       4.415  -2.476   2.526  1.00  0.00    -0.062 Cl
ENDBRANCH   7   8
ENDBRANCH   4   7
BRANCH   1  21
HETATM   21  C6  UNL     1      -1.595   0.091   0.322  1.00  0.00    -0.053 A 
HETATM   22  C5  UNL     1      -1.900  -1.055  -0.366  1.00  0.00     0.015 A 
HETATM   23  C4  UNL     1      -3.248  -1.355  -0.556  1.00  0.00    -0.054 A 
HETATM   24  C25 UNL     1      -4.220  -0.504  -0.056  1.00  0.00     0.015 A 
HETATM   25  C20 UNL     1      -3.922   0.647   0.634  1.00  0.00    -0.050 A 
HETATM   26  C19 UNL     1      -2.590   0.934   0.817  1.00  0.00     0.015 A 
BRANCH  23  27
HETATM   27  C2  UNL     1      -3.687  -2.560  -1.279  1.00  0.00     0.010 C 
HETATM   28  C1  UNL     1      -2.924  -3.801  -0.996  1.00  0.00     0.015 C 
HETATM   29  C3  UNL     1      -3.491  -2.233  -2.771  1.00  0.00     0.015 C 
ENDBRANCH  23  27
BRANCH  25  30
HETATM   30  C21 UNL     1      -4.936   1.584   1.176  1.00  0.00    -0.024 C 
HETATM   31  C22 UNL     1      -4.563   3.034   0.959  1.00  0.00     0.019 C 
HETATM   32  C23 UNL     1      -5.217   1.374   2.632  1.00  0.00     0.019 C 
HETATM   33  C24 UNL     1      -6.241   1.362   0.407  1.00  0.00     0.019 C 
ENDBRANCH  25  30
ENDBRANCH   1  21
TORSDOF 5
