REMARK  5 active torsions:
REMARK  status: ('A' for Active; 'I' for Inactive)
REMARK    1  A    between atoms: O1_2  and  C2_3 
REMARK    2  A    between atoms: C14_16  and  C15_17 
REMARK    3  A    between atoms: C15_17  and  C16_18 
REMARK    4  A    between atoms: C22_24  and  C23_25 
REMARK    5  A    between atoms: C24_28  and  O4_30 
ROOT
HETATM    1  C2  UNL     1      -3.883  -0.639  -0.833  1.00  0.00     0.155 C 
HETATM    2  C3  UNL     1      -4.536  -1.272   0.378  1.00  0.00     0.035 C 
HETATM    3  C4  UNL     1      -3.315  -1.687   1.195  1.00  0.00     0.004 C 
HETATM    4  C5  UNL     1      -2.706  -0.446   1.654  1.00  0.00     0.018 C 
HETATM    5  C6  UNL     1      -1.974   0.380   0.539  1.00  0.00     0.029 C 
HETATM    6  C7  UNL     1      -1.860   1.707   1.234  1.00  0.00    -0.009 C 
HETATM    7  C8  UNL     1      -1.098   2.757   1.118  1.00  0.00    -0.068 C 
HETATM    8  C9  UNL     1      -1.334   3.917   2.061  1.00  0.00     0.044 C 
HETATM    9  C10 UNL     1      -0.028   2.990   0.190  1.00  0.00     0.111 C 
HETATM   10 CL1  UNL     1       1.219   4.031   0.973  1.00  0.00    -0.120 Cl
HETATM   11  C11 UNL     1       0.664   1.821  -0.384  1.00  0.00     0.035 C 
HETATM   12  C12 UNL     1       0.524   0.728   0.534  1.00  0.00     0.036 C 
HETATM   13  C13 UNL     1       1.665  -0.220   0.470  1.00  0.00    -0.078 C 
HETATM   14  C14 UNL     1       2.784  -0.204  -0.196  1.00  0.00    -0.020 C 
HETATM   15  C20 UNL     1       1.264  -1.314   1.390  1.00  0.00     0.036 C 
HETATM   16  C21 UNL     1      -0.205  -1.035   1.636  1.00  0.00     0.027 C 
HETATM   17  C22 UNL     1      -0.664  -0.226   0.390  1.00  0.00     0.070 C 
HETATM   18  C24 UNL     1      -2.989   0.513  -0.512  1.00  0.00     0.092 C 
HETATM   19  C25 UNL     1      -2.749   1.144  -1.816  1.00  0.00     0.050 C 
ENDROOT
BRANCH  17  20
HETATM   20  C23 UNL     1      -0.320  -1.083  -0.739  1.00  0.00     0.183 C 
HETATM   21  O2  UNL     1      -0.149  -2.354  -0.667  1.00  0.00    -0.647 OA
HETATM   22  O3  UNL     1      -0.129  -0.653  -2.047  1.00  0.00    -0.647 OA
ENDBRANCH  17  20
BRANCH  18  23
HETATM   23  O4  UNL     1      -3.966   1.424   0.091  1.00  0.00    -0.386 OA
ATOM     24  H4  UNL     1      -3.397   2.157   0.295  1.00  0.00     0.210 HD
ENDBRANCH  18  23
BRANCH   1  25
HETATM   25  O1  UNL     1      -3.327  -1.677  -1.555  1.00  0.00    -0.388 OA
HETATM   26  C1  UNL     1      -4.000  -2.026  -2.694  1.00  0.00     0.202 C 
ENDBRANCH   1  25
BRANCH  14  27
HETATM   27  C15 UNL     1       3.809  -1.289  -0.105  1.00  0.00     0.054 C 
BRANCH  27  28
HETATM   28  C16 UNL     1       5.110  -0.779   0.380  1.00  0.00    -0.021 C 
HETATM   29  C17 UNL     1       6.232  -0.856  -0.313  1.00  0.00    -0.091 C 
HETATM   30  C18 UNL     1       7.518  -0.330   0.214  1.00  0.00     0.042 C 
HETATM   31  C19 UNL     1       6.227  -1.484  -1.659  1.00  0.00     0.042 C 
ENDBRANCH  27  28
ENDBRANCH  14  27
TORSDOF 5
