REMARK  4 active torsions:
REMARK  status: ('A' for Active; 'I' for Inactive)
REMARK    1  A    between atoms: C5_9  and  C6_10 
REMARK    2  A    between atoms: C12_18  and  C13_19 
REMARK    3  A    between atoms: C20_27  and  N4_28 
REMARK    4  A    between atoms: N4_28  and  C21_30 
ROOT
HETATM    1  C1  UNL     1       3.106   2.750  -2.184  1.00  0.00     0.089 C 
HETATM    2  C2  UNL     1       2.580   1.634  -1.356  1.00  0.00     0.079 A 
HETATM    3  N1  UNL     1       1.337   1.559  -0.984  1.00  0.00    -0.343 N 
ATOM      4  H1  UNL     1       0.723   2.317  -1.281  1.00  0.00     0.167 HD
HETATM    5  C3  UNL     1       0.764   0.558  -0.228  1.00  0.00     0.084 A 
HETATM    6  C4  UNL     1      -0.556   0.774   0.271  1.00  0.00     0.089 A 
HETATM    7  N2  UNL     1      -1.165   2.024   0.117  1.00  0.00    -0.338 N 
ATOM      8  H2  UNL     1      -0.690   2.851  -0.245  1.00  0.00     0.167 HD
HETATM    9  C5  UNL     1      -2.426   2.003   0.497  1.00  0.00     0.116 A 
HETATM   10  N3  UNL     1      -2.667   0.771   0.891  1.00  0.00    -0.339 N 
ATOM     11  H3  UNL     1      -3.563   0.440   1.249  1.00  0.00     0.167 HD
HETATM   12  C12 UNL     1      -1.528  -0.019   0.751  1.00  0.00     0.069 A 
HETATM   13  C19 UNL     1       1.657  -0.388   0.127  1.00  0.00     0.083 A 
HETATM   14 BR1  UNL     1       1.386  -1.653   1.567  1.00  0.00    -0.044 Br
HETATM   15  C20 UNL     1       3.029  -0.375  -0.249  1.00  0.00     0.122 A 
HETATM   16  N5  UNL     1       3.442   0.660  -0.992  1.00  0.00    -0.331 N 
ATOM     17  H5  UNL     1       4.417   0.713  -1.286  1.00  0.00     0.168 HD
ENDROOT
BRANCH  12  18
HETATM   18  C13 UNL     1      -1.733  -1.492   0.700  1.00  0.00    -0.033 C 
HETATM   19  C14 UNL     1      -2.407  -2.067   1.677  1.00  0.00    -0.017 C 
HETATM   20  C15 UNL     1      -2.701  -3.506   1.783  1.00  0.00     0.028 C 
HETATM   21  C16 UNL     1      -2.692  -4.188   0.428  1.00  0.00     0.004 C 
HETATM   22  C17 UNL     1      -1.394  -3.760  -0.217  1.00  0.00     0.005 C 
HETATM   23  C18 UNL     1      -1.452  -2.304  -0.517  1.00  0.00     0.040 C 
ENDBRANCH  12  18
BRANCH   9  24
HETATM   24  C6  UNL     1      -3.395   3.130   0.493  1.00  0.00     0.008 A 
HETATM   25  C7  UNL     1      -2.985   4.380   0.045  1.00  0.00     0.015 A 
HETATM   26  C8  UNL     1      -3.856   5.436   0.031  1.00  0.00     0.001 A 
HETATM   27  C9  UNL     1      -5.149   5.206   0.478  1.00  0.00     0.000 A 
HETATM   28  C10 UNL     1      -5.550   3.964   0.921  1.00  0.00     0.001 A 
HETATM   29  C11 UNL     1      -4.683   2.908   0.937  1.00  0.00     0.015 A 
ENDBRANCH   9  24
BRANCH  15  30
HETATM   30  N4  UNL     1       3.825  -1.315   0.109  1.00  0.00    -0.371 N 
ATOM     31  H4  UNL     1       3.461  -2.083   0.673  1.00  0.00     0.161 HD
BRANCH  30  32
HETATM   32  C21 UNL     1       5.200  -1.319  -0.257  1.00  0.00     0.075 C 
HETATM   33  C22 UNL     1       5.454  -1.689  -1.683  1.00  0.00     0.031 C 
HETATM   34  C23 UNL     1       5.917  -2.356   0.625  1.00  0.00     0.031 C 
ENDBRANCH  30  32
ENDBRANCH  15  30
TORSDOF 4
