REMARK  5 active torsions:
REMARK  status: ('A' for Active; 'I' for Inactive)
REMARK    1  A    between atoms: C2_2  and  C3_3 
REMARK    2  A    between atoms: C3_3  and  C4_4 
REMARK    3  A    between atoms: C4_4  and  C6_6 
REMARK    4  A    between atoms: C13_13  and  O1_14 
REMARK    5  A    between atoms: C15_17  and  C16_18 
ROOT
HETATM    1  C6  UNL     1      -1.835   0.183  -0.092  1.00  0.00    -0.069 C 
HETATM    2  C7  UNL     1      -0.419   0.442   0.378  1.00  0.00     0.040 C 
HETATM    3  C8  UNL     1       0.523  -0.439  -0.404  1.00  0.00    -0.001 C 
HETATM    4  C9  UNL     1       1.895  -0.250   0.224  1.00  0.00     0.045 C 
HETATM    5  C10 UNL     1       2.918  -0.539  -0.785  1.00  0.00    -0.037 A 
HETATM    6  C11 UNL     1       3.011  -1.683  -1.545  1.00  0.00    -0.048 A 
HETATM    7  C12 UNL     1       4.014  -1.821  -2.471  1.00  0.00     0.044 A 
HETATM    8  C13 UNL     1       4.949  -0.836  -2.671  1.00  0.00     0.067 A 
HETATM    9  C14 UNL     1       4.844   0.288  -1.912  1.00  0.00     0.052 A 
HETATM   10  C15 UNL     1       3.842   0.483  -0.953  1.00  0.00     0.017 A 
HETATM   11  C19 UNL     1       2.162  -2.891  -1.535  1.00  0.00     0.039 C 
HETATM   12  C20 UNL     1       1.179  -2.861  -0.371  1.00  0.00     0.010 C 
HETATM   13  C21 UNL     1       0.103  -1.837  -0.594  1.00  0.00     0.003 C 
HETATM   14  C22 UNL     1      -1.175  -2.236   0.155  1.00  0.00    -0.013 C 
HETATM   15  C23 UNL     1      -0.975  -2.566   1.547  1.00  0.00     0.021 C 
HETATM   16  C24 UNL     1      -1.787  -3.462  -0.503  1.00  0.00     0.018 C 
HETATM   17  C25 UNL     1      -3.269  -3.242  -0.409  1.00  0.00     0.049 C 
HETATM   18  C26 UNL     1      -3.476  -1.799   0.089  1.00  0.00     0.124 C 
HETATM   19  C27 UNL     1      -4.038  -1.906   1.423  1.00  0.00     0.057 C 
HETATM   20  F1  UNL     1      -4.446  -1.264  -0.784  1.00  0.00    -0.238 F 
HETATM   21  C28 UNL     1      -2.198  -1.214  -0.245  1.00  0.00    -0.030 C 
ENDROOT
BRANCH  10  22
HETATM   22  C16 UNL     1       3.798   1.696  -0.153  1.00  0.00     0.107 C 
HETATM   23  N1  UNL     1       3.474   2.899  -0.545  1.00  0.00    -0.374 N 
HETATM   24  C17 UNL     1       3.542   3.852   0.519  1.00  0.00     0.141 C 
ATOM     25  H1  UNL     1       3.203   3.132  -1.500  1.00  0.00     0.161 HD
HETATM   26  C18 UNL     1       4.294   3.146   1.631  1.00  0.00     0.141 C 
HETATM   27  N2  UNL     1       4.140   1.768   1.240  1.00  0.00    -0.374 N 
ATOM     28  H2  UNL     1       4.256   0.965   1.859  1.00  0.00     0.161 HD
ENDBRANCH  10  22
BRANCH   8  29
HETATM   29  O1  UNL     1       5.959  -0.984  -3.610  1.00  0.00    -0.361 OA
ATOM     30  H1  UNL     1       6.606  -0.302  -3.748  1.00  0.00     0.217 HD
ENDBRANCH   8  29
BRANCH   1  31
HETATM   31  C4  UNL     1      -2.831   1.146   0.510  1.00  0.00     0.011 C 
HETATM   32  C5  UNL     1      -2.731   1.188   2.038  1.00  0.00     0.015 C 
BRANCH  31  33
HETATM   33  C3  UNL     1      -2.534   2.599   0.105  1.00  0.00     0.008 C 
BRANCH  33  34
HETATM   34  C2  UNL     1      -3.516   3.558   0.662  1.00  0.00    -0.004 C 
HETATM   35  C1  UNL     1      -3.089   4.949   0.169  1.00  0.00     0.005 C 
ENDBRANCH  33  34
ENDBRANCH  31  33
ENDBRANCH   1  31
TORSDOF 5
