REMARK  6 active torsions:
REMARK  status: ('A' for Active; 'I' for Inactive)
REMARK    1  A    between atoms: C2_2  and  O2_4 
REMARK    2  A    between atoms: O2_4  and  C3_5 
REMARK    3  A    between atoms: C17_19  and  N1_20 
REMARK    4  A    between atoms: N1_20  and  C18_22 
REMARK    5  A    between atoms: C18_22  and  C19_23 
REMARK    6  A    between atoms: C19_23  and  C20_24 
ROOT
HETATM    1  C3  UNL     1       4.942   0.030   0.786  1.00  0.00     0.136 C 
HETATM    2  C4  UNL     1       3.797   0.721   1.402  1.00  0.00     0.034 C 
HETATM    3  C5  UNL     1       2.418   0.268   1.022  1.00  0.00     0.016 C 
HETATM    4  C6  UNL     1       2.343   0.147  -0.472  1.00  0.00    -0.017 C 
HETATM    5  C7  UNL     1       2.934   1.451  -1.044  1.00  0.00     0.020 C 
HETATM    6  C8  UNL     1       3.285  -0.962  -0.796  1.00  0.00    -0.072 C 
HETATM    7  C9  UNL     1       2.835  -2.083  -1.295  1.00  0.00    -0.023 C 
HETATM    8  C10 UNL     1       1.432  -2.416  -1.597  1.00  0.00     0.033 C 
HETATM    9  C11 UNL     1       0.446  -1.330  -1.308  1.00  0.00    -0.001 C 
HETATM   10  C12 UNL     1       0.993   0.022  -1.072  1.00  0.00     0.003 C 
HETATM   11  C13 UNL     1       0.035   0.983  -0.426  1.00  0.00     0.007 C 
HETATM   12  C14 UNL     1      -0.939   0.346   0.512  1.00  0.00     0.012 C 
HETATM   13  C15 UNL     1      -1.630  -0.784  -0.162  1.00  0.00    -0.020 C 
HETATM   14  C16 UNL     1      -2.168  -0.519  -1.528  1.00  0.00     0.018 C 
HETATM   15  C17 UNL     1      -2.625  -1.534   0.646  1.00  0.00     0.085 C 
HETATM   16  C23 UNL     1      -2.559  -2.958   0.057  1.00  0.00     0.026 C 
HETATM   17  C24 UNL     1      -1.220  -3.062  -0.625  1.00  0.00     0.008 C 
HETATM   18  C25 UNL     1      -0.495  -1.843  -0.236  1.00  0.00     0.000 C 
HETATM   19  C26 UNL     1       4.715  -0.707  -0.492  1.00  0.00     0.067 C 
ENDROOT
BRANCH  15  20
HETATM   20  N1  UNL     1      -3.958  -1.102   0.512  1.00  0.00    -0.416 N 
ATOM     21  H1  UNL     1      -4.646  -1.726   0.090  1.00  0.00     0.153 HD
BRANCH  20  22
HETATM   22  C18 UNL     1      -4.360   0.170   0.948  1.00  0.00     0.118 C 
BRANCH  22  23
HETATM   23  C19 UNL     1      -5.880   0.264   0.667  1.00  0.00     0.047 C 
BRANCH  23  24
HETATM   24  C20 UNL     1      -6.404   1.570   1.098  1.00  0.00    -0.006 C 
HETATM   25  C21 UNL     1      -6.962   2.377   0.214  1.00  0.00     0.004 C 
HETATM   26  C22 UNL     1      -7.497   3.694   0.626  1.00  0.00     0.061 C 
HETATM   27 CL1  UNL     1      -7.083   1.908  -1.488  1.00  0.00    -0.090 Cl
ENDBRANCH  23  24
ENDBRANCH  22  23
ENDBRANCH  20  22
ENDBRANCH  15  20
BRANCH   1  28
HETATM   28  O2  UNL     1       5.970   0.989   0.512  1.00  0.00    -0.316 OA
BRANCH  28  29
HETATM   29  C2  UNL     1       7.201   1.005   1.115  1.00  0.00     0.255 C 
HETATM   30  C1  UNL     1       8.191   2.063   0.738  1.00  0.00     0.126 C 
HETATM   31  O1  UNL     1       7.450   0.123   1.966  1.00  0.00    -0.266 OA
ENDBRANCH  28  29
ENDBRANCH   1  28
TORSDOF 6
