REMARK  5 active torsions:
REMARK  status: ('A' for Active; 'I' for Inactive)
REMARK    1  A    between atoms: C2_2  and  C3_3 
REMARK    2  A    between atoms: C3_3  and  C4_4 
REMARK    3  A    between atoms: C4_4  and  N1_5 
REMARK    4  A    between atoms: C23_26  and  O1_27 
REMARK    5  A    between atoms: C23_26  and  C24_29 
ROOT
HETATM    1  N1  UNL     1       4.688   0.360   0.614  1.00  0.00    -0.393 N 
ATOM      2  H1  UNL     1       4.987   1.311   0.831  1.00  0.00     0.159 HD
HETATM    3  C5  UNL     1       3.573   0.258  -0.002  1.00  0.00     0.008 C 
HETATM    4  C6  UNL     1       2.869   1.514  -0.316  1.00  0.00     0.022 C 
HETATM    5  C7  UNL     1       1.583   1.525  -0.620  1.00  0.00    -0.011 C 
HETATM    6  C8  UNL     1       0.725   0.314  -0.679  1.00  0.00     0.001 C 
HETATM    7  C9  UNL     1       0.454   0.060  -2.149  1.00  0.00     0.025 C 
HETATM    8  C10 UNL     1       1.449  -0.858  -0.151  1.00  0.00    -0.066 C 
HETATM    9  C11 UNL     1       0.872  -1.797   0.557  1.00  0.00    -0.022 C 
HETATM   10  C12 UNL     1      -0.565  -1.791   0.909  1.00  0.00     0.033 C 
HETATM   11  C13 UNL     1      -1.278  -0.828  -0.009  1.00  0.00     0.001 C 
HETATM   12  C14 UNL     1      -0.539   0.480   0.121  1.00  0.00     0.006 C 
HETATM   13  C15 UNL     1      -1.351   1.672  -0.251  1.00  0.00     0.007 C 
HETATM   14  C16 UNL     1      -2.690   1.653   0.449  1.00  0.00     0.013 C 
HETATM   15  C17 UNL     1      -3.461   0.428  -0.033  1.00  0.00     0.003 C 
HETATM   16  C18 UNL     1      -3.523   0.529  -1.542  1.00  0.00     0.019 C 
HETATM   17  C19 UNL     1      -2.715  -0.776   0.435  1.00  0.00     0.020 C 
HETATM   18  C20 UNL     1      -3.336  -2.091   0.097  1.00  0.00     0.087 C 
HETATM   19 CL1  UNL     1      -2.585  -2.881  -1.320  1.00  0.00    -0.125 Cl
HETATM   20  C21 UNL     1      -4.824  -2.068  -0.072  1.00  0.00     0.024 C 
HETATM   21  C22 UNL     1      -5.410  -0.972   0.750  1.00  0.00     0.051 C 
HETATM   22  C23 UNL     1      -4.876   0.392   0.464  1.00  0.00     0.153 C 
HETATM   23  C25 UNL     1       2.923  -0.999  -0.432  1.00  0.00     0.091 C 
ENDROOT
BRANCH   1  24
HETATM   24  C4  UNL     1       5.566  -0.670   1.037  1.00  0.00     0.119 C 
BRANCH  24  25
HETATM   25  C3  UNL     1       6.807  -0.752   0.206  1.00  0.00     0.019 C 
BRANCH  25  26
HETATM   26  C2  UNL     1       7.623   0.506   0.251  1.00  0.00    -0.003 C 
HETATM   27  C1  UNL     1       6.926   1.729  -0.255  1.00  0.00     0.005 C 
ENDBRANCH  25  26
ENDBRANCH  24  25
ENDBRANCH   1  24
BRANCH  22  28
HETATM   28  O1  UNL     1      -5.734   0.976  -0.504  1.00  0.00    -0.378 OA
ATOM     29  H1  UNL     1      -6.630   0.953  -0.189  1.00  0.00     0.211 HD
ENDBRANCH  22  28
BRANCH  22  30
HETATM   30  C24 UNL     1      -5.080   1.196   1.707  1.00  0.00     0.209 C 
HETATM   31  O2  UNL     1      -4.460   0.827   2.735  1.00  0.00    -0.646 OA
HETATM   32  O3  UNL     1      -5.906   2.308   1.772  1.00  0.00    -0.646 OA
ENDBRANCH  22  30
TORSDOF 5
