REMARK  7 active torsions:
REMARK  status: ('A' for Active; 'I' for Inactive)
REMARK    1  A    between atoms: C2_5  and  C3_6 
REMARK       I    between atoms: C3_6  and  N2_8 
REMARK    2  A    between atoms: N2_8  and  C4_10 
REMARK    3  A    between atoms: C4_10  and  N3_12 
REMARK    4  A    between atoms: C9_17  and  C10_18 
REMARK    5  A    between atoms: C10_18  and  C11_20 
REMARK    6  A    between atoms: C11_20  and  O3_21 
REMARK    7  A    between atoms: C11_20  and  C12_23 
ROOT
HETATM    1  O1  UNL     1      -4.671  -3.272   1.033  1.00  0.00    -0.238 OA
HETATM    2  C1  UNL     1      -3.537  -2.805   0.742  1.00  0.00     0.361 C 
HETATM    3  N1  UNL     1      -2.768  -1.959   1.627  1.00  0.00    -0.321 N 
ATOM      4  H1  UNL     1      -3.044  -1.550   2.520  1.00  0.00     0.165 HD
HETATM    5  C2  UNL     1      -1.503  -1.839   0.922  1.00  0.00     0.210 C 
HETATM    6  C9  UNL     1      -1.978  -1.788  -0.477  1.00  0.00     0.182 C 
HETATM    7  O4  UNL     1      -2.798  -2.989  -0.443  1.00  0.00    -0.295 OA
ENDROOT
BRANCH   5   8
HETATM    8  C3  UNL     1      -0.596  -0.861   1.432  1.00  0.00     0.249 C 
HETATM    9  O2  UNL     1      -0.912  -0.165   2.421  1.00  0.00    -0.271 OA
HETATM   10  N2  UNL     1       0.671  -0.655   0.839  1.00  0.00    -0.302 N 
ATOM     11  H2  UNL     1       0.936  -1.219   0.031  1.00  0.00     0.171 HD
BRANCH  10  12
HETATM   12  C4  UNL     1       1.599   0.326   1.340  1.00  0.00     0.176 C 
HETATM   13  S1  UNL     1       1.210   1.251   2.635  1.00  0.00    -0.041 SA
BRANCH  12  14
HETATM   14  N3  UNL     1       2.845   0.510   0.736  1.00  0.00    -0.358 N 
HETATM   15  C5  UNL     1       3.411  -0.179  -0.408  1.00  0.00     0.125 C 
HETATM   16  C6  UNL     1       4.375   0.784  -1.039  1.00  0.00     0.021 C 
HETATM   17  C7  UNL     1       4.450   1.997  -0.141  1.00  0.00     0.021 C 
HETATM   18  C8  UNL     1       3.855   1.458   1.146  1.00  0.00     0.125 C 
ENDBRANCH  12  14
ENDBRANCH  10  12
ENDBRANCH   5   8
BRANCH   6  19
HETATM   19  C10 UNL     1      -2.912  -0.724  -0.885  1.00  0.00     0.120 C 
HETATM   20 BR1  UNL     1      -3.285  -1.028  -2.790  1.00  0.00    -0.086 Br
BRANCH  19  21
HETATM   21  C11 UNL     1      -2.451   0.688  -0.798  1.00  0.00     0.159 C 
BRANCH  21  22
HETATM   22  O3  UNL     1      -1.322   0.953  -1.593  1.00  0.00    -0.392 OA
ATOM     23  H3  UNL     1      -1.028   1.855  -1.537  1.00  0.00     0.210 HD
ENDBRANCH  21  22
BRANCH  21  24
HETATM   24  C12 UNL     1      -3.566   1.546  -1.421  1.00  0.00     0.159 C 
HETATM   25 BR2  UNL     1      -5.226   1.323  -0.464  1.00  0.00    -0.076 Br
HETATM   26 BR3  UNL     1      -3.105   3.400  -1.425  1.00  0.00    -0.076 Br
ENDBRANCH  21  24
ENDBRANCH  19  21
ENDBRANCH   6  19
TORSDOF 7
