REMARK  9 active torsions:
REMARK  status: ('A' for Active; 'I' for Inactive)
REMARK    1  A    between atoms: C2_2  and  C4_4 
REMARK    2  A    between atoms: C4_4  and  C5_5 
REMARK    3  A    between atoms: C5_5  and  N1_6 
REMARK    4  A    between atoms: C5_5  and  C19_25 
REMARK       I    between atoms: N1_6  and  C6_8 
REMARK    5  A    between atoms: C6_8  and  C7_10 
REMARK    6  A    between atoms: C7_10  and  C8_11 
REMARK    7  A    between atoms: C8_11  and  C9_12 
REMARK       I    between atoms: C9_12  and  N2_14 
REMARK    8  A    between atoms: N3_17  and  C12_18 
REMARK       I    between atoms: C19_25  and  N4_27 
REMARK    9  A    between atoms: N4_27  and  C20_29 
ROOT
HETATM    1  N1  UNL     1      -1.814   0.002   1.676  1.00  0.00    -0.348 N 
ATOM      2  H1  UNL     1      -2.258   0.853   2.022  1.00  0.00     0.163 HD
HETATM    3  C6  UNL     1      -0.441  -0.150   1.954  1.00  0.00     0.218 C 
HETATM    4  O1  UNL     1       0.159  -1.169   1.575  1.00  0.00    -0.274 OA
ENDROOT
BRANCH   1   5
HETATM    5  C5  UNL     1      -2.648  -0.908   0.962  1.00  0.00     0.177 C 
BRANCH   5   6
HETATM    6  C4  UNL     1      -3.859  -1.328   1.745  1.00  0.00     0.038 C 
BRANCH   6   7
HETATM    7  C2  UNL     1      -3.550  -2.029   3.035  1.00  0.00    -0.020 C 
HETATM    8  C1  UNL     1      -2.772  -3.297   2.884  1.00  0.00     0.009 C 
HETATM    9  C3  UNL     1      -4.865  -2.294   3.748  1.00  0.00     0.009 C 
ENDBRANCH   6   7
ENDBRANCH   5   6
BRANCH   5  10
HETATM   10  C19 UNL     1      -3.158  -0.203  -0.269  1.00  0.00     0.241 C 
HETATM   11  O3  UNL     1      -2.767   0.983  -0.444  1.00  0.00    -0.271 OA
HETATM   12  N4  UNL     1      -4.041  -0.849  -1.192  1.00  0.00    -0.351 N 
ATOM     13  H4  UNL     1      -4.353  -1.809  -1.048  1.00  0.00     0.163 HD
BRANCH  12  14
HETATM   14  C20 UNL     1      -4.465  -0.092  -2.320  1.00  0.00     0.117 C 
HETATM   15  C21 UNL     1      -5.917   0.316  -2.096  1.00  0.00    -0.005 C 
HETATM   16  C22 UNL     1      -6.594   1.251  -2.958  1.00  0.00    -0.028 C 
HETATM   17  C23 UNL     1      -7.380   0.827  -4.189  1.00  0.00     0.038 C 
HETATM   18  C24 UNL     1      -6.498   0.007  -5.191  1.00  0.00     0.083 C 
HETATM   19  C25 UNL     1      -5.386  -0.438  -4.476  1.00  0.00    -0.180 C 
HETATM   20  C26 UNL     1      -4.296  -0.834  -3.670  1.00  0.00     0.109 C 
ENDBRANCH  12  14
ENDBRANCH   5  10
ENDBRANCH   1   5
BRANCH   3  21
HETATM   21  C7  UNL     1       0.293   0.909   2.690  1.00  0.00     0.112 C 
BRANCH  21  22
HETATM   22  C8  UNL     1       1.768   0.692   2.548  1.00  0.00     0.112 C 
BRANCH  22  23
HETATM   23  C9  UNL     1       2.161   0.759   1.121  1.00  0.00     0.220 C 
HETATM   24  O2  UNL     1       1.364   0.915   0.172  1.00  0.00    -0.273 OA
HETATM   25  N2  UNL     1       3.566   0.636   0.768  1.00  0.00    -0.343 N 
HETATM   26  C10 UNL     1       4.503   0.494   1.848  1.00  0.00     0.170 C 
HETATM   27  C18 UNL     1       3.967   0.655  -0.598  1.00  0.00     0.170 C 
HETATM   28  C11 UNL     1       5.571  -0.483   1.476  1.00  0.00     0.083 C 
HETATM   29  N3  UNL     1       6.114  -0.214   0.204  1.00  0.00    -0.366 N 
HETATM   30  C17 UNL     1       5.229  -0.124  -0.873  1.00  0.00     0.083 C 
BRANCH  29  31
HETATM   31  C12 UNL     1       7.305   0.550   0.219  1.00  0.00     0.088 C 
HETATM   32  C13 UNL     1       7.255   1.929   0.735  1.00  0.00     0.026 C 
HETATM   33  C14 UNL     1       8.561   2.543   0.294  1.00  0.00     0.002 C 
HETATM   34  C15 UNL     1       9.194   1.582  -0.689  1.00  0.00     0.002 C 
HETATM   35  C16 UNL     1       8.031   0.658  -1.092  1.00  0.00     0.026 C 
ENDBRANCH  29  31
ENDBRANCH  22  23
ENDBRANCH  21  22
ENDBRANCH   3  21
TORSDOF 9
