REMARK  9 active torsions:
REMARK  status: ('A' for Active; 'I' for Inactive)
REMARK    1  A    between atoms: C2_2  and  C3_3 
REMARK    2  A    between atoms: C3_3  and  C4_4 
REMARK    3  A    between atoms: C7_7  and  C8_8 
REMARK    4  A    between atoms: C7_7  and  N3_24 
REMARK    5  A    between atoms: C8_8  and  N1_9 
REMARK       I    between atoms: N1_9  and  C9_11 
REMARK    6  A    between atoms: C9_11  and  C10_13 
REMARK    7  A    between atoms: C10_13  and  N2_14 
REMARK       I    between atoms: N2_14  and  C12_16 
REMARK    8  A    between atoms: C12_16  and  C13_18 
REMARK    9  A    between atoms: C21_27  and  C22_28 
ROOT
HETATM    1  C4  UNL     1      -1.545  -2.659   0.884  1.00  0.00    -0.011 C 
HETATM    2  C5  UNL     1      -2.210  -1.716   1.810  1.00  0.00     0.007 C 
HETATM    3  C6  UNL     1      -2.692  -0.428   1.193  1.00  0.00     0.037 C 
HETATM    4  C7  UNL     1      -1.591   0.254   0.367  1.00  0.00     0.060 C 
HETATM    5  C25 UNL     1      -1.163  -0.735  -0.672  1.00  0.00     0.037 C 
HETATM    6  C26 UNL     1      -0.599  -1.999  -0.090  1.00  0.00     0.007 C 
ENDROOT
BRANCH   4   7
HETATM    7  C8  UNL     1      -0.459   0.749   1.191  1.00  0.00     0.094 C 
BRANCH   7   8
HETATM    8  N1  UNL     1       0.668   1.304   0.569  1.00  0.00    -0.337 N 
HETATM    9  C9  UNL     1       0.880   2.385  -0.273  1.00  0.00     0.239 C 
HETATM   10  O1  UNL     1       0.064   3.211  -0.734  1.00  0.00    -0.271 OA
ATOM     11  H1  UNL     1       1.527   0.798   0.785  1.00  0.00     0.168 HD
BRANCH   9  12
HETATM   12  C10 UNL     1       2.296   2.711  -0.779  1.00  0.00     0.228 C 
BRANCH  12  13
HETATM   13  N2  UNL     1       3.255   1.774  -0.265  1.00  0.00    -0.347 N 
HETATM   14  C11 UNL     1       3.884   2.107   1.011  1.00  0.00     0.153 C 
HETATM   15  C12 UNL     1       3.577   0.577  -0.961  1.00  0.00     0.224 C 
HETATM   16  O2  UNL     1       2.972   0.366  -2.059  1.00  0.00    -0.273 OA
BRANCH  15  17
HETATM   17  C13 UNL     1       4.550  -0.417  -0.498  1.00  0.00     0.078 C 
HETATM   18  C14 UNL     1       4.563  -1.615  -1.438  1.00  0.00     0.014 C 
HETATM   19  C15 UNL     1       5.476  -2.671  -0.821  1.00  0.00     0.001 C 
HETATM   20  C16 UNL     1       6.871  -2.157  -0.605  1.00  0.00     0.000 C 
HETATM   21  C17 UNL     1       6.808  -0.909   0.283  1.00  0.00     0.001 C 
HETATM   22  C18 UNL     1       5.984   0.103  -0.494  1.00  0.00     0.014 C 
ENDBRANCH  15  17
ENDBRANCH  12  13
ENDBRANCH   9  12
ENDBRANCH   7   8
ENDBRANCH   4   7
BRANCH   4  23
HETATM   23  N3  UNL     1      -2.265   1.354  -0.288  1.00  0.00    -0.399 N 
HETATM   24  C19 UNL     1      -2.924   2.277   0.599  1.00  0.00     0.119 C 
HETATM   25  C20 UNL     1      -4.432   2.241   0.441  1.00  0.00     0.033 C 
HETATM   26  C21 UNL     1      -4.845   2.548  -0.973  1.00  0.00     0.078 C 
HETATM   27  C23 UNL     1      -3.712   2.276  -1.924  1.00  0.00     0.033 C 
HETATM   28  C24 UNL     1      -3.020   0.999  -1.432  1.00  0.00     0.119 C 
BRANCH  26  29
HETATM   29  C22 UNL     1      -5.290   3.954  -1.017  1.00  0.00     0.235 C 
HETATM   30  N4  UNL     1      -6.377   4.351  -0.206  1.00  0.00    -0.062 NA
HETATM   31  O3  UNL     1      -4.713   4.778  -1.760  1.00  0.00    -0.277 OA
ENDBRANCH  26  29
ENDBRANCH   4  23
BRANCH   1  32
HETATM   32  C3  UNL     1      -2.489  -3.594   0.164  1.00  0.00     0.031 C 
BRANCH  32  33
HETATM   33  C2  UNL     1      -3.272  -4.457   1.081  1.00  0.00    -0.037 C 
HETATM   34  C1  UNL     1      -3.181  -5.785   1.027  1.00  0.00     0.007 C 
ENDBRANCH  32  33
ENDBRANCH   1  32
TORSDOF 9
