REMARK  6 active torsions:
REMARK  status: ('A' for Active; 'I' for Inactive)
REMARK    1  A    between atoms: N1_1  and  N2_4 
REMARK       I    between atoms: N2_4  and  C1_6 
REMARK    2  A    between atoms: C1_6  and  C2_8 
REMARK    3  A    between atoms: N3_9  and  N4_11 
REMARK       I    between atoms: N4_11  and  C3_13 
REMARK       I    between atoms: C3_13  and  N5_15 
REMARK    4  A    between atoms: N5_15  and  N6_17 
REMARK    5  A    between atoms: N6_17  and  C4_19 
REMARK    6  A    between atoms: C4_19  and  C5_20 
ROOT
HETATM    1  N4  UNL     1       3.162  -0.165   0.853  1.00  0.00    -0.251 N 
ATOM      2  H4  UNL     1       3.454   0.731   1.243  1.00  0.00     0.191 HD
HETATM    3  C3  UNL     1       1.800  -0.402   0.546  1.00  0.00     0.353 C 
HETATM    4  O2  UNL     1       1.468  -1.499   0.067  1.00  0.00    -0.244 OA
HETATM    5  N5  UNL     1       0.838   0.591   0.784  1.00  0.00    -0.254 N 
ATOM      6  H5  UNL     1       1.206   1.460   1.170  1.00  0.00     0.191 HD
ENDROOT
BRANCH   5   7
HETATM    7  N6  UNL     1      -0.507   0.580   0.582  1.00  0.00    -0.328 N 
ATOM      8  H6  UNL     1      -1.085   1.353   0.910  1.00  0.00     0.180 HD
BRANCH   7   9
HETATM    9  C4  UNL     1      -1.094  -0.522  -0.091  1.00  0.00     0.183 C 
BRANCH   9  10
HETATM   10  C5  UNL     1      -2.592  -0.375  -0.183  1.00  0.00     0.031 A 
HETATM   11  C6  UNL     1      -3.281   0.677   0.347  1.00  0.00     0.046 A 
HETATM   12  C7  UNL     1      -4.648   0.784   0.274  1.00  0.00     0.064 A 
HETATM   13  C8  UNL     1      -5.361  -0.237  -0.377  1.00  0.00     0.103 A 
HETATM   14  N9  UNL     1      -5.760   1.390   0.511  1.00  0.00    -0.341 N 
HETATM   15  N7  UNL     1      -4.670  -1.270  -0.896  1.00  0.00    -0.318 N 
HETATM   16  C10 UNL     1      -6.507   0.379  -0.137  1.00  0.00     0.146 A 
HETATM   17  C9  UNL     1      -3.316  -1.355  -0.812  1.00  0.00     0.254 A 
ATOM     18  H7  UNL     1      -5.181  -2.015  -1.369  1.00  0.00     0.169 HD
HETATM   19  O3  UNL     1      -2.748  -2.339  -1.317  1.00  0.00    -0.268 OA
HETATM   20  N8  UNL     1      -7.874   0.165  -0.391  1.00  0.00    -0.080 NA
ATOM     21  H9  UNL     1      -6.006   2.260   0.983  1.00  0.00     0.167 HD
ENDBRANCH   9  10
ENDBRANCH   7   9
ENDBRANCH   5   7
BRANCH   1  22
HETATM   22  N3  UNL     1       4.088  -1.158   0.619  1.00  0.00    -0.302 N 
HETATM   23  C2  UNL     1       5.228  -1.016   0.063  1.00  0.00     0.182 C 
ATOM     24  H3  UNL     1       3.838  -2.100   0.920  1.00  0.00     0.186 HD
BRANCH  23  25
HETATM   25  C1  UNL     1       5.771   0.225  -0.433  1.00  0.00     0.276 C 
HETATM   26  N2  UNL     1       7.056   0.252  -1.023  1.00  0.00    -0.272 N 
ATOM     27  H2  UNL     1       7.598  -0.609  -1.097  1.00  0.00     0.189 HD
HETATM   28  O1  UNL     1       5.125   1.287  -0.353  1.00  0.00    -0.265 OA
BRANCH  26  29
HETATM   29  N1  UNL     1       7.587   1.451  -1.505  1.00  0.00    -0.342 N 
ATOM     30  H12 UNL     1       7.032   2.303  -1.423  1.00  0.00     0.176 HD
ATOM     31  H11 UNL     1       8.514   1.470  -1.931  1.00  0.00     0.176 HD
ENDBRANCH  26  29
ENDBRANCH  23  25
ENDBRANCH   1  22
TORSDOF 6
