REMARK  10 active torsions:
REMARK  status: ('A' for Active; 'I' for Inactive)
REMARK    1  A    between atoms: C2_2  and  O2_4 
REMARK    2  A    between atoms: O2_4  and  C3_5 
REMARK    3  A    between atoms: C3_5  and  C4_6 
REMARK    4  A    between atoms: C4_6  and  C6_8 
REMARK    5  A    between atoms: C6_8  and  C7_9 
REMARK    6  A    between atoms: C7_9  and  O3_11 
REMARK    7  A    between atoms: C7_9  and  C9_13 
REMARK    8  A    between atoms: C9_13  and  C10_15 
REMARK    9  A    between atoms: C12_17  and  C13_18 
REMARK   10  A    between atoms: C13_18  and  C14_19 
ROOT
HETATM    1  C7  UNL     1       0.704  -1.387   0.771  1.00  0.00     0.075 C 
HETATM    2  C8  UNL     1       0.330  -0.826   2.128  1.00  0.00     0.047 C 
ENDROOT
BRANCH   1   3
HETATM    3  C6  UNL     1       2.125  -1.284   0.432  1.00  0.00     0.045 C 
BRANCH   3   4
HETATM    4  C4  UNL     1       2.787   0.034   0.382  1.00  0.00     0.009 C 
HETATM    5  C5  UNL     1       2.255   1.006  -0.644  1.00  0.00     0.012 C 
BRANCH   4   6
HETATM    6  C3  UNL     1       4.277  -0.156   0.014  1.00  0.00     0.183 C 
BRANCH   6   7
HETATM    7  O2  UNL     1       4.862   1.126   0.104  1.00  0.00    -0.321 OA
BRANCH   7   8
HETATM    8  C2  UNL     1       6.189   1.382  -0.150  1.00  0.00     0.254 C 
HETATM    9  C1  UNL     1       6.695   2.770  -0.023  1.00  0.00     0.126 C 
HETATM   10  O1  UNL     1       6.926   0.445  -0.477  1.00  0.00    -0.266 OA
ENDBRANCH   7   8
ENDBRANCH   6   7
ENDBRANCH   4   6
ENDBRANCH   3   4
ENDBRANCH   1   3
BRANCH   1  11
HETATM   11  O3  UNL     1       0.448  -2.790   0.931  1.00  0.00    -0.388 OA
ATOM     12  H3  UNL     1      -0.474  -2.857   1.151  1.00  0.00     0.210 HD
ENDBRANCH   1  11
BRANCH   1  13
HETATM   13  C9  UNL     1      -0.296  -0.919  -0.234  1.00  0.00     0.144 C 
HETATM   14 CL1  UNL     1      -0.178  -1.814  -1.772  1.00  0.00    -0.117 Cl
BRANCH  13  15
HETATM   15  C10 UNL     1      -1.719  -1.161   0.232  1.00  0.00    -0.066 C 
HETATM   16  C11 UNL     1      -2.155  -2.568   0.411  1.00  0.00     0.044 C 
HETATM   17  C12 UNL     1      -2.527  -0.128   0.465  1.00  0.00    -0.019 C 
BRANCH  17  18
HETATM   18  C13 UNL     1      -3.891  -0.277   0.911  1.00  0.00     0.054 C 
BRANCH  18  19
HETATM   19  C14 UNL     1      -4.919   0.256   0.030  1.00  0.00    -0.021 C 
HETATM   20  C15 UNL     1      -4.824   0.874  -1.103  1.00  0.00    -0.091 C 
HETATM   21  C16 UNL     1      -3.607   1.228  -1.855  1.00  0.00     0.042 C 
HETATM   22  C17 UNL     1      -6.155   1.296  -1.753  1.00  0.00     0.042 C 
ENDBRANCH  18  19
ENDBRANCH  17  18
ENDBRANCH  13  15
ENDBRANCH   1  13
TORSDOF 10
