REMARK  9 active torsions:
REMARK  status: ('A' for Active; 'I' for Inactive)
REMARK    1  A    between atoms: C2_2  and  C3_3 
REMARK    2  A    between atoms: C4_4  and  C5_5 
REMARK    3  A    between atoms: C8_9  and  C9_10 
REMARK    4  A    between atoms: C9_10  and  C10_11 
REMARK    5  A    between atoms: C10_11  and  C11_12 
REMARK    6  A    between atoms: C11_12  and  C13_14 
REMARK    7  A    between atoms: C13_14  and  C14_15 
REMARK    8  A    between atoms: C14_15  and  C15_16 
REMARK    9  A    between atoms: C16_18  and  C17_19 
ROOT
HETATM    1  C5  UNL     1      -0.797  -1.173   0.909  1.00  0.00    -0.006 A 
HETATM    2  C6  UNL     1      -0.886  -1.437   2.244  1.00  0.00     0.153 A 
HETATM    3  O1  UNL     1       0.168  -2.130   2.599  1.00  0.00    -0.333 OA
HETATM    4  C7  UNL     1       0.950  -2.342   1.588  1.00  0.00     0.149 A 
HETATM    5  C8  UNL     1       0.406  -1.764   0.476  1.00  0.00    -0.023 A 
ENDROOT
BRANCH   1   6
HETATM    6  C4  UNL     1      -1.756  -0.436   0.047  1.00  0.00     0.014 C 
HETATM    7  C3  UNL     1      -2.820   0.074   0.607  1.00  0.00     0.008 C 
BRANCH   7   8
HETATM    8  C2  UNL     1      -3.860   0.820  -0.072  1.00  0.00    -0.056 C 
HETATM    9  C1  UNL     1      -3.781   1.068  -1.522  1.00  0.00     0.048 C 
HETATM   10  C16 UNL     1      -4.892   1.281   0.643  1.00  0.00     0.091 C 
BRANCH  10  11
HETATM   11  C17 UNL     1      -5.988   2.033   0.105  1.00  0.00     0.199 C 
HETATM   12  O2  UNL     1      -6.087   2.337  -1.108  1.00  0.00    -0.644 OA
HETATM   13  O3  UNL     1      -7.020   2.462   0.976  1.00  0.00    -0.644 OA
ENDBRANCH  10  11
ENDBRANCH   7   8
ENDBRANCH   1   6
BRANCH   5  14
HETATM   14  C9  UNL     1       0.838  -1.691  -0.946  1.00  0.00     0.045 C 
BRANCH  14  15
HETATM   15  C10 UNL     1       1.375  -0.374  -1.336  1.00  0.00     0.038 C 
BRANCH  15  16
HETATM   16  C11 UNL     1       2.690   0.075  -0.822  1.00  0.00    -0.084 C 
HETATM   17  C12 UNL     1       3.018   1.499  -1.207  1.00  0.00     0.043 C 
BRANCH  16  18
HETATM   18  C13 UNL     1       3.514  -0.648  -0.143  1.00  0.00    -0.001 C 
BRANCH  18  19
HETATM   19  C14 UNL     1       4.801  -0.525   0.487  1.00  0.00    -0.012 C 
BRANCH  19  20
HETATM   20  C15 UNL     1       5.507   0.745   0.668  1.00  0.00     0.141 C 
HETATM   21 CL1  UNL     1       4.575   1.848   1.704  1.00  0.00    -0.126 Cl
ENDBRANCH  19  20
ENDBRANCH  18  19
ENDBRANCH  16  18
ENDBRANCH  15  16
ENDBRANCH  14  15
ENDBRANCH   5  14
TORSDOF 9
