REMARK  6 active torsions:
REMARK  status: ('A' for Active; 'I' for Inactive)
REMARK    1  A    between atoms: C8_8  and  O1_9 
REMARK    2  A    between atoms: C13_15  and  C14_16 
REMARK    3  A    between atoms: C15_17  and  C16_18 
REMARK    4  A    between atoms: C20_29  and  N4_30 
REMARK       I    between atoms: N4_30  and  C21_32 
REMARK    5  A    between atoms: C21_32  and  C22_34 
REMARK    6  A    between atoms: C22_34  and  C25_37 
ROOT
HETATM    1  C1  UNL     1       1.662  -1.283   2.058  1.00  0.00     0.016 C 
HETATM    2  C2  UNL     1       1.009  -1.358   0.908  1.00  0.00    -0.066 C 
HETATM    3  C3  UNL     1       0.022  -2.461   0.746  1.00  0.00     0.041 C 
HETATM    4  C4  UNL     1      -0.991  -2.217  -0.325  1.00  0.00     0.009 C 
HETATM    5  C5  UNL     1      -1.800  -3.465  -0.472  1.00  0.00    -0.017 C 
HETATM    6  C6  UNL     1      -2.141  -3.785  -1.915  1.00  0.00     0.018 C 
HETATM    7  C7  UNL     1      -1.050  -4.699   0.048  1.00  0.00     0.018 C 
HETATM    8  C8  UNL     1      -3.085  -3.445   0.325  1.00  0.00     0.126 C 
HETATM    9  C9  UNL     1      -3.914  -2.246  -0.014  1.00  0.00     0.033 C 
HETATM   10  C10 UNL     1      -3.116  -1.041   0.402  1.00  0.00     0.012 C 
HETATM   11  C11 UNL     1      -1.755  -0.947  -0.216  1.00  0.00    -0.032 C 
HETATM   12  C12 UNL     1      -1.945  -0.290  -1.582  1.00  0.00     0.016 C 
HETATM   13  C13 UNL     1      -1.005   0.115   0.584  1.00  0.00     0.019 C 
HETATM   14  C19 UNL     1       0.183   0.661  -0.126  1.00  0.00     0.039 C 
HETATM   15  C20 UNL     1       1.291  -0.355  -0.152  1.00  0.00     0.113 C 
ENDROOT
BRANCH  13  16
HETATM   16  C14 UNL     1      -1.922   1.258   0.886  1.00  0.00    -0.021 C 
HETATM   17  C15 UNL     1      -1.700   2.514   0.555  1.00  0.00     0.022 C 
BRANCH  17  18
HETATM   18  C16 UNL     1      -2.714   3.541   0.927  1.00  0.00     0.123 C 
HETATM   19  C17 UNL     1      -2.634   4.022   2.359  1.00  0.00     0.068 C 
HETATM   20  N1  UNL     1      -4.077   3.137   0.582  1.00  0.00    -0.333 N 
HETATM   21  C18 UNL     1      -4.310   4.482   0.200  1.00  0.00     0.173 C 
ATOM     22  H1  UNL     1      -4.618   2.273   0.606  1.00  0.00     0.165 HD
HETATM   23  N2  UNL     1      -5.336   5.290   0.093  1.00  0.00    -0.371 N 
HETATM   24  N3  UNL     1      -2.911   4.597  -0.027  1.00  0.00    -0.333 N 
ATOM     25  H22 UNL     1      -6.340   5.208   0.256  1.00  0.00     0.159 HD
ATOM     26  H21 UNL     1      -5.504   6.258  -0.182  1.00  0.00     0.159 HD
ATOM     27  H3  UNL     1      -2.309   5.177  -0.612  1.00  0.00     0.165 HD
ENDBRANCH  17  18
ENDBRANCH  13  16
BRANCH  15  28
HETATM   28  N4  UNL     1       2.570   0.295   0.036  1.00  0.00    -0.352 N 
HETATM   29  C21 UNL     1       3.624   0.164  -0.884  1.00  0.00     0.226 C 
HETATM   30  O2  UNL     1       3.446  -0.543  -1.906  1.00  0.00    -0.273 OA
ATOM     31  H4  UNL     1       2.712   0.869   0.867  1.00  0.00     0.163 HD
BRANCH  29  32
HETATM   32  C22 UNL     1       4.947   0.816  -0.722  1.00  0.00     0.033 C 
HETATM   33  C23 UNL     1       5.491   0.295   0.610  1.00  0.00     0.025 C 
HETATM   34  C24 UNL     1       5.926   0.401  -1.774  1.00  0.00     0.025 C 
BRANCH  32  35
HETATM   35  C25 UNL     1       4.812   2.323  -0.690  1.00  0.00     0.014 C 
HETATM   36  C26 UNL     1       6.146   2.979  -0.528  1.00  0.00     0.006 C 
ENDBRANCH  32  35
ENDBRANCH  29  32
ENDBRANCH  15  28
BRANCH   8  37
HETATM   37  O1  UNL     1      -2.804  -3.384   1.709  1.00  0.00    -0.395 OA
ATOM     38  H1  UNL     1      -3.611  -3.371   2.210  1.00  0.00     0.210 HD
ENDBRANCH   8  37
TORSDOF 6
