REMARK  8 active torsions:
REMARK  status: ('A' for Active; 'I' for Inactive)
REMARK    1  A    between atoms: C4_4  and  C5_5 
REMARK    2  A    between atoms: C5_5  and  C6_6 
REMARK    3  A    between atoms: C6_6  and  C7_7 
REMARK    4  A    between atoms: C9_9  and  O1_10 
REMARK    5  A    between atoms: C11_13  and  O2_14 
REMARK    6  A    between atoms: C15_19  and  O3_20 
REMARK    7  A    between atoms: C18_24  and  C19_25 
REMARK    8  A    between atoms: C19_25  and  N1_27 
REMARK       I    between atoms: N1_27  and  C21_29 
REMARK       I    between atoms: C21_29  and  N3_33 
ROOT
HETATM    1  C7  UNL     1       2.745  -1.349  -1.088  1.00  0.00    -0.013 C 
HETATM    2  C8  UNL     1       2.598  -1.219  -2.611  1.00  0.00     0.018 C 
HETATM    3  C9  UNL     1       2.997  -2.818  -0.840  1.00  0.00     0.129 C 
HETATM    4  C10 UNL     1       2.869  -3.245   0.572  1.00  0.00     0.064 C 
HETATM    5  C11 UNL     1       1.718  -2.605   1.316  1.00  0.00     0.125 C 
HETATM    6  C12 UNL     1       0.819  -1.963   0.277  1.00  0.00     0.024 C 
HETATM    7  C13 UNL     1       1.529  -0.810  -0.373  1.00  0.00     0.005 C 
HETATM    8  C14 UNL     1       0.512  -0.239  -1.339  1.00  0.00     0.038 C 
HETATM    9  C15 UNL     1      -0.520   0.497  -0.469  1.00  0.00     0.128 C 
HETATM   10  C16 UNL     1      -1.114  -0.311   0.607  1.00  0.00    -0.005 C 
HETATM   11  C17 UNL     1      -0.778   0.329   1.971  1.00  0.00     0.019 C 
HETATM   12  C18 UNL     1      -2.545  -0.636   0.562  1.00  0.00     0.042 C 
HETATM   13  C24 UNL     1      -2.581  -1.614  -0.641  1.00  0.00     0.011 C 
HETATM   14  C25 UNL     1      -1.539  -2.586  -0.129  1.00  0.00     0.007 C 
HETATM   15  C26 UNL     1      -0.567  -1.748   0.683  1.00  0.00     0.004 C 
ENDROOT
BRANCH  12  16
HETATM   16  C19 UNL     1      -3.641   0.293   0.561  1.00  0.00     0.005 C 
HETATM   17  C20 UNL     1      -3.735   1.208   1.759  1.00  0.00     0.064 C 
BRANCH  16  18
HETATM   18  N1  UNL     1      -3.989   1.042  -0.592  1.00  0.00    -0.200 N 
HETATM   19  C21 UNL     1      -5.039   1.997  -0.570  1.00  0.00     0.673 C 
HETATM   20  N2  UNL     1      -4.845   3.266  -0.673  1.00  0.00    -0.235 N 
HETATM   21  N3  UNL     1      -6.393   1.568  -0.427  1.00  0.00    -0.227 N 
ATOM     22  H22 UNL     1      -3.878   3.573  -0.775  1.00  0.00     0.174 HD
ATOM     23  H21 UNL     1      -5.599   3.952  -0.657  1.00  0.00     0.174 HD
HETATM   24  C22 UNL     1      -6.820   0.241  -0.821  1.00  0.00     0.168 C 
HETATM   25  C23 UNL     1      -7.404   2.453   0.125  1.00  0.00     0.168 C 
ATOM     26  H1  UNL     1      -3.472   0.891  -1.458  1.00  0.00     0.183 HD
ENDBRANCH  16  18
ENDBRANCH  12  16
BRANCH   9  27
HETATM   27  O3  UNL     1       0.262   1.538   0.103  1.00  0.00    -0.395 OA
ATOM     28  H3  UNL     1      -0.376   1.993   0.641  1.00  0.00     0.210 HD
ENDBRANCH   9  27
BRANCH   5  29
HETATM   29  O2  UNL     1       2.258  -1.740   2.229  1.00  0.00    -0.395 OA
ATOM     30  H2  UNL     1       1.535  -1.338   2.696  1.00  0.00     0.210 HD
ENDBRANCH   5  29
BRANCH   1  31
HETATM   31  C6  UNL     1       3.991  -0.608  -0.692  1.00  0.00     0.016 C 
BRANCH  31  32
HETATM   32  C5  UNL     1       3.984   0.848  -1.032  1.00  0.00     0.028 C 
BRANCH  32  33
HETATM   33  C4  UNL     1       5.279   1.423  -0.572  1.00  0.00    -0.025 C 
HETATM   34  C2  UNL     1       5.343   2.403   0.323  1.00  0.00    -0.091 C 
HETATM   35  C1  UNL     1       6.624   2.985   0.790  1.00  0.00     0.042 C 
HETATM   36  C3  UNL     1       4.079   2.947   0.887  1.00  0.00     0.042 C 
ENDBRANCH  32  33
ENDBRANCH  31  32
ENDBRANCH   1  31
BRANCH   3  37
HETATM   37  O1  UNL     1       4.344  -3.042  -1.219  1.00  0.00    -0.395 OA
ATOM     38  H1  UNL     1       4.502  -3.966  -1.063  1.00  0.00     0.210 HD
ENDBRANCH   3  37
TORSDOF 8
