REMARK  8 active torsions:
REMARK  status: ('A' for Active; 'I' for Inactive)
REMARK    1  A    between atoms: C2_2  and  C3_3 
REMARK       I    between atoms: C3_3  and  N1_5 
REMARK    2  A    between atoms: N1_5  and  C4_7 
REMARK    3  A    between atoms: C4_7  and  C5_8 
REMARK    4  A    between atoms: C5_8  and  C6_9 
REMARK    5  A    between atoms: C6_9  and  C7_10 
REMARK    6  A    between atoms: C7_10  and  O2_11 
REMARK    7  A    between atoms: C19_24  and  O3_25 
REMARK    8  A    between atoms: C26_33  and  O4_34 
ROOT
HETATM    1  C1  UNL     1       2.586  -2.920   0.575  1.00  0.00     0.026 C 
HETATM    2  C2  UNL     1       1.988  -1.542   0.911  1.00  0.00     0.044 C 
HETATM    3  C8  UNL     1       1.488  -1.709   2.332  1.00  0.00     0.019 C 
HETATM    4  C9  UNL     1       0.266  -2.575   2.412  1.00  0.00     0.002 C 
HETATM    5  C10 UNL     1      -0.808  -1.826   1.692  1.00  0.00     0.010 C 
HETATM    6  C11 UNL     1      -0.444  -1.659   0.269  1.00  0.00    -0.033 C 
HETATM    7  C12 UNL     1      -0.574  -3.073  -0.337  1.00  0.00     0.016 C 
HETATM    8  C13 UNL     1      -1.476  -0.865  -0.424  1.00  0.00    -0.001 C 
HETATM    9  C14 UNL     1      -2.906  -1.057  -0.044  1.00  0.00     0.012 C 
HETATM   10  C15 UNL     1      -3.439   0.153  -0.765  1.00  0.00     0.005 C 
HETATM   11  C16 UNL     1      -4.868   0.362  -0.845  1.00  0.00    -0.017 C 
HETATM   12  C17 UNL     1      -5.455  -0.764  -1.716  1.00  0.00     0.018 C 
HETATM   13  C18 UNL     1      -5.640   0.332   0.435  1.00  0.00     0.018 C 
HETATM   14  C19 UNL     1      -5.081   1.685  -1.590  1.00  0.00     0.126 C 
HETATM   15  C20 UNL     1      -3.801   2.258  -2.111  1.00  0.00     0.033 C 
HETATM   16  C21 UNL     1      -2.693   2.396  -1.132  1.00  0.00     0.012 C 
HETATM   17  C22 UNL     1      -2.602   1.259  -0.179  1.00  0.00    -0.035 C 
HETATM   18  C23 UNL     1      -3.068   1.729   1.171  1.00  0.00     0.016 C 
HETATM   19  C24 UNL     1      -1.285   0.608  -0.015  1.00  0.00     0.001 C 
HETATM   20  C25 UNL     1      -0.174   1.036  -0.870  1.00  0.00     0.038 C 
HETATM   21  C26 UNL     1       1.060   0.298  -0.393  1.00  0.00     0.124 C 
HETATM   22  C27 UNL     1       0.915  -1.130  -0.051  1.00  0.00     0.040 C 
ENDROOT
BRANCH   2  23
HETATM   23  C3  UNL     1       3.143  -0.623   1.008  1.00  0.00     0.226 C 
HETATM   24  O1  UNL     1       3.250   0.200   1.985  1.00  0.00    -0.273 OA
HETATM   25  N1  UNL     1       4.198  -0.576   0.059  1.00  0.00    -0.360 N 
ATOM     26  H1  UNL     1       4.165  -1.210  -0.739  1.00  0.00     0.162 HD
BRANCH  25  27
HETATM   27  C4  UNL     1       5.328   0.341   0.177  1.00  0.00     0.122 C 
BRANCH  27  28
HETATM   28  C5  UNL     1       6.289   0.194  -0.938  1.00  0.00     0.022 C 
BRANCH  28  29
HETATM   29  C6  UNL     1       7.468   1.097  -0.803  1.00  0.00     0.028 C 
BRANCH  29  30
HETATM   30  C7  UNL     1       7.182   2.567  -0.788  1.00  0.00     0.164 C 
BRANCH  30  31
HETATM   31  O2  UNL     1       6.410   3.032   0.232  1.00  0.00    -0.401 OA
ATOM     32  H2  UNL     1       6.229   3.964   0.242  1.00  0.00     0.209 HD
ENDBRANCH  30  31
ENDBRANCH  29  30
ENDBRANCH  28  29
ENDBRANCH  27  28
ENDBRANCH  25  27
ENDBRANCH   2  23
BRANCH  21  33
HETATM   33  O4  UNL     1       1.952   0.462  -1.494  1.00  0.00    -0.395 OA
ATOM     34  H4  UNL     1       2.726  -0.001  -1.195  1.00  0.00     0.210 HD
ENDBRANCH  21  33
BRANCH  14  35
HETATM   35  O3  UNL     1      -5.828   2.584  -0.828  1.00  0.00    -0.395 OA
ATOM     36  H3  UNL     1      -5.960   3.404  -1.290  1.00  0.00     0.210 HD
ENDBRANCH  14  35
TORSDOF 8
