REMARK  0 active torsions:
REMARK  status: ('A' for Active; 'I' for Inactive)
ROOT
HETATM    1  C1  UNL     1       2.246   0.559   0.221  1.00  0.00     0.014 C 
HETATM    2  C2  UNL     1       1.088  -0.022  -0.075  1.00  0.00    -0.088 C 
HETATM    3  C3  UNL     1       0.103   0.001  -1.176  1.00  0.00     0.037 C 
HETATM    4  C4  UNL     1      -0.930  -0.518  -0.215  1.00  0.00    -0.011 C 
HETATM    5  C5  UNL     1      -1.710   0.613   0.397  1.00  0.00     0.010 C 
HETATM    6  C6  UNL     1       0.235  -1.011   0.630  1.00  0.00     0.037 C 
ENDROOT
TORSDOF 0
