REMARK  0 active torsions:
REMARK  status: ('A' for Active; 'I' for Inactive)
ROOT
HETATM    1  N1  UNL     1       1.109   0.013   0.518  1.00  0.00    -0.111 NA
HETATM    2  C1  UNL     1      -0.298  -0.129   0.477  1.00  0.00     0.155 C 
HETATM    3  C2  UNL     1      -0.935   0.026  -0.644  1.00  0.00     0.199 C 
HETATM    4  F1  UNL     1      -2.270  -0.100  -0.729  1.00  0.00    -0.192 F 
HETATM    5 CL1  UNL     1      -0.029   0.407  -2.077  1.00  0.00    -0.051 Cl
ENDROOT
TORSDOF 0
