REMARK  2 active torsions:
REMARK  status: ('A' for Active; 'I' for Inactive)
REMARK    1  A    between atoms: N1_1  and  N2_4 
REMARK    2  A    between atoms: N2_4  and  C1_6 
ROOT
HETATM    1  C1  UNL     1      -0.367  -0.643   0.465  1.00  0.00     0.176 A 
HETATM    2  C2  UNL     1      -0.818   0.771   0.822  1.00  0.00     0.114 A 
HETATM    3  C3  UNL     1      -1.295   0.075  -0.410  1.00  0.00     0.267 A 
HETATM    4  F1  UNL     1      -0.921   0.541  -1.655  1.00  0.00    -0.204 F 
HETATM    5  F2  UNL     1      -2.644  -0.294  -0.347  1.00  0.00    -0.204 F 
ENDROOT
BRANCH   1   6
HETATM    6  N2  UNL     1       1.020  -0.825   0.188  1.00  0.00    -0.332 N 
ATOM      7  H2  UNL     1       1.608  -1.456   0.733  1.00  0.00     0.180 HD
BRANCH   6   8
HETATM    8  N1  UNL     1       1.510  -0.087  -0.869  1.00  0.00    -0.349 N 
ATOM      9  H12 UNL     1       0.910   0.540  -1.405  1.00  0.00     0.176 HD
ATOM     10  H11 UNL     1       2.502  -0.217  -1.067  1.00  0.00     0.176 HD
ENDBRANCH   6   8
ENDBRANCH   1   6
TORSDOF 2
