REMARK  1 active torsions:
REMARK  status: ('A' for Active; 'I' for Inactive)
REMARK    1  A    between atoms: C1_4  and  C2_6 
ROOT
HETATM    1  N1  UNL     1       1.593  -0.071   0.129  1.00  0.00    -0.389 N 
ATOM      2  H11 UNL     1       1.535  -1.073   0.312  1.00  0.00     0.157 HD
ATOM      3  H12 UNL     1       2.469   0.450   0.100  1.00  0.00     0.157 HD
HETATM    4  C1  UNL     1       0.492   0.537  -0.072  1.00  0.00     0.139 C 
HETATM    5 CL1  UNL     1       0.592   2.259  -0.386  1.00  0.00    -0.064 Cl
ENDROOT
BRANCH   4   6
HETATM    6  C2  UNL     1      -0.767  -0.212  -0.031  1.00  0.00     0.414 C 
HETATM    7  F1  UNL     1      -0.530  -1.546   0.237  1.00  0.00    -0.207 F 
HETATM    8  F2  UNL     1      -1.688   0.318   0.846  1.00  0.00    -0.207 F 
ENDBRANCH   4   6
TORSDOF 1
