REMARK  0 active torsions:
REMARK  status: ('A' for Active; 'I' for Inactive)
ROOT
HETATM    1  N1  UNL     1      -1.256  -0.271  -0.072  1.00  0.00    -0.066 NA
HETATM    2  C1  UNL     1      -0.029   0.415  -0.252  1.00  0.00     0.248 C 
HETATM    3  F1  UNL     1       0.036   1.576  -0.961  1.00  0.00    -0.185 F 
HETATM    4  C2  UNL     1       1.050  -0.089   0.279  1.00  0.00     0.238 C 
HETATM    5  F2  UNL     1       1.009  -1.228   0.979  1.00  0.00    -0.188 F 
HETATM    6 CL1  UNL     1       2.580   0.712   0.089  1.00  0.00    -0.047 Cl
ENDROOT
TORSDOF 0
