REMARK  6 active torsions:
REMARK  status: ('A' for Active; 'I' for Inactive)
REMARK    1  A    between atoms: C2_2  and  C3_3 
REMARK    2  A    between atoms: C3_3  and  C4_4 
REMARK    3  A    between atoms: C4_4  and  C6_6 
REMARK       I    between atoms: C6_6  and  N1_8 
REMARK    4  A    between atoms: N1_8  and  C7_10 
REMARK    5  A    between atoms: C12_19  and  S1_20 
REMARK    6  A    between atoms: S1_20  and  C13_23 
ROOT
HETATM    1  C7  UNL     1       1.852  -1.155  -0.871  1.00  0.00     0.686 A 
HETATM    2  N2  UNL     1       0.966  -0.722  -1.780  1.00  0.00    -0.176 N 
ATOM      3  H2  UNL     1       1.242  -0.579  -2.751  1.00  0.00     0.186 HD
HETATM    4  C8  UNL     1      -0.323  -0.475  -1.372  1.00  0.00     0.126 A 
HETATM    5  C9  UNL     1      -0.684  -0.668  -0.065  1.00  0.00     0.028 A 
HETATM    6  C10 UNL     1       0.211  -1.104   0.846  1.00  0.00     0.034 A 
HETATM    7  C11 UNL     1      -0.145  -1.354   2.244  1.00  0.00     0.069 C 
HETATM    8  N3  UNL     1       1.493  -1.343   0.406  1.00  0.00    -0.195 N 
ATOM      9  H3  UNL     1       2.191  -1.673   1.072  1.00  0.00     0.184 HD
HETATM   10  C12 UNL     1      -2.128  -0.355   0.292  1.00  0.00     0.156 C 
HETATM   11  C16 UNL     1      -2.937  -0.989  -0.757  1.00  0.00    -0.010 C 
HETATM   12  C17 UNL     1      -4.397  -1.111  -0.588  1.00  0.00     0.018 C 
HETATM   13  C18 UNL     1      -2.402  -2.432  -0.905  1.00  0.00     0.018 C 
HETATM   14  C19 UNL     1      -2.667  -0.386  -2.142  1.00  0.00     0.131 C 
HETATM   15  N4  UNL     1      -1.286  -0.034  -2.301  1.00  0.00    -0.375 N 
ATOM     16  H4  UNL     1      -0.998   0.540  -3.093  1.00  0.00     0.161 HD
ENDROOT
BRANCH   1  17
HETATM   17  N1  UNL     1       3.051  -1.374  -1.295  1.00  0.00    -0.159 N 
HETATM   18  C6  UNL     1       4.098  -1.830  -0.472  1.00  0.00     0.239 C 
HETATM   19  O1  UNL     1       4.075  -2.994  -0.002  1.00  0.00    -0.272 OA
ATOM     20  H1  UNL     1       3.251  -1.207  -2.281  1.00  0.00     0.187 HD
BRANCH  18  21
HETATM   21  C4  UNL     1       5.213  -0.868  -0.196  1.00  0.00     0.078 C 
HETATM   22  C5  UNL     1       5.790  -0.400  -1.510  1.00  0.00     0.020 C 
BRANCH  21  23
HETATM   23  C3  UNL     1       4.562   0.334   0.494  1.00  0.00     0.040 C 
BRANCH  23  24
HETATM   24  C2  UNL     1       5.625   1.332   0.699  1.00  0.00    -0.036 C 
HETATM   25  C1  UNL     1       5.926   1.734   1.918  1.00  0.00     0.007 C 
ENDBRANCH  23  24
ENDBRANCH  21  23
ENDBRANCH  18  21
ENDBRANCH   1  17
BRANCH  10  26
HETATM   26  S1  UNL     1      -2.213   1.343   0.592  1.00  0.00     0.157 S 
HETATM   27  O2  UNL     1      -1.001   1.762   1.397  1.00  0.00    -0.227 OA
HETATM   28  O3  UNL     1      -2.083   2.203  -0.660  1.00  0.00    -0.227 OA
BRANCH  26  29
HETATM   29  C13 UNL     1      -3.634   1.893   1.521  1.00  0.00     0.101 C 
HETATM   30  C14 UNL     1      -3.333   3.338   2.042  1.00  0.00     0.026 C 
HETATM   31  C15 UNL     1      -4.880   2.046   0.724  1.00  0.00     0.026 C 
ENDBRANCH  26  29
ENDBRANCH  10  26
TORSDOF 6
