REMARK  7 active torsions:
REMARK  status: ('A' for Active; 'I' for Inactive)
REMARK    1  A    between atoms: N1_1  and  C1_5 
REMARK    2  A    between atoms: N2_7  and  C3_8 
REMARK    3  A    between atoms: C3_8  and  C4_9 
REMARK    4  A    between atoms: C11_17  and  C12_18 
REMARK    5  A    between atoms: C12_18  and  C13_19 
REMARK    6  A    between atoms: C13_19  and  O2_20 
REMARK    7  A    between atoms: C14_22  and  C15_23 
ROOT
HETATM    1  C4  UNL     1       0.314   0.885  -0.258  1.00  0.00     0.057 C 
HETATM    2  C5  UNL     1       1.379  -0.140  -0.429  1.00  0.00    -0.018 A 
HETATM    3  C6  UNL     1       2.519   0.173  -1.163  1.00  0.00     0.018 A 
HETATM    4  C7  UNL     1       3.550  -0.713  -1.385  1.00  0.00    -0.043 A 
HETATM    5  C8  UNL     1       3.477  -1.984  -0.865  1.00  0.00     0.019 A 
HETATM    6  C9  UNL     1       2.345  -2.308  -0.131  1.00  0.00     0.053 A 
HETATM    7  C10 UNL     1       1.315  -1.415   0.088  1.00  0.00     0.077 A 
HETATM    8  O1  UNL     1       0.176  -1.761   0.836  1.00  0.00    -0.345 OA
HETATM    9  C11 UNL     1      -0.523  -0.645   1.398  1.00  0.00     0.136 C 
HETATM   10  C14 UNL     1      -0.960   0.301   0.311  1.00  0.00     0.029 C 
HETATM   11  C21 UNL     1       4.678  -2.720  -1.237  1.00  0.00     0.160 C 
HETATM   12  O3  UNL     1       4.811  -3.943  -1.096  1.00  0.00    -0.292 OA
HETATM   13  C22 UNL     1       5.636  -1.752  -1.781  1.00  0.00     0.088 C 
HETATM   14  C23 UNL     1       4.842  -0.544  -2.147  1.00  0.00     0.047 C 
ENDROOT
BRANCH   1  15
HETATM   15  C3  UNL     1       0.778   2.006   0.624  1.00  0.00     0.285 C 
BRANCH  15  16
HETATM   16  N2  UNL     1      -0.260   3.029   0.814  1.00  0.00     0.125 N 
HETATM   17  C1  UNL     1       0.117   4.188   1.618  1.00  0.00     0.445 A 
HETATM   18  C2  UNL     1      -0.834   3.167   2.145  1.00  0.00     0.340 A 
BRANCH  17  19
HETATM   19  N1  UNL     1      -0.474   5.468   1.214  1.00  0.00    -0.046 N 
ATOM     20  H13 UNL     1      -1.220   5.307   0.537  1.00  0.00     0.277 HD
ATOM     21  H12 UNL     1      -1.011   5.861   1.987  1.00  0.00     0.277 HD
ATOM     22  H11 UNL     1       0.176   6.166   0.854  1.00  0.00     0.277 HD
ENDBRANCH  17  19
ENDBRANCH  15  16
ENDBRANCH   1  15
BRANCH  10  23
HETATM   23  C15 UNL     1      -1.738  -0.458  -0.728  1.00  0.00    -0.007 C 
HETATM   24  C16 UNL     1      -3.093  -0.887  -0.233  1.00  0.00     0.005 C 
HETATM   25  C17 UNL     1      -4.205  -0.569  -1.228  1.00  0.00     0.000 C 
HETATM   26  C18 UNL     1      -3.899  -1.272  -2.511  1.00  0.00     0.000 C 
HETATM   27  C19 UNL     1      -2.534  -0.879  -2.964  1.00  0.00     0.000 C 
HETATM   28  C20 UNL     1      -1.892   0.189  -2.054  1.00  0.00     0.005 C 
ENDBRANCH  10  23
BRANCH   9  29
HETATM   29  C12 UNL     1      -1.512  -1.007   2.440  1.00  0.00     0.059 C 
BRANCH  29  30
HETATM   30  C13 UNL     1      -0.681  -1.689   3.562  1.00  0.00     0.166 C 
BRANCH  30  31
HETATM   31  O2  UNL     1      -1.499  -2.074   4.597  1.00  0.00    -0.401 OA
ATOM     32  H2  UNL     1      -0.991  -2.491   5.283  1.00  0.00     0.209 HD
ENDBRANCH  30  31
ENDBRANCH  29  30
ENDBRANCH   9  29
TORSDOF 7
