REMARK  5 active torsions:
REMARK  status: ('A' for Active; 'I' for Inactive)
REMARK       I    between atoms: C1_2  and  N1_3 
REMARK    1  A    between atoms: C1_2  and  C17_26 
REMARK    2  A    between atoms: N1_3  and  C2_5 
REMARK    3  A    between atoms: C3_6  and  N2_7 
REMARK    4  A    between atoms: N2_7  and  C4_9 
REMARK       I    between atoms: N3_12  and  C7_13 
REMARK    5  A    between atoms: C7_13  and  C8_15 
ROOT
HETATM    1  C2  UNL     1       2.972  -1.826   0.196  1.00  0.00     0.120 A 
HETATM    2  C3  UNL     1       1.618  -1.667   0.392  1.00  0.00     0.114 A 
HETATM    3  C15 UNL     1       1.558  -2.982   0.771  1.00  0.00     0.252 A 
HETATM    4  O3  UNL     1       0.718  -3.832   1.158  1.00  0.00    -0.281 OA
HETATM    5  C16 UNL     1       2.912  -3.126   0.570  1.00  0.00     0.253 A 
HETATM    6  O4  UNL     1       3.789  -4.030   0.667  1.00  0.00    -0.281 OA
ENDROOT
BRANCH   2   7
HETATM    7  N2  UNL     1       0.716  -0.578   0.251  1.00  0.00    -0.380 N 
ATOM      8  H2  UNL     1       1.109   0.312  -0.055  1.00  0.00     0.160 HD
BRANCH   7   9
HETATM    9  C4  UNL     1      -0.687  -0.614   0.498  1.00  0.00     0.085 C 
HETATM   10  C5  UNL     1      -1.463  -1.578  -0.364  1.00  0.00     0.045 C 
HETATM   11  C6  UNL     1      -2.889  -1.020  -0.522  1.00  0.00     0.127 C 
HETATM   12  N3  UNL     1      -3.263  -0.621   0.843  1.00  0.00    -0.352 N 
HETATM   13  C7  UNL     1      -4.251   0.346   1.055  1.00  0.00     0.224 C 
HETATM   14  C13 UNL     1      -2.551  -1.285   1.930  1.00  0.00     0.127 C 
HETATM   15  O2  UNL     1      -4.561   0.678   2.219  1.00  0.00    -0.273 OA
HETATM   16  C14 UNL     1      -1.080  -0.860   1.931  1.00  0.00     0.045 C 
BRANCH  13  17
HETATM   17  C8  UNL     1      -4.935   0.983  -0.084  1.00  0.00     0.078 C 
HETATM   18  C9  UNL     1      -5.963   1.995   0.413  1.00  0.00     0.014 C 
HETATM   19  C10 UNL     1      -6.907   2.158  -0.733  1.00  0.00     0.001 C 
HETATM   20  C11 UNL     1      -7.017   0.750  -1.315  1.00  0.00     0.001 C 
HETATM   21  C12 UNL     1      -5.781   0.028  -0.870  1.00  0.00     0.014 C 
ENDBRANCH  13  17
ENDBRANCH   7   9
ENDBRANCH   2   7
BRANCH   1  22
HETATM   22  N1  UNL     1       4.023  -0.943  -0.238  1.00  0.00    -0.321 N 
HETATM   23  C1  UNL     1       4.743  -0.185   0.711  1.00  0.00     0.226 C 
HETATM   24  O1  UNL     1       4.467  -0.280   1.935  1.00  0.00    -0.273 OA
ATOM     25  H1  UNL     1       4.247  -0.865  -1.230  1.00  0.00     0.169 HD
BRANCH  23  26
HETATM   26  C17 UNL     1       5.820   0.723   0.297  1.00  0.00     0.078 C 
HETATM   27  C18 UNL     1       5.382   1.807  -0.638  1.00  0.00     0.014 C 
HETATM   28  C19 UNL     1       6.704   2.352  -1.146  1.00  0.00     0.001 C 
HETATM   29  C20 UNL     1       7.646   1.185  -1.123  1.00  0.00     0.001 C 
HETATM   30  C21 UNL     1       6.911   0.027  -0.483  1.00  0.00     0.014 C 
ENDBRANCH  23  26
ENDBRANCH   1  22
TORSDOF 5
