REMARK  5 active torsions:
REMARK  status: ('A' for Active; 'I' for Inactive)
REMARK    1  A    between atoms: C6_9  and  N3_10 
REMARK    2  A    between atoms: N3_10  and  S1_12 
REMARK    3  A    between atoms: S1_12  and  N4_15 
REMARK    4  A    between atoms: N4_15  and  C7_17 
REMARK    5  A    between atoms: C10_20  and  N5_21 
ROOT
HETATM    1  N4  UNL     1      -1.084   0.286   0.844  1.00  0.00    -0.298 N 
ATOM      2  H4  UNL     1      -0.844   0.943   0.101  1.00  0.00     0.174 HD
ENDROOT
BRANCH   1   3
HETATM    3  S1  UNL     1      -2.514   0.398   1.769  1.00  0.00     0.319 S 
HETATM    4  O1  UNL     1      -2.920   1.854   1.818  1.00  0.00    -0.182 OA
HETATM    5  O2  UNL     1      -2.244  -0.135   3.151  1.00  0.00    -0.182 OA
BRANCH   3   6
HETATM    6  N3  UNL     1      -3.835  -0.473   1.089  1.00  0.00    -0.264 N 
ATOM      7  H3  UNL     1      -3.970  -1.446   1.364  1.00  0.00     0.180 HD
BRANCH   6   8
HETATM    8  C6  UNL     1      -4.744   0.101   0.163  1.00  0.00     0.091 A 
HETATM    9  C2  UNL     1      -4.675   0.136  -1.219  1.00  0.00     0.051 A 
HETATM   10  C1  UNL     1      -3.575  -0.454  -2.014  1.00  0.00     0.072 C 
HETATM   11  N1  UNL     1      -5.775   0.795  -1.683  1.00  0.00    -0.301 N 
HETATM   12  N2  UNL     1      -6.521   1.168  -0.655  1.00  0.00    -0.299 N 
ATOM     13  H1  UNL     1      -5.989   0.972  -2.665  1.00  0.00     0.187 HD
HETATM   14  C3  UNL     1      -7.777   1.895  -0.713  1.00  0.00     0.177 C 
HETATM   15  C4  UNL     1      -5.925   0.763   0.480  1.00  0.00     0.053 A 
HETATM   16  C5  UNL     1      -6.405   0.963   1.869  1.00  0.00     0.072 C 
ENDBRANCH   6   8
ENDBRANCH   3   6
ENDBRANCH   1   3
BRANCH   1  17
HETATM   17  C7  UNL     1      -0.236  -0.846   1.222  1.00  0.00     0.094 C 
HETATM   18  C8  UNL     1      -0.005  -1.776   0.112  1.00  0.00     0.028 C 
HETATM   19  C9  UNL     1       1.322  -1.770  -0.551  1.00  0.00     0.028 C 
HETATM   20  C10 UNL     1       2.450  -1.202   0.224  1.00  0.00     0.088 C 
HETATM   21  C17 UNL     1       2.040   0.114   0.842  1.00  0.00     0.028 C 
HETATM   22  C18 UNL     1       0.985  -0.254   1.873  1.00  0.00     0.028 C 
BRANCH  20  23
HETATM   23  N5  UNL     1       3.631  -1.169  -0.542  1.00  0.00    -0.369 N 
HETATM   24  C11 UNL     1       3.693  -0.384  -1.701  1.00  0.00     0.064 C 
HETATM   25  C12 UNL     1       4.725   0.708  -1.711  1.00  0.00     0.049 C 
HETATM   26  C13 UNL     1       5.975   0.426  -0.972  1.00  0.00    -0.009 C 
HETATM   27  C14 UNL     1       6.459   1.770  -0.399  1.00  0.00     0.010 C 
HETATM   28  C15 UNL     1       5.894  -0.517   0.172  1.00  0.00     0.049 C 
HETATM   29  C16 UNL     1       4.831  -1.562   0.066  1.00  0.00     0.064 C 
ENDBRANCH  20  23
ENDBRANCH   1  17
TORSDOF 5
