REMARK  6 active torsions:
REMARK  status: ('A' for Active; 'I' for Inactive)
REMARK    1  A    between atoms: C2_3  and  C3_4 
REMARK    2  A    between atoms: C3_4  and  C4_5 
REMARK    3  A    between atoms: C4_5  and  N2_6 
REMARK    4  A    between atoms: C9_11  and  C10_12 
REMARK    5  A    between atoms: C13_17  and  O1_18 
REMARK    6  A    between atoms: C17_24  and  N5_25 
ROOT
HETATM    1  N1  UNL     1       4.992   1.340  -1.492  1.00  0.00    -0.197 NA
HETATM    2  C1  UNL     1       4.722   0.408  -2.133  1.00  0.00     0.059 C 
HETATM    3  C2  UNL     1       4.369  -0.717  -2.969  1.00  0.00     0.125 C 
ENDROOT
BRANCH   3   4
HETATM    4  C3  UNL     1       3.407  -1.685  -2.400  1.00  0.00     0.034 C 
BRANCH   4   5
HETATM    5  C4  UNL     1       3.748  -2.509  -1.238  1.00  0.00     0.129 C 
BRANCH   5   6
HETATM    6  N2  UNL     1       4.128  -1.880  -0.007  1.00  0.00    -0.357 N 
HETATM    7  C5  UNL     1       5.473  -1.797   0.218  1.00  0.00     0.091 A 
HETATM    8  C6  UNL     1       5.866  -1.253   1.401  1.00  0.00     0.017 A 
HETATM    9  C7  UNL     1       4.995  -0.802   2.340  1.00  0.00     0.004 A 
HETATM   10  C8  UNL     1       3.624  -0.891   2.102  1.00  0.00     0.030 A 
HETATM   11  C9  UNL     1       3.219  -1.445   0.897  1.00  0.00     0.036 A 
BRANCH  11  12
HETATM   12  C10 UNL     1       1.813  -1.582   0.628  1.00  0.00     0.066 C 
HETATM   13  C11 UNL     1       0.879  -0.647   0.752  1.00  0.00     0.077 A 
HETATM   14  N3  UNL     1       0.980   0.693   1.162  1.00  0.00    -0.347 N 
HETATM   15  S1  UNL     1      -0.862  -0.841   0.389  1.00  0.00    -0.068 SA
HETATM   16  C12 UNL     1      -0.186   1.456   1.135  1.00  0.00     0.086 A 
ATOM     17  H3  UNL     1       1.869   1.090   1.466  1.00  0.00     0.167 HD
HETATM   18  C13 UNL     1      -0.296   2.818   1.459  1.00  0.00     0.095 A 
HETATM   19  C23 UNL     1      -1.327   0.858   0.723  1.00  0.00     0.064 A 
HETATM   20  C14 UNL     1      -1.501   3.445   1.345  1.00  0.00     0.064 A 
HETATM   21  C15 UNL     1      -2.666   2.788   0.912  1.00  0.00     0.075 A 
HETATM   22  C16 UNL     1      -3.898   3.556   0.913  1.00  0.00     0.102 C 
HETATM   23  C17 UNL     1      -2.589   1.469   0.591  1.00  0.00     0.071 A 
HETATM   24  N4  UNL     1      -4.854   4.184   0.946  1.00  0.00    -0.191 NA
BRANCH  18  25
HETATM   25  O1  UNL     1       0.814   3.552   1.901  1.00  0.00    -0.358 OA
ATOM     26  H1  UNL     1       0.740   4.473   2.120  1.00  0.00     0.217 HD
ENDBRANCH  18  25
BRANCH  23  27
HETATM   27  N5  UNL     1      -3.665   0.763   0.034  1.00  0.00    -0.378 N 
HETATM   28  C18 UNL     1      -3.642  -0.721   0.048  1.00  0.00     0.123 C 
HETATM   29  C19 UNL     1      -5.081  -1.235  -0.125  1.00  0.00     0.020 C 
HETATM   30  C20 UNL     1      -6.071  -0.405   0.624  1.00  0.00     0.003 C 
HETATM   31  C21 UNL     1      -6.140   0.930  -0.096  1.00  0.00     0.020 C 
HETATM   32  C22 UNL     1      -4.787   1.271  -0.689  1.00  0.00     0.123 C 
ENDBRANCH  23  27
ENDBRANCH  11  12
ENDBRANCH   5   6
ENDBRANCH   4   5
ENDBRANCH   3   4
TORSDOF 6
