REMARK  8 active torsions:
REMARK  status: ('A' for Active; 'I' for Inactive)
REMARK    1  A    between atoms: N2_7  and  C6_8 
REMARK    2  A    between atoms: C6_8  and  C7_10 
REMARK    3  A    between atoms: C7_10  and  C8_11 
REMARK    4  A    between atoms: C13_16  and  C14_17 
REMARK    5  A    between atoms: C14_17  and  C15_18 
REMARK    6  A    between atoms: C15_18  and  O1_19 
REMARK    7  A    between atoms: C18_23  and  N3_24 
REMARK    8  A    between atoms: C20_26  and  O2_27 
ROOT
HETATM    1  N1  UNL     1      -7.107  -1.473  -2.598  1.00  0.00    -0.195 NA
HETATM    2  C1  UNL     1      -6.913  -0.623  -1.827  1.00  0.00     0.084 C 
HETATM    3  C2  UNL     1      -6.709   0.445  -0.881  1.00  0.00     0.192 C 
HETATM    4  C3  UNL     1      -7.102   1.793  -1.505  1.00  0.00     0.042 C 
HETATM    5  C4  UNL     1      -6.279   2.782  -0.743  1.00  0.00     0.023 C 
HETATM    6  C5  UNL     1      -5.356   2.005   0.141  1.00  0.00     0.125 C 
HETATM    7  N2  UNL     1      -5.358   0.672  -0.474  1.00  0.00    -0.358 N 
ENDROOT
BRANCH   7   8
HETATM    8  C6  UNL     1      -4.181  -0.101  -0.552  1.00  0.00     0.077 C 
HETATM    9  S1  UNL     1      -4.241  -1.565  -1.258  1.00  0.00    -0.066 SA
BRANCH   8  10
HETATM   10  C7  UNL     1      -2.888   0.398  -0.039  1.00  0.00     0.074 C 
BRANCH  10  11
HETATM   11  C8  UNL     1      -1.926  -0.717   0.177  1.00  0.00    -0.004 C 
HETATM   12  C9  UNL     1      -2.295  -1.748   1.167  1.00  0.00     0.005 C 
HETATM   13  C10 UNL     1      -1.938  -1.416   2.596  1.00  0.00     0.000 C 
HETATM   14  C11 UNL     1      -0.551  -0.878   2.753  1.00  0.00     0.000 C 
HETATM   15  C12 UNL     1      -0.284   0.161   1.720  1.00  0.00     0.005 C 
HETATM   16  C13 UNL     1      -0.469  -0.233   0.304  1.00  0.00    -0.007 C 
BRANCH  16  17
HETATM   17  C14 UNL     1       0.363  -1.282  -0.275  1.00  0.00     0.043 C 
BRANCH  17  18
HETATM   18  C15 UNL     1       1.817  -1.220  -0.370  1.00  0.00     0.058 C 
HETATM   19  C16 UNL     1       2.407  -0.162  -1.231  1.00  0.00     0.040 C 
HETATM   20  C17 UNL     1       3.464   0.692  -0.577  1.00  0.00     0.038 C 
HETATM   21  C18 UNL     1       4.428  -0.022   0.281  1.00  0.00     0.223 C 
HETATM   22  C22 UNL     1       4.055  -1.498   0.491  1.00  0.00     0.038 C 
HETATM   23  C23 UNL     1       2.584  -1.412   0.939  1.00  0.00     0.040 C 
BRANCH  18  24
HETATM   24  O1  UNL     1       2.165  -2.462  -1.022  1.00  0.00    -0.390 OA
ATOM     25  H1  UNL     1       3.112  -2.422  -1.084  1.00  0.00     0.210 HD
ENDBRANCH  18  24
BRANCH  21  26
HETATM   26  N3  UNL     1       5.800   0.057  -0.025  1.00  0.00     0.098 N 
HETATM   27  C19 UNL     1       6.445   1.335   0.024  1.00  0.00     0.306 C 
HETATM   28  C20 UNL     1       7.470   0.769  -0.972  1.00  0.00     0.174 C 
HETATM   29  C21 UNL     1       6.259  -0.093  -1.362  1.00  0.00     0.306 C 
BRANCH  28  30
HETATM   30  O2  UNL     1       7.868   1.678  -1.930  1.00  0.00    -0.392 OA
ATOM     31  H2  UNL     1       8.501   1.328  -2.546  1.00  0.00     0.210 HD
ENDBRANCH  28  30
ENDBRANCH  21  26
ENDBRANCH  17  18
ENDBRANCH  16  17
ENDBRANCH  10  11
ENDBRANCH   8  10
ENDBRANCH   7   8
TORSDOF 8
