REMARK  7 active torsions:
REMARK  status: ('A' for Active; 'I' for Inactive)
REMARK    1  A    between atoms: O1_2  and  C2_3 
REMARK    2  A    between atoms: C6_7  and  C7_8 
REMARK    3  A    between atoms: C7_8  and  N1_9 
REMARK    4  A    between atoms: N1_9  and  C8_11 
REMARK    5  A    between atoms: C10_17  and  N4_18 
REMARK    6  A    between atoms: N4_18  and  C11_20 
REMARK    7  A    between atoms: C11_20  and  C12_21 
ROOT
HETATM    1  C8  UNL     1       1.559   1.056   0.574  1.00  0.00     0.124 A 
HETATM    2  N2  UNL     1       0.654   0.258   0.003  1.00  0.00    -0.327 N 
ATOM      3  H2  UNL     1       0.920  -0.689  -0.268  1.00  0.00     0.169 HD
HETATM    4  C9  UNL     1      -0.609   0.683  -0.222  1.00  0.00     0.120 A 
HETATM    5  N3  UNL     1      -1.447  -0.177  -0.796  1.00  0.00    -0.328 N 
ATOM      6  H3  UNL     1      -1.135  -1.114  -1.050  1.00  0.00     0.169 HD
HETATM    7  C10 UNL     1      -2.712   0.211  -1.035  1.00  0.00     0.104 A 
HETATM    8  C18 UNL     1      -3.142   1.472  -0.695  1.00  0.00     0.072 A 
HETATM    9  C19 UNL     1      -2.255   2.372  -0.092  1.00  0.00     0.062 A 
HETATM   10  C20 UNL     1      -2.633   3.690   0.285  1.00  0.00     0.100 C 
HETATM   11  N5  UNL     1      -2.952   4.764   0.598  1.00  0.00    -0.191 NA
HETATM   12  C21 UNL     1      -0.961   1.965   0.149  1.00  0.00     0.030 A 
HETATM   13  C22 UNL     1      -0.066   2.827   0.741  1.00  0.00     0.043 A 
HETATM   14  C23 UNL     1       1.230   2.341   0.952  1.00  0.00     0.089 A 
HETATM   15  C24 UNL     1       2.238   3.147   1.558  1.00  0.00     0.103 C 
HETATM   16  N6  UNL     1       3.056   3.815   2.036  1.00  0.00    -0.191 NA
ENDROOT
BRANCH   7  17
HETATM   17  N4  UNL     1      -3.516  -0.604  -1.581  1.00  0.00    -0.372 N 
ATOM     18  H4  UNL     1      -3.140  -1.524  -1.809  1.00  0.00     0.161 HD
BRANCH  17  19
HETATM   19  C11 UNL     1      -4.883  -0.383  -1.913  1.00  0.00     0.159 C 
BRANCH  19  20
HETATM   20  C12 UNL     1      -5.820  -0.777  -0.846  1.00  0.00    -0.041 A 
HETATM   21  C13 UNL     1      -7.168  -0.609  -1.054  1.00  0.00     0.009 A 
HETATM   22  C14 UNL     1      -8.086  -0.972  -0.062  1.00  0.00     0.001 A 
HETATM   23  C15 UNL     1      -7.641  -1.496   1.122  1.00  0.00     0.000 A 
HETATM   24  C16 UNL     1      -6.298  -1.673   1.351  1.00  0.00     0.001 A 
HETATM   25  C17 UNL     1      -5.399  -1.304   0.347  1.00  0.00     0.009 A 
ENDBRANCH  19  20
ENDBRANCH  17  19
ENDBRANCH   7  17
BRANCH   1  26
HETATM   26  N1  UNL     1       2.754   0.632   0.778  1.00  0.00    -0.371 N 
ATOM     27  H1  UNL     1       3.451   1.236   1.214  1.00  0.00     0.161 HD
BRANCH  26  28
HETATM   28  C7  UNL     1       3.097  -0.716   0.380  1.00  0.00     0.160 C 
BRANCH  28  29
HETATM   29  C6  UNL     1       4.505  -1.031   0.691  1.00  0.00    -0.038 A 
HETATM   30  C5  UNL     1       4.823  -1.575   1.913  1.00  0.00     0.009 A 
HETATM   31  C4  UNL     1       6.151  -1.856   2.165  1.00  0.00     0.003 A 
HETATM   32  C3  UNL     1       7.126  -1.594   1.211  1.00  0.00     0.037 A 
HETATM   33  C2  UNL     1       6.796  -1.048  -0.010  1.00  0.00     0.068 A 
HETATM   34  C25 UNL     1       5.481  -0.772  -0.257  1.00  0.00     0.045 A 
BRANCH  33  35
HETATM   35  O1  UNL     1       7.791  -0.786  -0.971  1.00  0.00    -0.356 OA
HETATM   36  C1  UNL     1       7.434  -0.226  -2.219  1.00  0.00     0.210 C 
ENDBRANCH  33  35
ENDBRANCH  28  29
ENDBRANCH  26  28
ENDBRANCH   1  26
TORSDOF 7
