REMARK  5 active torsions:
REMARK  status: ('A' for Active; 'I' for Inactive)
REMARK    1  A    between atoms: C5_5  and  N1_6 
REMARK    2  A    between atoms: N1_6  and  C6_8 
REMARK    3  A    between atoms: C6_8  and  C7_9 
REMARK    4  A    between atoms: C7_9  and  C8_10 
REMARK    5  A    between atoms: C14_19  and  C15_20 
ROOT
HETATM    1  C1  UNL     1       0.345   3.105  -0.365  1.00  0.00     0.016 C 
HETATM    2  C2  UNL     1      -0.253   2.702   0.937  1.00  0.00    -0.029 C 
HETATM    3  C3  UNL     1       0.139   3.742   1.973  1.00  0.00     0.016 C 
HETATM    4  C4  UNL     1       0.203   1.363   1.471  1.00  0.00     0.041 C 
HETATM    5  C5  UNL     1      -0.105   0.234   0.567  1.00  0.00     0.132 C 
HETATM    6  C13 UNL     1      -1.581   0.212   0.205  1.00  0.00     0.044 A 
HETATM    7  C14 UNL     1      -2.155  -0.986  -0.299  1.00  0.00    -0.022 A 
HETATM    8  C18 UNL     1      -3.466  -0.904  -0.625  1.00  0.00    -0.038 A 
HETATM    9  C19 UNL     1      -4.189   0.315  -0.468  1.00  0.00     0.017 A 
HETATM   10  C20 UNL     1      -3.589   1.427   0.018  1.00  0.00     0.254 A 
HETATM   11  O2  UNL     1      -4.237   2.516   0.159  1.00  0.00    -0.267 OA
HETATM   12  N3  UNL     1      -2.253   1.350   0.356  1.00  0.00    -0.314 N 
HETATM   13  C21 UNL     1      -1.740   2.616   0.872  1.00  0.00     0.141 C 
HETATM   14  C22 UNL     1      -5.646   0.385  -0.856  1.00  0.00     0.045 C 
HETATM   15  C23 UNL     1      -6.380  -0.841  -0.404  1.00  0.00     0.005 C 
HETATM   16  C24 UNL     1      -5.488  -1.971  -0.038  1.00  0.00     0.005 C 
HETATM   17  C25 UNL     1      -4.315  -1.977  -1.058  1.00  0.00     0.040 C 
ENDROOT
BRANCH   5  18
HETATM   18  N1  UNL     1       0.743   0.075  -0.497  1.00  0.00    -0.392 N 
ATOM     19  H1  UNL     1       0.370   0.263  -1.428  1.00  0.00     0.159 HD
BRANCH  18  20
HETATM   20  C6  UNL     1       2.056  -0.318  -0.408  1.00  0.00     0.056 C 
BRANCH  20  21
HETATM   21  C7  UNL     1       3.146   0.483   0.170  1.00  0.00     0.050 C 
BRANCH  21  22
HETATM   22  C8  UNL     1       4.460  -0.326   0.032  1.00  0.00     0.009 C 
HETATM   23  C9  UNL     1       5.606   0.456   0.587  1.00  0.00     0.015 C 
HETATM   24  C10 UNL     1       6.811  -0.445   0.650  1.00  0.00     0.103 C 
HETATM   25  C11 UNL     1       6.865  -1.341  -0.540  1.00  0.00     0.217 C 
HETATM   26  O1  UNL     1       7.718  -2.263  -0.529  1.00  0.00    -0.274 OA
HETATM   27  N2  UNL     1       5.996  -1.170  -1.642  1.00  0.00    -0.361 N 
HETATM   28  C12 UNL     1       4.605  -0.787  -1.366  1.00  0.00     0.127 C 
ATOM     29  H2  UNL     1       6.324  -1.308  -2.598  1.00  0.00     0.162 HD
ENDBRANCH  21  22
ENDBRANCH  20  21
ENDBRANCH  18  20
ENDBRANCH   5  18
BRANCH   7  30
HETATM   30  C15 UNL     1      -1.373  -2.179  -0.345  1.00  0.00     0.021 A 
HETATM   31  C16 UNL     1      -1.579  -3.228  -1.436  1.00  0.00     0.010 A 
HETATM   32  C17 UNL     1      -1.867  -3.529  -0.044  1.00  0.00     0.010 A 
ENDBRANCH   7  30
TORSDOF 5
