REMARK  6 active torsions:
REMARK  status: ('A' for Active; 'I' for Inactive)
REMARK    1  A    between atoms: C1_2  and  C2_3 
REMARK       I    between atoms: C1_2  and  N3_28 
REMARK    2  A    between atoms: C2_3  and  O2_4 
REMARK    3  A    between atoms: O2_4  and  C3_5 
REMARK    4  A    between atoms: C4_6  and  C5_7 
REMARK    5  A    between atoms: C5_7  and  N1_8 
REMARK    6  A    between atoms: N1_8  and  C6_11 
ROOT
HETATM    1  C3  UNL     1      -1.246  -2.113  -0.143  1.00  0.00     0.051 C 
HETATM    2  C4  UNL     1       0.064  -2.159  -0.064  1.00  0.00    -0.025 C 
HETATM    3  C15 UNL     1       1.037  -3.318   0.010  1.00  0.00     0.038 C 
HETATM    4  C16 UNL     1       0.394  -4.652  -0.065  1.00  0.00     0.004 C 
HETATM    5  C17 UNL     1      -0.474  -4.911   1.144  1.00  0.00     0.001 C 
HETATM    6  C18 UNL     1      -1.760  -4.144   1.129  1.00  0.00     0.006 C 
HETATM    7  C19 UNL     1      -2.029  -3.437  -0.154  1.00  0.00     0.065 C 
ENDROOT
BRANCH   2   8
HETATM    8  C5  UNL     1       0.766  -0.857  -0.040  1.00  0.00     0.272 C 
BRANCH   8   9
HETATM    9  N1  UNL     1       1.656  -0.775  -1.196  1.00  0.00    -0.039 N 
ATOM     10  H12 UNL     1       2.053  -1.685  -1.430  1.00  0.00     0.281 HD
ATOM     11  H11 UNL     1       1.138  -0.605  -2.058  1.00  0.00     0.281 HD
BRANCH   9  12
HETATM   12  C6  UNL     1       2.685   0.217  -0.989  1.00  0.00     0.229 C 
HETATM   13  C7  UNL     1       3.660  -0.258   0.062  1.00  0.00     0.074 C 
HETATM   14  C8  UNL     1       4.514   0.868   0.504  1.00  0.00    -0.000 C 
HETATM   15  C9  UNL     1       5.947   0.474   0.776  1.00  0.00     0.024 C 
HETATM   16  C12 UNL     1       4.607   1.873  -0.630  1.00  0.00     0.036 C 
HETATM   17  C10 UNL     1       6.704   1.699   1.183  1.00  0.00     0.114 C 
HETATM   18  N2  UNL     1       6.494   2.854   0.391  1.00  0.00    -0.421 N 
HETATM   19  C11 UNL     1       5.124   3.136   0.028  1.00  0.00     0.121 C 
ATOM     20  H2  UNL     1       7.265   3.452   0.094  1.00  0.00     0.153 HD
HETATM   21  C13 UNL     1       3.327   2.007  -1.359  1.00  0.00     0.135 C 
HETATM   22  C14 UNL     1       2.119   1.574  -0.572  1.00  0.00     0.101 C 
HETATM   23  O3  UNL     1       3.188   0.787  -2.092  1.00  0.00    -0.348 OA
ENDBRANCH   9  12
ENDBRANCH   8   9
ENDBRANCH   2   8
BRANCH   1  24
HETATM   24  O2  UNL     1      -1.925  -1.030  -0.208  1.00  0.00    -0.346 OA
BRANCH  24  25
HETATM   25  C2  UNL     1      -2.614   0.079  -0.279  1.00  0.00     0.278 C 
BRANCH  25  26
HETATM   26  C1  UNL     1      -3.801   0.145   0.635  1.00  0.00     0.243 C 
HETATM   27  O1  UNL     1      -3.988  -0.819   1.394  1.00  0.00    -0.271 OA
HETATM   28  N3  UNL     1      -4.620   1.288   0.574  1.00  0.00    -0.350 N 
HETATM   29  C20 UNL     1      -5.776   1.392   1.420  1.00  0.00     0.126 C 
HETATM   30  C24 UNL     1      -4.330   2.367  -0.328  1.00  0.00     0.126 C 
HETATM   31  C21 UNL     1      -6.982   1.567   0.515  1.00  0.00     0.020 C 
HETATM   32  C22 UNL     1      -6.742   2.769  -0.369  1.00  0.00     0.003 C 
HETATM   33  C23 UNL     1      -5.542   2.547  -1.237  1.00  0.00     0.020 C 
ENDBRANCH  25  26
ENDBRANCH  24  25
ENDBRANCH   1  24
TORSDOF 6
