REMARK  8 active torsions:
REMARK  status: ('A' for Active; 'I' for Inactive)
REMARK    1  A    between atoms: N1_4  and  C4_5 
REMARK    2  A    between atoms: C10_11  and  N2_12 
REMARK    3  A    between atoms: N2_12  and  C11_14 
REMARK    4  A    between atoms: C14_17  and  C15_18 
REMARK    5  A    between atoms: C16_19  and  C17_20 
REMARK    6  A    between atoms: C17_20  and  N3_21 
REMARK    7  A    between atoms: N4_24  and  C20_25 
REMARK    8  A    between atoms: C20_25  and  C21_26 
ROOT
HETATM    1  C11 UNL     1       3.366   1.566   1.106  1.00  0.00     0.052 A 
HETATM    2  C12 UNL     1       2.778   1.587  -0.121  1.00  0.00     0.032 A 
HETATM    3  C13 UNL     1       1.392   1.445  -0.248  1.00  0.00     0.023 A 
HETATM    4  C14 UNL     1       0.577   1.281   0.838  1.00  0.00     0.020 A 
HETATM    5  C28 UNL     1       1.177   1.259   2.103  1.00  0.00     0.049 A 
HETATM    6  C29 UNL     1       2.539   1.400   2.220  1.00  0.00     0.074 A 
HETATM    7  N6  UNL     1       3.116   1.372   3.523  1.00  0.00    -0.100 NA
ENDROOT
BRANCH   4   8
HETATM    8  C15 UNL     1      -0.848   1.136   0.741  1.00  0.00    -0.061 C 
HETATM    9  C16 UNL     1      -2.061   1.025   0.679  1.00  0.00    -0.056 C 
BRANCH   9  10
HETATM   10  C17 UNL     1      -3.497   0.912   0.628  1.00  0.00     0.155 C 
BRANCH  10  11
HETATM   11  N3  UNL     1      -3.916  -0.234  -0.042  1.00  0.00    -0.359 N 
HETATM   12  C18 UNL     1      -3.713  -0.369  -1.426  1.00  0.00     0.094 C 
HETATM   13  C19 UNL     1      -5.018  -0.207  -2.149  1.00  0.00     0.317 C 
HETATM   14  N4  UNL     1      -6.158  -0.839  -1.433  1.00  0.00     0.095 N 
HETATM   15  C26 UNL     1      -5.638  -1.805  -0.498  1.00  0.00     0.293 C 
HETATM   16  C27 UNL     1      -4.760  -1.167   0.585  1.00  0.00     0.158 C 
BRANCH  14  17
HETATM   17  C20 UNL     1      -7.032   0.153  -0.930  1.00  0.00     0.277 C 
BRANCH  17  18
HETATM   18  C21 UNL     1      -8.381  -0.186  -0.462  1.00  0.00     0.017 C 
HETATM   19  C22 UNL     1      -8.560  -1.131   0.661  1.00  0.00     0.034 C 
HETATM   20  C23 UNL     1      -9.903  -0.907   1.371  1.00  0.00     0.232 C 
HETATM   21  N5  UNL     1     -10.806  -0.415   0.359  1.00  0.00    -0.075 N 
HETATM   22  C24 UNL     1     -10.609  -1.025  -0.931  1.00  0.00     0.232 C 
ATOM     23  H52 UNL     1     -11.775  -0.513   0.661  1.00  0.00     0.277 HD
ATOM     24  H51 UNL     1     -10.752   0.601   0.290  1.00  0.00     0.277 HD
HETATM   25  C25 UNL     1      -9.317  -0.605  -1.603  1.00  0.00     0.034 C 
ENDBRANCH  17  18
ENDBRANCH  14  17
ENDBRANCH  10  11
ENDBRANCH   9  10
ENDBRANCH   4   8
BRANCH   1  26
HETATM   26  N2  UNL     1       4.758   1.729   1.246  1.00  0.00    -0.382 N 
ATOM     27  H2  UNL     1       5.168   1.792   2.178  1.00  0.00     0.160 HD
BRANCH  26  28
HETATM   28  C10 UNL     1       5.606   1.807   0.089  1.00  0.00     0.115 C 
HETATM   29  C2  UNL     1       7.025   2.196   0.457  1.00  0.00     0.034 C 
HETATM   30  C1  UNL     1       7.201   2.587   1.884  1.00  0.00     0.014 C 
HETATM   31  C3  UNL     1       7.881   1.036   0.027  1.00  0.00     0.279 C 
HETATM   32  N1  UNL     1       7.124   0.525  -1.092  1.00  0.00     0.095 N 
HETATM   33  C9  UNL     1       5.801   0.416  -0.501  1.00  0.00     0.298 C 
BRANCH  32  34
HETATM   34  C4  UNL     1       7.525  -0.796  -1.515  1.00  0.00     0.223 C 
HETATM   35  C5  UNL     1       7.330  -1.860  -0.485  1.00  0.00     0.036 C 
HETATM   36  C6  UNL     1       8.113  -3.025  -1.102  1.00  0.00     0.002 C 
HETATM   37  C7  UNL     1       9.353  -2.346  -1.645  1.00  0.00     0.002 C 
HETATM   38  C8  UNL     1       9.000  -0.879  -1.815  1.00  0.00     0.036 C 
ENDBRANCH  32  34
ENDBRANCH  26  28
ENDBRANCH   1  26
TORSDOF 8
