REMARK  11 active torsions:
REMARK  status: ('A' for Active; 'I' for Inactive)
REMARK    1  A    between atoms: C2_2  and  C3_3 
REMARK    2  A    between atoms: C2_2  and  C27_35 
REMARK    3  A    between atoms: C4_4  and  C5_5 
REMARK    4  A    between atoms: C5_5  and  O1_6 
REMARK    5  A    between atoms: C5_5  and  C6_8 
REMARK    6  A    between atoms: C6_8  and  O2_9 
REMARK    7  A    between atoms: O2_9  and  C7_10 
REMARK    8  A    between atoms: C13_19  and  C15_21 
REMARK    9  A    between atoms: C19_26  and  C20_27 
REMARK   10  A    between atoms: C24_32  and  C26_34 
REMARK   11  A    between atoms: C27_35  and  O6_36 
ROOT
HETATM    1  C7  UNL     1       1.156  -1.800  -0.746  1.00  0.00     0.122 C 
HETATM    2  C8  UNL     1       0.640  -1.280  -2.058  1.00  0.00     0.033 C 
HETATM    3  C9  UNL     1      -0.042   0.009  -1.551  1.00  0.00     0.022 C 
HETATM    4  C10 UNL     1      -0.738  -0.300  -0.331  1.00  0.00     0.050 C 
HETATM    5  C11 UNL     1      -0.042  -1.586   0.149  1.00  0.00     0.051 C 
HETATM    6  C12 UNL     1      -0.391   0.737   0.711  1.00  0.00     0.227 C 
HETATM    7  O3  UNL     1       0.811   1.074   0.980  1.00  0.00    -0.273 OA
HETATM    8  N1  UNL     1      -1.608   1.208   1.274  1.00  0.00    -0.351 N 
ATOM      9  H1  UNL     1      -1.797   2.134   1.658  1.00  0.00     0.163 HD
HETATM   10  C13 UNL     1      -2.509   0.102   1.185  1.00  0.00     0.039 C 
HETATM   11  C14 UNL     1      -2.068  -0.909   2.256  1.00  0.00     0.039 C 
HETATM   12  C26 UNL     1      -2.191  -0.411  -0.225  1.00  0.00     0.040 C 
ENDROOT
BRANCH  12  13
HETATM   13  C24 UNL     1      -3.055   0.087  -1.293  1.00  0.00    -0.025 C 
HETATM   14  C20 UNL     1      -4.524  -0.006  -0.829  1.00  0.00     0.075 C 
HETATM   15  C21 UNL     1      -5.222   0.257  -2.090  1.00  0.00     0.132 C 
HETATM   16  O5  UNL     1      -6.218   0.875  -2.333  1.00  0.00    -0.298 OA
HETATM   17  C22 UNL     1      -4.414  -0.439  -3.145  1.00  0.00     0.079 C 
HETATM   18  C23 UNL     1      -3.167  -0.958  -2.417  1.00  0.00     0.018 C 
HETATM   19  C25 UNL     1      -2.880   1.453  -1.820  1.00  0.00     0.016 C 
BRANCH  14  20
HETATM   20  C19 UNL     1      -4.695   0.961   0.246  1.00  0.00     0.073 C 
HETATM   21  C15 UNL     1      -3.917   0.383   1.438  1.00  0.00     0.026 C 
HETATM   22  C16 UNL     1      -4.247   1.376   2.480  1.00  0.00     0.015 C 
HETATM   23  C17 UNL     1      -5.753   1.589   2.255  1.00  0.00     0.079 C 
HETATM   24  C18 UNL     1      -6.014   1.095   0.857  1.00  0.00     0.132 C 
HETATM   25  O4  UNL     1      -7.107   0.881   0.417  1.00  0.00    -0.298 OA
ENDBRANCH  14  20
ENDBRANCH  12  13
BRANCH   1  26
HETATM   26  O2  UNL     1       2.290  -1.157  -0.301  1.00  0.00    -0.383 OA
BRANCH  26  27
HETATM   27  C6  UNL     1       3.327  -2.096  -0.093  1.00  0.00     0.203 C 
BRANCH  27  28
HETATM   28  C5  UNL     1       4.560  -1.323   0.401  1.00  0.00     0.164 C 
BRANCH  28  29
HETATM   29  C4  UNL     1       4.939  -0.351  -0.636  1.00  0.00     0.003 C 
HETATM   30  C3  UNL     1       5.842   0.580  -0.398  1.00  0.00    -0.022 C 
BRANCH  30  31
HETATM   31  C2  UNL     1       6.491   0.660   0.925  1.00  0.00     0.027 C 
HETATM   32  C1  UNL     1       6.227   2.050   1.513  1.00  0.00     0.016 C 
BRANCH  31  33
HETATM   33  C27 UNL     1       7.984   0.476   0.705  1.00  0.00     0.172 C 
BRANCH  33  34
HETATM   34  O6  UNL     1       8.413   1.447  -0.170  1.00  0.00    -0.400 OA
ATOM     35  H6  UNL     1       9.346   1.332  -0.307  1.00  0.00     0.209 HD
ENDBRANCH  33  34
ENDBRANCH  31  33
ENDBRANCH  30  31
ENDBRANCH  28  29
BRANCH  28  36
HETATM   36  O1  UNL     1       5.571  -2.292   0.597  1.00  0.00    -0.390 OA
ATOM     37  H1  UNL     1       5.326  -2.920   1.267  1.00  0.00     0.210 HD
ENDBRANCH  28  36
ENDBRANCH  27  28
ENDBRANCH  26  27
ENDBRANCH   1  26
TORSDOF 11
