REMARK  6 active torsions:
REMARK  status: ('A' for Active; 'I' for Inactive)
REMARK    1  A    between atoms: S1_2  and  N1_5 
REMARK    2  A    between atoms: N1_5  and  C2_7 
REMARK    3  A    between atoms: C2_7  and  C3_8 
REMARK    4  A    between atoms: C18_24  and  C19_25 
REMARK    5  A    between atoms: C19_25  and  O4_26 
REMARK    6  A    between atoms: C21_30  and  C22_31 
ROOT
HETATM    1  C3  UNL     1       0.598   1.117   0.391  1.00  0.00     0.012 C 
HETATM    2  C4  UNL     1      -0.654   0.732  -0.387  1.00  0.00     0.014 C 
HETATM    3  C5  UNL     1      -1.147  -0.641  -0.053  1.00  0.00     0.025 C 
HETATM    4  C6  UNL     1      -0.626  -1.011   1.316  1.00  0.00    -0.003 C 
HETATM    5  C7  UNL     1      -1.452  -2.165   1.710  1.00  0.00     0.008 C 
HETATM    6  C8  UNL     1      -2.749  -2.038   0.897  1.00  0.00     0.039 C 
HETATM    7  C9  UNL     1      -2.638  -0.701   0.190  1.00  0.00     0.065 C 
HETATM    8  C10 UNL     1      -3.312  -0.841  -1.144  1.00  0.00     0.038 C 
HETATM    9  C11 UNL     1      -4.709  -1.396  -1.052  1.00  0.00     0.003 C 
HETATM   10  C12 UNL     1      -5.656  -0.216  -0.935  1.00  0.00     0.002 C 
HETATM   11  C13 UNL     1      -5.475   0.352   0.456  1.00  0.00     0.026 C 
HETATM   12  C14 UNL     1      -4.125   1.054   0.484  1.00  0.00     0.168 C 
HETATM   13  O3  UNL     1      -3.120   0.282   0.988  1.00  0.00    -0.380 OA
HETATM   14  C15 UNL     1       0.850  -1.239   1.173  1.00  0.00    -0.003 C 
HETATM   15  C16 UNL     1       1.163  -2.383   0.274  1.00  0.00     0.006 C 
HETATM   16  C17 UNL     1       2.652  -2.724   0.421  1.00  0.00     0.010 C 
HETATM   17  C18 UNL     1       3.348  -1.408   0.599  1.00  0.00     0.047 C 
HETATM   18  C20 UNL     1       2.622  -0.383  -0.228  1.00  0.00     0.108 A 
HETATM   19  O5  UNL     1       3.311   0.560  -0.938  1.00  0.00    -0.357 OA
HETATM   20  C21 UNL     1       2.510  -0.299  -1.634  1.00  0.00     0.258 A 
HETATM   21  C23 UNL     1       1.506   0.035   0.713  1.00  0.00     0.034 C 
ENDROOT
BRANCH   1  22
HETATM   22  C2  UNL     1       1.147   2.409  -0.101  1.00  0.00     0.137 C 
BRANCH  22  23
HETATM   23  N1  UNL     1       2.326   2.816   0.638  1.00  0.00    -0.319 N 
ATOM     24  H1  UNL     1       2.764   2.312   1.409  1.00  0.00     0.172 HD
BRANCH  23  25
HETATM   25  S1  UNL     1       2.850   4.325  -0.042  1.00  0.00     0.222 S 
HETATM   26  C1  UNL     1       1.608   5.559   0.140  1.00  0.00     0.185 C 
HETATM   27  O1  UNL     1       3.141   4.129  -1.509  1.00  0.00    -0.206 OA
HETATM   28  O2  UNL     1       4.146   4.702   0.626  1.00  0.00    -0.206 OA
ENDBRANCH  23  25
ENDBRANCH  22  23
ENDBRANCH   1  22
BRANCH  17  29
HETATM   29  C19 UNL     1       4.808  -1.497   0.548  1.00  0.00     0.172 C 
BRANCH  29  30
HETATM   30  O4  UNL     1       5.457  -0.259   0.690  1.00  0.00    -0.400 OA
ATOM     31  H4  UNL     1       6.405  -0.317   0.657  1.00  0.00     0.209 HD
ENDBRANCH  29  30
ENDBRANCH  17  29
BRANCH  20  32
HETATM   32  C22 UNL     1       3.149  -1.059  -2.690  1.00  0.00     0.206 C 
HETATM   33  O6  UNL     1       4.296  -1.510  -2.590  1.00  0.00    -0.646 OA
HETATM   34  O7  UNL     1       2.505  -1.331  -3.892  1.00  0.00    -0.646 OA
ENDBRANCH  20  32
TORSDOF 6
