REMARK  8 active torsions:
REMARK  status: ('A' for Active; 'I' for Inactive)
REMARK    1  A    between atoms: C1_2  and  C2_4 
REMARK    2  A    between atoms: C10_14  and  N3_15 
REMARK    3  A    between atoms: N3_15  and  C11_17 
REMARK    4  A    between atoms: C11_17  and  C12_18 
REMARK    5  A    between atoms: C12_18  and  C13_19 
REMARK    6  A    between atoms: C13_19  and  N4_20 
REMARK    7  A    between atoms: C18_28  and  N6_29 
REMARK    8  A    between atoms: N6_29  and  C19_31 
ROOT
HETATM    1  C2  UNL     1      -4.692  -2.433  -3.555  1.00  0.00     0.030 A 
HETATM    2  C3  UNL     1      -4.875  -1.990  -2.265  1.00  0.00     0.019 A 
HETATM    3  C4  UNL     1      -3.844  -1.346  -1.565  1.00  0.00     0.032 A 
HETATM    4  C5  UNL     1      -2.608  -1.128  -2.130  1.00  0.00     0.069 A 
HETATM    5  C6  UNL     1      -2.452  -1.581  -3.423  1.00  0.00    -0.004 A 
HETATM    6  C7  UNL     1      -3.459  -2.219  -4.128  1.00  0.00     0.030 A 
HETATM    7  C8  UNL     1      -1.159  -1.261  -3.783  1.00  0.00     0.064 A 
HETATM    8  C9  UNL     1      -0.589  -0.625  -2.688  1.00  0.00     0.145 A 
HETATM    9  N2  UNL     1       0.638  -0.105  -2.485  1.00  0.00    -0.175 N 
ATOM     10  H2  UNL     1       1.325  -0.156  -3.237  1.00  0.00     0.186 HD
HETATM   11  C10 UNL     1       0.985   0.474  -1.334  1.00  0.00     0.694 A 
HETATM   12  N5  UNL     1       0.081   0.538  -0.348  1.00  0.00    -0.022 N 
ATOM     13  H5  UNL     1       0.344   0.979   0.533  1.00  0.00     0.203 HD
HETATM   14  C18 UNL     1      -1.143   0.048  -0.478  1.00  0.00     0.702 A 
HETATM   15  N7  UNL     1      -1.458  -0.539  -1.681  1.00  0.00    -0.131 N 
ENDROOT
BRANCH  11  16
HETATM   16  N3  UNL     1       2.156   0.985  -1.127  1.00  0.00    -0.225 N 
ATOM     17  H3  UNL     1       2.334   1.407  -0.216  1.00  0.00     0.177 HD
BRANCH  16  18
HETATM   18  C11 UNL     1       3.216   1.000  -2.083  1.00  0.00     0.140 C 
BRANCH  18  19
HETATM   19  C12 UNL     1       4.085  -0.241  -1.931  1.00  0.00     0.050 C 
BRANCH  19  20
HETATM   20  C13 UNL     1       4.643  -0.194  -0.519  1.00  0.00     0.274 C 
BRANCH  20  21
HETATM   21  N4  UNL     1       5.435   1.038  -0.382  1.00  0.00     0.092 N 
HETATM   22  C14 UNL     1       5.929   1.055   0.984  1.00  0.00     0.298 C 
HETATM   23  C15 UNL     1       6.996   2.110   1.174  1.00  0.00     0.198 C 
HETATM   24  O2  UNL     1       7.412   2.646  -0.043  1.00  0.00    -0.388 OA
HETATM   25  C16 UNL     1       7.787   1.588  -0.863  1.00  0.00     0.198 C 
HETATM   26  C17 UNL     1       6.522   0.899  -1.334  1.00  0.00     0.298 C 
ENDBRANCH  20  21
ENDBRANCH  19  20
ENDBRANCH  18  19
ENDBRANCH  16  18
ENDBRANCH  11  16
BRANCH  14  27
HETATM   27  N6  UNL     1      -1.986   0.085   0.386  1.00  0.00    -0.217 N 
ATOM     28  H6  UNL     1      -2.806  -0.368  -0.018  1.00  0.00     0.178 HD
BRANCH  27  29
HETATM   29  C19 UNL     1      -2.370   0.457   1.683  1.00  0.00     0.123 C 
HETATM   30  C20 UNL     1      -2.385  -0.780   2.482  1.00  0.00    -0.005 C 
HETATM   31  C21 UNL     1      -2.557  -0.944   3.900  1.00  0.00    -0.028 C 
HETATM   32  C22 UNL     1      -3.613  -0.449   4.777  1.00  0.00     0.038 C 
HETATM   33  C23 UNL     1      -3.539   1.069   5.160  1.00  0.00     0.083 C 
HETATM   34  C24 UNL     1      -2.930   1.658   4.041  1.00  0.00    -0.183 C 
HETATM   35  C25 UNL     1      -2.386   2.581   3.138  1.00  0.00     0.082 C 
HETATM   36  C26 UNL     1      -1.666   1.674   2.073  1.00  0.00     0.041 C 
ENDBRANCH  27  29
ENDBRANCH  14  27
BRANCH   1  37
HETATM   37  C1  UNL     1      -5.772  -3.100  -4.271  1.00  0.00     0.265 C 
HETATM   38  N1  UNL     1      -7.050  -3.312  -3.744  1.00  0.00    -0.057 NA
HETATM   39  O1  UNL     1      -5.532  -3.509  -5.435  1.00  0.00    -0.271 OA
ENDBRANCH   1  37
TORSDOF 8
