REMARK  8 active torsions:
REMARK  status: ('A' for Active; 'I' for Inactive)
REMARK    1  A    between atoms: C4_4  and  N1_5 
REMARK    2  A    between atoms: N1_5  and  C5_7 
REMARK    3  A    between atoms: C6_10  and  N3_11 
REMARK    4  A    between atoms: N4_14  and  C9_15 
REMARK    5  A    between atoms: N7_28  and  C18_30 
REMARK    6  A    between atoms: C18_30  and  C19_31 
REMARK    7  A    between atoms: C19_31  and  N8_32 
REMARK    8  A    between atoms: N8_32  and  C20_34 
ROOT
HETATM    1  C5  UNL     1       0.945  -0.554   0.531  1.00  0.00     0.167 A 
HETATM    2  N2  UNL     1      -0.280  -0.891   0.122  1.00  0.00    -0.172 N 
ATOM      3  H2  UNL     1      -0.723  -1.698   0.560  1.00  0.00     0.186 HD
HETATM    4  C6  UNL     1      -0.978  -0.227  -0.843  1.00  0.00     0.696 A 
HETATM    5  N5  UNL     1      -0.397   0.819  -1.407  1.00  0.00    -0.130 N 
ATOM      6  H5  UNL     1      -0.882   1.346  -2.133  1.00  0.00     0.205 HD
HETATM    7  N6  UNL     1       0.833   1.183  -1.019  1.00  0.00    -0.268 N 
ATOM      8  H6  UNL     1       1.260   1.993  -1.469  1.00  0.00     0.189 HD
HETATM    9  C17 UNL     1       1.533   0.542  -0.073  1.00  0.00     0.162 A 
HETATM   10  N7  UNL     1       2.701   0.887   0.294  1.00  0.00    -0.371 N 
ATOM     11  H7  UNL     1       3.148   0.330   1.022  1.00  0.00     0.161 HD
ENDROOT
BRANCH   1  12
HETATM   12  N1  UNL     1       1.603  -1.178   1.439  1.00  0.00    -0.339 N 
ATOM     13  H1  UNL     1       2.532  -0.817   1.657  1.00  0.00     0.167 HD
BRANCH  12  14
HETATM   14  C4  UNL     1       1.183  -2.300   2.162  1.00  0.00     0.033 A 
HETATM   15  C3  UNL     1       0.565  -3.346   1.542  1.00  0.00     0.029 A 
HETATM   16  C2  UNL     1       0.169  -4.429   2.292  1.00  0.00     0.002 A 
HETATM   17  C1  UNL     1       0.410  -4.430   3.667  1.00  0.00     0.000 A 
HETATM   18  C26 UNL     1       1.036  -3.363   4.280  1.00  0.00     0.002 A 
HETATM   19  C25 UNL     1       1.431  -2.284   3.535  1.00  0.00     0.029 A 
ENDBRANCH  12  14
ENDBRANCH   1  12
BRANCH  10  20
HETATM   20  C18 UNL     1       3.446   2.008  -0.241  1.00  0.00     0.141 C 
BRANCH  20  21
HETATM   21  C19 UNL     1       4.180   1.541  -1.476  1.00  0.00     0.139 C 
BRANCH  21  22
HETATM   22  N8  UNL     1       4.958   2.563  -2.100  1.00  0.00    -0.388 N 
ATOM     23  H8  UNL     1       4.468   3.168  -2.759  1.00  0.00     0.159 HD
BRANCH  22  24
HETATM   24  C20 UNL     1       6.188   2.801  -1.926  1.00  0.00     0.030 A 
HETATM   25  C21 UNL     1       6.799   3.832  -2.609  1.00  0.00     0.046 A 
HETATM   26  C22 UNL     1       8.150   4.085  -2.409  1.00  0.00     0.089 A 
HETATM   27  N9  UNL     1       8.914   3.365  -1.569  1.00  0.00    -0.375 N 
HETATM   28  C23 UNL     1       8.332   2.357  -0.898  1.00  0.00     0.089 A 
ATOM     29  H9  UNL     1       9.904   3.577  -1.445  1.00  0.00     0.164 HD
HETATM   30  C24 UNL     1       6.974   2.065  -1.066  1.00  0.00     0.046 A 
ENDBRANCH  22  24
ENDBRANCH  21  22
ENDBRANCH  20  21
ENDBRANCH  10  20
BRANCH   4  31
HETATM   31  N3  UNL     1      -2.283  -0.675  -1.209  1.00  0.00    -0.213 N 
HETATM   32  C7  UNL     1      -3.091  -0.033  -2.197  1.00  0.00     0.161 C 
HETATM   33  C8  UNL     1      -4.408   0.378  -1.533  1.00  0.00     0.143 C 
HETATM   34  N4  UNL     1      -4.834  -0.715  -0.673  1.00  0.00    -0.378 N 
HETATM   35  C15 UNL     1      -4.236  -2.021  -0.865  1.00  0.00     0.143 C 
HETATM   36  C16 UNL     1      -2.772  -1.864  -0.513  1.00  0.00     0.161 C 
BRANCH  34  37
HETATM   37  C9  UNL     1      -5.824  -0.438   0.313  1.00  0.00     0.030 A 
HETATM   38  C10 UNL     1      -6.418   0.818   0.346  1.00  0.00     0.029 A 
HETATM   39  C11 UNL     1      -7.381   1.180   1.262  1.00  0.00     0.002 A 
HETATM   40  C12 UNL     1      -7.806   0.279   2.213  1.00  0.00     0.000 A 
HETATM   41  C13 UNL     1      -7.228  -0.970   2.195  1.00  0.00     0.002 A 
HETATM   42  C14 UNL     1      -6.251  -1.332   1.263  1.00  0.00     0.029 A 
ENDBRANCH  34  37
ENDBRANCH   4  31
TORSDOF 8
