REMARK  8 active torsions:
REMARK  status: ('A' for Active; 'I' for Inactive)
REMARK    1  A    between atoms: C3_3  and  C4_4 
REMARK    2  A    between atoms: C4_4  and  O1_6 
REMARK    3  A    between atoms: O1_6  and  C6_7 
REMARK    4  A    between atoms: C8_9  and  N1_10 
REMARK       I    between atoms: N2_13  and  C11_14 
REMARK    5  A    between atoms: C14_23  and  N6_24 
REMARK    6  A    between atoms: N6_24  and  C15_26 
REMARK    7  A    between atoms: C15_26  and  C16_27 
REMARK    8  A    between atoms: N7_30  and  C19_31 
ROOT
HETATM    1  C1  UNL     1      -5.224  -2.872   5.769  1.00  0.00     0.112 C 
HETATM    2  C2  UNL     1      -5.000  -3.084   4.336  1.00  0.00    -0.108 C 
HETATM    3  C3  UNL     1      -4.827  -3.276   3.157  1.00  0.00    -0.075 C 
ENDROOT
BRANCH   3   4
HETATM    4  C4  UNL     1      -4.600  -3.524   1.711  1.00  0.00     0.205 C 
HETATM    5  C5  UNL     1      -4.938  -5.001   1.507  1.00  0.00     0.054 C 
BRANCH   4   6
HETATM    6  O1  UNL     1      -3.251  -3.275   1.478  1.00  0.00    -0.318 OA
BRANCH   6   7
HETATM    7  C6  UNL     1      -2.670  -2.403   0.616  1.00  0.00     0.162 A 
HETATM    8  C7  UNL     1      -3.430  -1.594  -0.198  1.00  0.00     0.105 A 
HETATM    9  C8  UNL     1      -2.855  -0.706  -1.076  1.00  0.00     0.123 A 
HETATM   10  N5  UNL     1      -1.494  -0.655  -1.112  1.00  0.00    -0.177 N 
HETATM   11  C14 UNL     1      -0.739  -1.438  -0.323  1.00  0.00     0.681 A 
ATOM     12  H5  UNL     1      -1.037  -0.007  -1.753  1.00  0.00     0.185 HD
HETATM   13  N8  UNL     1      -1.338  -2.306   0.535  1.00  0.00    -0.170 N 
ATOM     14  H8  UNL     1      -0.758  -2.897   1.131  1.00  0.00     0.186 HD
BRANCH   9  15
HETATM   15  N1  UNL     1      -3.570   0.145  -1.939  1.00  0.00    -0.364 N 
HETATM   16  C9  UNL     1      -5.010   0.120  -2.055  1.00  0.00     0.144 C 
HETATM   17  C10 UNL     1      -5.504   1.367  -1.338  1.00  0.00     0.145 C 
HETATM   18  N2  UNL     1      -4.749   2.490  -1.884  1.00  0.00    -0.353 N 
HETATM   19  C11 UNL     1      -5.041   3.777  -1.353  1.00  0.00     0.184 C 
HETATM   20  C12 UNL     1      -3.752   2.363  -2.904  1.00  0.00     0.145 C 
HETATM   21  N3  UNL     1      -4.103   4.663  -1.333  1.00  0.00    -0.374 N 
HETATM   22  N4  UNL     1      -6.320   4.108  -0.852  1.00  0.00    -0.064 NA
ATOM     23  H32 UNL     1      -3.180   4.424  -1.695  1.00  0.00     0.158 HD
ATOM     24  H31 UNL     1      -4.312   5.586  -0.952  1.00  0.00     0.158 HD
HETATM   25  C13 UNL     1      -2.893   1.127  -2.783  1.00  0.00     0.144 C 
ENDBRANCH   9  15
BRANCH  11  26
HETATM   26  N6  UNL     1       0.551  -1.423  -0.321  1.00  0.00    -0.226 N 
ATOM     27  H6  UNL     1       1.060  -2.046   0.306  1.00  0.00     0.177 HD
BRANCH  26  28
HETATM   28  C15 UNL     1       1.295  -0.525  -1.205  1.00  0.00     0.142 C 
BRANCH  28  29
HETATM   29  C16 UNL     1       1.739   0.676  -0.359  1.00  0.00     0.007 C 
HETATM   30  C17 UNL     1       2.513   1.661  -1.177  1.00  0.00     0.036 C 
HETATM   31  C18 UNL     1       3.941   1.327  -1.368  1.00  0.00     0.273 C 
HETATM   32  N7  UNL     1       4.474   0.343  -0.464  1.00  0.00     0.093 N 
HETATM   33  C25 UNL     1       3.925   0.393   0.850  1.00  0.00     0.273 C 
HETATM   34  C26 UNL     1       2.450   0.216   0.873  1.00  0.00     0.036 C 
BRANCH  32  35
HETATM   35  C19 UNL     1       5.898   0.376  -0.513  1.00  0.00     0.223 C 
HETATM   36  C20 UNL     1       6.515   1.683  -0.069  1.00  0.00     0.036 C 
HETATM   37  C21 UNL     1       7.538   1.481   1.023  1.00  0.00     0.002 C 
HETATM   38  C22 UNL     1       8.570   0.452   0.720  1.00  0.00     0.000 C 
HETATM   39  C23 UNL     1       8.012  -0.710  -0.065  1.00  0.00     0.002 C 
HETATM   40  C24 UNL     1       6.529  -0.796   0.247  1.00  0.00     0.036 C 
ENDBRANCH  32  35
ENDBRANCH  28  29
ENDBRANCH  26  28
ENDBRANCH  11  26
ENDBRANCH   6   7
ENDBRANCH   4   6
ENDBRANCH   3   4
TORSDOF 8
