REMARK  7 active torsions:
REMARK  status: ('A' for Active; 'I' for Inactive)
REMARK    1  A    between atoms: O1_2  and  C2_3 
REMARK    2  A    between atoms: C7_8  and  O2_9 
REMARK    3  A    between atoms: N1_13  and  C10_14 
REMARK    4  A    between atoms: C10_14  and  C11_15 
REMARK    5  A    between atoms: C11_15  and  C12_16 
REMARK    6  A    between atoms: C13_17  and  C14_18 
REMARK    7  A    between atoms: C17_23  and  N3_24 
REMARK       I    between atoms: C18_26  and  N5_28 
ROOT
HETATM    1  C11 UNL     1       0.612  -0.714   1.036  1.00  0.00     0.196 C 
HETATM    2  N6  UNL     1       0.596  -1.841   0.164  1.00  0.00    -0.313 N 
ATOM      3  H6  UNL     1      -0.007  -1.957  -0.650  1.00  0.00     0.166 HD
HETATM    4  C22 UNL     1       1.559  -2.771   0.620  1.00  0.00     0.324 C 
HETATM    5  O4  UNL     1       2.026  -3.785   0.032  1.00  0.00    -0.247 OA
HETATM    6  N7  UNL     1       1.956  -2.364   1.948  1.00  0.00    -0.276 N 
ATOM      7  H7  UNL     1       2.639  -2.838   2.538  1.00  0.00     0.173 HD
HETATM    8  C23 UNL     1       1.240  -1.202   2.289  1.00  0.00     0.268 C 
HETATM    9  O5  UNL     1       1.141  -0.680   3.399  1.00  0.00    -0.269 OA
ENDROOT
BRANCH   1  10
HETATM   10  C10 UNL     1       1.243   0.522   0.510  1.00  0.00     0.181 C 
BRANCH  10  11
HETATM   11  N1  UNL     1       2.622   0.429   0.119  1.00  0.00    -0.340 N 
HETATM   12  C9  UNL     1       3.744   0.646   0.958  1.00  0.00     0.254 A 
HETATM   13  C5  UNL     1       4.929   0.428   0.142  1.00  0.00     0.043 A 
HETATM   14  O3  UNL     1       3.792   0.966   2.169  1.00  0.00    -0.267 OA
HETATM   15  C4  UNL     1       4.573   0.093  -1.143  1.00  0.00    -0.022 A 
HETATM   16  C6  UNL     1       6.289   0.494   0.478  1.00  0.00     0.057 A 
HETATM   17  C3  UNL     1       5.539  -0.177  -2.101  1.00  0.00     0.049 A 
HETATM   18  C24 UNL     1       3.089   0.115  -1.210  1.00  0.00     0.165 A 
HETATM   19  C2  UNL     1       6.856  -0.102  -1.732  1.00  0.00     0.102 A 
HETATM   20  C7  UNL     1       7.261   0.229  -0.462  1.00  0.00     0.102 A 
BRANCH  19  21
HETATM   21  O1  UNL     1       7.850  -0.373  -2.689  1.00  0.00    -0.353 OA
HETATM   22  C1  UNL     1       7.519  -0.721  -4.019  1.00  0.00     0.210 C 
ENDBRANCH  19  21
BRANCH  20  23
HETATM   23  O2  UNL     1       8.600   0.298  -0.113  1.00  0.00    -0.353 OA
HETATM   24  C8  UNL     1       9.055   0.629   1.166  1.00  0.00     0.210 C 
ENDBRANCH  20  23
ENDBRANCH  10  11
ENDBRANCH   1  10
BRANCH   1  25
HETATM   25  C12 UNL     1      -0.807  -0.322   1.333  1.00  0.00    -0.057 C 
HETATM   26  C13 UNL     1      -1.953  -0.029   1.567  1.00  0.00    -0.062 C 
BRANCH  26  27
HETATM   27  C14 UNL     1      -3.326   0.299   1.832  1.00  0.00     0.035 A 
HETATM   28  C15 UNL     1      -3.733   1.047   2.919  1.00  0.00     0.108 A 
HETATM   29  N2  UNL     1      -5.023   1.341   3.149  1.00  0.00    -0.372 N 
HETATM   30  C16 UNL     1      -6.009   0.929   2.338  1.00  0.00     0.117 A 
ATOM     31  H2  UNL     1      -5.262   1.898   3.970  1.00  0.00     0.164 HD
HETATM   32  C17 UNL     1      -5.687   0.177   1.229  1.00  0.00     0.051 A 
HETATM   33  C21 UNL     1      -4.335  -0.127   0.996  1.00  0.00     0.053 A 
BRANCH  32  34
HETATM   34  N3  UNL     1      -6.697  -0.261   0.364  1.00  0.00    -0.329 N 
HETATM   35  C18 UNL     1      -7.607   0.484  -0.130  1.00  0.00     0.190 C 
HETATM   36  N4  UNL     1      -7.667   1.859   0.167  1.00  0.00    -0.063 NA
HETATM   37  N5  UNL     1      -8.562  -0.126  -0.995  1.00  0.00    -0.364 N 
HETATM   38  C19 UNL     1      -9.845  -0.540  -0.505  1.00  0.00     0.151 C 
HETATM   39  C20 UNL     1      -8.187  -0.308  -2.376  1.00  0.00     0.151 C 
ATOM     40  H3  UNL     1      -6.706  -1.249   0.110  1.00  0.00     0.168 HD
ENDBRANCH  32  34
ENDBRANCH  26  27
ENDBRANCH   1  25
TORSDOF 7
