REMARK  6 active torsions:
REMARK  status: ('A' for Active; 'I' for Inactive)
REMARK    1  A    between atoms: N2_10  and  C8_11 
REMARK    2  A    between atoms: C10_13  and  O2_14 
REMARK    3  A    between atoms: C12_16  and  O3_17 
REMARK    4  A    between atoms: C14_19  and  O4_20 
REMARK    5  A    between atoms: C19_25  and  C20_26 
REMARK    6  A    between atoms: C22_33  and  O6_34 
ROOT
HETATM    1  C1  UNL     1       1.324   2.944  -0.459  1.00  0.00     0.024 C 
HETATM    2  C2  UNL     1       1.395   1.742   0.041  1.00  0.00    -0.033 C 
HETATM    3  C3  UNL     1       0.204   0.864  -0.008  1.00  0.00     0.044 C 
HETATM    4  C4  UNL     1       0.137  -0.449   0.280  1.00  0.00     0.072 A 
HETATM    5  C5  UNL     1       1.090  -1.351   0.685  1.00  0.00     0.066 A 
HETATM    6  N1  UNL     1       0.510  -2.552   0.906  1.00  0.00    -0.301 N 
HETATM    7  C6  UNL     1       1.058  -3.793   1.336  1.00  0.00     0.161 C 
HETATM    8  C7  UNL     1      -0.813  -2.382   0.631  1.00  0.00     0.334 A 
HETATM    9  O1  UNL     1      -1.706  -3.278   0.717  1.00  0.00    -0.246 OA
HETATM   10  N2  UNL     1      -1.031  -1.110   0.254  1.00  0.00    -0.262 N 
HETATM   11  C17 UNL     1       2.409  -1.217   0.828  1.00  0.00     0.044 C 
HETATM   12  C18 UNL     1       3.249   0.012   0.570  1.00  0.00    -0.021 C 
HETATM   13  C19 UNL     1       4.462  -0.171   0.231  1.00  0.00     0.046 C 
HETATM   14  C23 UNL     1       2.676   1.339   0.657  1.00  0.00    -0.026 C 
HETATM   15  C24 UNL     1       3.299   2.276   1.306  1.00  0.00     0.025 C 
ENDROOT
BRANCH  10  16
HETATM   16  C8  UNL     1      -2.316  -0.604  -0.100  1.00  0.00     0.050 A 
HETATM   17  C9  UNL     1      -3.281  -0.611   0.904  1.00  0.00     0.070 A 
HETATM   18  C10 UNL     1      -4.559  -0.151   0.698  1.00  0.00     0.106 A 
HETATM   19  C12 UNL     1      -4.898   0.334  -0.542  1.00  0.00     0.135 A 
HETATM   20  C14 UNL     1      -3.929   0.342  -1.554  1.00  0.00     0.106 A 
HETATM   21  C16 UNL     1      -2.653  -0.121  -1.335  1.00  0.00     0.070 A 
BRANCH  18  22
HETATM   22  O2  UNL     1      -5.513  -0.163   1.707  1.00  0.00    -0.353 OA
HETATM   23  C11 UNL     1      -5.209  -0.657   3.003  1.00  0.00     0.210 C 
ENDBRANCH  18  22
BRANCH  19  24
HETATM   24  O3  UNL     1      -6.160   0.819  -0.845  1.00  0.00    -0.351 OA
HETATM   25  C13 UNL     1      -7.122  -0.093  -1.335  1.00  0.00     0.210 C 
ENDBRANCH  19  24
BRANCH  20  26
HETATM   26  O4  UNL     1      -4.317   0.837  -2.777  1.00  0.00    -0.353 OA
HETATM   27  C15 UNL     1      -3.436   0.895  -3.863  1.00  0.00     0.210 C 
ENDBRANCH  20  26
ENDBRANCH  10  16
BRANCH  13  28
HETATM   28  C20 UNL     1       5.628   0.587  -0.116  1.00  0.00     0.088 A 
HETATM   29  N3  UNL     1       6.430   1.439   0.493  1.00  0.00    -0.305 N 
HETATM   30  C21 UNL     1       7.386   1.887  -0.336  1.00  0.00     0.326 A 
ATOM     31  H3  UNL     1       6.336   1.721   1.469  1.00  0.00     0.171 HD
HETATM   32  O5  UNL     1       8.303   2.707  -0.065  1.00  0.00    -0.247 OA
HETATM   33  N4  UNL     1       7.228   1.322  -1.539  1.00  0.00    -0.287 N 
HETATM   34  C22 UNL     1       6.166   0.522  -1.445  1.00  0.00     0.171 A 
ATOM     35  H4  UNL     1       7.807   1.474  -2.365  1.00  0.00     0.172 HD
BRANCH  34  36
HETATM   36  O6  UNL     1       5.679  -0.244  -2.488  1.00  0.00    -0.344 OA
ATOM     37  H6  UNL     1       6.035  -0.287  -3.368  1.00  0.00     0.219 HD
ENDBRANCH  34  36
ENDBRANCH  13  28
TORSDOF 6
