REMARK  8 active torsions:
REMARK  status: ('A' for Active; 'I' for Inactive)
REMARK    1  A    between atoms: C2_2  and  S1_3 
REMARK    2  A    between atoms: S1_3  and  N1_6 
REMARK    3  A    between atoms: C10_14  and  O3_15 
REMARK    4  A    between atoms: C11_17  and  N2_18 
REMARK    5  A    between atoms: N2_18  and  C12_20 
REMARK    6  A    between atoms: C15_25  and  N4_26 
REMARK    7  A    between atoms: N4_26  and  C16_28 
REMARK    8  A    between atoms: C16_28  and  C17_29 
ROOT
HETATM    1  N1  UNL     1      -6.028   0.013  -0.477  1.00  0.00    -0.206 NA
HETATM    2  C3  UNL     1      -5.638  -1.383  -0.555  1.00  0.00     0.112 C 
HETATM    3  C4  UNL     1      -4.272  -1.665  -0.035  1.00  0.00     0.057 C 
HETATM    4  C5  UNL     1      -3.429  -0.437   0.023  1.00  0.00    -0.015 A 
HETATM    5  C6  UNL     1      -3.800   0.744  -0.577  1.00  0.00    -0.032 A 
HETATM    6  C7  UNL     1      -3.001   1.866  -0.507  1.00  0.00     0.046 A 
HETATM    7  C8  UNL     1      -1.791   1.854   0.170  1.00  0.00     0.080 A 
HETATM    8  C9  UNL     1      -1.420   0.673   0.771  1.00  0.00     0.034 A 
HETATM    9  C10 UNL     1      -2.224  -0.447   0.697  1.00  0.00     0.083 A 
HETATM   10  C11 UNL     1      -0.103   0.938   1.410  1.00  0.00     0.146 C 
HETATM   11  C21 UNL     1      -0.175   2.424   1.632  1.00  0.00     0.206 C 
HETATM   12  O5  UNL     1      -0.797   2.825   0.399  1.00  0.00    -0.348 OA
HETATM   13  C22 UNL     1      -5.091   0.756  -1.300  1.00  0.00     0.146 C 
ENDROOT
BRANCH  10  14
HETATM   14  N2  UNL     1       0.921   0.543   0.501  1.00  0.00    -0.365 N 
ATOM     15  H2  UNL     1       0.676   0.550  -0.489  1.00  0.00     0.162 HD
BRANCH  14  16
HETATM   16  C12 UNL     1       2.120   0.179   0.790  1.00  0.00     0.118 A 
HETATM   17  C13 UNL     1       2.606   0.115   2.079  1.00  0.00     0.066 A 
HETATM   18  C14 UNL     1       3.901  -0.287   2.324  1.00  0.00     0.110 A 
HETATM   19  N3  UNL     1       4.723  -0.627   1.307  1.00  0.00    -0.202 N 
HETATM   20  C15 UNL     1       4.235  -0.560   0.056  1.00  0.00     0.679 A 
ATOM     21  H3  UNL     1       5.683  -0.925   1.483  1.00  0.00     0.183 HD
HETATM   22  N5  UNL     1       2.964  -0.167  -0.197  1.00  0.00    -0.177 N 
ATOM     23  H5  UNL     1       2.638  -0.133  -1.163  1.00  0.00     0.185 HD
BRANCH  20  24
HETATM   24  N4  UNL     1       5.021  -0.890  -0.937  1.00  0.00    -0.226 N 
ATOM     25  H4  UNL     1       4.639  -0.835  -1.881  1.00  0.00     0.177 HD
BRANCH  24  26
HETATM   26  C16 UNL     1       6.376  -1.322  -0.794  1.00  0.00     0.144 C 
BRANCH  26  27
HETATM   27  C17 UNL     1       7.291  -0.138  -0.678  1.00  0.00     0.030 C 
HETATM   28  C18 UNL     1       8.747  -0.567  -0.525  1.00  0.00     0.034 C 
HETATM   29  C19 UNL     1       9.437   0.567  -1.292  1.00  0.00     0.168 C 
HETATM   30  O4  UNL     1       8.638   0.609  -2.439  1.00  0.00    -0.391 OA
HETATM   31  C20 UNL     1       7.341   0.599  -1.996  1.00  0.00     0.173 C 
ENDBRANCH  26  27
ENDBRANCH  24  26
ENDBRANCH  20  24
ENDBRANCH  14  16
ENDBRANCH  10  14
BRANCH   9  32
HETATM   32  O3  UNL     1      -1.829  -1.648   1.317  1.00  0.00    -0.359 OA
ATOM     33  H3  UNL     1      -1.000  -1.655   1.781  1.00  0.00     0.217 HD
ENDBRANCH   9  32
BRANCH   1  34
HETATM   34  S1  UNL     1      -7.599   0.194  -1.148  1.00  0.00     0.211 S 
HETATM   35  O1  UNL     1      -8.026   1.635  -1.129  1.00  0.00    -0.211 OA
HETATM   36  O2  UNL     1      -7.619  -0.257  -2.581  1.00  0.00    -0.211 OA
BRANCH  34  37
HETATM   37  C2  UNL     1      -8.812  -0.742  -0.252  1.00  0.00     0.153 C 
HETATM   38  C1  UNL     1      -8.886  -0.300   1.199  1.00  0.00     0.022 C 
ENDBRANCH  34  37
ENDBRANCH   1  34
TORSDOF 8
