REMARK  16 active torsions:
REMARK  status: ('A' for Active; 'I' for Inactive)
REMARK    1  A    between atoms: C2_2  and  C3_3 
REMARK    2  A    between atoms: C3_3  and  C4_4 
REMARK    3  A    between atoms: C4_4  and  N1_5 
REMARK    4  A    between atoms: N1_5  and  C5_7 
REMARK    5  A    between atoms: C6_10  and  N3_11 
REMARK    6  A    between atoms: N3_11  and  C7_13 
REMARK    7  A    between atoms: C9_15  and  O1_16 
REMARK    8  A    between atoms: O1_16  and  C10_17 
REMARK    9  A    between atoms: C17_24  and  C18_25 
REMARK   10  A    between atoms: C18_25  and  O2_26 
REMARK   11  A    between atoms: C18_25  and  N4_28 
REMARK   12  A    between atoms: N5_31  and  C21_32 
REMARK   13  A    between atoms: C21_32  and  C22_33 
REMARK   14  A    between atoms: C22_33  and  O3_34 
REMARK   15  A    between atoms: C26_41  and  N7_42 
REMARK   16  A    between atoms: N7_42  and  C27_44 
ROOT
HETATM    1  C7  UNL     1       0.515  -0.734   1.414  1.00  0.00     0.052 A 
HETATM    2  C8  UNL     1       0.836   0.628   1.426  1.00  0.00     0.066 A 
HETATM    3  C9  UNL     1       2.065   1.060   1.009  1.00  0.00     0.072 A 
HETATM    4  C16 UNL     1       2.970   0.082   0.577  1.00  0.00     0.052 A 
HETATM    5  C17 UNL     1       2.732  -1.254   0.537  1.00  0.00     0.019 A 
HETATM    6  C25 UNL     1       1.452  -1.643   0.976  1.00  0.00     0.046 A 
ENDROOT
BRANCH   1   7
HETATM    7  N3  UNL     1      -0.752  -1.204   1.844  1.00  0.00    -0.191 N 
ATOM      8  H3  UNL     1      -0.795  -1.681   2.745  1.00  0.00     0.184 HD
BRANCH   7   9
HETATM    9  C6  UNL     1      -1.849  -1.077   1.190  1.00  0.00     0.711 A 
HETATM   10  N2  UNL     1      -2.998  -1.581   1.729  1.00  0.00    -0.021 N 
HETATM   11  C5  UNL     1      -4.182  -1.495   1.128  1.00  0.00     0.707 A 
ATOM     12  H2  UNL     1      -2.946  -2.046   2.636  1.00  0.00     0.203 HD
HETATM   13  N8  UNL     1      -4.264  -0.872  -0.093  1.00  0.00    -0.022 N 
HETATM   14  C26 UNL     1      -3.165  -0.364  -0.660  1.00  0.00     0.707 A 
ATOM     15  H8  UNL     1      -5.164  -0.797  -0.568  1.00  0.00     0.203 HD
HETATM   16  N6  UNL     1      -1.976  -0.480   0.001  1.00  0.00    -0.021 N 
ATOM     17  H6  UNL     1      -1.141  -0.090  -0.436  1.00  0.00     0.203 HD
BRANCH  11  18
HETATM   18  N1  UNL     1      -5.284  -1.962   1.597  1.00  0.00    -0.225 N 
ATOM     19  H1  UNL     1      -6.109  -1.815   1.016  1.00  0.00     0.177 HD
BRANCH  18  20
HETATM   20  C4  UNL     1      -5.506  -2.654   2.814  1.00  0.00     0.138 C 
BRANCH  20  21
HETATM   21  C3  UNL     1      -6.262  -1.818   3.839  1.00  0.00     0.020 C 
BRANCH  21  22
HETATM   22  C2  UNL     1      -6.414  -2.689   5.088  1.00  0.00    -0.003 C 
HETATM   23  C1  UNL     1      -7.171  -3.957   4.812  1.00  0.00     0.005 C 
ENDBRANCH  21  22
ENDBRANCH  20  21
ENDBRANCH  18  20
ENDBRANCH  11  18
BRANCH  14  24
HETATM   24  N7  UNL     1      -3.222   0.217  -1.796  1.00  0.00    -0.220 N 
ATOM     25  H7  UNL     1      -2.368   0.595  -2.206  1.00  0.00     0.178 HD
BRANCH  24  26
HETATM   26  C27 UNL     1      -4.462   0.350  -2.508  1.00  0.00     0.099 C 
HETATM   27  C28 UNL     1      -4.210   0.631  -3.988  1.00  0.00     0.026 C 
HETATM   28  C29 UNL     1      -5.468   1.127  -4.652  1.00  0.00     0.002 C 
HETATM   29  C30 UNL     1      -5.820   2.478  -4.111  1.00  0.00     0.000 C 
HETATM   30  C31 UNL     1      -5.219   2.723  -2.741  1.00  0.00     0.002 C 
HETATM   31  C32 UNL     1      -5.289   1.465  -1.894  1.00  0.00     0.026 C 
ENDBRANCH  24  26
ENDBRANCH  14  24
ENDBRANCH   7   9
ENDBRANCH   1   7
BRANCH   3  32
HETATM   32  O1  UNL     1       2.395   2.381   1.014  1.00  0.00    -0.346 OA
BRANCH  32  33
HETATM   33  C10 UNL     1       1.691   3.492   1.407  1.00  0.00     0.129 C 
HETATM   34  C11 UNL     1       1.419   4.436   0.252  1.00  0.00     0.032 C 
HETATM   35  C12 UNL     1       1.819   5.839   0.540  1.00  0.00     0.002 C 
HETATM   36  C13 UNL     1       1.251   6.383   1.837  1.00  0.00     0.000 C 
HETATM   37  C14 UNL     1       1.349   5.353   2.945  1.00  0.00     0.002 C 
HETATM   38  C15 UNL     1       2.360   4.285   2.507  1.00  0.00     0.032 C 
ENDBRANCH  32  33
ENDBRANCH   3  32
BRANCH   5  39
HETATM   39  C18 UNL     1       3.646  -2.291   0.120  1.00  0.00     0.148 C 
BRANCH  39  40
HETATM   40  O2  UNL     1       3.127  -3.494   0.120  1.00  0.00    -0.346 OA
ATOM     41  H2  UNL     1       3.728  -4.176  -0.154  1.00  0.00     0.219 HD
ENDBRANCH  39  40
BRANCH  39  42
HETATM   42  N4  UNL     1       4.967  -2.262  -0.278  1.00  0.00    -0.358 N 
HETATM   43  C19 UNL     1       5.620  -3.525  -0.652  1.00  0.00     0.145 C 
HETATM   44  C20 UNL     1       6.202  -3.286  -2.057  1.00  0.00     0.141 C 
HETATM   45  N5  UNL     1       7.227  -2.316  -1.934  1.00  0.00    -0.388 N 
HETATM   46  C23 UNL     1       7.237  -1.549  -0.743  1.00  0.00     0.141 C 
HETATM   47  C24 UNL     1       5.807  -1.116  -0.355  1.00  0.00     0.145 C 
BRANCH  45  48
HETATM   48  C21 UNL     1       8.461  -2.714  -2.473  1.00  0.00     0.084 C 
BRANCH  48  49
HETATM   49  C22 UNL     1       8.531  -2.802  -3.960  1.00  0.00     0.208 C 
BRANCH  49  50
HETATM   50  O3  UNL     1       7.647  -3.686  -4.512  1.00  0.00    -0.396 OA
ATOM     51  H3  UNL     1       7.692  -3.742  -5.459  1.00  0.00     0.209 HD
ENDBRANCH  49  50
ENDBRANCH  48  49
ENDBRANCH  45  48
ENDBRANCH  39  42
ENDBRANCH   5  39
TORSDOF 16
