REMARK  13 active torsions:
REMARK  status: ('A' for Active; 'I' for Inactive)
REMARK    1  A    between atoms: C3_3  and  O1_4 
REMARK    2  A    between atoms: O1_4  and  C4_5 
REMARK    3  A    between atoms: C8_10  and  O3_11 
REMARK    4  A    between atoms: O3_11  and  C9_12 
REMARK    5  A    between atoms: C9_12  and  C10_13 
REMARK    6  A    between atoms: C10_13  and  N1_14 
REMARK    7  A    between atoms: C14_18  and  C15_19 
REMARK    8  A    between atoms: C15_19  and  C16_20 
REMARK    9  A    between atoms: C21_27  and  O4_28 
REMARK   10  A    between atoms: C24_32  and  N3_33 
REMARK       I    between atoms: N3_33  and  C25_35 
REMARK   11  A    between atoms: C25_35  and  C26_37 
REMARK   12  A    between atoms: C30_41  and  C31_42 
REMARK   13  A    between atoms: C31_42  and  O6_43 
ROOT
HETATM    1  C1  UNL     1       1.496  -0.822   5.825  1.00  0.00     0.014 C 
HETATM    2  C2  UNL     1       1.548  -0.043   4.897  1.00  0.00    -0.091 C 
HETATM    3  C3  UNL     1       1.640   0.922   3.772  1.00  0.00     0.260 C 
ENDROOT
BRANCH   3   4
HETATM    4  O1  UNL     1       0.400   1.349   3.347  1.00  0.00    -0.374 OA
BRANCH   4   5
HETATM    5  C4  UNL     1      -0.337   0.298   2.874  1.00  0.00     0.133 C 
HETATM    6  C5  UNL     1      -1.552   0.033   3.807  1.00  0.00     0.058 C 
HETATM    7  C6  UNL     1      -2.783  -0.234   2.997  1.00  0.00     0.171 C 
HETATM    8  O2  UNL     1      -2.625  -1.096   1.949  1.00  0.00    -0.383 OA
HETATM    9  C7  UNL     1      -1.559  -0.816   1.121  1.00  0.00     0.159 C 
HETATM   10  C8  UNL     1      -1.936  -0.578  -0.305  1.00  0.00     0.157 C 
HETATM   11  C35 UNL     1      -0.970   0.516   1.548  1.00  0.00     0.069 C 
HETATM   12  C14 UNL     1      -1.051   0.608  -0.757  1.00  0.00     0.045 C 
HETATM   13  C24 UNL     1      -0.102   0.824   0.391  1.00  0.00     0.100 C 
BRANCH  10  14
HETATM   14  O3  UNL     1      -1.683  -1.684  -1.107  1.00  0.00    -0.381 OA
BRANCH  14  15
HETATM   15  C9  UNL     1      -2.776  -2.196  -1.748  1.00  0.00     0.196 C 
BRANCH  15  16
HETATM   16  C10 UNL     1      -3.873  -2.680  -0.845  1.00  0.00     0.262 C 
BRANCH  16  17
HETATM   17  N1  UNL     1      -4.975  -3.205  -1.642  1.00  0.00    -0.077 N 
HETATM   18  C11 UNL     1      -5.899  -2.179  -2.048  1.00  0.00     0.271 C 
HETATM   19  C12 UNL     1      -5.713  -4.112  -0.746  1.00  0.00     0.271 C 
HETATM   20  C13 UNL     1      -4.490  -3.980  -2.764  1.00  0.00     0.271 C 
ENDBRANCH  16  17
ENDBRANCH  15  16
ENDBRANCH  14  15
ENDBRANCH  10  14
BRANCH  12  21
HETATM   21  C15 UNL     1      -1.968   1.687  -1.145  1.00  0.00     0.050 C 
BRANCH  21  22
HETATM   22  C16 UNL     1      -1.435   2.954  -1.606  1.00  0.00    -0.030 A 
HETATM   23  C17 UNL     1      -1.122   3.229  -2.933  1.00  0.00     0.096 A 
HETATM   24  N2  UNL     1      -0.599   4.465  -3.034  1.00  0.00    -0.365 N 
HETATM   25  C18 UNL     1      -0.572   4.987  -1.792  1.00  0.00     0.043 A 
ATOM     26  H2  UNL     1      -0.283   4.921  -3.890  1.00  0.00     0.165 HD
HETATM   27  C19 UNL     1      -0.146   6.224  -1.364  1.00  0.00     0.033 A 
HETATM   28  C23 UNL     1      -1.089   4.064  -0.892  1.00  0.00     0.001 A 
HETATM   29  C20 UNL     1      -0.230   6.567  -0.019  1.00  0.00     0.039 A 
HETATM   30  C21 UNL     1      -0.739   5.677   0.907  1.00  0.00     0.066 A 
HETATM   31  C22 UNL     1      -1.152   4.455   0.444  1.00  0.00     0.050 A 
BRANCH  30  32
HETATM   32  O4  UNL     1      -0.834   5.997   2.261  1.00  0.00    -0.361 OA
ATOM     33  H4  UNL     1      -1.184   5.385   2.898  1.00  0.00     0.217 HD
ENDBRANCH  30  32
ENDBRANCH  21  22
ENDBRANCH  12  21
BRANCH  13  34
HETATM   34  N3  UNL     1       1.067  -0.042   0.247  1.00  0.00    -0.353 N 
HETATM   35  C25 UNL     1       2.301   0.549  -0.093  1.00  0.00     0.253 C 
HETATM   36  O5  UNL     1       2.327   1.812  -0.258  1.00  0.00    -0.270 OA
ATOM     37  H3  UNL     1       0.992  -1.049   0.389  1.00  0.00     0.163 HD
BRANCH  35  38
HETATM   38  C26 UNL     1       3.542  -0.165  -0.271  1.00  0.00     0.148 C 
HETATM   39  C27 UNL     1       4.676   0.373   0.624  1.00  0.00     0.056 C 
HETATM   40  C28 UNL     1       5.680  -0.678   0.109  1.00  0.00     0.023 C 
HETATM   41  C29 UNL     1       5.635  -0.401  -1.360  1.00  0.00     0.018 C 
HETATM   42  C32 UNL     1       4.826  -1.901   0.372  1.00  0.00     0.059 C 
HETATM   43  C30 UNL     1       4.210   0.079  -1.625  1.00  0.00     0.054 C 
HETATM   44  C33 UNL     1       5.332  -3.133  -0.284  1.00  0.00     0.046 C 
HETATM   45  C34 UNL     1       4.740  -2.107   1.857  1.00  0.00     0.046 C 
HETATM   46  O7  UNL     1       3.545  -1.516  -0.070  1.00  0.00    -0.359 OA
BRANCH  43  47
HETATM   47  C31 UNL     1       3.532  -0.703  -2.716  1.00  0.00     0.172 C 
BRANCH  47  48
HETATM   48  O6  UNL     1       4.172  -0.449  -3.911  1.00  0.00    -0.400 OA
ATOM     49  H6  UNL     1       3.744  -0.943  -4.600  1.00  0.00     0.209 HD
ENDBRANCH  47  48
ENDBRANCH  43  47
ENDBRANCH  35  38
ENDBRANCH  13  34
ENDBRANCH   4   5
ENDBRANCH   3   4
TORSDOF 13
