REMARK  14 active torsions:
REMARK  status: ('A' for Active; 'I' for Inactive)
REMARK    1  A    between atoms: C2_2  and  O1_3 
REMARK    2  A    between atoms: O1_3  and  C3_4 
REMARK       I    between atoms: C3_4  and  N1_6 
REMARK       I    between atoms: C4_8  and  N2_9 
REMARK       I    between atoms: C4_8  and  N7_38 
REMARK    3  A    between atoms: N2_9  and  C5_11 
REMARK    4  A    between atoms: C5_11  and  C6_12 
REMARK    5  A    between atoms: C6_12  and  C7_13 
REMARK    6  A    between atoms: C7_13  and  N3_14 
REMARK    7  A    between atoms: N4_17  and  C10_18 
REMARK    8  A    between atoms: C10_18  and  N5_20 
REMARK    9  A    between atoms: N5_20  and  C11_22 
REMARK   10  A    between atoms: C19_31  and  O4_32 
REMARK   11  A    between atoms: O4_32  and  C20_33 
REMARK   12  A    between atoms: N7_38  and  C23_40 
REMARK   13  A    between atoms: C23_40  and  C24_41 
REMARK   14  A    between atoms: C24_41  and  C25_42 
ROOT
HETATM    1  N3  UNL     1      -0.095  -0.160   1.132  1.00  0.00     0.091 N 
HETATM    2  C8  UNL     1      -1.167   0.038   2.114  1.00  0.00     0.292 C 
HETATM    3  C9  UNL     1      -2.171   1.079   1.664  1.00  0.00     0.155 C 
HETATM    4  N4  UNL     1      -2.945   0.379   0.626  1.00  0.00    -0.355 N 
HETATM    5  C21 UNL     1      -2.148  -0.587  -0.105  1.00  0.00     0.155 C 
HETATM    6  C22 UNL     1      -0.728  -0.010  -0.177  1.00  0.00     0.292 C 
ENDROOT
BRANCH   1   7
HETATM    7  C7  UNL     1       0.425  -1.471   1.327  1.00  0.00     0.274 C 
BRANCH   7   8
HETATM    8  C6  UNL     1       1.824  -1.779   1.016  1.00  0.00     0.050 C 
BRANCH   8   9
HETATM    9  C5  UNL     1       2.426  -1.550  -0.302  1.00  0.00     0.140 C 
BRANCH   9  10
HETATM   10  N2  UNL     1       2.571  -0.204  -0.764  1.00  0.00    -0.226 N 
HETATM   11  C4  UNL     1       3.462   0.748  -0.181  1.00  0.00     0.678 C 
HETATM   12  N1  UNL     1       3.143   1.495   0.802  1.00  0.00    -0.136 N 
HETATM   13  N7  UNL     1       4.764   0.855  -0.736  1.00  0.00    -0.226 N 
HETATM   14  C3  UNL     1       4.036   2.423   1.359  1.00  0.00     0.379 C 
ATOM     15  H1  UNL     1       2.206   1.415   1.197  1.00  0.00     0.189 HD
HETATM   16  O2  UNL     1       3.797   3.672   1.251  1.00  0.00    -0.238 OA
ATOM     17  H7  UNL     1       5.179   1.769  -0.915  1.00  0.00     0.177 HD
ATOM     18  H2  UNL     1       2.004   0.094  -1.558  1.00  0.00     0.177 HD
BRANCH  14  19
HETATM   19  O1  UNL     1       5.194   2.074   2.037  1.00  0.00    -0.304 OA
BRANCH  19  20
HETATM   20  C2  UNL     1       6.033   3.078   2.565  1.00  0.00     0.176 C 
HETATM   21  C1  UNL     1       7.234   2.529   3.263  1.00  0.00     0.034 C 
ENDBRANCH  19  20
ENDBRANCH  14  19
BRANCH  13  22
HETATM   22  C23 UNL     1       5.487  -0.353  -1.041  1.00  0.00     0.138 C 
BRANCH  22  23
HETATM   23  C24 UNL     1       6.845   0.046  -1.586  1.00  0.00     0.025 C 
BRANCH  23  24
HETATM   24  C25 UNL     1       7.685  -1.143  -1.936  1.00  0.00    -0.013 C 
HETATM   25  C26 UNL     1       9.015  -0.654  -2.465  1.00  0.00     0.005 C 
HETATM   26  C27 UNL     1      10.131  -0.952  -1.469  1.00  0.00     0.000 C 
HETATM   27  C28 UNL     1       9.735  -0.583  -0.077  1.00  0.00     0.000 C 
HETATM   28  C29 UNL     1       8.495  -1.311   0.378  1.00  0.00     0.000 C 
HETATM   29  C30 UNL     1       7.927  -2.071  -0.792  1.00  0.00     0.005 C 
ENDBRANCH  23  24
ENDBRANCH  22  23
ENDBRANCH  13  22
ENDBRANCH   9  10
ENDBRANCH   8   9
ENDBRANCH   7   8
ENDBRANCH   1   7
BRANCH   4  30
HETATM   30  C10 UNL     1      -4.307   0.629   0.403  1.00  0.00     0.170 C 
HETATM   31  S1  UNL     1      -4.967   1.773   1.336  1.00  0.00    -0.041 SA
BRANCH  30  32
HETATM   32  N5  UNL     1      -5.028  -0.034  -0.569  1.00  0.00    -0.357 N 
ATOM     33  H5  UNL     1      -4.440  -0.689  -1.085  1.00  0.00     0.162 HD
BRANCH  32  34
HETATM   34  C11 UNL     1      -6.350  -0.053  -1.041  1.00  0.00     0.046 C 
HETATM   35  C12 UNL     1      -6.257  -0.552  -2.511  1.00  0.00     0.040 C 
HETATM   36  C13 UNL     1      -7.185   1.185  -0.923  1.00  0.00     0.068 C 
HETATM   37  C14 UNL     1      -8.201   1.056  -2.078  1.00  0.00     0.177 C 
HETATM   38  C19 UNL     1      -8.068   1.043   0.322  1.00  0.00     0.142 C 
HETATM   39  O3  UNL     1      -8.907  -0.086  -1.999  1.00  0.00    -0.390 OA
HETATM   40  C15 UNL     1      -8.540  -1.145  -1.277  1.00  0.00     0.179 C 
HETATM   41  C16 UNL     1      -7.304  -1.029  -0.395  1.00  0.00     0.005 C 
HETATM   42  C17 UNL     1      -6.781  -2.392  -0.186  1.00  0.00     0.020 C 
HETATM   43  C18 UNL     1      -7.789  -0.323   0.858  1.00  0.00     0.047 C 
BRANCH  38  44
HETATM   44  O4  UNL     1      -9.467   1.038  -0.033  1.00  0.00    -0.300 OA
BRANCH  44  45
HETATM   45  C20 UNL     1     -10.384   1.926   0.465  1.00  0.00     0.373 C 
HETATM   46  N6  UNL     1     -11.759   1.911   0.109  1.00  0.00    -0.032 NA
HETATM   47  O5  UNL     1      -9.993   2.800   1.280  1.00  0.00    -0.242 OA
ENDBRANCH  44  45
ENDBRANCH  38  44
ENDBRANCH  32  34
ENDBRANCH  30  32
ENDBRANCH   4  30
TORSDOF 14
