REMARK  10 active torsions:
REMARK  status: ('A' for Active; 'I' for Inactive)
REMARK    1  A    between atoms: C2_2  and  C3_3 
REMARK    2  A    between atoms: C3_3  and  C5_5 
REMARK    3  A    between atoms: C13_19  and  C14_20 
REMARK    4  A    between atoms: C14_20  and  C15_21 
REMARK    5  A    between atoms: C20_28  and  C21_29 
REMARK    6  A    between atoms: C21_29  and  C23_31 
REMARK    7  A    between atoms: C26_36  and  C27_37 
REMARK    8  A    between atoms: C27_37  and  C28_38 
REMARK    9  A    between atoms: C28_38  and  C29_39 
REMARK   10  A    between atoms: C29_39  and  C30_40 
ROOT
HETATM    1  C5  UNL     1      -2.514  -2.415  -0.066  1.00  0.00     0.180 C 
HETATM    2  N1  UNL     1      -1.699  -2.357  -1.251  1.00  0.00    -0.345 N 
ATOM      3  H1  UNL     1      -2.126  -1.824  -2.009  1.00  0.00     0.163 HD
HETATM    4  C6  UNL     1      -0.467  -2.869  -1.574  1.00  0.00     0.246 C 
HETATM    5  O1  UNL     1      -0.452  -3.679  -2.588  1.00  0.00    -0.271 OA
HETATM    6  C7  UNL     1       0.884  -2.687  -1.001  1.00  0.00     0.114 C 
HETATM    7  C8  UNL     1       1.606  -4.058  -1.090  1.00  0.00     0.041 C 
HETATM    8  C9  UNL     1       1.209  -4.788   0.161  1.00  0.00     0.003 C 
HETATM    9  C10 UNL     1       0.842  -3.740   1.158  1.00  0.00     0.003 C 
HETATM   10  C11 UNL     1       0.960  -2.423   0.443  1.00  0.00     0.041 C 
HETATM   11  N2  UNL     1       1.634  -1.741  -1.823  1.00  0.00    -0.341 N 
ATOM     12  H2  UNL     1       1.338  -1.721  -2.799  1.00  0.00     0.163 HD
HETATM   13  C12 UNL     1       2.658  -0.874  -1.540  1.00  0.00     0.241 C 
HETATM   14  O2  UNL     1       3.780  -1.106  -2.153  1.00  0.00    -0.271 OA
HETATM   15  C13 UNL     1       2.739   0.308  -0.654  1.00  0.00     0.179 C 
HETATM   16  N3  UNL     1       2.244   1.511  -1.366  1.00  0.00    -0.341 N 
HETATM   17  C18 UNL     1       3.068   2.022  -2.476  1.00  0.00     0.153 C 
HETATM   18  C19 UNL     1       1.043   2.180  -1.041  1.00  0.00     0.250 C 
HETATM   19  O3  UNL     1       0.435   2.620  -2.089  1.00  0.00    -0.270 OA
HETATM   20  C20 UNL     1       0.452   2.413   0.272  1.00  0.00     0.227 C 
HETATM   21  O4  UNL     1      -0.258   1.360   0.814  1.00  0.00    -0.304 OA
HETATM   22  C25 UNL     1      -1.543   0.968   0.636  1.00  0.00     0.282 C 
HETATM   23  O5  UNL     1      -2.151   0.528   1.678  1.00  0.00    -0.263 OA
HETATM   24  C26 UNL     1      -2.351   0.973  -0.590  1.00  0.00     0.184 C 
HETATM   25  N4  UNL     1      -3.397  -0.030  -0.618  1.00  0.00    -0.345 N 
ATOM     26  H4  UNL     1      -4.199   0.197  -1.206  1.00  0.00     0.163 HD
HETATM   27  C31 UNL     1      -3.471  -1.250   0.033  1.00  0.00     0.241 C 
HETATM   28  O6  UNL     1      -4.462  -1.453   0.826  1.00  0.00    -0.271 OA
ENDROOT
BRANCH  24  29
HETATM   29  C27 UNL     1      -2.992   2.328  -0.847  1.00  0.00     0.035 C 
BRANCH  29  30
HETATM   30  C28 UNL     1      -3.894   2.764   0.248  1.00  0.00     0.003 C 
BRANCH  30  31
HETATM   31  C29 UNL     1      -4.489   4.097  -0.097  1.00  0.00     0.011 C 
BRANCH  31  32
HETATM   32  C30 UNL     1      -3.486   5.185  -0.283  1.00  0.00     0.086 C 
HETATM   33  S1  UNL     1      -4.309   6.773  -0.676  1.00  0.00    -0.098 SA
ENDBRANCH  31  32
ENDBRANCH  30  31
ENDBRANCH  29  30
ENDBRANCH  24  29
BRANCH  20  34
HETATM   34  C21 UNL     1       1.430   2.935   1.319  1.00  0.00     0.020 C 
HETATM   35  C22 UNL     1       0.696   3.132   2.610  1.00  0.00     0.013 C 
BRANCH  34  36
HETATM   36  C23 UNL     1       1.953   4.299   0.878  1.00  0.00     0.003 C 
HETATM   37  C24 UNL     1       2.915   4.823   1.900  1.00  0.00     0.005 C 
ENDBRANCH  34  36
ENDBRANCH  20  34
BRANCH   1  38
HETATM   38  C3  UNL     1      -3.448  -3.632  -0.121  1.00  0.00     0.013 C 
HETATM   39  C4  UNL     1      -4.567  -3.456  -1.099  1.00  0.00     0.012 C 
BRANCH  38  40
HETATM   40  C2  UNL     1      -2.768  -4.942  -0.210  1.00  0.00     0.002 C 
HETATM   41  C1  UNL     1      -3.851  -6.003   0.079  1.00  0.00     0.005 C 
ENDBRANCH  38  40
ENDBRANCH   1  38
BRANCH  15  42
HETATM   42  C14 UNL     1       4.167   0.578  -0.320  1.00  0.00     0.039 C 
BRANCH  42  43
HETATM   43  C15 UNL     1       4.934  -0.451   0.410  1.00  0.00    -0.020 C 
HETATM   44  C16 UNL     1       6.366   0.124   0.569  1.00  0.00     0.009 C 
HETATM   45  C17 UNL     1       4.450  -0.668   1.833  1.00  0.00     0.009 C 
ENDBRANCH  42  43
ENDBRANCH  15  42
TORSDOF 10
