REMARK  11 active torsions:
REMARK  status: ('A' for Active; 'I' for Inactive)
REMARK    1  A    between atoms: C2_2  and  N1_4 
REMARK    2  A    between atoms: C8_11  and  N3_12 
REMARK    3  A    between atoms: N3_12  and  C9_14 
REMARK    4  A    between atoms: C9_14  and  C10_15 
REMARK    5  A    between atoms: C13_18  and  C14_19 
REMARK       I    between atoms: C14_19  and  N4_21 
REMARK    6  A    between atoms: N4_21  and  C15_23 
REMARK    7  A    between atoms: C15_23  and  C16_24 
REMARK    8  A    between atoms: C16_24  and  N5_25 
REMARK    9  A    between atoms: C23_35  and  N7_36 
REMARK   10  A    between atoms: N7_36  and  C24_38 
REMARK   11  A    between atoms: C26_40  and  C27_41 
ROOT
HETATM    1  N1  UNL     1      -5.850  -2.922  -0.828  1.00  0.00    -0.396 N 
HETATM    2  C4  UNL     1      -6.132  -2.509  -2.107  1.00  0.00     0.083 C 
HETATM    3  C5  UNL     1      -5.094  -2.470  -3.162  1.00  0.00     0.031 C 
HETATM    4  C6  UNL     1      -3.681  -2.438  -2.836  1.00  0.00     0.060 C 
HETATM    5  C7  UNL     1      -3.327  -1.826  -1.520  1.00  0.00     0.038 A 
HETATM    6  N2  UNL     1      -1.981  -1.654  -1.443  1.00  0.00    -0.195 N 
ATOM      7  H2  UNL     1      -1.397  -1.922  -2.235  1.00  0.00     0.184 HD
HETATM    8  C8  UNL     1      -1.397  -1.133  -0.334  1.00  0.00     0.683 A 
HETATM    9  N6  UNL     1      -2.187  -0.785   0.696  1.00  0.00    -0.176 N 
ATOM     10  H6  UNL     1      -1.749  -0.394   1.530  1.00  0.00     0.186 HD
HETATM   11  C23 UNL     1      -3.535  -0.927   0.684  1.00  0.00     0.133 A 
HETATM   12  C30 UNL     1      -4.102  -1.461  -0.448  1.00  0.00     0.032 A 
HETATM   13  C31 UNL     1      -5.592  -1.640  -0.306  1.00  0.00     0.121 C 
HETATM   14  C32 UNL     1      -6.220  -1.063  -1.558  1.00  0.00     0.055 C 
ENDROOT
BRANCH   8  15
HETATM   15  N3  UNL     1      -0.124  -1.002  -0.307  1.00  0.00    -0.205 N 
ATOM     16  H3  UNL     1       0.336  -1.310  -1.163  1.00  0.00     0.183 HD
BRANCH  15  17
HETATM   17  C9  UNL     1       0.759  -0.522   0.659  1.00  0.00     0.083 C 
BRANCH  17  18
HETATM   18  C10 UNL     1       0.783   0.956   0.815  1.00  0.00     0.025 C 
HETATM   19  C11 UNL     1       1.163   1.660  -0.420  1.00  0.00     0.011 C 
HETATM   20  C12 UNL     1       2.577   1.898  -0.752  1.00  0.00     0.015 C 
HETATM   21  C13 UNL     1       3.571   1.765   0.326  1.00  0.00     0.078 C 
HETATM   22  C21 UNL     1       3.141   1.071   1.548  1.00  0.00     0.015 C 
HETATM   23  C22 UNL     1       1.744   1.327   1.969  1.00  0.00     0.011 C 
BRANCH  21  24
HETATM   24  C14 UNL     1       4.822   1.101  -0.223  1.00  0.00     0.222 C 
HETATM   25  O1  UNL     1       5.020   1.102  -1.460  1.00  0.00    -0.273 OA
HETATM   26  N4  UNL     1       5.719   0.506   0.669  1.00  0.00    -0.356 N 
ATOM     27  H4  UNL     1       5.521   0.518   1.670  1.00  0.00     0.162 HD
BRANCH  26  28
HETATM   28  C15 UNL     1       6.935  -0.131   0.178  1.00  0.00     0.167 C 
BRANCH  28  29
HETATM   29  C16 UNL     1       7.879   0.817  -0.508  1.00  0.00     0.082 C 
BRANCH  29  30
HETATM   30  N5  UNL     1       9.016   0.157  -1.016  1.00  0.00    -0.368 N 
HETATM   31  C17 UNL     1      10.021   1.003  -1.558  1.00  0.00     0.153 C 
HETATM   32  C18 UNL     1      11.088   1.193  -0.481  1.00  0.00     0.188 C 
HETATM   33  O2  UNL     1      11.630  -0.033  -0.148  1.00  0.00    -0.385 OA
HETATM   34  C19 UNL     1      10.671  -0.823   0.472  1.00  0.00     0.212 C 
HETATM   35  C20 UNL     1       9.483  -1.041  -0.466  1.00  0.00     0.089 C 
ENDBRANCH  29  30
ENDBRANCH  28  29
ENDBRANCH  26  28
ENDBRANCH  21  24
ENDBRANCH  17  18
ENDBRANCH  15  17
ENDBRANCH   8  15
BRANCH  11  36
HETATM   36  N7  UNL     1      -4.317  -0.476   1.814  1.00  0.00    -0.327 N 
ATOM     37  H7  UNL     1      -4.449  -1.039   2.654  1.00  0.00     0.169 HD
BRANCH  36  38
HETATM   38  C24 UNL     1      -4.846   0.727   1.668  1.00  0.00     0.123 A 
HETATM   39  C25 UNL     1      -4.727   1.562   0.583  1.00  0.00     0.076 A 
HETATM   40  C26 UNL     1      -5.464   2.720   0.799  1.00  0.00     0.033 A 
HETATM   41  N8  UNL     1      -6.007   2.552   2.015  1.00  0.00    -0.303 N 
HETATM   42  N9  UNL     1      -5.640   1.369   2.531  1.00  0.00    -0.285 N 
ATOM     43  H8  UNL     1      -6.613   3.228   2.481  1.00  0.00     0.186 HD
ATOM     44  H9  UNL     1      -5.924   1.013   3.444  1.00  0.00     0.188 HD
BRANCH  40  45
HETATM   45  C27 UNL     1      -5.616   3.822  -0.181  1.00  0.00     0.037 A 
HETATM   46  C28 UNL     1      -6.326   5.044   0.165  1.00  0.00     0.011 A 
HETATM   47  C29 UNL     1      -4.834   5.134   0.051  1.00  0.00     0.011 A 
ENDBRANCH  40  45
ENDBRANCH  36  38
ENDBRANCH  11  36
BRANCH   1  48
HETATM   48  C2  UNL     1      -6.044  -4.089  -0.172  1.00  0.00     0.072 C 
HETATM   49  C1  UNL     1      -4.791  -4.508   0.617  1.00  0.00     0.031 C 
HETATM   50  C3  UNL     1      -7.281  -4.247   0.669  1.00  0.00     0.031 C 
ENDBRANCH   1  48
TORSDOF 11
