REMARK  8 active torsions:
REMARK  status: ('A' for Active; 'I' for Inactive)
REMARK    1  A    between atoms: C2_2  and  C3_3 
REMARK    2  A    between atoms: C5_7  and  C6_8 
REMARK    3  A    between atoms: C6_8  and  N2_9 
REMARK    4  A    between atoms: N2_9  and  C7_11 
REMARK    5  A    between atoms: C7_11  and  C8_12 
REMARK    6  A    between atoms: C8_12  and  N3_13 
REMARK    7  A    between atoms: C25_34  and  C26_35 
REMARK    8  A    between atoms: C26_35  and  C27_36 
ROOT
HETATM    1  C3  UNL     1       1.132  -3.372  -0.953  1.00  0.00     0.169 C 
HETATM    2  C4  UNL     1       2.380  -2.986  -0.213  1.00  0.00     0.088 C 
HETATM    3  N1  UNL     1       2.959  -1.785  -0.620  1.00  0.00    -0.389 N 
ATOM      4  H1  UNL     1       3.955  -1.756  -0.838  1.00  0.00     0.159 HD
HETATM    5  C5  UNL     1       2.200  -0.625  -0.734  1.00  0.00     0.136 C 
HETATM    6  C14 UNL     1       0.977  -0.620   0.156  1.00  0.00     0.148 C 
HETATM    7  N4  UNL     1      -0.250  -0.760  -0.549  1.00  0.00    -0.390 N 
HETATM    8  C15 UNL     1      -0.717   0.405  -1.223  1.00  0.00     0.118 C 
HETATM    9  C16 UNL     1      -1.086   1.551  -0.348  1.00  0.00     0.019 C 
HETATM   10  C17 UNL     1      -2.241   2.369  -0.943  1.00  0.00     0.002 C 
HETATM   11  C18 UNL     1      -2.468   3.529  -0.023  1.00  0.00     0.000 C 
HETATM   12  C19 UNL     1      -3.648   4.381  -0.401  1.00  0.00     0.000 C 
HETATM   13  C20 UNL     1      -4.959   3.635  -0.333  1.00  0.00     0.000 C 
HETATM   14  C21 UNL     1      -5.277   3.385   1.109  1.00  0.00     0.002 C 
HETATM   15  C22 UNL     1      -6.568   2.637   1.252  1.00  0.00     0.020 C 
HETATM   16  C23 UNL     1      -6.232   1.223   1.739  1.00  0.00     0.122 C 
HETATM   17  N5  UNL     1      -6.488   0.348   0.603  1.00  0.00    -0.359 N 
ATOM     18  H5  UNL     1      -7.465   0.156   0.381  1.00  0.00     0.162 HD
HETATM   19  C24 UNL     1      -5.530  -0.251  -0.208  1.00  0.00     0.240 C 
HETATM   20  O1  UNL     1      -5.657  -0.137  -1.478  1.00  0.00    -0.271 OA
HETATM   21  C25 UNL     1      -4.353  -1.025   0.267  1.00  0.00     0.177 C 
HETATM   22  N6  UNL     1      -3.675  -1.706  -0.809  1.00  0.00    -0.346 N 
ATOM     23  H6  UNL     1      -4.237  -1.993  -1.611  1.00  0.00     0.163 HD
HETATM   24  C30 UNL     1      -2.290  -2.008  -0.841  1.00  0.00     0.251 C 
HETATM   25  O2  UNL     1      -1.881  -2.756  -1.760  1.00  0.00    -0.271 OA
HETATM   26  C31 UNL     1      -1.276  -1.513   0.125  1.00  0.00     0.273 C 
HETATM   27  C32 UNL     1      -0.635  -2.726   0.693  1.00  0.00     0.291 C 
HETATM   28  O3  UNL     1      -0.717  -2.924   1.933  1.00  0.00    -0.262 OA
HETATM   29  O4  UNL     1       0.018  -3.578  -0.156  1.00  0.00    -0.309 OA
ENDROOT
BRANCH   5  30
HETATM   30  C6  UNL     1       3.075   0.582  -0.492  1.00  0.00     0.086 C 
BRANCH  30  31
HETATM   31  N2  UNL     1       3.705   0.707   0.734  1.00  0.00    -0.379 N 
ATOM     32  H2  UNL     1       3.384   1.458   1.346  1.00  0.00     0.164 HD
BRANCH  31  33
HETATM   33  C7  UNL     1       4.727  -0.091   1.204  1.00  0.00     0.090 C 
BRANCH  33  34
HETATM   34  C8  UNL     1       6.076  -0.084   0.617  1.00  0.00     0.316 C 
BRANCH  34  35
HETATM   35  N3  UNL     1       6.798   1.162   0.676  1.00  0.00     0.093 N 
HETATM   36  C9  UNL     1       8.154   0.976   0.105  1.00  0.00     0.273 C 
HETATM   37  C10 UNL     1       9.019   2.035   0.758  1.00  0.00     0.030 C 
HETATM   38  C11 UNL     1       8.241   3.335   0.858  1.00  0.00     0.003 C 
HETATM   39  C12 UNL     1       7.228   3.328  -0.272  1.00  0.00     0.030 C 
HETATM   40  C13 UNL     1       6.196   2.228  -0.062  1.00  0.00     0.273 C 
ENDBRANCH  34  35
ENDBRANCH  33  34
ENDBRANCH  31  33
ENDBRANCH  30  31
ENDBRANCH   5  30
BRANCH   1  41
HETATM   41  C2  UNL     1       1.343  -4.696  -1.716  1.00  0.00     0.033 C 
HETATM   42  C1  UNL     1       2.455  -4.589  -2.717  1.00  0.00     0.008 C 
ENDBRANCH   1  41
BRANCH  21  43
HETATM   43  C26 UNL     1      -4.582  -1.872   1.449  1.00  0.00     0.039 C 
BRANCH  43  44
HETATM   44  C27 UNL     1      -5.587  -2.938   1.427  1.00  0.00    -0.012 A 
HETATM   45  C28 UNL     1      -5.405  -4.062   0.401  1.00  0.00     0.005 A 
HETATM   46  C29 UNL     1      -6.606  -3.170   0.406  1.00  0.00     0.005 A 
ENDBRANCH  43  44
ENDBRANCH  21  43
TORSDOF 8
