REMARK  9 active torsions:
REMARK  status: ('A' for Active; 'I' for Inactive)
REMARK    1  A    between atoms: N3_8  and  C5_10 
REMARK    2  A    between atoms: C5_10  and  C6_11 
REMARK    3  A    between atoms: C6_11  and  C7_12 
REMARK    4  A    between atoms: C7_12  and  C8_13 
REMARK    5  A    between atoms: C11_22  and  N7_23 
REMARK    6  A    between atoms: N7_23  and  C12_24 
REMARK    7  A    between atoms: C15_27  and  N8_28 
REMARK    8  A    between atoms: N8_28  and  S1_30 
REMARK    9  A    between atoms: S1_30  and  N9_33 
ROOT
HETATM    1  C1  UNL     1       4.328   5.692   0.046  1.00  0.00     0.158 C 
HETATM    2  N1  UNL     1       5.089   4.506   0.273  1.00  0.00    -0.332 N 
HETATM    3  C2  UNL     1       6.421   4.439   0.432  1.00  0.00     0.184 A 
HETATM    4  N2  UNL     1       6.814   3.178   0.626  1.00  0.00    -0.346 N 
ATOM      5  H2  UNL     1       7.770   2.853   0.773  1.00  0.00     0.167 HD
HETATM    6  C3  UNL     1       5.713   2.426   0.590  1.00  0.00     0.122 A 
HETATM    7  C4  UNL     1       5.548   1.042   0.736  1.00  0.00     0.135 A 
HETATM    8  N3  UNL     1       6.625   0.328   0.931  1.00  0.00    -0.374 N 
ATOM      9  H3  UNL     1       7.534   0.790   0.970  1.00  0.00     0.161 HD
HETATM   10  N6  UNL     1       4.335   0.566   0.654  1.00  0.00    -0.301 N 
ATOM     11  H6  UNL     1       4.211  -0.441   0.759  1.00  0.00     0.171 HD
HETATM   12  C11 UNL     1       3.205   1.336   0.434  1.00  0.00     0.257 A 
HETATM   13  N10 UNL     1       3.425   2.694   0.298  1.00  0.00    -0.300 N 
ATOM     14  H10 UNL     1       2.625   3.305   0.135  1.00  0.00     0.171 HD
HETATM   15  C28 UNL     1       4.632   3.235   0.371  1.00  0.00     0.142 A 
ENDROOT
BRANCH  12  16
HETATM   16  N7  UNL     1       2.147   0.833   0.372  1.00  0.00    -0.410 NA
BRANCH  16  17
HETATM   17  C12 UNL     1       0.995   0.193   0.316  1.00  0.00     0.167 C 
HETATM   18  C13 UNL     1       0.024   0.741  -0.760  1.00  0.00     0.041 C 
HETATM   19  C14 UNL     1      -1.368   0.323  -0.350  1.00  0.00     0.029 C 
HETATM   20  C15 UNL     1      -1.420  -1.128   0.020  1.00  0.00     0.094 C 
HETATM   21  C26 UNL     1      -0.197  -1.867  -0.518  1.00  0.00     0.029 C 
HETATM   22  C27 UNL     1       1.074  -1.323   0.060  1.00  0.00     0.041 C 
BRANCH  20  23
HETATM   23  N8  UNL     1      -2.589  -1.766  -0.498  1.00  0.00    -0.302 N 
ATOM     24  H8  UNL     1      -2.807  -1.775  -1.494  1.00  0.00     0.173 HD
BRANCH  23  25
HETATM   25  S1  UNL     1      -3.589  -2.506   0.653  1.00  0.00     0.299 S 
HETATM   26  O1  UNL     1      -2.820  -2.889   1.906  1.00  0.00    -0.188 OA
HETATM   27  O2  UNL     1      -4.023  -3.843   0.059  1.00  0.00    -0.188 OA
BRANCH  25  28
HETATM   28  N9  UNL     1      -5.002  -1.638   1.073  1.00  0.00    -0.193 NA
HETATM   29  C16 UNL     1      -6.159  -2.358   0.586  1.00  0.00     0.109 C 
HETATM   30  C17 UNL     1      -7.388  -1.704   1.144  1.00  0.00     0.025 C 
HETATM   31  C18 UNL     1      -7.455  -0.293   0.550  1.00  0.00    -0.038 C 
HETATM   32  C19 UNL     1      -7.672  -0.454  -0.915  1.00  0.00     0.010 C 
HETATM   33  C23 UNL     1      -8.607   0.383   1.275  1.00  0.00     0.010 C 
HETATM   34  C24 UNL     1      -6.203   0.486   0.865  1.00  0.00     0.025 C 
HETATM   35  C20 UNL     1      -8.391   0.664  -1.593  1.00  0.00     0.001 C 
HETATM   36  C21 UNL     1      -9.633   1.038  -0.814  1.00  0.00     0.000 C 
HETATM   37  C22 UNL     1      -9.113   1.578   0.527  1.00  0.00     0.001 C 
HETATM   38  C25 UNL     1      -4.931  -0.300   0.597  1.00  0.00     0.109 C 
ENDBRANCH  25  28
ENDBRANCH  23  25
ENDBRANCH  20  23
ENDBRANCH  16  17
ENDBRANCH  12  16
BRANCH   8  39
HETATM   39  C5  UNL     1       6.548  -1.092   1.090  1.00  0.00     0.121 C 
BRANCH  39  40
HETATM   40  C6  UNL     1       7.889  -1.720   0.684  1.00  0.00     0.024 C 
BRANCH  40  41
HETATM   41  C7  UNL     1       8.182  -1.387  -0.769  1.00  0.00     0.043 C 
BRANCH  41  42
HETATM   42  C8  UNL     1       9.470  -2.012  -1.141  1.00  0.00    -0.024 A 
HETATM   43  C9  UNL     1       9.608  -3.268  -1.671  1.00  0.00     0.115 A 
HETATM   44  N4  UNL     1      10.917  -3.458  -1.865  1.00  0.00    -0.312 N 
HETATM   45  N5  UNL     1      11.584  -2.396  -1.486  1.00  0.00    -0.312 N 
ATOM     46  H4  UNL     1      11.335  -4.305  -2.251  1.00  0.00     0.186 HD
HETATM   47  C10 UNL     1      10.732  -1.432  -1.013  1.00  0.00     0.115 A 
ATOM     48  H5  UNL     1      12.598  -2.300  -1.536  1.00  0.00     0.186 HD
ENDBRANCH  41  42
ENDBRANCH  40  41
ENDBRANCH  39  40
ENDBRANCH   8  39
TORSDOF 9
