REMARK  13 active torsions:
REMARK  status: ('A' for Active; 'I' for Inactive)
REMARK    1  A    between atoms: C2_2  and  C3_3 
REMARK    2  A    between atoms: C3_3  and  C4_4 
REMARK    3  A    between atoms: C8_10  and  C9_11 
REMARK    4  A    between atoms: C9_11  and  C10_12 
REMARK    5  A    between atoms: C10_12  and  N2_13 
REMARK    6  A    between atoms: C10_12  and  C23_36 
REMARK       I    between atoms: N2_13  and  C11_15 
REMARK    7  A    between atoms: C11_15  and  C12_17 
REMARK    8  A    between atoms: C12_17  and  N3_18 
REMARK    9  A    between atoms: C12_17  and  C19_32 
REMARK       I    between atoms: N3_18  and  C13_20 
REMARK   10  A    between atoms: C13_20  and  O3_22 
REMARK   11  A    between atoms: O3_22  and  C14_23 
REMARK   12  A    between atoms: C23_36  and  O6_37 
REMARK   13  A    between atoms: C23_36  and  N5_39 
ROOT
HETATM    1  C14 UNL     1       6.061   0.083   1.448  1.00  0.00     0.166 C 
HETATM    2  C15 UNL     1       6.050   0.104   2.924  1.00  0.00     0.050 C 
HETATM    3  C16 UNL     1       6.623  -1.203   3.430  1.00  0.00     0.144 C 
HETATM    4  S1  UNL     1       8.014  -1.388   2.328  1.00  0.00     0.164 S 
HETATM    5  O4  UNL     1       9.228  -0.718   2.914  1.00  0.00    -0.226 OA
HETATM    6  O5  UNL     1       8.255  -2.800   1.955  1.00  0.00    -0.226 OA
HETATM    7  C17 UNL     1       7.395  -0.419   0.957  1.00  0.00     0.244 C 
HETATM    8  C18 UNL     1       8.309   0.680   0.656  1.00  0.00     0.082 C 
HETATM    9  N4  UNL     1       9.030   1.532   0.412  1.00  0.00    -0.196 NA
ENDROOT
BRANCH   1  10
HETATM   10  O3  UNL     1       4.966  -0.638   0.922  1.00  0.00    -0.296 OA
BRANCH  10  11
HETATM   11  C13 UNL     1       4.041  -0.024   0.056  1.00  0.00     0.361 C 
HETATM   12  N3  UNL     1       2.942  -0.737  -0.464  1.00  0.00    -0.323 N 
ATOM     13  H3  UNL     1       2.824  -1.715  -0.199  1.00  0.00     0.165 HD
HETATM   14  O2  UNL     1       4.270   1.187  -0.208  1.00  0.00    -0.238 OA
BRANCH  12  15
HETATM   15  C12 UNL     1       1.966  -0.133  -1.366  1.00  0.00     0.186 C 
BRANCH  15  16
HETATM   16  C11 UNL     1       0.675  -0.047  -0.649  1.00  0.00     0.242 C 
HETATM   17  N2  UNL     1      -0.505   0.529  -1.099  1.00  0.00    -0.344 N 
ATOM     18  H2  UNL     1      -0.564   0.962  -2.021  1.00  0.00     0.163 HD
HETATM   19  O1  UNL     1       0.654  -0.566   0.525  1.00  0.00    -0.271 OA
BRANCH  17  20
HETATM   20  C10 UNL     1      -1.717   0.491  -0.161  1.00  0.00     0.183 C 
BRANCH  20  21
HETATM   21  C9  UNL     1      -2.579  -0.539  -0.670  1.00  0.00     0.020 C 
BRANCH  21  22
HETATM   22  C8  UNL     1      -3.851  -0.978  -0.145  1.00  0.00    -0.015 A 
HETATM   23  C4  UNL     1      -4.109  -1.651   1.026  1.00  0.00     0.019 A 
HETATM   24  N1  UNL     1      -5.386  -2.052   1.378  1.00  0.00    -0.368 N 
HETATM   25  C5  UNL     1      -6.445  -1.818   0.611  1.00  0.00     0.088 A 
ATOM     26  H1  UNL     1      -5.519  -2.546   2.260  1.00  0.00     0.165 HD
HETATM   27  C6  UNL     1      -6.257  -1.151  -0.576  1.00  0.00     0.018 A 
HETATM   28  C7  UNL     1      -5.003  -0.749  -0.934  1.00  0.00     0.014 A 
BRANCH  23  29
HETATM   29  C3  UNL     1      -3.007  -2.036   1.935  1.00  0.00     0.057 C 
BRANCH  29  30
HETATM   30  C2  UNL     1      -2.410  -3.345   1.495  1.00  0.00     0.002 C 
HETATM   31  C1  UNL     1      -3.545  -4.374   1.574  1.00  0.00     0.005 C 
ENDBRANCH  29  30
ENDBRANCH  23  29
ENDBRANCH  21  22
ENDBRANCH  20  21
BRANCH  20  32
HETATM   32  C23 UNL     1      -1.927   1.855   0.174  1.00  0.00     0.140 C 
BRANCH  32  33
HETATM   33  O6  UNL     1      -0.709   2.439   0.398  1.00  0.00    -0.348 OA
ATOM     34  H6  UNL     1      -0.849   3.351   0.622  1.00  0.00     0.219 HD
ENDBRANCH  32  33
BRANCH  32  35
HETATM   35  N5  UNL     1      -2.912   2.786   0.351  1.00  0.00    -0.363 N 
HETATM   36  C24 UNL     1      -2.548   4.155   0.804  1.00  0.00     0.130 C 
HETATM   37  C25 UNL     1      -2.842   5.077  -0.349  1.00  0.00     0.099 C 
HETATM   38  C26 UNL     1      -4.297   4.973  -0.709  1.00  0.00     0.246 C 
HETATM   39  F1  UNL     1      -4.882   6.223  -0.492  1.00  0.00    -0.206 F 
HETATM   40  F2  UNL     1      -4.463   4.595  -2.043  1.00  0.00    -0.206 F 
HETATM   41  C27 UNL     1      -4.975   3.993   0.214  1.00  0.00     0.099 C 
HETATM   42  C28 UNL     1      -4.309   2.618   0.122  1.00  0.00     0.130 C 
ENDBRANCH  32  35
ENDBRANCH  20  32
ENDBRANCH  17  20
ENDBRANCH  15  16
BRANCH  15  43
HETATM   43  C19 UNL     1       1.877  -0.936  -2.646  1.00  0.00    -0.022 C 
HETATM   44  C20 UNL     1       3.233  -1.008  -3.333  1.00  0.00     0.017 C 
HETATM   45  C21 UNL     1       0.932  -0.282  -3.613  1.00  0.00     0.017 C 
HETATM   46  C22 UNL     1       1.419  -2.355  -2.407  1.00  0.00     0.017 C 
ENDBRANCH  15  43
ENDBRANCH  12  15
ENDBRANCH  10  11
ENDBRANCH   1  10
TORSDOF 13
