REMARK  13 active torsions:
REMARK  status: ('A' for Active; 'I' for Inactive)
REMARK    1  A    between atoms: C3_3  and  C4_4 
REMARK    2  A    between atoms: C4_4  and  N1_5 
REMARK    3  A    between atoms: N1_5  and  C6_7 
REMARK    4  A    between atoms: C6_7  and  C7_8 
REMARK    5  A    between atoms: C9_10  and  S1_11 
REMARK    6  A    between atoms: S1_11  and  C10_12 
REMARK    7  A    between atoms: C15_20  and  N2_21 
REMARK    8  A    between atoms: N2_21  and  C16_23 
REMARK    9  A    between atoms: C16_23  and  O3_24 
REMARK   10  A    between atoms: C16_23  and  C17_26 
REMARK   11  A    between atoms: C21_32  and  C23_34 
REMARK   12  A    between atoms: C23_34  and  O5_36 
REMARK   13  A    between atoms: O5_36  and  C24_37 
ROOT
HETATM    1  C10 UNL     1      -0.214   1.556   0.177  1.00  0.00     0.086 C 
HETATM    2  C11 UNL     1      -0.811   2.287  -1.038  1.00  0.00     0.158 C 
HETATM    3  S2  UNL     1      -1.646   3.595  -0.122  1.00  0.00     0.155 S 
HETATM    4  O1  UNL     1      -0.656   4.666   0.163  1.00  0.00    -0.227 OA
HETATM    5  O2  UNL     1      -2.868   4.056  -0.819  1.00  0.00    -0.227 OA
HETATM    6  C12 UNL     1      -2.010   2.630   1.345  1.00  0.00     0.078 C 
HETATM    7  C13 UNL     1      -1.542   3.357   2.590  1.00  0.00     0.034 C 
HETATM    8  C14 UNL     1      -3.512   2.507   1.398  1.00  0.00     0.034 C 
HETATM    9  C15 UNL     1      -1.307   1.323   1.151  1.00  0.00     0.120 C 
ENDROOT
BRANCH   9  10
HETATM   10  N2  UNL     1      -2.215   0.261   0.732  1.00  0.00    -0.367 N 
ATOM     11  H2  UNL     1      -2.679   0.342  -0.173  1.00  0.00     0.161 HD
BRANCH  10  12
HETATM   12  C16 UNL     1      -2.476  -0.868   1.525  1.00  0.00     0.117 C 
BRANCH  12  13
HETATM   13  O3  UNL     1      -1.833  -0.847   2.661  1.00  0.00    -0.349 OA
ATOM     14  H3  UNL     1      -2.010  -1.611   3.198  1.00  0.00     0.219 HD
ENDBRANCH  12  13
BRANCH  12  15
HETATM   15  C17 UNL     1      -3.311  -2.009   1.284  1.00  0.00     0.088 C 
HETATM   16  C18 UNL     1      -2.933  -2.827   0.046  1.00  0.00     0.035 C 
HETATM   17  C19 UNL     1      -1.963  -3.946   0.345  1.00  0.00     0.014 C 
HETATM   18  C20 UNL     1      -4.389  -3.278   0.025  1.00  0.00     0.134 C 
HETATM   19 CL1  UNL     1      -5.114  -3.491  -1.546  1.00  0.00    -0.100 Cl
HETATM   20 CL2  UNL     1      -4.617  -4.693   1.064  1.00  0.00    -0.100 Cl
HETATM   21  C21 UNL     1      -4.690  -1.934   0.730  1.00  0.00     0.091 C 
HETATM   22  C22 UNL     1      -5.792  -2.184   1.775  1.00  0.00     0.030 C 
BRANCH  21  23
HETATM   23  C23 UNL     1      -5.098  -0.894  -0.195  1.00  0.00     0.271 C 
HETATM   24  O4  UNL     1      -5.875   0.020   0.252  1.00  0.00    -0.264 OA
BRANCH  23  25
HETATM   25  O5  UNL     1      -4.748  -0.764  -1.526  1.00  0.00    -0.321 OA
BRANCH  25  26
HETATM   26  C24 UNL     1      -5.223   0.302  -2.316  1.00  0.00     0.174 C 
HETATM   27  C25 UNL     1      -6.732   0.333  -2.429  1.00  0.00     0.034 C 
ENDBRANCH  25  26
ENDBRANCH  23  25
ENDBRANCH  21  23
ENDBRANCH  12  15
ENDBRANCH  10  12
ENDBRANCH   9  10
BRANCH   1  28
HETATM   28  S1  UNL     1       0.565   0.021  -0.391  1.00  0.00    -0.155 SA
BRANCH  28  29
HETATM   29  C9  UNL     1       1.956   0.474  -1.416  1.00  0.00     0.075 C 
HETATM   30  C8  UNL     1       3.079   1.169  -0.633  1.00  0.00     0.051 C 
HETATM   31  C7  UNL     1       4.156   1.141  -1.730  1.00  0.00     0.215 C 
HETATM   32  N3  UNL     1       4.046  -0.129  -2.341  1.00  0.00    -0.068 N 
HETATM   33  C26 UNL     1       2.712  -0.660  -2.023  1.00  0.00     0.247 C 
ATOM     34  H32 UNL     1       4.236  -0.106  -3.343  1.00  0.00     0.277 HD
ATOM     35  H31 UNL     1       4.800  -0.764  -2.077  1.00  0.00     0.277 HD
BRANCH  31  36
HETATM   36  C6  UNL     1       5.479   1.559  -1.207  1.00  0.00     0.305 C 
BRANCH  36  37
HETATM   37  N1  UNL     1       6.051   0.804  -0.145  1.00  0.00     0.089 N 
HETATM   38  C5  UNL     1       7.169   1.599   0.377  1.00  0.00     0.310 C 
BRANCH  37  39
HETATM   39  C4  UNL     1       6.516  -0.507  -0.430  1.00  0.00     0.299 C 
BRANCH  39  40
HETATM   40  C3  UNL     1       6.876  -1.252   0.836  1.00  0.00    -0.002 C 
HETATM   41  C2  UNL     1       6.238  -2.379   1.122  1.00  0.00    -0.033 C 
HETATM   42  C1  UNL     1       6.565  -3.134   2.353  1.00  0.00     0.036 C 
ENDBRANCH  39  40
ENDBRANCH  37  39
ENDBRANCH  36  37
ENDBRANCH  31  36
ENDBRANCH  28  29
ENDBRANCH   1  28
TORSDOF 13
