REMARK  10 active torsions:
REMARK  status: ('A' for Active; 'I' for Inactive)
REMARK    1  A    between atoms: C6_9  and  C7_10 
REMARK       I    between atoms: C7_10  and  N3_12 
REMARK    2  A    between atoms: N3_12  and  C8_14 
REMARK    3  A    between atoms: C8_14  and  C9_15 
REMARK    4  A    between atoms: C9_15  and  N4_16 
REMARK    5  A    between atoms: N4_16  and  C10_18 
REMARK    6  A    between atoms: C10_18  and  C11_19 
REMARK    7  A    between atoms: C11_19  and  C12_20 
REMARK    8  A    between atoms: C12_20  and  C13_21 
REMARK    9  A    between atoms: C13_21  and  N5_22 
REMARK   10  A    between atoms: C18_28  and  C19_29 
ROOT
HETATM    1  N4  UNL     1       0.509   0.840   0.428  1.00  0.00    -0.420 N 
ATOM      2  H4  UNL     1       1.190   0.523   1.118  1.00  0.00     0.153 HD
ENDROOT
BRANCH   1   3
HETATM    3  C9  UNL     1      -0.786   0.220   0.300  1.00  0.00     0.133 C 
BRANCH   3   4
HETATM    4  C8  UNL     1      -1.821   1.172   0.797  1.00  0.00     0.142 C 
BRANCH   4   5
HETATM    5  N3  UNL     1      -3.184   0.660   0.753  1.00  0.00    -0.354 N 
HETATM    6  C7  UNL     1      -3.827   0.291  -0.439  1.00  0.00     0.270 C 
HETATM    7  O1  UNL     1      -3.176   0.392  -1.539  1.00  0.00    -0.266 OA
ATOM      8  H3  UNL     1      -3.696   0.565   1.630  1.00  0.00     0.162 HD
BRANCH   6   9
HETATM    9  C6  UNL     1      -5.167  -0.203  -0.535  1.00  0.00     0.132 A 
HETATM   10  C5  UNL     1      -6.260   0.107   0.223  1.00  0.00     0.068 A 
HETATM   11  C2  UNL     1      -6.834   0.873   1.228  1.00  0.00     0.038 A 
HETATM   12  C4  UNL     1      -7.293  -0.707  -0.223  1.00  0.00     0.153 A 
HETATM   13  C1  UNL     1      -6.134   1.939   1.987  1.00  0.00     0.071 C 
HETATM   14  N1  UNL     1      -8.139   0.514   1.358  1.00  0.00    -0.301 N 
HETATM   15  N2  UNL     1      -8.398  -0.421   0.496  1.00  0.00    -0.279 N 
ATOM     16  H1  UNL     1      -8.803   0.913   2.022  1.00  0.00     0.187 HD
HETATM   17  C3  UNL     1      -9.713  -1.037   0.363  1.00  0.00     0.179 C 
HETATM   18  N7  UNL     1      -6.842  -1.474  -1.212  1.00  0.00    -0.279 N 
HETATM   19  N6  UNL     1      -5.595  -1.184  -1.403  1.00  0.00    -0.291 N 
HETATM   20  C23 UNL     1      -7.683  -2.456  -1.915  1.00  0.00     0.179 C 
ATOM     21  H6  UNL     1      -5.004  -1.626  -2.107  1.00  0.00     0.187 HD
ENDBRANCH   6   9
ENDBRANCH   4   5
ENDBRANCH   3   4
ENDBRANCH   1   3
BRANCH   1  22
HETATM   22  C10 UNL     1       0.785   1.914  -0.456  1.00  0.00     0.113 C 
BRANCH  22  23
HETATM   23  C11 UNL     1       2.071   2.636  -0.215  1.00  0.00     0.021 C 
BRANCH  23  24
HETATM   24  C12 UNL     1       3.272   1.790  -0.344  1.00  0.00     0.022 C 
BRANCH  24  25
HETATM   25  C13 UNL     1       3.404   0.609   0.549  1.00  0.00     0.135 C 
BRANCH  25  26
HETATM   26  N5  UNL     1       4.734   0.017   0.271  1.00  0.00    -0.280 N 
HETATM   27  C14 UNL     1       5.045  -0.975  -0.689  1.00  0.00     0.261 A 
HETATM   28  O2  UNL     1       4.257  -1.540  -1.498  1.00  0.00    -0.267 OA
HETATM   29  C15 UNL     1       6.477  -1.298  -0.643  1.00  0.00     0.049 A 
HETATM   30  C16 UNL     1       7.301  -2.164  -1.328  1.00  0.00     0.019 A 
HETATM   31  C21 UNL     1       7.003  -0.485   0.356  1.00  0.00     0.066 A 
HETATM   32  C17 UNL     1       8.649  -2.226  -1.024  1.00  0.00     0.010 A 
HETATM   33  C18 UNL     1       9.170  -1.420  -0.033  1.00  0.00    -0.030 A 
HETATM   34  C20 UNL     1       8.356  -0.547   0.661  1.00  0.00     0.034 A 
HETATM   35 BR2  UNL     1       9.084   0.573   2.041  1.00  0.00    -0.049 Br
HETATM   36  C22 UNL     1       5.947   0.334   0.933  1.00  0.00     0.263 A 
HETATM   37  O3  UNL     1       6.041   1.196   1.867  1.00  0.00    -0.267 OA
BRANCH  33  38
HETATM   38  C19 UNL     1      10.622  -1.511   0.272  1.00  0.00     0.125 C 
HETATM   39 BR1  UNL     1      10.825  -2.514   1.935  1.00  0.00    -0.091 Br
ENDBRANCH  33  38
ENDBRANCH  25  26
ENDBRANCH  24  25
ENDBRANCH  23  24
ENDBRANCH  22  23
ENDBRANCH   1  22
TORSDOF 10
