REMARK  9 active torsions:
REMARK  status: ('A' for Active; 'I' for Inactive)
REMARK    1  A    between atoms: C4_5  and  C5_6 
REMARK    2  A    between atoms: C5_6  and  C6_9 
REMARK       I    between atoms: C6_9  and  N2_11 
REMARK    3  A    between atoms: C7_13  and  C8_14 
REMARK    4  A    between atoms: C7_13  and  C10_18 
REMARK    5  A    between atoms: C8_14  and  C9_15 
REMARK    6  A    between atoms: C10_18  and  C11_20 
REMARK    7  A    between atoms: C11_20  and  C12_21 
REMARK    8  A    between atoms: C20_29  and  N3_30 
REMARK    9  A    between atoms: C23_33  and  N4_34 
ROOT
HETATM    1  C11 UNL     1       0.070   1.881  -0.107  1.00  0.00     0.032 C 
HETATM    2  C18 UNL     1      -1.225   2.339   0.454  1.00  0.00     0.020 C 
HETATM    3  C19 UNL     1      -2.322   1.536  -0.181  1.00  0.00     0.037 C 
HETATM    4  C20 UNL     1      -1.666   0.528  -1.088  1.00  0.00     0.224 C 
HETATM    5  C29 UNL     1      -0.185   0.675  -0.981  1.00  0.00     0.053 C 
ENDROOT
BRANCH   1   6
HETATM    6  C10 UNL     1       1.074   1.479   0.932  1.00  0.00     0.181 C 
HETATM    7  O4  UNL     1       0.834   2.039   2.036  1.00  0.00    -0.290 OA
BRANCH   6   8
HETATM    8  C7  UNL     1       2.163   0.623   0.850  1.00  0.00     0.069 C 
HETATM    9  N2  UNL     1       3.081   0.154  -0.037  1.00  0.00    -0.323 N 
HETATM   10  C6  UNL     1       4.271   0.565  -0.663  1.00  0.00     0.284 C 
ATOM     11  H2  UNL     1       2.828  -0.786  -0.342  1.00  0.00     0.169 HD
HETATM   12  O1  UNL     1       4.738   1.696  -0.524  1.00  0.00    -0.268 OA
BRANCH  10  13
HETATM   13  C5  UNL     1       5.067  -0.379  -1.514  1.00  0.00     0.302 C 
HETATM   14  F1  UNL     1       6.354   0.178  -1.521  1.00  0.00    -0.207 F 
HETATM   15 CL1  UNL     1       4.405  -0.545  -3.111  1.00  0.00    -0.066 Cl
BRANCH  13  16
HETATM   16  C4  UNL     1       5.117  -1.695  -0.818  1.00  0.00     0.091 A 
HETATM   17  C3  UNL     1       4.438  -2.870  -1.069  1.00  0.00     0.050 A 
HETATM   18  C2  UNL     1       4.856  -3.818  -0.194  1.00  0.00     0.112 A 
HETATM   19  N1  UNL     1       5.794  -3.215   0.588  1.00  0.00    -0.307 N 
HETATM   20  C1  UNL     1       6.554  -3.901   1.591  1.00  0.00     0.177 C 
HETATM   21  N5  UNL     1       5.953  -1.959   0.233  1.00  0.00    -0.298 N 
ATOM     22  H5  UNL     1       6.592  -1.293   0.668  1.00  0.00     0.187 HD
ENDBRANCH  13  16
ENDBRANCH  10  13
BRANCH   8  23
HETATM   23  C8  UNL     1       3.111   1.168   2.108  1.00  0.00     0.174 C 
BRANCH  23  24
HETATM   24  C9  UNL     1       3.645   0.095   2.866  1.00  0.00     0.178 C 
HETATM   25  O2  UNL     1       2.853  -0.761   3.369  1.00  0.00    -0.648 OA
HETATM   26  O3  UNL     1       4.966  -0.142   3.106  1.00  0.00    -0.648 OA
ENDBRANCH  23  24
ENDBRANCH   8  23
ENDBRANCH   6   8
ENDBRANCH   1   6
BRANCH   1  27
HETATM   27  C12 UNL     1       0.742   3.031  -0.858  1.00  0.00     0.002 C 
HETATM   28  C13 UNL     1      -0.088   3.542  -1.956  1.00  0.00     0.006 C 
HETATM   29  C14 UNL     1      -0.336   5.016  -1.945  1.00  0.00     0.000 C 
HETATM   30  C15 UNL     1       1.020   5.669  -1.657  1.00  0.00     0.000 C 
HETATM   31  C16 UNL     1       1.278   5.424  -0.199  1.00  0.00     0.000 C 
HETATM   32  C17 UNL     1       1.077   4.021   0.227  1.00  0.00     0.006 C 
ENDBRANCH   1  27
BRANCH   4  33
HETATM   33  N3  UNL     1      -2.117  -0.811  -0.882  1.00  0.00     0.095 N 
HETATM   34  C21 UNL     1      -1.879  -1.381   0.405  1.00  0.00     0.275 C 
HETATM   35  C22 UNL     1      -2.767  -2.648   0.388  1.00  0.00     0.068 C 
HETATM   36  C23 UNL     1      -3.828  -2.274  -0.570  1.00  0.00     0.253 C 
HETATM   37  C28 UNL     1      -3.505  -0.933  -1.180  1.00  0.00     0.308 C 
BRANCH  36  38
HETATM   38  N4  UNL     1      -5.187  -2.407  -0.192  1.00  0.00     0.099 N 
HETATM   39  C24 UNL     1      -5.851  -3.473  -0.920  1.00  0.00     0.299 C 
HETATM   40  C25 UNL     1      -6.731  -4.267  -0.029  1.00  0.00     0.198 C 
HETATM   41  O5  UNL     1      -7.532  -3.414   0.707  1.00  0.00    -0.388 OA
HETATM   42  C26 UNL     1      -6.817  -2.582   1.546  1.00  0.00     0.198 C 
HETATM   43  C27 UNL     1      -5.336  -2.623   1.249  1.00  0.00     0.299 C 
ENDBRANCH  36  38
ENDBRANCH   4  33
TORSDOF 9
