REMARK  11 active torsions:
REMARK  status: ('A' for Active; 'I' for Inactive)
REMARK    1  A    between atoms: C2_2  and  C3_3 
REMARK    2  A    between atoms: C9_9  and  C10_10 
REMARK    3  A    between atoms: C10_10  and  C11_11 
REMARK    4  A    between atoms: C11_11  and  C12_12 
REMARK       I    between atoms: C12_12  and  N1_14 
REMARK    5  A    between atoms: C13_16  and  C15_18 
REMARK    6  A    between atoms: C23_31  and  C24_32 
REMARK    7  A    between atoms: C24_32  and  O7_33 
REMARK    8  A    between atoms: O7_33  and  C25_34 
REMARK       I    between atoms: C25_34  and  N2_36 
REMARK    9  A    between atoms: N2_36  and  C26_38 
REMARK   10  A    between atoms: C26_38  and  C28_41 
REMARK   11  A    between atoms: C28_41  and  C29_43 
ROOT
HETATM    1  C26 UNL     1      -7.620   1.640  -0.604  1.00  0.00     0.269 C 
HETATM    2  C27 UNL     1      -7.968   2.741   0.327  1.00  0.00     0.092 C 
HETATM    3  N3  UNL     1      -8.257   3.593   1.055  1.00  0.00    -0.195 NA
ENDROOT
BRANCH   1   4
HETATM    4  N2  UNL     1      -6.159   1.616  -0.623  1.00  0.00    -0.313 N 
HETATM    5  C25 UNL     1      -5.509   0.456  -0.108  1.00  0.00     0.361 C 
HETATM    6  O8  UNL     1      -6.162  -0.524   0.356  1.00  0.00    -0.238 OA
ATOM      7  H2  UNL     1      -5.623   2.402  -0.992  1.00  0.00     0.166 HD
BRANCH   5   8
HETATM    8  O7  UNL     1      -4.131   0.329  -0.083  1.00  0.00    -0.304 OA
BRANCH   8   9
HETATM    9  C24 UNL     1      -3.463  -0.815   0.426  1.00  0.00     0.187 C 
BRANCH   9  10
HETATM   10  C23 UNL     1      -1.958  -0.534   0.239  1.00  0.00     0.045 C 
HETATM   11  C3  UNL     1      -1.088  -1.618   0.716  1.00  0.00     0.029 C 
HETATM   12  C4  UNL     1       0.253  -1.851   0.341  1.00  0.00     0.027 C 
HETATM   13  C22 UNL     1      -1.352  -1.048   2.101  1.00  0.00     0.147 C 
HETATM   14  C5  UNL     1       1.219  -1.086  -0.454  1.00  0.00    -0.036 C 
HETATM   15  C6  UNL     1       0.693  -1.220  -1.930  1.00  0.00     0.015 C 
HETATM   16  C7  UNL     1       2.414  -2.037  -0.539  1.00  0.00     0.015 C 
HETATM   17  C8  UNL     1       1.518   0.321  -0.315  1.00  0.00     0.062 C 
HETATM   18  C9  UNL     1       2.478   0.963   0.591  1.00  0.00    -0.008 C 
HETATM   19  C19 UNL     1       0.177   1.004  -0.030  1.00  0.00     0.168 A 
HETATM   20  C16 UNL     1       2.233   0.585   1.995  1.00  0.00     0.158 C 
HETATM   21  O4  UNL     1       3.095   0.270   2.720  1.00  0.00    -0.293 OA
HETATM   22  C17 UNL     1       0.813   0.640   2.407  1.00  0.00     0.125 C 
HETATM   23  C18 UNL     1      -0.147   0.851   1.290  1.00  0.00     0.110 A 
HETATM   24  O5  UNL     1       0.066   2.124   0.770  1.00  0.00    -0.367 OA
HETATM   25  C20 UNL     1      -1.500   0.263   1.426  1.00  0.00     0.058 C 
HETATM   26  C21 UNL     1      -2.474   1.222   2.020  1.00  0.00     0.027 C 
HETATM   27  O6  UNL     1      -1.428  -1.405   3.250  1.00  0.00    -0.296 OA
BRANCH  11  28
HETATM   28  C2  UNL     1      -1.931  -2.927   0.756  1.00  0.00     0.013 C 
HETATM   29  C1  UNL     1      -1.995  -3.625  -0.545  1.00  0.00     0.006 C 
ENDBRANCH  11  28
BRANCH  18  30
HETATM   30  C10 UNL     1       3.838   1.317   0.195  1.00  0.00    -0.006 C 
BRANCH  30  31
HETATM   31  C11 UNL     1       4.837   0.329  -0.258  1.00  0.00     0.131 C 
BRANCH  31  32
HETATM   32  C12 UNL     1       6.161   0.986  -0.575  1.00  0.00     0.225 C 
HETATM   33  O1  UNL     1       6.226   2.214  -0.445  1.00  0.00    -0.273 OA
HETATM   34  N1  UNL     1       7.245   0.212  -0.994  1.00  0.00    -0.325 N 
HETATM   35  C13 UNL     1       8.484   0.397  -0.707  1.00  0.00     0.085 C 
ATOM     36  H1  UNL     1       7.030  -0.586  -1.592  1.00  0.00     0.169 HD
HETATM   37  C14 UNL     1       8.864   1.540   0.159  1.00  0.00     0.076 C 
BRANCH  35  38
HETATM   38  C15 UNL     1       9.512  -0.480  -1.211  1.00  0.00     0.222 C 
HETATM   39  O2  UNL     1      10.735  -0.285  -0.921  1.00  0.00    -0.643 OA
HETATM   40  O3  UNL     1       9.261  -1.573  -2.026  1.00  0.00    -0.643 OA
ENDBRANCH  35  38
ENDBRANCH  31  32
ENDBRANCH  30  31
ENDBRANCH  18  30
ENDBRANCH   9  10
ENDBRANCH   8   9
ENDBRANCH   5   8
ENDBRANCH   1   4
BRANCH   1  41
HETATM   41  C28 UNL     1      -8.164   2.010  -1.934  1.00  0.00     0.227 C 
HETATM   42  O9  UNL     1      -7.435   2.263  -2.895  1.00  0.00    -0.289 OA
BRANCH  41  43
HETATM   43  C29 UNL     1      -9.628   2.085  -2.145  1.00  0.00     0.425 C 
HETATM   44  F1  UNL     1     -10.131   0.806  -1.939  1.00  0.00    -0.206 F 
HETATM   45  F2  UNL     1     -10.215   2.901  -1.175  1.00  0.00    -0.206 F 
ENDBRANCH  41  43
ENDBRANCH   1  41
TORSDOF 11
