REMARK  8 active torsions:
REMARK  status: ('A' for Active; 'I' for Inactive)
REMARK    1  A    between atoms: O1_2  and  C2_3 
REMARK    2  A    between atoms: C2_3  and  C3_4 
REMARK    3  A    between atoms: C3_4  and  N1_5 
REMARK    4  A    between atoms: N1_5  and  C4_7 
REMARK    5  A    between atoms: C5_12  and  N4_13 
REMARK    6  A    between atoms: N4_13  and  C6_15 
REMARK    7  A    between atoms: C9_18  and  C10_19 
REMARK    8  A    between atoms: C10_19  and  C11_20 
ROOT
HETATM    1  C11 UNL     1      -6.625   0.616   0.322  1.00  0.00     0.128 C 
HETATM    2  C12 UNL     1      -6.318   2.027   0.104  1.00  0.00     0.059 C 
HETATM    3  N5  UNL     1      -6.091   3.161  -0.072  1.00  0.00    -0.197 NA
ENDROOT
BRANCH   1   4
HETATM    4  C10 UNL     1      -5.474  -0.045   1.056  1.00  0.00     0.052 C 
BRANCH   4   5
HETATM    5  C9  UNL     1      -4.207   0.045   0.284  1.00  0.00    -0.057 A 
HETATM    6  C8  UNL     1      -3.831  -0.927  -0.620  1.00  0.00     0.009 A 
HETATM    7  C7  UNL     1      -2.662  -0.867  -1.348  1.00  0.00     0.030 A 
HETATM    8  C6  UNL     1      -1.801   0.193  -1.195  1.00  0.00     0.049 A 
HETATM    9  C14 UNL     1      -2.156   1.177  -0.295  1.00  0.00     0.030 A 
HETATM   10  C13 UNL     1      -3.327   1.112   0.429  1.00  0.00     0.009 A 
BRANCH   8  11
HETATM   11  N4  UNL     1      -0.580   0.302  -1.923  1.00  0.00    -0.190 N 
ATOM     12  H4  UNL     1      -0.574   0.422  -2.936  1.00  0.00     0.184 HD
BRANCH  11  13
HETATM   13  C5  UNL     1       0.518   0.243  -1.247  1.00  0.00     0.712 A 
HETATM   14  N3  UNL     1       0.743   0.093   0.055  1.00  0.00    -0.117 N 
HETATM   15  N2  UNL     1       2.030   0.085   0.327  1.00  0.00    -0.117 N 
ATOM     16  H3  UNL     1       0.008  -0.004   0.756  1.00  0.00     0.206 HD
HETATM   17  C4  UNL     1       2.653   0.237  -0.858  1.00  0.00     0.707 A 
ATOM     18  H2  UNL     1       2.466  -0.015   1.244  1.00  0.00     0.206 HD
HETATM   19  N6  UNL     1       1.730   0.335  -1.833  1.00  0.00    -0.020 N 
ATOM     20  H6  UNL     1       1.913   0.456  -2.829  1.00  0.00     0.203 HD
BRANCH  17  21
HETATM   21  N1  UNL     1       3.919   0.288  -1.091  1.00  0.00    -0.222 N 
ATOM     22  H1  UNL     1       4.276   0.407  -2.039  1.00  0.00     0.177 HD
BRANCH  21  23
HETATM   23  C3  UNL     1       4.826   0.170   0.050  1.00  0.00     0.164 C 
BRANCH  23  24
HETATM   24  C2  UNL     1       4.962  -1.311   0.306  1.00  0.00     0.187 C 
BRANCH  24  25
HETATM   25  O1  UNL     1       5.795  -1.544   1.372  1.00  0.00    -0.394 OA
HETATM   26  C1  UNL     1       7.070  -1.065   1.193  1.00  0.00     0.201 C 
ENDBRANCH  24  25
ENDBRANCH  23  24
ENDBRANCH  21  23
ENDBRANCH  17  21
ENDBRANCH  11  13
ENDBRANCH   8  11
ENDBRANCH   4   5
ENDBRANCH   1   4
TORSDOF 8
