REMARK  7 active torsions:
REMARK  status: ('A' for Active; 'I' for Inactive)
REMARK    1  A    between atoms: C2_2  and  C3_3 
REMARK    2  A    between atoms: C3_3  and  C4_4 
REMARK    3  A    between atoms: C4_4  and  N1_5 
REMARK    4  A    between atoms: N1_5  and  C5_7 
REMARK    5  A    between atoms: C6_10  and  C7_11 
REMARK    6  A    between atoms: N5_20  and  C12_22 
REMARK    7  A    between atoms: C12_22  and  C13_23 
ROOT
HETATM    1  C13 UNL     1      -2.226  -4.042   0.135  1.00  0.00     0.143 C 
HETATM    2  C14 UNL     1      -1.466  -5.258   0.291  1.00  0.00     0.060 C 
HETATM    3  N6  UNL     1      -0.864  -6.248   0.403  1.00  0.00    -0.197 NA
ENDROOT
BRANCH   1   4
HETATM    4  C12 UNL     1      -1.354  -2.794   0.189  1.00  0.00     0.135 C 
BRANCH   4   5
HETATM    5  N5  UNL     1      -2.199  -1.655   0.025  1.00  0.00    -0.375 N 
HETATM    6  C11 UNL     1      -1.668  -0.457   0.057  1.00  0.00     0.119 A 
HETATM    7  C10 UNL     1      -2.425   0.673  -0.094  1.00  0.00     0.082 A 
HETATM    8  N7  UNL     1      -0.346  -0.304   0.241  1.00  0.00    -0.177 N 
HETATM    9  C6  UNL     1      -1.832   1.931  -0.055  1.00  0.00     0.096 A 
HETATM   10  N2  UNL     1      -0.489   2.038   0.133  1.00  0.00    -0.188 N 
HETATM   11  C5  UNL     1       0.225   0.912   0.277  1.00  0.00     0.680 A 
ATOM     12  H2  UNL     1      -0.036   2.952   0.164  1.00  0.00     0.184 HD
ATOM     13  H7  UNL     1       0.239  -1.132   0.356  1.00  0.00     0.185 HD
ATOM     14  H5  UNL     1      -3.203  -1.772  -0.115  1.00  0.00     0.161 HD
BRANCH   9  15
HETATM   15  C7  UNL     1      -2.638   3.125  -0.215  1.00  0.00     0.133 A 
HETATM   16  N3  UNL     1      -3.944   3.169  -0.404  1.00  0.00    -0.349 N 
HETATM   17  C8  UNL     1      -4.356   4.467  -0.511  1.00  0.00     0.107 A 
ATOM     18  H3  UNL     1      -4.555   2.354  -0.462  1.00  0.00     0.167 HD
HETATM   19  C9  UNL     1      -3.220   5.222  -0.376  1.00  0.00     0.107 A 
HETATM   20  N4  UNL     1      -2.187   4.380  -0.197  1.00  0.00    -0.349 N 
ATOM     21  H4  UNL     1      -1.214   4.657  -0.068  1.00  0.00     0.167 HD
ENDBRANCH   9  15
BRANCH  11  22
HETATM   22  N1  UNL     1       1.488   1.043   0.454  1.00  0.00    -0.226 N 
ATOM     23  H1  UNL     1       1.912   1.970   0.482  1.00  0.00     0.177 HD
BRANCH  22  24
HETATM   24  C4  UNL     1       2.298  -0.132   0.613  1.00  0.00     0.138 C 
BRANCH  24  25
HETATM   25  C3  UNL     1       3.746   0.315   0.678  1.00  0.00     0.020 C 
BRANCH  25  26
HETATM   26  C2  UNL     1       4.579  -0.953   0.848  1.00  0.00    -0.003 C 
HETATM   27  C1  UNL     1       4.326  -1.844  -0.340  1.00  0.00     0.005 C 
ENDBRANCH  25  26
ENDBRANCH  24  25
ENDBRANCH  22  24
ENDBRANCH  11  22
ENDBRANCH   4   5
ENDBRANCH   1   4
TORSDOF 7
