REMARK  7 active torsions:
REMARK  status: ('A' for Active; 'I' for Inactive)
REMARK    1  A    between atoms: C2_2  and  C3_3 
REMARK    2  A    between atoms: C3_3  and  C4_4 
REMARK    3  A    between atoms: C4_4  and  C5_5 
REMARK    4  A    between atoms: C5_5  and  C6_6 
REMARK    5  A    between atoms: C6_6  and  C7_7 
REMARK    6  A    between atoms: C7_7  and  O1_8 
REMARK    7  A    between atoms: C15_18  and  O3_19 
ROOT
HETATM    1  C7  UNL     1       1.172  -1.171   0.235  1.00  0.00     0.165 C 
HETATM    2  C8  UNL     1       0.220  -1.916   1.098  1.00  0.00     0.074 C 
HETATM    3  C9  UNL     1      -1.248  -1.691   0.868  1.00  0.00     0.007 A 
HETATM    4  C10 UNL     1      -2.041  -2.160  -0.212  1.00  0.00     0.005 A 
HETATM    5  C11 UNL     1      -3.200  -1.865  -0.976  1.00  0.00     0.044 C 
HETATM    6  C12 UNL     1      -3.221  -0.535  -1.746  1.00  0.00     0.062 C 
HETATM    7  C13 UNL     1      -4.190  -0.589  -2.890  1.00  0.00     0.046 C 
HETATM    8  O2  UNL     1      -1.993  -0.104  -2.189  1.00  0.00    -0.369 OA
HETATM    9  C14 UNL     1      -0.912  -0.555  -1.404  1.00  0.00     0.187 C 
HETATM   10  C15 UNL     1       0.291   0.285  -1.365  1.00  0.00     0.290 C 
HETATM   11  O4  UNL     1       0.859   0.119  -0.080  1.00  0.00    -0.323 OA
HETATM   12  C16 UNL     1      -1.465  -0.708  -0.058  1.00  0.00     0.003 A 
HETATM   13  C17 UNL     1      -2.387   0.371   0.219  1.00  0.00     0.008 C 
HETATM   14  C18 UNL     1      -2.811   0.793   1.552  1.00  0.00    -0.013 C 
HETATM   15  C19 UNL     1      -3.832   0.006   2.278  1.00  0.00     0.010 C 
HETATM   16  C20 UNL     1      -3.373   2.216   1.415  1.00  0.00     0.005 C 
HETATM   17  C21 UNL     1      -3.445   2.726   0.031  1.00  0.00     0.001 C 
HETATM   18  C22 UNL     1      -3.986   1.787  -1.011  1.00  0.00     0.008 C 
HETATM   19  C23 UNL     1      -3.650   0.416  -0.656  1.00  0.00     0.025 C 
ENDROOT
BRANCH   1  20
HETATM   20  C6  UNL     1       2.507  -1.084   1.010  1.00  0.00     0.068 C 
BRANCH  20  21
HETATM   21  C5  UNL     1       3.518  -0.456   0.089  1.00  0.00     0.005 C 
BRANCH  21  22
HETATM   22  C4  UNL     1       4.866  -0.289   0.659  1.00  0.00     0.000 C 
BRANCH  22  23
HETATM   23  C3  UNL     1       5.749   0.352  -0.392  1.00  0.00    -0.000 C 
BRANCH  23  24
HETATM   24  C2  UNL     1       7.158   0.558   0.120  1.00  0.00    -0.005 C 
HETATM   25  C1  UNL     1       7.089   1.456   1.323  1.00  0.00     0.005 C 
ENDBRANCH  23  24
ENDBRANCH  22  23
ENDBRANCH  21  22
ENDBRANCH  20  21
ENDBRANCH   1  20
BRANCH   1  26
HETATM   26  O1  UNL     1       1.490  -1.969  -0.863  1.00  0.00    -0.365 OA
ATOM     27  H1  UNL     1       0.670  -2.022  -1.339  1.00  0.00     0.213 HD
ENDBRANCH   1  26
BRANCH  10  28
HETATM   28  O3  UNL     1       0.140   1.621  -1.620  1.00  0.00    -0.368 OA
ATOM     29  H3  UNL     1       0.919   2.165  -1.595  1.00  0.00     0.212 HD
ENDBRANCH  10  28
TORSDOF 7
