REMARK  7 active torsions:
REMARK  status: ('A' for Active; 'I' for Inactive)
REMARK    1  A    between atoms: C9_9  and  C11_11 
REMARK    2  A    between atoms: C11_11  and  C12_12 
REMARK    3  A    between atoms: C14_14  and  O1_15 
REMARK    4  A    between atoms: C18_21  and  O3_23 
REMARK    5  A    between atoms: C20_25  and  O4_26 
REMARK    6  A    between atoms: O4_26  and  C21_27 
REMARK    7  A    between atoms: C21_27  and  C22_28 
ROOT
HETATM    1  C12 UNL     1      -0.217   0.947  -0.049  1.00  0.00     0.013 C 
HETATM    2  C13 UNL     1      -0.166   1.464   1.358  1.00  0.00     0.020 C 
HETATM    3  C14 UNL     1      -0.209   2.274  -0.877  1.00  0.00     0.140 C 
HETATM    4  C15 UNL     1      -1.450   3.048  -0.813  1.00  0.00     0.084 C 
HETATM    5  C16 UNL     1      -1.380   4.085  -1.952  1.00  0.00     0.020 C 
HETATM    6  C17 UNL     1      -2.648   2.207  -1.173  1.00  0.00     0.169 C 
HETATM    7  O2  UNL     1      -3.751   2.678  -1.232  1.00  0.00    -0.294 OA
HETATM    8  C18 UNL     1      -2.315   0.780  -1.436  1.00  0.00     0.141 C 
HETATM    9  C19 UNL     1      -3.629   0.034  -1.501  1.00  0.00     0.057 C 
HETATM   10  C20 UNL     1      -1.536   0.255  -0.246  1.00  0.00     0.173 C 
ENDROOT
BRANCH   1  11
HETATM   11  C11 UNL     1       0.941   0.216  -0.553  1.00  0.00     0.028 C 
BRANCH  11  12
HETATM   12  C9  UNL     1       1.543  -0.987  -0.024  1.00  0.00    -0.014 C 
HETATM   13  C2  UNL     1       2.060  -0.857   1.366  1.00  0.00    -0.080 C 
HETATM   14  C1  UNL     1       1.600  -1.419   2.454  1.00  0.00     0.015 C 
HETATM   15  C3  UNL     1       3.276   0.028   1.544  1.00  0.00     0.034 C 
HETATM   16  C4  UNL     1       4.416  -0.747   0.950  1.00  0.00     0.005 C 
HETATM   17  C5  UNL     1       3.930  -1.815   0.011  1.00  0.00     0.010 C 
HETATM   18  C6  UNL     1       2.805  -1.286  -0.861  1.00  0.00    -0.036 C 
HETATM   19  C7  UNL     1       2.527  -2.368  -1.902  1.00  0.00     0.016 C 
HETATM   20  C8  UNL     1       3.345  -0.137  -1.629  1.00  0.00     0.016 C 
HETATM   21  C10 UNL     1       0.773  -2.283  -0.076  1.00  0.00     0.021 C 
ENDBRANCH  11  12
ENDBRANCH   1  11
BRANCH   3  22
HETATM   22  O1  UNL     1       0.824   3.029  -0.276  1.00  0.00    -0.394 OA
ATOM     23  H1  UNL     1       0.829   3.835  -0.779  1.00  0.00     0.210 HD
ENDBRANCH   3  22
BRANCH  10  24
HETATM   24  O4  UNL     1      -2.383   0.390   0.852  1.00  0.00    -0.382 OA
BRANCH  24  25
HETATM   25  C21 UNL     1      -2.808  -0.832   1.367  1.00  0.00     0.168 C 
BRANCH  25  26
HETATM   26  C22 UNL     1      -3.732  -0.660   2.546  1.00  0.00     0.022 C 
HETATM   27  C23 UNL     1      -4.136  -2.021   3.032  1.00  0.00     0.007 C 
ENDBRANCH  25  26
ENDBRANCH  24  25
ENDBRANCH  10  24
BRANCH   8  28
HETATM   28  O3  UNL     1      -1.679   0.610  -2.643  1.00  0.00    -0.380 OA
ATOM     29  H3  UNL     1      -1.467  -0.301  -2.811  1.00  0.00     0.211 HD
ENDBRANCH   8  28
TORSDOF 7
