REMARK  3 active torsions:
REMARK  status: ('A' for Active; 'I' for Inactive)
REMARK    1  A    between atoms: C2_2  and  N1_3 
REMARK    2  A    between atoms: C2_2  and  S1_8 
REMARK    3  A    between atoms: S1_8  and  N2_9 
ROOT
HETATM    1  C1  UNL     1      -1.119  -1.124   0.093  1.00  0.00     0.078 C 
HETATM    2  C2  UNL     1      -0.540   0.185  -0.435  1.00  0.00     0.261 C 
HETATM    3 CL1  UNL     1      -1.485   0.766  -1.844  1.00  0.00    -0.075 Cl
ENDROOT
BRANCH   2   4
HETATM    4  N1  UNL     1      -0.639   1.209   0.561  1.00  0.00    -0.046 N 
ATOM      5  H13 UNL     1      -1.596   1.324   0.895  1.00  0.00     0.277 HD
ATOM      6  H12 UNL     1      -0.205   0.928   1.440  1.00  0.00     0.277 HD
ATOM      7  H11 UNL     1      -0.252   2.084   0.208  1.00  0.00     0.277 HD
ENDBRANCH   2   4
BRANCH   2   8
HETATM    8  S1  UNL     1       1.119  -0.110  -1.048  1.00  0.00    -0.007 SA
BRANCH   8   9
HETATM    9  N2  UNL     1       2.376   0.077   0.131  1.00  0.00    -0.371 N 
ATOM     10  H22 UNL     1       2.171   0.336   1.096  1.00  0.00     0.164 HD
ATOM     11  H21 UNL     1       3.320  -0.091  -0.218  1.00  0.00     0.164 HD
ENDBRANCH   8   9
ENDBRANCH   2   8
TORSDOF 3
