REMARK  1 active torsions:
REMARK  status: ('A' for Active; 'I' for Inactive)
REMARK    1  A    between atoms: N2_4  and  N3_6 
ROOT
HETATM    1  C1  UNL     1       1.941   0.652  -0.166  1.00  0.00     0.086 C 
HETATM    2  C2  UNL     1       1.403  -0.727  -0.135  1.00  0.00     0.103 C 
HETATM    3  N1  UNL     1       2.244  -1.839  -0.412  1.00  0.00    -0.087 NA
HETATM    4  N2  UNL     1       0.172  -0.991   0.139  1.00  0.00    -0.291 N 
ATOM      5  H2  UNL     1      -0.147  -1.960   0.147  1.00  0.00     0.188 HD
ENDROOT
BRANCH   4   6
HETATM    6  N3  UNL     1      -0.723   0.030   0.423  1.00  0.00    -0.293 N 
HETATM    7  C3  UNL     1      -1.972   0.001   0.119  1.00  0.00     0.091 C 
HETATM    8  C4  UNL     1      -2.795   1.183   0.497  1.00  0.00     0.083 C 
HETATM    9 CL1  UNL     1      -2.720  -1.352  -0.707  1.00  0.00    -0.068 Cl
ATOM     10  H3  UNL     1      -0.368   0.856   0.904  1.00  0.00     0.187 HD
ENDBRANCH   4   6
TORSDOF 1
