REMARK  2 active torsions:
REMARK  status: ('A' for Active; 'I' for Inactive)
REMARK    1  A    between atoms: C2_2  and  C3_3 
REMARK    2  A    between atoms: C3_3  and  N1_4 
ROOT
HETATM    1  C1  UNL     1       1.028  -1.018   0.905  1.00  0.00     0.023 C 
HETATM    2  C2  UNL     1       0.065  -0.234   0.048  1.00  0.00     0.045 C 
HETATM    3  C4  UNL     1      -0.707   0.846   0.771  1.00  0.00     0.023 C 
HETATM    4  C5  UNL     1      -1.868   0.514  -0.180  1.00  0.00     0.081 C 
HETATM    5  C6  UNL     1      -1.285  -0.903  -0.149  1.00  0.00     0.252 C 
HETATM    6  F1  UNL     1      -1.439  -1.622  -1.282  1.00  0.00    -0.205 F 
HETATM    7  F2  UNL     1      -1.690  -1.511   1.023  1.00  0.00    -0.205 F 
ENDROOT
BRANCH   2   8
HETATM    8  C3  UNL     1       0.740   0.227  -1.209  1.00  0.00     0.244 C 
BRANCH   8   9
HETATM    9  N1  UNL     1       1.867   1.075  -0.790  1.00  0.00    -0.078 N 
ATOM     10  H13 UNL     1       1.590   1.841  -0.176  1.00  0.00     0.274 HD
ATOM     11  H12 UNL     1       2.500   0.612  -0.138  1.00  0.00     0.274 HD
ATOM     12  H11 UNL     1       2.326   1.389  -1.645  1.00  0.00     0.274 HD
ENDBRANCH   8   9
ENDBRANCH   2   8
TORSDOF 2
