REMARK  5 active torsions:
REMARK  status: ('A' for Active; 'I' for Inactive)
REMARK    1  A    between atoms: C4_4  and  C5_5 
REMARK    2  A    between atoms: C5_5  and  C6_6 
REMARK    3  A    between atoms: C6_6  and  O1_7 
REMARK    4  A    between atoms: C6_6  and  C7_9 
REMARK    5  A    between atoms: C13_15  and  O2_16 
ROOT
HETATM    1  C7  UNL     1       0.584   0.318  -0.587  1.00  0.00     0.023 C 
HETATM    2  C8  UNL     1       0.144   1.262   0.495  1.00  0.00     0.009 C 
HETATM    3  C9  UNL     1      -1.333   1.530   0.140  1.00  0.00     0.011 C 
HETATM    4  C10 UNL     1      -2.078   0.304   0.524  1.00  0.00    -0.030 C 
HETATM    5  C11 UNL     1      -1.993   0.257   2.064  1.00  0.00     0.016 C 
HETATM    6  C12 UNL     1      -1.554  -0.968  -0.051  1.00  0.00     0.031 C 
HETATM    7  C13 UNL     1      -2.635  -1.682  -0.865  1.00  0.00     0.123 C 
HETATM    8  C14 UNL     1      -3.904  -1.830  -0.054  1.00  0.00     0.033 C 
HETATM    9  C15 UNL     1      -4.431  -0.580   0.530  1.00  0.00     0.012 C 
HETATM   10  C16 UNL     1      -3.534   0.592   0.241  1.00  0.00    -0.040 C 
HETATM   11  C17 UNL     1      -3.982   1.701   1.207  1.00  0.00     0.015 C 
HETATM   12  C18 UNL     1      -3.830   1.101  -1.129  1.00  0.00     0.015 C 
HETATM   13  C19 UNL     1      -0.251  -0.906  -0.759  1.00  0.00    -0.035 C 
HETATM   14  C20 UNL     1       0.535  -2.189  -0.424  1.00  0.00     0.016 C 
HETATM   15  C21 UNL     1      -0.484  -1.023  -2.280  1.00  0.00     0.016 C 
ENDROOT
BRANCH   1  16
HETATM   16  C6  UNL     1       2.060   0.047  -0.399  1.00  0.00     0.125 C 
BRANCH  16  17
HETATM   17  C5  UNL     1       2.771   1.381  -0.516  1.00  0.00     0.065 C 
BRANCH  17  18
HETATM   18  C4  UNL     1       4.264   1.251  -0.381  1.00  0.00     0.139 C 
HETATM   19  C3  UNL     1       4.734   0.682   0.914  1.00  0.00     0.076 C 
HETATM   20  C2  UNL     1       6.146   0.354   0.587  1.00  0.00     0.010 C 
HETATM   21  C1  UNL     1       7.118   0.218   1.463  1.00  0.00     0.025 C 
HETATM   22  C22 UNL     1       6.186   0.230  -0.862  1.00  0.00     0.289 C 
HETATM   23  O3  UNL     1       4.882   0.466  -1.346  1.00  0.00    -0.312 OA
HETATM   24  O4  UNL     1       7.219  -0.042  -1.539  1.00  0.00    -0.260 OA
ENDBRANCH  17  18
ENDBRANCH  16  17
BRANCH  16  25
HETATM   25  O1  UNL     1       2.534  -0.819  -1.395  1.00  0.00    -0.395 OA
ATOM     26  H1  UNL     1       2.089  -1.655  -1.322  1.00  0.00     0.210 HD
ENDBRANCH  16  25
ENDBRANCH   1  16
BRANCH   7  27
HETATM   27  O2  UNL     1      -2.277  -3.032  -1.112  1.00  0.00    -0.395 OA
ATOM     28  H2  UNL     1      -2.948  -3.475  -1.617  1.00  0.00     0.210 HD
ENDBRANCH   7  27
TORSDOF 5
