REMARK  2 active torsions:
REMARK  status: ('A' for Active; 'I' for Inactive)
REMARK    1  A    between atoms: C13_13  and  O1_14 
REMARK    2  A    between atoms: O1_14  and  S1_15 
ROOT
HETATM    1  C1  UNL     1       3.446  -0.211  -1.636  1.00  0.00     0.015 C 
HETATM    2  C2  UNL     1       2.825  -0.469  -0.299  1.00  0.00    -0.040 C 
HETATM    3  C3  UNL     1       3.865  -1.164   0.549  1.00  0.00     0.009 C 
HETATM    4  C4  UNL     1       4.675  -0.120   1.238  1.00  0.00     0.001 C 
HETATM    5  C5  UNL     1       4.792   1.186   0.496  1.00  0.00     0.000 C 
HETATM    6  C6  UNL     1       3.422   1.835   0.270  1.00  0.00     0.006 C 
HETATM    7  C7  UNL     1       2.434   0.765   0.465  1.00  0.00    -0.002 C 
HETATM    8  C8  UNL     1       1.026   1.006   0.127  1.00  0.00    -0.005 C 
HETATM    9  C9  UNL     1       0.693   1.409  -1.251  1.00  0.00     0.006 C 
HETATM   10  C10 UNL     1      -0.810   1.551  -1.332  1.00  0.00     0.006 C 
HETATM   11  C11 UNL     1      -1.550   0.305  -0.983  1.00  0.00    -0.004 C 
HETATM   12  C12 UNL     1      -2.936   0.787  -0.546  1.00  0.00     0.039 C 
HETATM   13  C13 UNL     1      -3.793  -0.322  -0.020  1.00  0.00     0.145 C 
HETATM   14  C14 UNL     1      -3.094  -1.121   1.059  1.00  0.00     0.034 C 
HETATM   15  C15 UNL     1      -1.746  -0.517   1.274  1.00  0.00     0.012 C 
HETATM   16  C16 UNL     1      -0.915  -0.612  -0.024  1.00  0.00    -0.036 C 
HETATM   17  C17 UNL     1      -1.140  -2.069  -0.458  1.00  0.00     0.016 C 
HETATM   18  C18 UNL     1       0.480  -0.415   0.340  1.00  0.00    -0.001 C 
HETATM   19  C19 UNL     1       1.516  -1.226  -0.383  1.00  0.00     0.015 C 
ENDROOT
BRANCH  13  20
HETATM   20  O1  UNL     1      -4.911   0.260   0.574  1.00  0.00    -0.252 OA
BRANCH  20  21
HETATM   21  S1  UNL     1      -6.341  -0.202  -0.153  1.00  0.00     0.251 S 
HETATM   22  O2  UNL     1      -6.121  -0.974  -1.423  1.00  0.00    -0.572 OA
HETATM   23  O3  UNL     1      -7.051  -1.127   0.799  1.00  0.00    -0.572 OA
HETATM   24  O4  UNL     1      -7.355   1.115  -0.407  1.00  0.00    -0.572 OA
ENDBRANCH  20  21
ENDBRANCH  13  20
TORSDOF 2
