REMARK  15 active torsions:
REMARK  status: ('A' for Active; 'I' for Inactive)
REMARK    1  A    between atoms: C2_2  and  C3_3 
REMARK    2  A    between atoms: C3_3  and  C4_4 
REMARK    3  A    between atoms: C4_4  and  C5_5 
REMARK    4  A    between atoms: C5_5  and  O1_6 
REMARK    5  A    between atoms: O1_6  and  C6_7 
REMARK    6  A    between atoms: C6_7  and  C7_8 
REMARK    7  A    between atoms: C7_8  and  C8_9 
REMARK    8  A    between atoms: C9_10  and  N1_11 
REMARK    9  A    between atoms: N1_11  and  C10_13 
REMARK   10  A    between atoms: C10_13  and  O2_14 
REMARK       I    between atoms: N5_26  and  C16_27 
REMARK   11  A    between atoms: C16_27  and  C17_29 
REMARK   12  A    between atoms: C17_29  and  N6_30 
REMARK       I    between atoms: N6_30  and  C19_32 
REMARK       I    between atoms: C19_32  and  N8_36 
REMARK   13  A    between atoms: N8_36  and  P1_38 
REMARK   14  A    between atoms: P1_38  and  O4_39 
REMARK   15  A    between atoms: P1_38  and  O5_41 
ROOT
HETATM    1  C8  UNL     1      -1.293  -1.143  -0.481  1.00  0.00     0.146 C 
HETATM    2  C9  UNL     1      -1.040  -2.148  -1.483  1.00  0.00     0.061 C 
HETATM    3  C11 UNL     1      -0.963  -1.778  -2.808  1.00  0.00     0.102 A 
HETATM    4  C12 UNL     1      -1.188  -0.366  -3.140  1.00  0.00     0.079 A 
HETATM    5  N2  UNL     1      -0.990   0.125  -4.296  1.00  0.00    -0.348 N 
ATOM      6  H2  UNL     1      -1.156   1.115  -4.479  1.00  0.00     0.167 HD
HETATM    7  C13 UNL     1      -0.541  -0.721  -5.307  1.00  0.00     0.198 A 
HETATM    8  N3  UNL     1      -0.321  -1.953  -5.150  1.00  0.00    -0.294 N 
ATOM      9  H3  UNL     1       0.003  -2.509  -5.941  1.00  0.00     0.188 HD
HETATM   10  N4  UNL     1      -0.528  -2.612  -3.823  1.00  0.00    -0.292 N 
HETATM   11  C14 UNL     1      -0.360  -3.995  -3.814  1.00  0.00     0.178 C 
HETATM   12  C15 UNL     1      -1.926   0.543  -2.223  1.00  0.00     0.127 C 
HETATM   13  N5  UNL     1      -1.978   0.104  -0.930  1.00  0.00    -0.314 N 
HETATM   14  C16 UNL     1      -2.605   0.895   0.079  1.00  0.00     0.242 C 
HETATM   15  O3  UNL     1      -2.804   0.472   1.270  1.00  0.00    -0.271 OA
ENDROOT
BRANCH   1  16
HETATM   16  C7  UNL     1       0.096  -0.364  -0.228  1.00  0.00     0.058 C 
BRANCH  16  17
HETATM   17  C6  UNL     1       1.217  -1.274   0.145  1.00  0.00     0.170 C 
BRANCH  17  18
HETATM   18  O1  UNL     1       2.285  -0.506   0.255  1.00  0.00    -0.391 OA
BRANCH  18  19
HETATM   19  C5  UNL     1       3.544  -0.633   0.350  1.00  0.00     0.167 C 
BRANCH  19  20
HETATM   20  C4  UNL     1       4.193  -1.413   1.418  1.00  0.00     0.026 C 
BRANCH  20  21
HETATM   21  C3  UNL     1       3.843  -0.981   2.816  1.00  0.00     0.002 C 
BRANCH  21  22
HETATM   22  C2  UNL     1       4.793  -1.822   3.682  1.00  0.00    -0.004 C 
HETATM   23  C1  UNL     1       4.448  -1.722   5.117  1.00  0.00     0.005 C 
ENDBRANCH  21  22
ENDBRANCH  20  21
ENDBRANCH  19  20
ENDBRANCH  18  19
ENDBRANCH  17  18
ENDBRANCH  16  17
ENDBRANCH   1  16
BRANCH  14  24
HETATM   24  C17 UNL     1      -3.029   2.263  -0.196  1.00  0.00     0.228 C 
BRANCH  24  25
HETATM   25  N6  UNL     1      -3.571   3.003   0.936  1.00  0.00    -0.349 N 
HETATM   26  C18 UNL     1      -4.851   2.726   1.522  1.00  0.00     0.153 C 
HETATM   27  C19 UNL     1      -2.783   4.055   1.454  1.00  0.00     0.177 C 
HETATM   28  N7  UNL     1      -3.246   5.197   1.914  1.00  0.00    -0.371 N 
HETATM   29  N8  UNL     1      -1.300   3.958   1.486  1.00  0.00    -0.292 N 
ATOM     30  H72 UNL     1      -4.264   5.264   1.892  1.00  0.00     0.159 HD
ATOM     31  H71 UNL     1      -2.677   5.957   2.288  1.00  0.00     0.159 HD
ATOM     32  H8  UNL     1      -0.776   3.410   2.168  1.00  0.00     0.171 HD
BRANCH  29  33
HETATM   33  P1  UNL     1      -0.548   4.923   0.178  1.00  0.00     0.286 P 
BRANCH  33  34
HETATM   34  O4  UNL     1      -1.718   6.060  -0.390  1.00  0.00    -0.333 OA
ATOM     35  H4  UNL     1      -1.319   6.572  -1.084  1.00  0.00     0.219 HD
ENDBRANCH  33  34
BRANCH  33  36
HETATM   36  O5  UNL     1       0.878   5.716   0.696  1.00  0.00    -0.333 OA
ATOM     37  H5  UNL     1       1.277   6.228   0.002  1.00  0.00     0.219 HD
ENDBRANCH  33  36
ENDBRANCH  29  33
ENDBRANCH  24  25
ENDBRANCH  14  24
BRANCH   2  38
HETATM   38  N1  UNL     1      -0.841  -3.533  -1.277  1.00  0.00    -0.368 N 
ATOM     39  H1  UNL     1      -0.604  -4.087  -2.100  1.00  0.00     0.161 HD
BRANCH  38  40
HETATM   40  C10 UNL     1      -0.938  -4.252  -0.014  1.00  0.00     0.287 C 
BRANCH  40  41
HETATM   41  O2  UNL     1      -1.322  -3.258   0.905  1.00  0.00    -0.382 OA
ATOM     42  H2  UNL     1      -1.385  -3.727   1.729  1.00  0.00     0.211 HD
ENDBRANCH  40  41
ENDBRANCH  38  40
ENDBRANCH   2  38
TORSDOF 15
