REMARK  7 active torsions:
REMARK  status: ('A' for Active; 'I' for Inactive)
REMARK    1  A    between atoms: C2_2  and  C4_4 
REMARK    2  A    between atoms: C7_7  and  C8_8 
REMARK    3  A    between atoms: C8_8  and  O1_9 
REMARK    4  A    between atoms: C8_8  and  C9_11 
REMARK       I    between atoms: C9_11  and  N1_13 
REMARK    5  A    between atoms: N1_13  and  N2_15 
REMARK       I    between atoms: N2_15  and  C11_17 
REMARK    6  A    between atoms: C13_20  and  O4_21 
REMARK    7  A    between atoms: C14_23  and  O5_24 
ROOT
HETATM    1  C4  UNL     1      -2.613   0.921   0.894  1.00  0.00     0.049 C 
HETATM    2  C5  UNL     1      -1.526  -0.053   1.292  1.00  0.00     0.002 C 
HETATM    3  C6  UNL     1      -1.110   0.152   2.743  1.00  0.00     0.011 C 
HETATM    4  C7  UNL     1      -0.353   0.215   0.423  1.00  0.00     0.059 C 
HETATM    5  C13 UNL     1      -0.879   1.125  -0.674  1.00  0.00     0.154 C 
HETATM    6  C14 UNL     1      -1.943   1.942   0.081  1.00  0.00     0.155 C 
ENDROOT
BRANCH   4   7
HETATM    7  C8  UNL     1       0.202  -1.039  -0.229  1.00  0.00     0.218 C 
BRANCH   7   8
HETATM    8  O1  UNL     1       0.579  -1.965   0.743  1.00  0.00    -0.386 OA
ATOM      9  H1  UNL     1       0.926  -2.750   0.335  1.00  0.00     0.210 HD
ENDBRANCH   7   8
BRANCH   7  10
HETATM   10  C9  UNL     1       1.451  -0.670  -0.937  1.00  0.00     0.267 C 
HETATM   11  O2  UNL     1       1.406   0.201  -1.892  1.00  0.00    -0.269 OA
HETATM   12  N1  UNL     1       2.742  -1.174  -0.689  1.00  0.00    -0.261 N 
HETATM   13  C10 UNL     1       3.121  -2.141   0.303  1.00  0.00     0.181 C 
BRANCH  12  14
HETATM   14  N2  UNL     1       3.801  -0.693  -1.506  1.00  0.00    -0.266 N 
HETATM   15  C11 UNL     1       4.864   0.086  -1.041  1.00  0.00     0.232 C 
HETATM   16  C12 UNL     1       5.954   0.558  -1.965  1.00  0.00     0.119 C 
HETATM   17  O3  UNL     1       4.966   0.429   0.162  1.00  0.00    -0.272 OA
ATOM     18  H2  UNL     1       3.784  -0.932  -2.497  1.00  0.00     0.190 HD
ENDBRANCH  12  14
ENDBRANCH   7  10
ENDBRANCH   4   7
BRANCH   5  19
HETATM   19  O4  UNL     1      -1.375   0.454  -1.759  1.00  0.00    -0.392 OA
ATOM     20  H4  UNL     1      -1.704   1.023  -2.445  1.00  0.00     0.210 HD
ENDBRANCH   5  19
BRANCH   1  21
HETATM   21  C2  UNL     1      -3.796   0.271   0.380  1.00  0.00    -0.086 C 
HETATM   22  C1  UNL     1      -4.380   0.435  -0.760  1.00  0.00     0.014 C 
HETATM   23  C3  UNL     1      -4.504  -0.745   1.304  1.00  0.00     0.043 C 
ENDBRANCH   1  21
BRANCH   6  24
HETATM   24  O5  UNL     1      -2.713   2.638  -0.793  1.00  0.00    -0.392 OA
ATOM     25  H5  UNL     1      -2.279   3.299  -1.319  1.00  0.00     0.210 HD
ENDBRANCH   6  24
TORSDOF 7
