REMARK  6 active torsions:
REMARK  status: ('A' for Active; 'I' for Inactive)
REMARK    1  A    between atoms: C2_2  and  N1_4 
REMARK    2  A    between atoms: C2_2  and  C4_8 
REMARK       I    between atoms: C4_8  and  N2_10 
REMARK    3  A    between atoms: N2_10  and  C5_12 
REMARK    4  A    between atoms: C7_14  and  N3_15 
REMARK    5  A    between atoms: N3_15  and  S1_17 
REMARK    6  A    between atoms: C12_23  and  N4_24 
ROOT
HETATM    1  C5  UNL     1       0.757  -0.715  -0.026  1.00  0.00     0.116 C 
HETATM    2  C6  UNL     1      -0.237   0.292   0.513  1.00  0.00     0.052 C 
HETATM    3  C7  UNL     1      -1.631  -0.261   0.636  1.00  0.00     0.091 C 
HETATM    4  C10 UNL     1      -1.590  -1.716   0.283  1.00  0.00     0.028 C 
HETATM    5  C11 UNL     1      -1.061  -1.924  -1.121  1.00  0.00     0.037 C 
HETATM    6  C12 UNL     1       0.284  -1.316  -1.333  1.00  0.00     0.206 C 
ENDROOT
BRANCH   1   7
HETATM    7  N2  UNL     1       2.010  -0.025  -0.174  1.00  0.00    -0.352 N 
HETATM    8  C4  UNL     1       3.154  -0.376   0.574  1.00  0.00     0.253 C 
HETATM    9  O1  UNL     1       3.048  -1.332   1.394  1.00  0.00    -0.271 OA
ATOM     10  H2  UNL     1       2.074   0.743  -0.842  1.00  0.00     0.163 HD
BRANCH   8  11
HETATM   11  C2  UNL     1       4.454   0.297   0.459  1.00  0.00     0.196 C 
HETATM   12  C1  UNL     1       5.029   0.186  -0.950  1.00  0.00     0.056 C 
HETATM   13  C3  UNL     1       4.384   1.772   0.777  1.00  0.00     0.056 C 
BRANCH  11  14
HETATM   14  N1  UNL     1       5.420  -0.293   1.355  1.00  0.00    -0.062 N 
ATOM     15  H13 UNL     1       5.674  -1.247   1.099  1.00  0.00     0.275 HD
ATOM     16  H12 UNL     1       6.350   0.116   1.268  1.00  0.00     0.275 HD
ATOM     17  H11 UNL     1       5.036  -0.219   2.297  1.00  0.00     0.275 HD
ENDBRANCH  11  14
ENDBRANCH   8  11
ENDBRANCH   1   7
BRANCH   6  18
HETATM   18  N4  UNL     1       0.356  -0.348  -2.378  1.00  0.00    -0.073 N 
ATOM     19  H43 UNL     1      -0.155   0.503  -2.144  1.00  0.00     0.274 HD
ATOM     20  H42 UNL     1       1.290   0.054  -2.460  1.00  0.00     0.274 HD
ATOM     21  H41 UNL     1       0.037  -0.753  -3.258  1.00  0.00     0.274 HD
ENDBRANCH   6  18
BRANCH   3  22
HETATM   22  N3  UNL     1      -2.506   0.537  -0.133  1.00  0.00    -0.347 N 
ATOM     23  H3  UNL     1      -2.127   1.333  -0.647  1.00  0.00     0.169 HD
BRANCH  22  24
HETATM   24  S1  UNL     1      -4.280   0.190  -0.234  1.00  0.00     0.013 S 
HETATM   25  C8  UNL     1      -4.698   2.031  -0.406  1.00  0.00     0.135 C 
HETATM   26  C9  UNL     1      -5.411  -0.126   1.181  1.00  0.00     0.135 C 
HETATM   27  O2  UNL     1      -5.064   0.044  -2.017  1.00  0.00    -0.251 OA
ENDBRANCH  22  24
ENDBRANCH   3  22
TORSDOF 6
