REMARK  5 active torsions:
REMARK  status: ('A' for Active; 'I' for Inactive)
REMARK       I    between atoms: C1_2  and  N1_3 
REMARK    1  A    between atoms: C1_2  and  O2_13 
REMARK    2  A    between atoms: N1_3  and  C2_5 
REMARK    3  A    between atoms: O2_13  and  C7_14 
REMARK    4  A    between atoms: C7_14  and  C8_15 
REMARK    5  A    between atoms: C8_15  and  N3_16 
REMARK       I    between atoms: N3_16  and  C9_18 
REMARK       I    between atoms: C9_18  and  N4_20 
ROOT
HETATM    1  O2  UNL     1       0.932  -0.311   0.090  1.00  0.00    -0.302 OA
ENDROOT
BRANCH   1   2
HETATM    2  C1  UNL     1       2.143   0.367   0.039  1.00  0.00     0.360 C 
HETATM    3  O1  UNL     1       2.116   1.609  -0.147  1.00  0.00    -0.239 OA
HETATM    4  N1  UNL     1       3.334  -0.364   0.197  1.00  0.00    -0.332 N 
ATOM      5  H1  UNL     1       3.310  -1.373   0.346  1.00  0.00     0.165 HD
BRANCH   4   6
HETATM    6  C2  UNL     1       4.596   0.346   0.143  1.00  0.00     0.089 C 
HETATM    7  C3  UNL     1       5.428  -0.154  -1.039  1.00  0.00     0.052 C 
HETATM    8  C4  UNL     1       6.773   0.577  -0.929  1.00  0.00     0.234 C 
HETATM    9  N2  UNL     1       7.544   0.060   0.182  1.00  0.00    -0.075 N 
HETATM   10  C5  UNL     1       6.704  -0.577   1.175  1.00  0.00     0.234 C 
ATOM     11  H22 UNL     1       8.280  -0.569  -0.139  1.00  0.00     0.277 HD
ATOM     12  H21 UNL     1       8.125   0.787   0.600  1.00  0.00     0.277 HD
HETATM   13  C6  UNL     1       5.403   0.166   1.385  1.00  0.00     0.052 C 
ENDBRANCH   4   6
ENDBRANCH   1   2
BRANCH   1  14
HETATM   14  C7  UNL     1      -0.324   0.323  -0.056  1.00  0.00     0.200 C 
BRANCH  14  15
HETATM   15  C8  UNL     1      -1.409  -0.712   0.053  1.00  0.00     0.151 C 
BRANCH  15  16
HETATM   16  N3  UNL     1      -2.731  -0.120  -0.090  1.00  0.00    -0.341 N 
HETATM   17  C9  UNL     1      -3.899  -0.918  -0.020  1.00  0.00     0.318 C 
HETATM   18  O3  UNL     1      -3.767  -2.159   0.169  1.00  0.00    -0.247 OA
HETATM   19  N4  UNL     1      -5.177  -0.334  -0.160  1.00  0.00    -0.330 N 
HETATM   20  C10 UNL     1      -5.275   1.095  -0.375  1.00  0.00     0.153 C 
HETATM   21  C13 UNL     1      -6.340  -1.194  -0.082  1.00  0.00     0.153 C 
HETATM   22  C11 UNL     1      -6.738   1.446  -0.455  1.00  0.00     0.187 C 
HETATM   23  O4  UNL     1      -7.359   0.863   0.659  1.00  0.00    -0.388 OA
HETATM   24  C12 UNL     1      -7.579  -0.482   0.348  1.00  0.00     0.187 C 
ATOM     25  H3  UNL     1      -2.818   0.885  -0.243  1.00  0.00     0.164 HD
ENDBRANCH  15  16
ENDBRANCH  14  15
ENDBRANCH   1  14
TORSDOF 5
