REMARK  10 active torsions:
REMARK  status: ('A' for Active; 'I' for Inactive)
REMARK    1  A    between atoms: C3_3  and  C4_4 
REMARK    2  A    between atoms: C5_5  and  C6_6 
REMARK    3  A    between atoms: C6_6  and  O1_8 
REMARK    4  A    between atoms: C6_6  and  C8_10 
REMARK       I    between atoms: C8_10  and  N1_12 
REMARK    5  A    between atoms: N1_12  and  C9_14 
REMARK    6  A    between atoms: C9_14  and  C10_15 
REMARK    7  A    between atoms: C9_14  and  C12_19 
REMARK    8  A    between atoms: C10_15  and  C11_16 
REMARK    9  A    between atoms: C13_21  and  O6_22 
REMARK   10  A    between atoms: C13_21  and  C14_24 
ROOT
HETATM    1  C9  UNL     1      -1.327   1.225   0.175  1.00  0.00     0.131 C 
ENDROOT
BRANCH   1   2
HETATM    2  N1  UNL     1      -0.526   0.324  -0.712  1.00  0.00    -0.350 N 
HETATM    3  C8  UNL     1       0.879   0.242  -0.582  1.00  0.00     0.256 C 
HETATM    4  O2  UNL     1       1.456   0.937   0.293  1.00  0.00    -0.270 OA
ATOM      5  H1  UNL     1      -1.000  -0.238  -1.419  1.00  0.00     0.163 HD
BRANCH   3   6
HETATM    6  C6  UNL     1       1.652  -0.654  -1.469  1.00  0.00     0.152 C 
HETATM    7  C7  UNL     1       2.514   0.175  -2.374  1.00  0.00     0.061 C 
BRANCH   6   8
HETATM    8  C5  UNL     1       2.334  -1.728  -0.752  1.00  0.00     0.020 C 
HETATM    9  C4  UNL     1       3.457  -1.750  -0.117  1.00  0.00    -0.001 C 
BRANCH   9  10
HETATM   10  C3  UNL     1       4.341  -0.613   0.023  1.00  0.00    -0.005 C 
HETATM   11  C2  UNL     1       5.492  -0.750   0.708  1.00  0.00    -0.031 C 
HETATM   12  C1  UNL     1       5.780  -2.084   1.282  1.00  0.00     0.036 C 
ENDBRANCH   9  10
ENDBRANCH   6   8
BRANCH   6  13
HETATM   13  O1  UNL     1       0.687  -1.272  -2.325  1.00  0.00    -0.376 OA
ATOM     14  H1  UNL     1       0.243  -0.573  -2.791  1.00  0.00     0.211 HD
ENDBRANCH   6  13
ENDBRANCH   3   6
ENDBRANCH   1   2
BRANCH   1  15
HETATM   15  C10 UNL     1      -1.998   2.156  -0.762  1.00  0.00     0.141 C 
BRANCH  15  16
HETATM   16  C11 UNL     1      -2.831   3.188  -0.182  1.00  0.00     0.174 C 
HETATM   17  O3  UNL     1      -2.965   3.424   1.033  1.00  0.00    -0.648 OA
HETATM   18  O4  UNL     1      -3.560   4.005  -1.070  1.00  0.00    -0.648 OA
ENDBRANCH  15  16
ENDBRANCH   1  15
BRANCH   1  19
HETATM   19  C12 UNL     1      -2.201   0.274   0.926  1.00  0.00     0.225 C 
HETATM   20  O5  UNL     1      -3.069   0.793   1.858  1.00  0.00    -0.325 OA
HETATM   21  C13 UNL     1      -3.905  -0.313   1.590  1.00  0.00     0.320 C 
HETATM   22  C15 UNL     1      -3.371  -0.265   0.197  1.00  0.00     0.230 C 
HETATM   23  O9  UNL     1      -3.806  -0.558  -0.875  1.00  0.00    -0.288 OA
BRANCH  21  24
HETATM   24  O6  UNL     1      -3.424  -1.402   2.328  1.00  0.00    -0.351 OA
ATOM     25  H6  UNL     1      -3.986  -2.146   2.148  1.00  0.00     0.214 HD
ENDBRANCH  21  24
BRANCH  21  26
HETATM   26  C14 UNL     1      -5.336  -0.054   1.720  1.00  0.00     0.247 C 
HETATM   27  O7  UNL     1      -5.835   0.909   1.087  1.00  0.00    -0.644 OA
HETATM   28  O8  UNL     1      -6.141  -0.822   2.503  1.00  0.00    -0.644 OA
ENDBRANCH  21  26
ENDBRANCH   1  19
TORSDOF 10
