REMARK  10 active torsions:
REMARK  status: ('A' for Active; 'I' for Inactive)
REMARK    1  A    between atoms: C2_2  and  C4_4 
REMARK    2  A    between atoms: C4_4  and  N1_5 
REMARK    3  A    between atoms: C4_4  and  C13_17 
REMARK       I    between atoms: N1_5  and  C5_7 
REMARK    4  A    between atoms: C5_7  and  O2_9 
REMARK    5  A    between atoms: O2_9  and  C6_10 
REMARK    6  A    between atoms: C6_10  and  C7_11 
REMARK       I    between atoms: C13_17  and  N2_19 
REMARK    7  A    between atoms: N2_19  and  C14_21 
REMARK    8  A    between atoms: C14_21  and  C15_22 
REMARK    9  A    between atoms: C14_21  and  C16_25 
REMARK   10  A    between atoms: C16_25  and  O5_27 
ROOT
HETATM    1  C4  UNL     1      -0.583  -0.939  -0.827  1.00  0.00     0.182 C 
ENDROOT
BRANCH   1   2
HETATM    2  C2  UNL     1      -0.798  -2.368  -0.327  1.00  0.00     0.009 C 
HETATM    3  C1  UNL     1      -2.048  -2.963  -0.856  1.00  0.00     0.012 C 
HETATM    4  C3  UNL     1      -0.808  -2.405   1.195  1.00  0.00     0.012 C 
ENDBRANCH   1   2
BRANCH   1   5
HETATM    5  N1  UNL     1       0.695  -0.543  -0.208  1.00  0.00    -0.323 N 
HETATM    6  C5  UNL     1       1.835  -0.346  -1.006  1.00  0.00     0.361 C 
HETATM    7  O1  UNL     1       1.846  -0.489  -2.242  1.00  0.00    -0.238 OA
ATOM      8  H1  UNL     1       0.752  -0.412   0.802  1.00  0.00     0.165 HD
BRANCH   6   9
HETATM    9  O2  UNL     1       3.030   0.029  -0.399  1.00  0.00    -0.299 OA
BRANCH   9  10
HETATM   10  C6  UNL     1       4.219   0.243  -1.117  1.00  0.00     0.219 C 
BRANCH  10  11
HETATM   11  C7  UNL     1       5.269   0.637  -0.131  1.00  0.00    -0.034 A 
HETATM   12  C8  UNL     1       6.044  -0.287   0.527  1.00  0.00     0.009 A 
HETATM   13  C9  UNL     1       7.004   0.122   1.426  1.00  0.00     0.001 A 
HETATM   14  C10 UNL     1       7.238   1.458   1.712  1.00  0.00     0.000 A 
HETATM   15  C11 UNL     1       6.442   2.363   1.033  1.00  0.00     0.001 A 
HETATM   16  C12 UNL     1       5.478   1.971   0.132  1.00  0.00     0.009 A 
ENDBRANCH  10  11
ENDBRANCH   9  10
ENDBRANCH   6   9
ENDBRANCH   1   5
BRANCH   1  17
HETATM   17  C13 UNL     1      -1.625  -0.013  -0.371  1.00  0.00     0.241 C 
HETATM   18  O3  UNL     1      -1.344   0.822   0.523  1.00  0.00    -0.271 OA
HETATM   19  N2  UNL     1      -2.938  -0.007  -0.887  1.00  0.00    -0.344 N 
ATOM     20  H2  UNL     1      -3.179  -0.674  -1.620  1.00  0.00     0.163 HD
BRANCH  19  21
HETATM   21  C14 UNL     1      -3.945   0.896  -0.424  1.00  0.00     0.202 C 
BRANCH  21  22
HETATM   22  C15 UNL     1      -3.570   2.296  -0.769  1.00  0.00     0.256 C 
HETATM   23  N3  UNL     1      -4.418   3.377  -0.345  1.00  0.00    -0.060 NA
HETATM   24  O4  UNL     1      -2.524   2.514  -1.420  1.00  0.00    -0.274 OA
ENDBRANCH  21  22
BRANCH  21  25
HETATM   25  C16 UNL     1      -4.341   0.735   1.013  1.00  0.00     0.145 C 
HETATM   26  C17 UNL     1      -4.984  -0.636   1.172  1.00  0.00     0.042 C 
BRANCH  25  27
HETATM   27  O5  UNL     1      -5.340   1.671   1.359  1.00  0.00    -0.393 OA
ATOM     28  H5  UNL     1      -5.591   1.569   2.270  1.00  0.00     0.210 HD
ENDBRANCH  25  27
ENDBRANCH  21  25
ENDBRANCH  19  21
ENDBRANCH   1  17
TORSDOF 10
