REMARK  8 active torsions:
REMARK  status: ('A' for Active; 'I' for Inactive)
REMARK    1  A    between atoms: C5_6  and  N1_7 
REMARK       I    between atoms: N1_7  and  C6_9 
REMARK    2  A    between atoms: C6_9  and  C7_11 
REMARK    3  A    between atoms: C7_11  and  N2_12 
REMARK    4  A    between atoms: C7_11  and  C11_22 
REMARK       I    between atoms: N2_12  and  C8_14 
REMARK    5  A    between atoms: C8_14  and  C9_16 
REMARK    6  A    between atoms: C9_16  and  N3_18 
REMARK       I    between atoms: C11_22  and  N4_24 
REMARK    7  A    between atoms: N4_24  and  C12_26 
REMARK    8  A    between atoms: C12_26  and  C14_29 
ROOT
HETATM    1  C12 UNL     1       2.826  -1.348   0.436  1.00  0.00     0.195 C 
HETATM    2  C13 UNL     1       2.898  -2.421   1.391  1.00  0.00     0.085 C 
HETATM    3  N5  UNL     1       2.944  -3.275   2.180  1.00  0.00    -0.195 NA
ENDROOT
BRANCH   1   4
HETATM    4  N4  UNL     1       1.671  -0.481   0.596  1.00  0.00    -0.342 N 
HETATM    5  C11 UNL     1       0.827  -0.128  -0.471  1.00  0.00     0.251 C 
HETATM    6  O4  UNL     1       1.055  -0.554  -1.618  1.00  0.00    -0.271 OA
ATOM      7  H4  UNL     1       1.463  -0.112   1.524  1.00  0.00     0.163 HD
BRANCH   5   8
HETATM    8  C7  UNL     1      -0.345   0.758  -0.263  1.00  0.00     0.269 C 
BRANCH   8   9
HETATM    9  C6  UNL     1      -1.489  -0.168   0.063  1.00  0.00     0.255 C 
HETATM   10  N1  UNL     1      -1.541  -0.918   1.271  1.00  0.00    -0.305 N 
ATOM     11  H1  UNL     1      -0.796  -0.844   1.964  1.00  0.00     0.171 HD
HETATM   12  O2  UNL     1      -2.438  -0.286  -0.764  1.00  0.00    -0.270 OA
BRANCH  10  13
HETATM   13  C5  UNL     1      -2.658  -1.774   1.490  1.00  0.00     0.155 A 
HETATM   14  C2  UNL     1      -2.891  -2.551   2.589  1.00  0.00    -0.009 A 
HETATM   15  C1  UNL     1      -2.029  -2.678   3.789  1.00  0.00     0.052 C 
HETATM   16  C3  UNL     1      -4.079  -3.238   2.427  1.00  0.00     0.035 A 
HETATM   17  C4  UNL     1      -4.536  -2.824   1.172  1.00  0.00     0.145 A 
HETATM   18  O1  UNL     1      -3.670  -1.971   0.670  1.00  0.00    -0.305 OA
ENDBRANCH  10  13
ENDBRANCH   8   9
BRANCH   8  19
HETATM   19  N2  UNL     1      -0.695   1.320  -1.590  1.00  0.00    -0.338 N 
HETATM   20  C8  UNL     1      -0.752   2.710  -1.801  1.00  0.00     0.248 C 
HETATM   21  O3  UNL     1      -0.513   3.528  -0.871  1.00  0.00    -0.271 OA
ATOM     22  H2  UNL     1      -0.898   0.687  -2.364  1.00  0.00     0.163 HD
BRANCH  20  23
HETATM   23  C9  UNL     1      -1.099   3.218  -3.151  1.00  0.00     0.270 C 
HETATM   24  C10 UNL     1      -2.290   4.135  -3.141  1.00  0.00     0.050 C 
BRANCH  23  25
HETATM   25  N3  UNL     1      -1.317   2.112  -4.074  1.00  0.00    -0.067 N 
ATOM     26  H33 UNL     1      -0.518   1.479  -4.102  1.00  0.00     0.275 HD
ATOM     27  H32 UNL     1      -2.018   1.459  -3.724  1.00  0.00     0.275 HD
ATOM     28  H31 UNL     1      -1.556   2.461  -5.002  1.00  0.00     0.275 HD
ENDBRANCH  23  25
ENDBRANCH  20  23
ENDBRANCH   8  19
ENDBRANCH   5   8
ENDBRANCH   1   4
BRANCH   1  29
HETATM   29  C14 UNL     1       4.139  -0.595   0.434  1.00  0.00     0.014 C 
HETATM   30  C15 UNL     1       4.402   0.166   1.705  1.00  0.00     0.012 C 
HETATM   31  C16 UNL     1       4.232   0.330  -0.785  1.00  0.00     0.012 C 
ENDBRANCH   1  29
TORSDOF 8
