REMARK  13 active torsions:
REMARK  status: ('A' for Active; 'I' for Inactive)
REMARK    1  A    between atoms: O1_2  and  C2_3 
REMARK    2  A    between atoms: C2_3  and  C3_5 
REMARK    3  A    between atoms: C3_5  and  N1_6 
REMARK    4  A    between atoms: C3_5  and  C13_17 
REMARK    5  A    between atoms: N1_6  and  C4_8 
REMARK    6  A    between atoms: C4_8  and  C6_10 
REMARK    7  A    between atoms: C13_17  and  O3_18 
REMARK    8  A    between atoms: C13_17  and  C14_20 
REMARK    9  A    between atoms: C14_20  and  O4_21 
REMARK   10  A    between atoms: C14_20  and  C15_23 
REMARK   11  A    between atoms: C15_23  and  O5_24 
REMARK   12  A    between atoms: C15_23  and  C16_26 
REMARK   13  A    between atoms: C16_26  and  O6_28 
ROOT
HETATM    1  C3  UNL     1      -0.275   0.573   0.663  1.00  0.00     0.209 C 
ENDROOT
BRANCH   1   2
HETATM    2  C2  UNL     1       0.113   2.006   0.818  1.00  0.00     0.283 C 
HETATM    3  O2  UNL     1       1.294   2.278   1.246  1.00  0.00    -0.263 OA
BRANCH   2   4
HETATM    4  O1  UNL     1      -0.673   3.068   0.540  1.00  0.00    -0.325 OA
HETATM    5  C1  UNL     1      -0.420   4.433   0.639  1.00  0.00     0.213 C 
ENDBRANCH   2   4
ENDBRANCH   1   2
BRANCH   1   6
HETATM    6  N1  UNL     1       0.910  -0.122   0.278  1.00  0.00    -0.399 N 
ATOM      7  H1  UNL     1       1.411   0.156  -0.566  1.00  0.00     0.154 HD
BRANCH   6   8
HETATM    8  C4  UNL     1       1.386  -1.181   1.053  1.00  0.00     0.106 C 
HETATM    9  C5  UNL     1       1.732  -0.908   2.496  1.00  0.00     0.037 C 
BRANCH   8  10
HETATM   10  C6  UNL     1       2.707  -1.642   0.443  1.00  0.00    -0.036 A 
HETATM   11  C7  UNL     1       2.900  -2.970   0.205  1.00  0.00     0.009 A 
HETATM   12  C8  UNL     1       4.121  -3.387  -0.345  1.00  0.00     0.001 A 
HETATM   13  C9  UNL     1       5.097  -2.444  -0.633  1.00  0.00     0.007 A 
HETATM   14  C10 UNL     1       4.899  -1.111  -0.393  1.00  0.00    -0.061 A 
HETATM   15  C11 UNL     1       5.936  -0.092  -0.687  1.00  0.00     0.048 C 
HETATM   16  C12 UNL     1       3.677  -0.742   0.153  1.00  0.00     0.016 A 
ENDBRANCH   8  10
ENDBRANCH   6   8
ENDBRANCH   1   6
BRANCH   1  17
HETATM   17  C13 UNL     1      -1.357   0.277  -0.288  1.00  0.00     0.181 C 
BRANCH  17  18
HETATM   18  O3  UNL     1      -1.050   0.732  -1.559  1.00  0.00    -0.390 OA
ATOM     19  H3  UNL     1      -1.749   0.541  -2.173  1.00  0.00     0.210 HD
ENDBRANCH  17  18
BRANCH  17  20
HETATM   20  C14 UNL     1      -2.747   0.592   0.083  1.00  0.00     0.180 C 
BRANCH  20  21
HETATM   21  O4  UNL     1      -3.147   1.894   0.098  1.00  0.00    -0.390 OA
ATOM     22  H4  UNL     1      -4.044   2.097   0.337  1.00  0.00     0.210 HD
ENDBRANCH  20  21
BRANCH  20  23
HETATM   23  C15 UNL     1      -3.644  -0.146  -0.905  1.00  0.00     0.177 C 
BRANCH  23  24
HETATM   24  O5  UNL     1      -3.500   0.420  -2.154  1.00  0.00    -0.390 OA
ATOM     25  H5  UNL     1      -4.059  -0.040  -2.770  1.00  0.00     0.210 HD
ENDBRANCH  23  24
BRANCH  23  26
HETATM   26  C16 UNL     1      -5.080  -0.165  -0.407  1.00  0.00     0.145 C 
HETATM   27  C17 UNL     1      -5.121  -0.873   0.925  1.00  0.00     0.042 C 
BRANCH  26  28
HETATM   28  O6  UNL     1      -5.581   1.132  -0.318  1.00  0.00    -0.393 OA
ATOM     29  H6  UNL     1      -6.478   1.120  -0.007  1.00  0.00     0.210 HD
ENDBRANCH  26  28
ENDBRANCH  23  26
ENDBRANCH  20  23
ENDBRANCH  17  20
ENDBRANCH   1  17
TORSDOF 13
