REMARK  11 active torsions:
REMARK  status: ('A' for Active; 'I' for Inactive)
REMARK    1  A    between atoms: C2_2  and  N1_4 
REMARK    2  A    between atoms: N1_4  and  C4_6 
REMARK    3  A    between atoms: C4_6  and  C5_12 
REMARK    4  A    between atoms: N2_7  and  N3_9 
REMARK    5  A    between atoms: C5_12  and  C6_13 
REMARK    6  A    between atoms: C5_12  and  N8_25 
REMARK    7  A    between atoms: C6_13  and  C7_14 
REMARK    8  A    between atoms: C7_14  and  C8_15 
REMARK    9  A    between atoms: C8_15  and  N4_16 
REMARK       I    between atoms: C9_18  and  N6_20 
REMARK   10  A    between atoms: N6_20  and  N7_22 
REMARK       I    between atoms: N8_25  and  C10_27 
REMARK   11  A    between atoms: C10_27  and  C11_29 
ROOT
HETATM    1  C5  UNL     1      -0.372   0.127   0.371  1.00  0.00     0.153 C 
ENDROOT
BRANCH   1   2
HETATM    2  C4  UNL     1      -1.002  -1.186   0.563  1.00  0.00     0.115 C 
HETATM    3  N2  UNL     1      -0.802  -2.005   1.517  1.00  0.00    -0.294 N 
ATOM      4  H2  UNL     1      -0.122  -1.738   2.229  1.00  0.00     0.187 HD
BRANCH   2   5
HETATM    5  N1  UNL     1      -1.972  -1.605  -0.420  1.00  0.00    -0.373 N 
ATOM      6  H1  UNL     1      -2.966  -1.544  -0.199  1.00  0.00     0.161 HD
BRANCH   5   7
HETATM    7  C2  UNL     1      -1.564  -2.109  -1.710  1.00  0.00     0.074 C 
HETATM    8  C1  UNL     1      -0.697  -3.355  -1.553  1.00  0.00     0.031 C 
HETATM    9  C3  UNL     1      -2.803  -2.535  -2.467  1.00  0.00     0.031 C 
ENDBRANCH   5   7
ENDBRANCH   2   5
BRANCH   3  10
HETATM   10  N3  UNL     1      -1.432  -3.226   1.666  1.00  0.00    -0.344 N 
ATOM     11  H32 UNL     1      -2.109  -3.476   0.945  1.00  0.00     0.176 HD
ATOM     12  H31 UNL     1      -1.272  -3.882   2.430  1.00  0.00     0.176 HD
ENDBRANCH   3  10
ENDBRANCH   1   2
BRANCH   1  13
HETATM   13  C6  UNL     1       0.728   0.483   1.293  1.00  0.00     0.035 C 
BRANCH  13  14
HETATM   14  C7  UNL     1       1.895  -0.439   1.221  1.00  0.00     0.022 C 
BRANCH  14  15
HETATM   15  C8  UNL     1       2.972   0.013   2.199  1.00  0.00     0.122 C 
BRANCH  15  16
HETATM   16  N4  UNL     1       4.123  -0.862   2.155  1.00  0.00    -0.363 N 
HETATM   17  C9  UNL     1       5.076  -0.640   1.292  1.00  0.00     0.207 C 
HETATM   18  N5  UNL     1       5.037   0.440   0.376  1.00  0.00    -0.062 NA
HETATM   19  N6  UNL     1       6.194  -1.513   1.267  1.00  0.00    -0.213 N 
ATOM     20  H6  UNL     1       6.233  -2.268   0.582  1.00  0.00     0.196 HD
ATOM     21  H4  UNL     1       4.189  -1.651   2.798  1.00  0.00     0.162 HD
BRANCH  19  22
HETATM   22  N7  UNL     1       7.240  -1.344   2.175  1.00  0.00    -0.036 N 
HETATM   23  O1  UNL     1       7.921  -2.294   2.608  1.00  0.00    -0.516 OA
HETATM   24  O2  UNL     1       7.558  -0.074   2.632  1.00  0.00    -0.516 OA
ENDBRANCH  19  22
ENDBRANCH  15  16
ENDBRANCH  14  15
ENDBRANCH  13  14
ENDBRANCH   1  13
BRANCH   1  25
HETATM   25  N8  UNL     1      -1.377   1.167   0.238  1.00  0.00    -0.345 N 
HETATM   26  C10 UNL     1      -1.626   1.883  -0.940  1.00  0.00     0.252 C 
HETATM   27  O3  UNL     1      -0.984   1.680  -2.016  1.00  0.00    -0.268 OA
ATOM     28  H8  UNL     1      -1.940   1.391   1.058  1.00  0.00     0.163 HD
BRANCH  26  29
HETATM   29  C11 UNL     1      -2.653   2.916  -1.000  1.00  0.00     0.032 A 
HETATM   30  C12 UNL     1      -3.206   3.464   0.154  1.00  0.00     0.017 A 
HETATM   31  C13 UNL     1      -4.169   4.422   0.080  1.00  0.00     0.001 A 
HETATM   32  C14 UNL     1      -4.619   4.871  -1.136  1.00  0.00     0.000 A 
HETATM   33  C15 UNL     1      -4.067   4.324  -2.278  1.00  0.00     0.001 A 
HETATM   34  C16 UNL     1      -3.095   3.358  -2.254  1.00  0.00     0.017 A 
ENDBRANCH  26  29
ENDBRANCH   1  25
TORSDOF 11
