REMARK  12 active torsions:
REMARK  status: ('A' for Active; 'I' for Inactive)
REMARK    1  A    between atoms: C2_2  and  N1_4 
REMARK    2  A    between atoms: N1_4  and  C4_7 
REMARK    3  A    between atoms: C4_7  and  O1_8 
REMARK    4  A    between atoms: C4_7  and  C5_10 
REMARK    5  A    between atoms: C5_10  and  C6_12 
REMARK    6  A    between atoms: C6_12  and  N2_14 
REMARK    7  A    between atoms: N2_14  and  C8_17 
REMARK    8  A    between atoms: C8_17  and  C9_18 
REMARK       I    between atoms: C9_18  and  N3_20 
REMARK    9  A    between atoms: N3_20  and  C10_22 
REMARK   10  A    between atoms: C10_22  and  C11_23 
REMARK   11  A    between atoms: C10_22  and  C12_25 
REMARK       I    between atoms: C12_25  and  N4_27 
REMARK   12  A    between atoms: N4_27  and  C13_29 
ROOT
HETATM    1  C8  UNL     1      -0.459  -0.645  -0.083  1.00  0.00     0.335 C 
ENDROOT
BRANCH   1   2
HETATM    2  N2  UNL     1      -1.738  -0.088   0.235  1.00  0.00    -0.056 N 
ATOM      3  H22 UNL     1      -2.015   0.616  -0.449  1.00  0.00     0.278 HD
ATOM      4  H21 UNL     1      -1.688   0.504   1.064  1.00  0.00     0.278 HD
BRANCH   2   5
HETATM    5  C6  UNL     1      -2.740  -1.092   0.377  1.00  0.00     0.256 C 
HETATM    6  C7  UNL     1      -2.340  -2.416  -0.331  1.00  0.00     0.048 C 
BRANCH   5   7
HETATM    7  C5  UNL     1      -4.017  -0.729  -0.341  1.00  0.00     0.212 C 
HETATM    8  O2  UNL     1      -3.939  -0.075  -1.332  1.00  0.00    -0.291 OA
BRANCH   7   9
HETATM    9  C4  UNL     1      -5.295  -1.213   0.226  1.00  0.00     0.391 C 
BRANCH   9  10
HETATM   10  N1  UNL     1      -5.932  -0.189   1.064  1.00  0.00    -0.038 N 
ATOM     11  H12 UNL     1      -5.327   0.059   1.847  1.00  0.00     0.281 HD
ATOM     12  H11 UNL     1      -6.721  -0.585   1.574  1.00  0.00     0.281 HD
BRANCH  10  13
HETATM   13  C2  UNL     1      -6.332   0.977   0.354  1.00  0.00     0.181 C 
HETATM   14  C1  UNL     1      -7.392   0.758  -0.692  1.00  0.00     0.039 C 
HETATM   15  C3  UNL     1      -6.947   1.935   1.371  1.00  0.00     0.039 C 
ENDBRANCH  10  13
ENDBRANCH   9  10
BRANCH   9  16
HETATM   16  O1  UNL     1      -6.204  -1.491  -0.797  1.00  0.00    -0.364 OA
ATOM     17  H1  UNL     1      -5.792  -2.153  -1.339  1.00  0.00     0.212 HD
ENDBRANCH   9  16
ENDBRANCH   7   9
ENDBRANCH   5   7
ENDBRANCH   2   5
ENDBRANCH   1   2
BRANCH   1  18
HETATM   18  C9  UNL     1       0.637   0.398  -0.108  1.00  0.00     0.244 C 
HETATM   19  O3  UNL     1       0.326   1.558   0.174  1.00  0.00    -0.272 OA
HETATM   20  N3  UNL     1       1.955   0.052  -0.441  1.00  0.00    -0.341 N 
ATOM     21  H3  UNL     1       2.148  -0.921  -0.680  1.00  0.00     0.163 HD
BRANCH  20  22
HETATM   22  C10 UNL     1       3.058   0.988  -0.467  1.00  0.00     0.238 C 
BRANCH  22  23
HETATM   23  C11 UNL     1       2.894   1.668  -1.829  1.00  0.00     0.266 C 
HETATM   24  O4  UNL     1       2.041   1.347  -2.584  1.00  0.00    -0.304 OA
ENDBRANCH  22  23
BRANCH  22  25
HETATM   25  C12 UNL     1       4.347   0.255  -0.515  1.00  0.00     0.251 C 
HETATM   26  O5  UNL     1       4.309  -0.947  -0.717  1.00  0.00    -0.270 OA
HETATM   27  N4  UNL     1       5.567   0.954  -0.328  1.00  0.00    -0.325 N 
ATOM     28  H4  UNL     1       5.500   1.954  -0.141  1.00  0.00     0.169 HD
BRANCH  27  29
HETATM   29  C13 UNL     1       6.867   0.401  -0.375  1.00  0.00     0.034 A 
HETATM   30  C14 UNL     1       7.908   1.157   0.193  1.00  0.00     0.029 A 
HETATM   31  C15 UNL     1       9.202   0.695   0.149  1.00  0.00     0.002 A 
HETATM   32  C16 UNL     1       9.553  -0.510  -0.444  1.00  0.00     0.000 A 
HETATM   33  C17 UNL     1       8.544  -1.245  -0.997  1.00  0.00     0.002 A 
HETATM   34  C18 UNL     1       7.222  -0.787  -0.958  1.00  0.00     0.029 A 
ENDBRANCH  27  29
ENDBRANCH  22  25
ENDBRANCH  20  22
ENDBRANCH   1  18
TORSDOF 12
