REMARK  12 active torsions:
REMARK  status: ('A' for Active; 'I' for Inactive)
REMARK    1  A    between atoms: N1_2  and  C2_4 
REMARK    2  A    between atoms: C2_4  and  C3_5 
REMARK    3  A    between atoms: C2_4  and  C14_20 
REMARK    4  A    between atoms: C3_5  and  C4_7 
REMARK    5  A    between atoms: C4_7  and  N2_8 
REMARK    6  A    between atoms: C13_17  and  O2_18 
REMARK    7  A    between atoms: C14_20  and  O3_21 
REMARK    8  A    between atoms: C14_20  and  N3_23 
REMARK    9  A    between atoms: N3_23  and  C15_26 
REMARK   10  A    between atoms: C15_26  and  C16_27 
REMARK   11  A    between atoms: C15_26  and  C17_30 
REMARK   12  A    between atoms: C17_30  and  O6_32 
ROOT
HETATM    1  C2  UNL     1      -1.859  -1.337   0.353  1.00  0.00     0.205 C 
ENDROOT
BRANCH   1   2
HETATM    2  N1  UNL     1      -2.577  -2.393   0.940  1.00  0.00    -0.412 N 
HETATM    3  C1  UNL     1      -2.454  -2.673   2.318  1.00  0.00     0.141 C 
ATOM      4  H1  UNL     1      -3.195  -2.964   0.363  1.00  0.00     0.153 HD
ENDBRANCH   1   2
BRANCH   1   5
HETATM    5  C3  UNL     1      -0.392  -1.414   0.364  1.00  0.00     0.171 C 
HETATM    6  O1  UNL     1       0.147  -2.160   1.160  1.00  0.00    -0.294 OA
BRANCH   5   7
HETATM    7  C4  UNL     1       0.486  -0.634  -0.545  1.00  0.00     0.205 C 
BRANCH   7   8
HETATM    8  N2  UNL     1       1.858  -0.538   0.041  1.00  0.00    -0.355 N 
HETATM    9  C5  UNL     1       2.004   0.647   0.849  1.00  0.00     0.125 C 
HETATM   10  C6  UNL     1       2.519   1.861   0.156  1.00  0.00     0.020 C 
HETATM   11  C7  UNL     1       3.297   1.690  -1.085  1.00  0.00     0.002 C 
HETATM   12  C8  UNL     1       4.747   2.039  -1.020  1.00  0.00     0.000 C 
HETATM   13  C9  UNL     1       5.495   1.556   0.177  1.00  0.00     0.000 C 
HETATM   14  C10 UNL     1       5.885   0.119   0.017  1.00  0.00     0.004 C 
HETATM   15  C11 UNL     1       4.979  -0.841   0.810  1.00  0.00     0.031 C 
HETATM   16  C12 UNL     1       4.205  -1.699  -0.087  1.00  0.00     0.029 C 
HETATM   17  C13 UNL     1       2.768  -1.554  -0.250  1.00  0.00     0.134 C 
BRANCH  17  18
HETATM   18  O2  UNL     1       2.204  -2.609  -0.789  1.00  0.00    -0.346 OA
ATOM     19  H2  UNL     1       2.824  -3.301  -0.987  1.00  0.00     0.219 HD
ENDBRANCH  17  18
ENDBRANCH   7   8
ENDBRANCH   5   7
ENDBRANCH   1   5
BRANCH   1  20
HETATM   20  C14 UNL     1      -2.451  -1.051  -1.022  1.00  0.00     0.349 C 
BRANCH  20  21
HETATM   21  O3  UNL     1      -2.321  -2.247  -1.783  1.00  0.00    -0.368 OA
ATOM     22  H3  UNL     1      -2.690  -2.069  -2.640  1.00  0.00     0.212 HD
ENDBRANCH  20  21
BRANCH  20  23
HETATM   23  N3  UNL     1      -3.844  -0.767  -0.934  1.00  0.00    -0.030 N 
ATOM     24  H32 UNL     1      -4.259  -0.735  -1.865  1.00  0.00     0.281 HD
ATOM     25  H31 UNL     1      -4.345  -1.566  -0.546  1.00  0.00     0.281 HD
BRANCH  23  26
HETATM   26  C15 UNL     1      -4.165   0.427  -0.202  1.00  0.00     0.316 C 
BRANCH  26  27
HETATM   27  C16 UNL     1      -3.675   1.624  -0.928  1.00  0.00     0.207 C 
HETATM   28  O4  UNL     1      -3.195   1.488  -2.077  1.00  0.00    -0.646 OA
HETATM   29  O5  UNL     1      -3.733   2.894  -0.367  1.00  0.00    -0.646 OA
ENDBRANCH  26  27
BRANCH  26  30
HETATM   30  C17 UNL     1      -5.693   0.539  -0.071  1.00  0.00     0.155 C 
HETATM   31  C18 UNL     1      -6.078   1.635   0.860  1.00  0.00     0.042 C 
BRANCH  30  32
HETATM   32  O6  UNL     1      -6.283   0.649  -1.310  1.00  0.00    -0.393 OA
ATOM     33  H6  UNL     1      -7.227   0.718  -1.229  1.00  0.00     0.210 HD
ENDBRANCH  30  32
ENDBRANCH  26  30
ENDBRANCH  23  26
ENDBRANCH  20  23
ENDBRANCH   1  20
TORSDOF 12
