REMARK  9 active torsions:
REMARK  status: ('A' for Active; 'I' for Inactive)
REMARK    1  A    between atoms: C2_2  and  C4_4 
REMARK    2  A    between atoms: C4_4  and  C5_5 
REMARK    3  A    between atoms: C5_5  and  N1_6 
REMARK    4  A    between atoms: C5_5  and  C27_37 
REMARK       I    between atoms: N1_6  and  C6_8 
REMARK    5  A    between atoms: C6_8  and  C7_10 
REMARK    6  A    between atoms: C7_10  and  C8_11 
REMARK    7  A    between atoms: C9_12  and  O2_13 
REMARK    8  A    between atoms: C10_15  and  O3_16 
REMARK    9  A    between atoms: C25_33  and  O4_34 
ROOT
HETATM    1  C8  UNL     1       0.396   0.208   0.745  1.00  0.00     0.033 C 
HETATM    2  C9  UNL     1       0.774   1.277   1.747  1.00  0.00     0.152 C 
HETATM    3  C10 UNL     1      -0.349   2.324   1.669  1.00  0.00     0.155 C 
HETATM    4  C11 UNL     1      -1.524   1.376   1.389  1.00  0.00    -0.009 C 
HETATM    5  C12 UNL     1      -1.850   0.700   2.655  1.00  0.00     0.018 C 
HETATM    6  C13 UNL     1      -2.722   2.118   0.861  1.00  0.00     0.013 C 
HETATM    7  C14 UNL     1      -3.214   1.630  -0.454  1.00  0.00     0.009 C 
HETATM    8  C15 UNL     1      -3.177   0.156  -0.687  1.00  0.00     0.025 C 
HETATM    9  C16 UNL     1      -4.223  -0.689  -0.089  1.00  0.00     0.003 C 
HETATM   10  C17 UNL     1      -5.645  -0.332  -0.439  1.00  0.00    -0.014 C 
HETATM   11  C18 UNL     1      -6.263   0.708   0.441  1.00  0.00     0.010 C 
HETATM   12  C19 UNL     1      -5.835  -0.096  -1.905  1.00  0.00     0.007 C 
HETATM   13  C20 UNL     1      -5.590  -1.432  -2.597  1.00  0.00     0.038 C 
HETATM   14  C21 UNL     1      -4.357  -2.133  -2.153  1.00  0.00     0.174 C 
HETATM   15  F1  UNL     1      -4.545  -3.492  -2.467  1.00  0.00    -0.249 F 
HETATM   16  C22 UNL     1      -4.046  -2.092  -0.703  1.00  0.00     0.024 C 
HETATM   17  C23 UNL     1      -2.691  -2.669  -0.452  1.00  0.00     0.011 C 
HETATM   18  C24 UNL     1      -1.920  -1.703   0.433  1.00  0.00     0.039 C 
HETATM   19  C25 UNL     1      -1.812  -0.417  -0.355  1.00  0.00     0.067 C 
HETATM   20  C26 UNL     1      -0.945   0.601   0.278  1.00  0.00     0.038 C 
ENDROOT
BRANCH   1  21
HETATM   21  C7  UNL     1       1.444   0.329  -0.374  1.00  0.00     0.110 C 
BRANCH  21  22
HETATM   22  C6  UNL     1       2.774   0.090   0.199  1.00  0.00     0.218 C 
HETATM   23  N1  UNL     1       3.925   0.351  -0.576  1.00  0.00    -0.346 N 
ATOM     24  H1  UNL     1       3.817   0.703  -1.527  1.00  0.00     0.163 HD
HETATM   25  O1  UNL     1       2.886  -0.341   1.376  1.00  0.00    -0.274 OA
BRANCH  23  26
HETATM   26  C5  UNL     1       5.292   0.124  -0.034  1.00  0.00     0.185 C 
BRANCH  26  27
HETATM   27  C4  UNL     1       5.990  -0.686  -1.053  1.00  0.00     0.040 C 
BRANCH  27  28
HETATM   28  C2  UNL     1       7.401  -1.104  -0.861  1.00  0.00    -0.020 C 
HETATM   29  C1  UNL     1       7.741  -1.963  -2.111  1.00  0.00     0.009 C 
HETATM   30  C3  UNL     1       8.379   0.076  -0.995  1.00  0.00     0.009 C 
ENDBRANCH  27  28
ENDBRANCH  26  27
BRANCH  26  31
HETATM   31  C27 UNL     1       5.875   1.425   0.324  1.00  0.00     0.196 C 
HETATM   32  O5  UNL     1       5.412   2.508  -0.190  1.00  0.00    -0.646 OA
HETATM   33  O6  UNL     1       6.919   1.616   1.209  1.00  0.00    -0.646 OA
ENDBRANCH  26  31
ENDBRANCH  23  26
ENDBRANCH  21  22
ENDBRANCH   1  21
BRANCH   2  34
HETATM   34  O2  UNL     1       0.911   0.809   3.044  1.00  0.00    -0.393 OA
ATOM     35  H2  UNL     1       1.148   1.480   3.673  1.00  0.00     0.210 HD
ENDBRANCH   2  34
BRANCH   3  36
HETATM   36  O3  UNL     1      -0.144   3.072   0.532  1.00  0.00    -0.392 OA
ATOM     37  H3  UNL     1      -0.838   3.719   0.484  1.00  0.00     0.210 HD
ENDBRANCH   3  36
BRANCH  19  38
HETATM   38  O4  UNL     1      -1.141  -0.805  -1.546  1.00  0.00    -0.389 OA
ATOM     39  H4  UNL     1      -0.286  -1.164  -1.338  1.00  0.00     0.210 HD
ENDBRANCH  19  38
TORSDOF 9
