REMARK  11 active torsions:
REMARK  status: ('A' for Active; 'I' for Inactive)
REMARK    1  A    between atoms: C2_2  and  C3_3 
REMARK    2  A    between atoms: C2_2  and  C4_6 
REMARK    3  A    between atoms: C3_3  and  O1_4 
REMARK    4  A    between atoms: C14_17  and  C15_18 
REMARK    5  A    between atoms: C15_18  and  O2_19 
REMARK    6  A    between atoms: N1_21  and  O3_23 
REMARK    7  A    between atoms: C17_26  and  N2_27 
REMARK    8  A    between atoms: N2_27  and  C18_29 
REMARK    9  A    between atoms: C18_29  and  C19_30 
REMARK   10  A    between atoms: C19_30  and  N3_31 
REMARK   11  A    between atoms: C23_35  and  O4_36 
ROOT
HETATM    1  C4  UNL     1      -3.547  -1.046  -0.268  1.00  0.00    -0.038 C 
HETATM    2  C5  UNL     1      -3.545   0.390  -0.109  1.00  0.00    -0.022 A 
HETATM    3  C6  UNL     1      -4.484   1.202   0.514  1.00  0.00     0.014 A 
HETATM    4  C7  UNL     1      -4.328   2.564   0.550  1.00  0.00     0.020 A 
HETATM    5  C8  UNL     1      -3.235   3.117  -0.034  1.00  0.00     0.011 A 
HETATM    6 BR1  UNL     1      -3.023   5.020   0.016  1.00  0.00    -0.051 Br
HETATM    7  C9  UNL     1      -2.315   2.305  -0.642  1.00  0.00     0.027 A 
HETATM    8  C10 UNL     1      -2.392   0.930  -0.724  1.00  0.00    -0.041 A 
HETATM    9  C11 UNL     1      -1.634  -0.180  -1.212  1.00  0.00     0.035 C 
HETATM   10  C12 UNL     1      -2.045  -1.342  -0.300  1.00  0.00     0.033 C 
HETATM   11  C13 UNL     1      -1.399  -1.393   0.993  1.00  0.00     0.049 C 
HETATM   12  C14 UNL     1      -0.077  -0.675   1.180  1.00  0.00    -0.020 C 
HETATM   13  C16 UNL     1       0.623  -0.368  -0.053  1.00  0.00     0.049 C 
HETATM   14  C17 UNL     1       1.532   0.811  -0.148  1.00  0.00     0.091 C 
HETATM   15  C22 UNL     1       1.926   0.719  -1.619  1.00  0.00     0.057 C 
HETATM   16  C23 UNL     1       0.521   0.687  -2.256  1.00  0.00     0.125 C 
HETATM   17  C24 UNL     1      -0.193  -0.245  -1.334  1.00  0.00     0.034 C 
ENDROOT
BRANCH  12  18
HETATM   18  C15 UNL     1      -0.216   0.321   2.247  1.00  0.00     0.162 C 
HETATM   19  N1  UNL     1      -0.050   1.570   2.232  1.00  0.00    -0.247 N 
ATOM     20  H1  UNL     1       0.228   1.993   1.346  1.00  0.00     0.196 HD
BRANCH  18  21
HETATM   21  O2  UNL     1      -0.601  -0.179   3.516  1.00  0.00    -0.345 OA
ATOM     22  H2  UNL     1      -0.691   0.466   4.207  1.00  0.00     0.219 HD
ENDBRANCH  18  21
BRANCH  19  23
HETATM   23  O3  UNL     1      -0.208   2.395   3.286  1.00  0.00    -0.288 OA
ATOM     24  H3  UNL     1      -0.083   3.337   3.275  1.00  0.00     0.244 HD
ENDBRANCH  19  23
ENDBRANCH  12  18
BRANCH  14  25
HETATM   25  N2  UNL     1       2.586   1.017   0.671  1.00  0.00    -0.395 N 
ATOM     26  H2  UNL     1       2.508   1.860   1.240  1.00  0.00     0.159 HD
BRANCH  25  27
HETATM   27  C18 UNL     1       3.743   0.308   0.884  1.00  0.00     0.085 C 
BRANCH  27  28
HETATM   28  C19 UNL     1       4.747   0.391  -0.224  1.00  0.00     0.315 C 
BRANCH  28  29
HETATM   29  N3  UNL     1       5.924  -0.406   0.175  1.00  0.00     0.084 N 
HETATM   30  C20 UNL     1       6.615   0.212   1.281  1.00  0.00     0.309 C 
HETATM   31  C21 UNL     1       6.831  -0.591  -0.925  1.00  0.00     0.309 C 
ENDBRANCH  28  29
ENDBRANCH  27  28
ENDBRANCH  25  27
ENDBRANCH  14  25
BRANCH   1  32
HETATM   32  C2  UNL     1      -4.479  -1.919  -0.454  1.00  0.00    -0.053 C 
HETATM   33  C1  UNL     1      -3.943  -3.376  -0.546  1.00  0.00     0.046 C 
BRANCH  32  34
HETATM   34  C3  UNL     1      -5.905  -1.839  -0.709  1.00  0.00     0.198 C 
BRANCH  34  35
HETATM   35  O1  UNL     1      -6.532  -0.653  -0.811  1.00  0.00    -0.397 OA
ATOM     36  H1  UNL     1      -7.466  -0.601  -0.978  1.00  0.00     0.209 HD
ENDBRANCH  34  35
ENDBRANCH  32  34
ENDBRANCH   1  32
BRANCH  16  37
HETATM   37  O4  UNL     1       0.747   0.149  -3.545  1.00  0.00    -0.395 OA
ATOM     38  H4  UNL     1      -0.118   0.129  -3.937  1.00  0.00     0.210 HD
ENDBRANCH  16  37
TORSDOF 11
