REMARK  10 active torsions:
REMARK  status: ('A' for Active; 'I' for Inactive)
REMARK    1  A    between atoms: C2_2  and  O2_4 
REMARK    2  A    between atoms: O2_4  and  C3_5 
REMARK    3  A    between atoms: C3_5  and  C4_6 
REMARK    4  A    between atoms: C4_6  and  C5_7 
REMARK    5  A    between atoms: C5_7  and  C6_8 
REMARK    6  A    between atoms: C6_8  and  C7_9 
REMARK    7  A    between atoms: C7_9  and  O3_10 
REMARK    8  A    between atoms: C8_12  and  C9_13 
REMARK    9  A    between atoms: C19_24  and  C20_25 
REMARK   10  A    between atoms: C27_37  and  O4_38 
ROOT
HETATM    1  C7  UNL     1       1.984  -1.592   0.142  1.00  0.00     0.085 C 
HETATM    2  C8  UNL     1       2.399  -2.872  -0.572  1.00  0.00     0.042 C 
HETATM    3  C10 UNL     1       1.472  -3.931   0.020  1.00  0.00    -0.010 C 
HETATM    4  C11 UNL     1       1.864  -5.323  -0.328  1.00  0.00     0.010 C 
HETATM    5  C12 UNL     1       0.023  -3.634  -0.299  1.00  0.00     0.013 C 
HETATM    6  C13 UNL     1      -0.307  -2.321   0.266  1.00  0.00     0.040 C 
HETATM    7  C14 UNL     1       0.637  -1.257  -0.324  1.00  0.00     0.033 C 
HETATM    8  C15 UNL     1      -0.022  -0.051   0.326  1.00  0.00     0.022 C 
HETATM    9  C16 UNL     1      -1.424  -0.252  -0.288  1.00  0.00     0.068 C 
HETATM   10  C17 UNL     1      -2.421   0.662   0.185  1.00  0.00    -0.023 A 
HETATM   11  C18 UNL     1      -2.254   1.852  -0.522  1.00  0.00     0.024 A 
HETATM   12  C19 UNL     1      -3.021   2.976  -0.352  1.00  0.00     0.005 A 
HETATM   13  C21 UNL     1      -4.028   2.962   0.565  1.00  0.00     0.017 A 
HETATM   14  C22 UNL     1      -4.254   1.822   1.302  1.00  0.00     0.031 A 
HETATM   15  C23 UNL     1      -3.470   0.704   1.115  1.00  0.00     0.037 A 
HETATM   16  N3  UNL     1      -3.922  -0.331   2.000  1.00  0.00    -0.375 N 
HETATM   17  C24 UNL     1      -4.616   0.120   3.153  1.00  0.00     0.150 C 
HETATM   18  C25 UNL     1      -3.729  -1.817   1.822  1.00  0.00     0.206 C 
HETATM   19  C26 UNL     1      -2.681  -1.923   0.861  1.00  0.00    -0.125 C 
HETATM   20  C27 UNL     1      -1.675  -1.770  -0.103  1.00  0.00     0.123 C 
ENDROOT
BRANCH   1  21
HETATM   21  C6  UNL     1       3.021  -0.551   0.259  1.00  0.00     0.011 C 
BRANCH  21  22
HETATM   22  C5  UNL     1       3.534   0.143  -0.882  1.00  0.00    -0.003 C 
BRANCH  22  23
HETATM   23  C4  UNL     1       3.551   1.418  -1.192  1.00  0.00    -0.001 C 
BRANCH  23  24
HETATM   24  C3  UNL     1       2.983   2.459  -0.317  1.00  0.00     0.206 C 
BRANCH  24  25
HETATM   25  O2  UNL     1       4.005   3.359   0.038  1.00  0.00    -0.318 OA
BRANCH  25  26
HETATM   26  C2  UNL     1       4.649   4.106  -0.922  1.00  0.00     0.255 C 
HETATM   27  C1  UNL     1       5.727   5.021  -0.384  1.00  0.00     0.126 C 
HETATM   28  O1  UNL     1       4.391   4.056  -2.134  1.00  0.00    -0.266 OA
ENDBRANCH  25  26
ENDBRANCH  24  25
ENDBRANCH  23  24
ENDBRANCH  22  23
ENDBRANCH  21  22
ENDBRANCH   1  21
BRANCH   1  29
HETATM   29  O3  UNL     1       1.804  -2.005   1.510  1.00  0.00    -0.385 OA
ATOM     30  H3  UNL     1       1.136  -2.676   1.435  1.00  0.00     0.211 HD
ENDBRANCH   1  29
BRANCH   2  31
HETATM   31  C9  UNL     1       2.176  -2.835  -2.036  1.00  0.00     0.123 C 
HETATM   32 CL1  UNL     1       2.744  -4.348  -2.781  1.00  0.00    -0.130 Cl
ENDBRANCH   2  31
BRANCH  20  33
HETATM   33  O4  UNL     1      -1.912  -2.351  -1.380  1.00  0.00    -0.377 OA
ATOM     34  H4  UNL     1      -2.767  -2.007  -1.611  1.00  0.00     0.211 HD
ENDBRANCH  20  33
BRANCH  12  35
HETATM   35  C20 UNL     1      -2.789   4.188  -1.129  1.00  0.00     0.120 C 
HETATM   36  N1  UNL     1      -1.855   4.244  -2.000  1.00  0.00    -0.387 N 
ATOM     37  H12 UNL     1      -1.262   3.429  -2.156  1.00  0.00     0.157 HD
ATOM     38  H11 UNL     1      -1.693   5.092  -2.543  1.00  0.00     0.157 HD
HETATM   39  N2  UNL     1      -3.609   5.315  -0.913  1.00  0.00    -0.082 NA
ENDBRANCH  12  35
TORSDOF 10
