REMARK  9 active torsions:
REMARK  status: ('A' for Active; 'I' for Inactive)
REMARK    1  A    between atoms: C2_2  and  C3_3 
REMARK    2  A    between atoms: C3_3  and  C5_6 
REMARK    3  A    between atoms: C3_3  and  N4_17 
REMARK    4  A    between atoms: C10_11  and  N2_12 
REMARK    5  A    between atoms: C13_20  and  N5_21 
REMARK    6  A    between atoms: N5_21  and  C14_23 
REMARK    7  A    between atoms: C17_29  and  N7_30 
REMARK    8  A    between atoms: C18_35  and  C19_36 
REMARK    9  A    between atoms: C19_36  and  N9_37 
ROOT
HETATM    1  C3  UNL     1       2.622   1.230  -0.276  1.00  0.00     0.164 C 
HETATM    2  C4  UNL     1       2.875   2.356  -1.284  1.00  0.00     0.097 C 
HETATM    3  N1  UNL     1       3.066   3.202  -2.075  1.00  0.00    -0.194 NA
ENDROOT
BRANCH   1   4
HETATM    4  C2  UNL     1       2.638   1.997   1.019  1.00  0.00     0.049 C 
HETATM    5  C1  UNL     1       2.452   1.245   2.275  1.00  0.00     0.009 C 
ENDBRANCH   1   4
BRANCH   1   6
HETATM    6  C5  UNL     1       3.773   0.350  -0.496  1.00  0.00     0.054 A 
HETATM    7  C6  UNL     1       4.774   0.146   0.421  1.00  0.00     0.035 A 
HETATM    8  C7  UNL     1       5.867  -0.688   0.166  1.00  0.00    -0.057 A 
HETATM    9  C8  UNL     1       6.942  -0.916   1.144  1.00  0.00     0.048 C 
HETATM   10  C9  UNL     1       5.943  -1.325  -1.052  1.00  0.00     0.054 A 
HETATM   11  C10 UNL     1       4.934  -1.110  -1.957  1.00  0.00     0.099 A 
HETATM   12  N3  UNL     1       3.901  -0.295  -1.659  1.00  0.00    -0.343 N 
ATOM     13  H3  UNL     1       3.175  -0.163  -2.363  1.00  0.00     0.167 HD
BRANCH  11  14
HETATM   14  N2  UNL     1       4.994  -1.688  -3.097  1.00  0.00    -0.385 N 
ATOM     15  H22 UNL     1       5.775  -2.304  -3.322  1.00  0.00     0.157 HD
ATOM     16  H21 UNL     1       4.244  -1.528  -3.770  1.00  0.00     0.157 HD
ENDBRANCH  11  14
ENDBRANCH   1   6
BRANCH   1  17
HETATM   17  N4  UNL     1       1.366   0.653  -0.640  1.00  0.00    -0.366 N 
HETATM   18  C11 UNL     1       0.324   1.561  -0.979  1.00  0.00     0.126 C 
HETATM   19  C12 UNL     1      -0.710   1.625   0.090  1.00  0.00     0.046 C 
HETATM   20  C13 UNL     1      -1.747   0.587   0.149  1.00  0.00     0.107 C 
HETATM   21  C18 UNL     1      -1.425  -0.667  -0.650  1.00  0.00     0.050 C 
HETATM   22  C23 UNL     1      -0.147  -1.324  -0.449  1.00  0.00    -0.009 C 
HETATM   23  C24 UNL     1      -0.170  -2.508   0.492  1.00  0.00     0.021 C 
HETATM   24  C25 UNL     1       0.317  -1.951  -1.795  1.00  0.00     0.021 C 
HETATM   25  C26 UNL     1       0.955  -0.463   0.113  1.00  0.00     0.070 C 
BRANCH  20  26
HETATM   26  N5  UNL     1      -2.970   1.132  -0.389  1.00  0.00    -0.221 N 
ATOM     27  H5  UNL     1      -3.280   0.701  -1.260  1.00  0.00     0.178 HD
BRANCH  26  28
HETATM   28  C14 UNL     1      -3.715   2.047   0.036  1.00  0.00     0.679 A 
HETATM   29  N6  UNL     1      -4.825   2.359  -0.692  1.00  0.00    -0.200 N 
HETATM   30  C15 UNL     1      -5.704   3.307  -0.387  1.00  0.00     0.133 A 
ATOM     31  H6  UNL     1      -4.994   1.820  -1.541  1.00  0.00     0.183 HD
HETATM   32  C16 UNL     1      -5.472   4.033   0.752  1.00  0.00     0.093 A 
HETATM   33 CL1  UNL     1      -6.585   5.306   1.211  1.00  0.00    -0.079 Cl
HETATM   34  C17 UNL     1      -4.362   3.740   1.505  1.00  0.00     0.138 A 
HETATM   35  N8  UNL     1      -3.513   2.772   1.148  1.00  0.00    -0.175 N 
ATOM     36  H8  UNL     1      -2.698   2.581   1.730  1.00  0.00     0.186 HD
BRANCH  34  37
HETATM   37  N7  UNL     1      -4.187   4.459   2.583  1.00  0.00    -0.384 N 
ATOM     38  H72 UNL     1      -4.835   5.198   2.856  1.00  0.00     0.157 HD
ATOM     39  H71 UNL     1      -3.362   4.241   3.142  1.00  0.00     0.157 HD
ENDBRANCH  34  37
ENDBRANCH  26  28
ENDBRANCH  20  26
BRANCH  21  40
HETATM   40  C19 UNL     1      -2.687  -1.522  -0.727  1.00  0.00     0.280 C 
BRANCH  40  41
HETATM   41  N9  UNL     1      -3.199  -1.895   0.536  1.00  0.00     0.097 N 
HETATM   42  C20 UNL     1      -4.570  -2.389   0.713  1.00  0.00     0.308 A 
HETATM   43  C21 UNL     1      -3.508  -3.313   0.717  1.00  0.00     0.247 A 
HETATM   44  C22 UNL     1      -3.447  -4.307  -0.390  1.00  0.00     0.045 C 
ENDBRANCH  40  41
ENDBRANCH  21  40
ENDBRANCH   1  17
TORSDOF 9
