REMARK  15 active torsions:
REMARK  status: ('A' for Active; 'I' for Inactive)
REMARK    1  A    between atoms: O1_2  and  N1_3 
REMARK       I    between atoms: N1_3  and  C2_5 
REMARK       I    between atoms: C2_5  and  N2_7 
REMARK    2  A    between atoms: C4_9  and  C5_10 
REMARK    3  A    between atoms: C5_10  and  C6_11 
REMARK    4  A    between atoms: C6_11  and  O3_12 
REMARK    5  A    between atoms: C6_11  and  C7_14 
REMARK    6  A    between atoms: C8_17  and  C9_18 
REMARK    7  A    between atoms: C9_18  and  N4_19 
REMARK    8  A    between atoms: C10_22  and  N6_23 
REMARK    9  A    between atoms: C11_28  and  C12_29 
REMARK   10  A    between atoms: C12_29  and  O4_30 
REMARK   11  A    between atoms: C12_29  and  C13_32 
REMARK   12  A    between atoms: C12_29  and  N8_35 
REMARK   13  A    between atoms: C13_32  and  O5_33 
REMARK   14  A    between atoms: N8_35  and  O6_37 
REMARK   15  A    between atoms: C15_43  and  O8_44 
ROOT
HETATM    1  C7  UNL     1       0.401  -1.302  -0.008  1.00  0.00     0.090 A 
HETATM    2  N3  UNL     1      -0.643  -0.640  -0.441  1.00  0.00    -0.351 N 
ATOM      3  H3  UNL     1      -0.474   0.281  -0.846  1.00  0.00     0.166 HD
HETATM    4  C8  UNL     1      -1.946  -1.075  -0.398  1.00  0.00     0.098 A 
HETATM    5  C14 UNL     1      -2.154  -2.312   0.155  1.00  0.00     0.271 A 
HETATM    6  O7  UNL     1      -3.259  -2.854   0.282  1.00  0.00    -0.266 OA
HETATM    7  N9  UNL     1      -1.086  -3.037   0.620  1.00  0.00    -0.301 N 
ATOM      8  H9  UNL     1      -1.259  -3.956   1.028  1.00  0.00     0.171 HD
HETATM    9  C15 UNL     1       0.162  -2.592   0.560  1.00  0.00     0.168 A 
ENDROOT
BRANCH   4  10
HETATM   10  C9  UNL     1      -2.952  -0.248  -1.047  1.00  0.00     0.214 C 
BRANCH  10  11
HETATM   11  N4  UNL     1      -4.333  -0.563  -0.914  1.00  0.00    -0.255 N 
HETATM   12  N5  UNL     1      -4.990  -1.545  -1.573  1.00  0.00    -0.128 N 
HETATM   13  C10 UNL     1      -6.248  -1.542  -1.170  1.00  0.00     0.692 A 
ATOM     14  H5  UNL     1      -4.584  -2.178  -2.262  1.00  0.00     0.206 HD
HETATM   15  N7  UNL     1      -6.421  -0.590  -0.273  1.00  0.00    -0.173 N 
HETATM   16  C11 UNL     1      -5.211   0.024  -0.119  1.00  0.00     0.175 A 
ATOM     17  H7  UNL     1      -7.289  -0.358   0.211  1.00  0.00     0.185 HD
BRANCH  13  18
HETATM   18  N6  UNL     1      -7.194  -2.349  -1.566  1.00  0.00    -0.233 N 
ATOM     19  H62 UNL     1      -7.060  -3.085  -2.259  1.00  0.00     0.174 HD
ATOM     20  H61 UNL     1      -8.165  -2.347  -1.255  1.00  0.00     0.174 HD
ENDBRANCH  13  18
BRANCH  16  21
HETATM   21  C12 UNL     1      -5.076   1.247   0.770  1.00  0.00     0.233 C 
BRANCH  21  22
HETATM   22  O4  UNL     1      -3.950   1.285   1.517  1.00  0.00    -0.361 OA
ATOM     23  H4  UNL     1      -3.866   2.050   2.073  1.00  0.00     0.213 HD
ENDBRANCH  21  22
BRANCH  21  24
HETATM   24  C13 UNL     1      -6.324   1.382   1.624  1.00  0.00     0.235 C 
BRANCH  24  25
HETATM   25  O5  UNL     1      -6.359   2.584   2.285  1.00  0.00    -0.396 OA
ATOM     26  H5  UNL     1      -7.140   2.668   2.819  1.00  0.00     0.209 HD
ENDBRANCH  24  25
ENDBRANCH  21  24
BRANCH  21  27
HETATM   27  N8  UNL     1      -5.101   2.376  -0.163  1.00  0.00    -0.261 N 
ATOM     28  H8  UNL     1      -5.217   2.252  -1.169  1.00  0.00     0.191 HD
BRANCH  27  29
HETATM   29  O6  UNL     1      -4.963   3.561   0.390  1.00  0.00    -0.291 OA
ATOM     30  H6  UNL     1      -4.979   4.293  -0.215  1.00  0.00     0.244 HD
ENDBRANCH  27  29
ENDBRANCH  21  27
ENDBRANCH  16  21
ENDBRANCH  10  11
ENDBRANCH   4  10
BRANCH   1  31
HETATM   31  C6  UNL     1       1.826  -0.977  -0.071  1.00  0.00     0.178 C 
BRANCH  31  32
HETATM   32  C5  UNL     1       2.198   0.471  -0.194  1.00  0.00     0.098 C 
BRANCH  32  33
HETATM   33  C4  UNL     1       3.711   0.485  -0.211  1.00  0.00     0.047 A 
HETATM   34  C3  UNL     1       4.553   1.484   0.148  1.00  0.00     0.149 A 
HETATM   35  N2  UNL     1       5.822   1.054  -0.043  1.00  0.00    -0.199 N 
HETATM   36  C2  UNL     1       7.063   1.675   0.228  1.00  0.00     0.366 C 
HETATM   37  N11 UNL     1       5.762  -0.199  -0.518  1.00  0.00    -0.232 N 
HETATM   38  N1  UNL     1       8.302   0.979  -0.108  1.00  0.00    -0.215 N 
HETATM   39  O2  UNL     1       7.193   2.798   0.748  1.00  0.00    -0.243 OA
ATOM     40  H1  UNL     1       8.260   0.051  -0.529  1.00  0.00     0.199 HD
HETATM   41  N10 UNL     1       4.498  -0.538  -0.618  1.00  0.00    -0.288 N 
ATOM     42  H11 UNL     1       6.560  -0.786  -0.760  1.00  0.00     0.209 HD
ATOM     43  H10 UNL     1       4.159  -1.440  -0.953  1.00  0.00     0.188 HD
BRANCH  38  44
HETATM   44  O1  UNL     1       9.499   1.546   0.131  1.00  0.00    -0.281 OA
HETATM   45  C1  UNL     1      10.471   0.546   0.311  1.00  0.00     0.237 C 
ENDBRANCH  38  44
ENDBRANCH  32  33
ENDBRANCH  31  32
BRANCH  31  46
HETATM   46  O3  UNL     1       2.372  -1.655  -1.210  1.00  0.00    -0.389 OA
ATOM     47  H3  UNL     1       2.136  -2.572  -1.132  1.00  0.00     0.210 HD
ENDBRANCH  31  46
ENDBRANCH   1  31
BRANCH   9  48
HETATM   48  O8  UNL     1       1.254  -3.334   1.030  1.00  0.00    -0.344 OA
ATOM     49  H8  UNL     1       1.095  -4.191   1.407  1.00  0.00     0.219 HD
ENDBRANCH   9  48
TORSDOF 15
