REMARK  15 active torsions:
REMARK  status: ('A' for Active; 'I' for Inactive)
REMARK    1  A    between atoms: C3_4  and  N2_5 
REMARK    2  A    between atoms: N2_5  and  C4_7 
REMARK    3  A    between atoms: C4_7  and  O1_8 
REMARK    4  A    between atoms: C4_7  and  C5_10 
REMARK    5  A    between atoms: C5_10  and  O2_11 
REMARK    6  A    between atoms: C5_10  and  C6_13 
REMARK    7  A    between atoms: C6_13  and  N3_14 
REMARK    8  A    between atoms: C6_13  and  C7_18 
REMARK    9  A    between atoms: C8_19  and  O3_20 
REMARK   10  A    between atoms: O3_20  and  C9_21 
REMARK   11  A    between atoms: C9_21  and  C10_22 
REMARK   12  A    between atoms: C13_29  and  N6_30 
REMARK   13  A    between atoms: C14_35  and  N8_36 
REMARK   14  A    between atoms: N11_46  and  N12_47 
REMARK   15  A    between atoms: N12_47  and  N13_49 
ROOT
HETATM    1  C7  UNL     1       0.876   1.775  -0.679  1.00  0.00     0.188 C 
HETATM    2  C8  UNL     1      -0.364   1.000  -1.019  1.00  0.00     0.136 C 
HETATM    3  N10 UNL     1      -1.511   1.561  -0.868  1.00  0.00    -0.372 N 
ATOM      4  H10 UNL     1      -2.360   1.044  -1.095  1.00  0.00     0.161 HD
HETATM    5  C16 UNL     1      -1.608   2.913  -0.381  1.00  0.00     0.138 C 
HETATM    6  C17 UNL     1      -0.441   3.787  -0.677  1.00  0.00     0.135 C 
HETATM    7  N11 UNL     1       0.718   3.110  -1.220  1.00  0.00    -0.201 NA
ENDROOT
BRANCH   2   8
HETATM    8  O3  UNL     1      -0.278  -0.297  -1.490  1.00  0.00    -0.332 OA
BRANCH   8   9
HETATM    9  C9  UNL     1      -1.348  -0.978  -2.081  1.00  0.00     0.235 C 
BRANCH   9  10
HETATM   10  C10 UNL     1      -2.533  -1.162  -1.234  1.00  0.00     0.050 A 
HETATM   11  C11 UNL     1      -2.518  -2.019  -0.126  1.00  0.00     0.117 A 
HETATM   12  N4  UNL     1      -3.593  -2.210   0.656  1.00  0.00    -0.348 N 
HETATM   13  C12 UNL     1      -4.741  -1.571   0.393  1.00  0.00     0.151 A 
ATOM     14  H4  UNL     1      -3.535  -2.844   1.453  1.00  0.00     0.167 HD
HETATM   15  N5  UNL     1      -5.836  -1.754   1.174  1.00  0.00    -0.174 N 
HETATM   16  C15 UNL     1      -4.795  -0.720  -0.689  1.00  0.00     0.122 A 
HETATM   17  C13 UNL     1      -6.997  -1.117   0.920  1.00  0.00     0.679 A 
ATOM     18  H5  UNL     1      -5.779  -2.388   1.971  1.00  0.00     0.186 HD
HETATM   19  N7  UNL     1      -7.050  -0.288  -0.133  1.00  0.00    -0.175 N 
HETATM   20  C14 UNL     1      -5.984  -0.074  -0.941  1.00  0.00     0.145 A 
ATOM     21  H7  UNL     1      -7.924   0.199  -0.332  1.00  0.00     0.186 HD
HETATM   22  N9  UNL     1      -3.706  -0.544  -1.458  1.00  0.00    -0.351 N 
ATOM     23  H9  UNL     1      -3.773   0.092  -2.253  1.00  0.00     0.166 HD
BRANCH  17  24
HETATM   24  N6  UNL     1      -8.055  -1.268   1.642  1.00  0.00    -0.234 N 
ATOM     25  H62 UNL     1      -8.015  -1.898   2.443  1.00  0.00     0.174 HD
ATOM     26  H61 UNL     1      -8.933  -0.786   1.450  1.00  0.00     0.174 HD
ENDBRANCH  17  24
BRANCH  20  27
HETATM   27  N8  UNL     1      -6.039   0.729  -1.959  1.00  0.00    -0.383 N 
ATOM     28  H82 UNL     1      -6.920   1.208  -2.146  1.00  0.00     0.157 HD
ATOM     29  H81 UNL     1      -5.236   0.890  -2.567  1.00  0.00     0.157 HD
ENDBRANCH  20  27
ENDBRANCH   9  10
ENDBRANCH   8   9
ENDBRANCH   2   8
BRANCH   1  30
HETATM   30  C6  UNL     1       1.215   1.764   0.764  1.00  0.00     0.243 C 
BRANCH  30  31
HETATM   31  C5  UNL     1       1.476   0.439   1.387  1.00  0.00     0.199 C 
BRANCH  31  32
HETATM   32  C4  UNL     1       2.834  -0.127   1.053  1.00  0.00     0.250 C 
BRANCH  32  33
HETATM   33  N2  UNL     1       3.096  -1.240   1.934  1.00  0.00    -0.346 N 
ATOM     34  H2  UNL     1       2.367  -1.540   2.582  1.00  0.00     0.163 HD
BRANCH  33  35
HETATM   35  C3  UNL     1       4.342  -1.933   1.927  1.00  0.00     0.136 A 
HETATM   36  C2  UNL     1       5.453  -1.703   1.150  1.00  0.00     0.160 A 
HETATM   37  N1  UNL     1       6.409  -2.592   1.471  1.00  0.00    -0.290 N 
HETATM   38  C1  UNL     1       7.736  -2.712   0.901  1.00  0.00     0.178 C 
HETATM   39  N15 UNL     1       5.897  -3.349   2.423  1.00  0.00    -0.240 N 
HETATM   40  N14 UNL     1       4.668  -2.974   2.709  1.00  0.00    -0.270 N 
ATOM     41  H15 UNL     1       6.387  -4.120   2.876  1.00  0.00     0.208 HD
ATOM     42  H14 UNL     1       4.063  -3.404   3.409  1.00  0.00     0.190 HD
ENDBRANCH  33  35
ENDBRANCH  32  33
BRANCH  32  43
HETATM   43  O1  UNL     1       2.954  -0.583  -0.240  1.00  0.00    -0.374 OA
ATOM     44  H1  UNL     1       2.782   0.150  -0.820  1.00  0.00     0.212 HD
ENDBRANCH  32  43
ENDBRANCH  31  32
BRANCH  31  45
HETATM   45  O2  UNL     1       0.529  -0.528   1.211  1.00  0.00    -0.389 OA
ATOM     46  H2  UNL     1      -0.326  -0.172   1.421  1.00  0.00     0.210 HD
ENDBRANCH  31  45
ENDBRANCH  30  31
BRANCH  30  47
HETATM   47  N3  UNL     1       2.338   2.621   1.094  1.00  0.00    -0.070 N 
ATOM     48  H33 UNL     1       2.516   2.679   2.097  1.00  0.00     0.274 HD
ATOM     49  H32 UNL     1       3.237   2.223   0.824  1.00  0.00     0.274 HD
ATOM     50  H31 UNL     1       2.159   3.530   0.667  1.00  0.00     0.274 HD
ENDBRANCH  30  47
ENDBRANCH   1  30
BRANCH   7  51
HETATM   51  N12 UNL     1       0.625   3.141  -2.588  1.00  0.00    -0.268 N 
ATOM     52  H12 UNL     1      -0.035   3.752  -3.070  1.00  0.00     0.201 HD
BRANCH  51  53
HETATM   53  N13 UNL     1       1.468   2.305  -3.270  1.00  0.00    -0.335 N 
ATOM     54 2H13 UNL     1       2.122   1.700  -2.774  1.00  0.00     0.177 HD
ATOM     55 1H13 UNL     1       1.399   2.328  -4.287  1.00  0.00     0.177 HD
ENDBRANCH  51  53
ENDBRANCH   7  51
TORSDOF 15
