REMARK  9 active torsions:
REMARK  status: ('A' for Active; 'I' for Inactive)
REMARK    1  A    between atoms: O1_2  and  C2_3 
REMARK    2  A    between atoms: C2_3  and  C3_4 
REMARK    3  A    between atoms: C4_5  and  C5_6 
REMARK    4  A    between atoms: C7_9  and  C8_10 
REMARK    5  A    between atoms: C8_10  and  C9_11 
REMARK    6  A    between atoms: C9_11  and  O3_12 
REMARK    7  A    between atoms: C9_11  and  C10_14 
REMARK    8  A    between atoms: C16_21  and  O5_22 
REMARK    9  A    between atoms: C21_28  and  O6_29 
ROOT
HETATM    1  C5  UNL     1       1.852   0.377  -0.803  1.00  0.00     0.035 C 
HETATM    2  C6  UNL     1       0.728  -0.315  -0.581  1.00  0.00     0.076 C 
HETATM    3  O2  UNL     1      -0.419  -0.088  -1.299  1.00  0.00    -0.346 OA
HETATM    4  C7  UNL     1      -1.680  -0.238  -0.705  1.00  0.00     0.142 C 
HETATM    5  C14 UNL     1      -1.847  -1.514   0.049  1.00  0.00     0.015 C 
HETATM    6  C15 UNL     1      -2.569  -1.224   1.345  1.00  0.00     0.021 C 
HETATM    7  C16 UNL     1      -2.680  -2.494  -0.731  1.00  0.00     0.129 C 
HETATM    8  C17 UNL     1      -1.772  -3.618  -1.147  1.00  0.00     0.037 C 
HETATM    9  C18 UNL     1      -0.396  -3.317  -0.651  1.00  0.00    -0.008 C 
HETATM   10  C19 UNL     1       0.143  -4.587  -0.007  1.00  0.00     0.010 C 
HETATM   11  C20 UNL     1      -0.569  -2.217   0.387  1.00  0.00     0.038 C 
HETATM   12  C21 UNL     1       0.636  -1.365   0.443  1.00  0.00     0.180 C 
ENDROOT
BRANCH   4  13
HETATM   13  C8  UNL     1      -1.913   0.994   0.146  1.00  0.00     0.070 C 
BRANCH  13  14
HETATM   14  C9  UNL     1      -1.887   2.257  -0.679  1.00  0.00     0.155 C 
BRANCH  14  15
HETATM   15  O3  UNL     1      -2.859   2.270  -1.669  1.00  0.00    -0.391 OA
ATOM     16  H3  UNL     1      -2.843   3.065  -2.188  1.00  0.00     0.210 HD
ENDBRANCH  14  15
BRANCH  14  17
HETATM   17  C10 UNL     1      -2.133   3.440   0.187  1.00  0.00    -0.005 A 
HETATM   18  C11 UNL     1      -3.390   3.803   0.641  1.00  0.00     0.036 A 
HETATM   19  C12 UNL     1      -3.200   4.933   1.400  1.00  0.00     0.142 A 
HETATM   20  O4  UNL     1      -1.930   5.228   1.402  1.00  0.00    -0.334 OA
HETATM   21  C13 UNL     1      -1.243   4.362   0.688  1.00  0.00     0.151 A 
ENDBRANCH  14  17
ENDBRANCH  13  14
ENDBRANCH   4  13
BRANCH   7  22
HETATM   22  O5  UNL     1      -3.250  -1.963  -1.874  1.00  0.00    -0.395 OA
ATOM     23  H5  UNL     1      -3.776  -2.582  -2.367  1.00  0.00     0.210 HD
ENDBRANCH   7  22
BRANCH   1  24
HETATM   24  C4  UNL     1       3.063   0.157  -0.066  1.00  0.00     0.001 C 
HETATM   25  C3  UNL     1       4.160   0.850  -0.299  1.00  0.00    -0.001 C 
BRANCH  25  26
HETATM   26  C2  UNL     1       5.372   0.580   0.489  1.00  0.00     0.194 C 
BRANCH  26  27
HETATM   27  O1  UNL     1       5.764   1.705   1.175  1.00  0.00    -0.392 OA
HETATM   28  C1  UNL     1       6.066   2.740   0.317  1.00  0.00     0.201 C 
ENDBRANCH  26  27
ENDBRANCH  25  26
ENDBRANCH   1  24
BRANCH  12  29
HETATM   29  O6  UNL     1       0.844  -0.853   1.748  1.00  0.00    -0.389 OA
ATOM     30  H6  UNL     1       0.785  -1.532   2.410  1.00  0.00     0.210 HD
ENDBRANCH  12  29
TORSDOF 9
