REMARK  4 active torsions:
REMARK  status: ('A' for Active; 'I' for Inactive)
REMARK    1  A    between atoms: N1_1  and  N2_4 
REMARK    2  A    between atoms: N2_4  and  C1_6 
REMARK    3  A    between atoms: C2_9  and  C3_10 
REMARK       I    between atoms: C3_10  and  N4_12 
REMARK    4  A    between atoms: N4_12  and  N5_14 
ROOT
HETATM    1  C1  UNL     1      -1.482  -0.065   0.473  1.00  0.00     0.192 A 
HETATM    2  N3  UNL     1      -0.143  -0.365   0.451  1.00  0.00    -0.317 N 
ATOM      3  H3  UNL     1       0.224  -1.159   0.976  1.00  0.00     0.169 HD
HETATM    4  C2  UNL     1       0.666   0.409  -0.275  1.00  0.00     0.192 A 
HETATM    5  N6  UNL     1       0.125   1.459  -0.961  1.00  0.00    -0.278 N 
ATOM      6  H6  UNL     1       0.752   2.044  -1.514  1.00  0.00     0.189 HD
HETATM    7  N7  UNL     1      -1.151   1.760  -0.952  1.00  0.00    -0.262 N 
ATOM      8  H7  UNL     1      -1.503   2.557  -1.483  1.00  0.00     0.190 HD
HETATM    9  C4  UNL     1      -1.984   0.994  -0.227  1.00  0.00     0.305 A 
HETATM   10  O2  UNL     1      -3.213   1.244  -0.189  1.00  0.00    -0.263 OA
ENDROOT
BRANCH   4  11
HETATM   11  C3  UNL     1       2.097   0.145  -0.341  1.00  0.00     0.304 C 
HETATM   12  O1  UNL     1       2.852   0.891  -1.037  1.00  0.00    -0.263 OA
HETATM   13  N4  UNL     1       2.657  -0.934   0.364  1.00  0.00    -0.270 N 
ATOM     14  H4  UNL     1       2.074  -1.549   0.932  1.00  0.00     0.189 HD
BRANCH  13  15
HETATM   15  N5  UNL     1       4.050  -1.143   0.264  1.00  0.00    -0.342 N 
ATOM     16  H52 UNL     1       4.619  -0.519  -0.308  1.00  0.00     0.176 HD
ATOM     17  H51 UNL     1       4.456  -1.926   0.776  1.00  0.00     0.176 HD
ENDBRANCH  13  15
ENDBRANCH   4  11
BRANCH   1  18
HETATM   18  N2  UNL     1      -2.238  -0.824   1.179  1.00  0.00    -0.287 N 
ATOM     19  H2  UNL     1      -1.813  -1.602   1.682  1.00  0.00     0.188 HD
BRANCH  18  20
HETATM   20  N1  UNL     1      -3.600  -0.635   1.288  1.00  0.00    -0.343 N 
ATOM     21  H12 UNL     1      -4.009   0.148   0.778  1.00  0.00     0.176 HD
ATOM     22  H11 UNL     1      -4.201  -1.238   1.849  1.00  0.00     0.176 HD
ENDBRANCH  18  20
ENDBRANCH   1  18
TORSDOF 4
