REMARK  3 active torsions:
REMARK  status: ('A' for Active; 'I' for Inactive)
REMARK    1  A    between atoms: N1_1  and  C1_4 
REMARK    2  A    between atoms: C2_7  and  C3_8 
REMARK       I    between atoms: C3_8  and  N3_10 
REMARK    3  A    between atoms: N3_10  and  N4_12 
ROOT
HETATM    1  C1  UNL     1      -1.918  -0.890  -0.296  1.00  0.00     0.681 A 
HETATM    2  N2  UNL     1      -0.584  -0.719  -0.246  1.00  0.00    -0.171 N 
ATOM      3  H2  UNL     1       0.011  -1.547  -0.275  1.00  0.00     0.186 HD
HETATM    4  C2  UNL     1       0.006   0.492  -0.160  1.00  0.00     0.195 A 
HETATM    5  N5  UNL     1      -0.775   1.599  -0.120  1.00  0.00    -0.289 N 
ATOM      6  H5  UNL     1      -0.360   2.529  -0.054  1.00  0.00     0.172 HD
HETATM    7  C4  UNL     1      -2.110   1.442  -0.169  1.00  0.00     0.340 A 
HETATM    8  O2  UNL     1      -2.834   2.467  -0.133  1.00  0.00    -0.246 OA
HETATM    9  N6  UNL     1      -2.678   0.220  -0.256  1.00  0.00    -0.141 N 
ATOM     10  H6  UNL     1      -3.694   0.137  -0.292  1.00  0.00     0.189 HD
ENDROOT
BRANCH   4  11
HETATM   11  C3  UNL     1       1.459   0.597  -0.111  1.00  0.00     0.304 C 
HETATM   12  O1  UNL     1       2.005   1.707  -0.031  1.00  0.00    -0.263 OA
HETATM   13  N3  UNL     1       2.250  -0.577  -0.154  1.00  0.00    -0.270 N 
ATOM     14  H3  UNL     1       1.774  -1.477  -0.219  1.00  0.00     0.189 HD
BRANCH  13  15
HETATM   15  N4  UNL     1       3.640  -0.570  -0.113  1.00  0.00    -0.342 N 
ATOM     16  H42 UNL     1       4.099   0.339  -0.048  1.00  0.00     0.176 HD
ATOM     17  H41 UNL     1       4.210  -1.416  -0.144  1.00  0.00     0.176 HD
ENDBRANCH  13  15
ENDBRANCH   4  11
BRANCH   1  18
HETATM   18  N1  UNL     1      -2.467  -2.071  -0.379  1.00  0.00    -0.234 N 
ATOM     19  H12 UNL     1      -1.891  -2.912  -0.409  1.00  0.00     0.174 HD
ATOM     20  H11 UNL     1      -3.478  -2.201  -0.417  1.00  0.00     0.174 HD
ENDBRANCH   1  18
TORSDOF 3
