REMARK  2 active torsions:
REMARK  status: ('A' for Active; 'I' for Inactive)
REMARK    1  A    between atoms: N1_1  and  C1_4 
REMARK    2  A    between atoms: C2_7  and  N3_8 
ROOT
HETATM    1  C1  UNL     1      -2.739   0.769  -0.053  1.00  0.00     0.694 A 
HETATM    2  N2  UNL     1      -1.412   0.952   0.123  1.00  0.00    -0.021 N 
ATOM      3  H2  UNL     1      -1.078   1.879   0.386  1.00  0.00     0.203 HD
HETATM    4  C2  UNL     1      -0.512  -0.035  -0.034  1.00  0.00     0.715 A 
HETATM    5  N6  UNL     1      -1.011  -1.245  -0.385  1.00  0.00    -0.139 N 
ATOM      6  H6  UNL     1      -0.367  -2.025  -0.517  1.00  0.00     0.189 HD
HETATM    7  C5  UNL     1      -2.333  -1.451  -0.566  1.00  0.00     0.352 A 
HETATM    8  O1  UNL     1      -2.791  -2.579  -0.892  1.00  0.00    -0.246 OA
HETATM    9  N7  UNL     1      -3.207  -0.443  -0.401  1.00  0.00    -0.141 N 
ATOM     10  H7  UNL     1      -4.206  -0.594  -0.537  1.00  0.00     0.189 HD
ENDROOT
BRANCH   4  11
HETATM   11  N3  UNL     1       0.880   0.180   0.156  1.00  0.00    -0.109 N 
HETATM   12  C3  UNL     1       1.913  -0.826   0.007  1.00  0.00     0.182 C 
HETATM   13  C4  UNL     1       3.099  -0.146   0.656  1.00  0.00     0.154 C 
HETATM   14  N4  UNL     1       2.814   1.244   0.464  1.00  0.00    -0.124 NA
HETATM   15  N5  UNL     1       1.445   1.388   0.513  1.00  0.00    -0.014 NA
ENDBRANCH   4  11
BRANCH   1  16
HETATM   16  N1  UNL     1      -3.575   1.740   0.107  1.00  0.00    -0.234 N 
ATOM     17  H12 UNL     1      -3.220   2.659   0.371  1.00  0.00     0.174 HD
ATOM     18  H11 UNL     1      -4.577   1.602  -0.026  1.00  0.00     0.174 HD
ENDBRANCH   1  16
TORSDOF 2
