REMARK  10 active torsions:
REMARK  status: ('A' for Active; 'I' for Inactive)
REMARK    1  A    between atoms: C2_2  and  C3_3 
REMARK    2  A    between atoms: C3_3  and  O2_5 
REMARK    3  A    between atoms: O2_5  and  C4_6 
REMARK    4  A    between atoms: C4_6  and  C5_7 
REMARK    5  A    between atoms: C6_8  and  C7_9 
REMARK    6  A    between atoms: C7_9  and  O4_11 
REMARK    7  A    between atoms: C9_14  and  N1_15 
REMARK       I    between atoms: N1_15  and  C10_17 
REMARK    8  A    between atoms: C10_17  and  O6_19 
REMARK    9  A    between atoms: O6_19  and  C11_20 
REMARK   10  A    between atoms: C11_20  and  C12_21 
ROOT
HETATM    1  C5  UNL     1       2.270   0.513   0.128  1.00  0.00    -0.002 A 
HETATM    2  C6  UNL     1       1.740   1.772   0.287  1.00  0.00     0.091 A 
HETATM    3  S1  UNL     1       0.081   1.476   0.507  1.00  0.00    -0.065 SA
HETATM    4  C9  UNL     1       0.092  -0.232   0.393  1.00  0.00     0.085 A 
HETATM    5  C16 UNL     1       1.413  -0.513   0.184  1.00  0.00    -0.018 A 
HETATM    6  C17 UNL     1       1.859  -1.953   0.024  1.00  0.00     0.052 C 
ENDROOT
BRANCH   4   7
HETATM    7  N1  UNL     1      -1.025  -1.105   0.496  1.00  0.00    -0.296 N 
HETATM    8  C10 UNL     1      -2.326  -0.503   0.723  1.00  0.00     0.365 C 
HETATM    9  O5  UNL     1      -2.438   0.738   0.820  1.00  0.00    -0.238 OA
ATOM     10  H1  UNL     1      -0.916  -2.116   0.414  1.00  0.00     0.171 HD
BRANCH   8  11
HETATM   11  O6  UNL     1      -3.426  -1.265   0.831  1.00  0.00    -0.303 OA
BRANCH  11  12
HETATM   12  C11 UNL     1      -4.758  -1.075   1.015  1.00  0.00     0.189 C 
BRANCH  12  13
HETATM   13  C12 UNL     1      -5.606  -0.453  -0.029  1.00  0.00    -0.029 C 
HETATM   14  C13 UNL     1      -7.074  -0.400   0.450  1.00  0.00     0.016 C 
HETATM   15  C14 UNL     1      -5.507  -1.285  -1.295  1.00  0.00     0.016 C 
HETATM   16  C15 UNL     1      -5.248   0.959  -0.371  1.00  0.00     0.016 C 
ENDBRANCH  12  13
ENDBRANCH  11  12
ENDBRANCH   8  11
ENDBRANCH   4   7
BRANCH   2  17
HETATM   17  C7  UNL     1       2.377   3.087   0.280  1.00  0.00     0.300 C 
HETATM   18  O3  UNL     1       1.695   4.106   0.447  1.00  0.00    -0.259 OA
BRANCH  17  19
HETATM   19  O4  UNL     1       3.739   3.256   0.090  1.00  0.00    -0.322 OA
HETATM   20  C8  UNL     1       4.399   4.485   0.073  1.00  0.00     0.213 C 
ENDBRANCH  17  19
ENDBRANCH   2  17
BRANCH   1  21
HETATM   21  C4  UNL     1       3.772   0.424  -0.090  1.00  0.00     0.220 C 
BRANCH  21  22
HETATM   22  O2  UNL     1       4.230  -0.873  -0.244  1.00  0.00    -0.314 OA
BRANCH  22  23
HETATM   23  C3  UNL     1       5.581  -1.095  -0.451  1.00  0.00     0.282 C 
HETATM   24  O1  UNL     1       6.318  -0.078  -0.485  1.00  0.00    -0.260 OA
BRANCH  23  25
HETATM   25  C2  UNL     1       6.161  -2.402  -0.623  1.00  0.00     0.072 C 
HETATM   26  C1  UNL     1       7.463  -2.515  -0.815  1.00  0.00     0.017 C 
ENDBRANCH  23  25
ENDBRANCH  22  23
ENDBRANCH  21  22
ENDBRANCH   1  21
TORSDOF 10
