REMARK  8 active torsions:
REMARK  status: ('A' for Active; 'I' for Inactive)
REMARK    1  A    between atoms: C2_2  and  O1_3 
REMARK    2  A    between atoms: O1_3  and  C3_4 
REMARK    3  A    between atoms: C3_4  and  C4_6 
REMARK    4  A    between atoms: N1_9  and  N2_11 
REMARK    5  A    between atoms: C7_13  and  C8_14 
REMARK    6  A    between atoms: C8_14  and  C9_15 
REMARK    7  A    between atoms: C9_15  and  O3_16 
REMARK    8  A    between atoms: C11_20  and  C12_21 
ROOT
HETATM    1  C4  UNL     1       0.095   1.963  -1.005  1.00  0.00     0.132 C 
HETATM    2  C5  UNL     1       1.291   1.727  -0.153  1.00  0.00     0.086 C 
HETATM    3  C6  UNL     1       1.711   0.322  -0.166  1.00  0.00     0.067 C 
HETATM    4  N1  UNL     1       2.731  -0.187   0.390  1.00  0.00    -0.299 N 
ATOM      5  H1  UNL     1       3.361   0.417   0.918  1.00  0.00     0.187 HD
HETATM    6  S1  UNL     1       0.437  -0.530  -1.144  1.00  0.00    -0.079 SA
HETATM    7  C10 UNL     1      -0.819   0.766  -0.845  1.00  0.00    -0.000 C 
HETATM    8  C11 UNL     1      -2.054   0.714  -0.558  1.00  0.00     0.034 C 
ENDROOT
BRANCH   4   9
HETATM    9  N2  UNL     1       3.011  -1.526   0.302  1.00  0.00    -0.315 N 
HETATM   10  C7  UNL     1       4.155  -2.061   0.204  1.00  0.00     0.082 C 
ATOM     11  H2  UNL     1       2.212  -2.160   0.317  1.00  0.00     0.185 HD
BRANCH  10  12
HETATM   12  C8  UNL     1       5.458  -1.370   0.159  1.00  0.00     0.072 C 
BRANCH  12  13
HETATM   13  C9  UNL     1       6.573  -2.386  -0.035  1.00  0.00     0.169 C 
BRANCH  13  14
HETATM   14  O3  UNL     1       7.819  -1.801  -0.093  1.00  0.00    -0.401 OA
ATOM     15  H3  UNL     1       8.515  -2.436  -0.214  1.00  0.00     0.209 HD
ENDBRANCH  13  14
ENDBRANCH  12  13
ENDBRANCH  10  12
ENDBRANCH   4   9
BRANCH   1  16
HETATM   16  C3  UNL     1      -0.550   3.223  -0.660  1.00  0.00     0.268 C 
HETATM   17  O2  UNL     1      -0.518   4.164  -1.530  1.00  0.00    -0.264 OA
BRANCH  16  18
HETATM   18  O1  UNL     1      -1.196   3.519   0.508  1.00  0.00    -0.321 OA
BRANCH  18  19
HETATM   19  C2  UNL     1      -1.780   4.818   0.700  1.00  0.00     0.174 C 
HETATM   20  C1  UNL     1      -0.662   5.821   0.628  1.00  0.00     0.034 C 
ENDBRANCH  18  19
ENDBRANCH  16  18
ENDBRANCH   1  16
BRANCH   8  21
HETATM   21  C12 UNL     1      -2.850  -0.504  -0.427  1.00  0.00     0.006 A 
HETATM   22  C13 UNL     1      -2.483  -1.806  -0.225  1.00  0.00     0.026 A 
HETATM   23  C14 UNL     1      -3.467  -2.728  -0.113  1.00  0.00    -0.048 A 
HETATM   24  C15 UNL     1      -3.186  -4.220   0.094  1.00  0.00     0.049 C 
HETATM   25  C16 UNL     1      -4.759  -2.278  -0.210  1.00  0.00    -0.015 A 
HETATM   26  C17 UNL     1      -6.022  -3.105  -0.100  1.00  0.00     0.057 C 
HETATM   27  S2  UNL     1      -4.572  -0.608  -0.455  1.00  0.00    -0.095 SA
ENDBRANCH   8  21
TORSDOF 8
