REMARK  7 active torsions:
REMARK  status: ('A' for Active; 'I' for Inactive)
REMARK    1  A    between atoms: C2_2  and  C3_3 
REMARK    2  A    between atoms: C3_3  and  N1_5 
REMARK       I    between atoms: N1_5  and  C5_6 
REMARK    3  A    between atoms: C5_6  and  O2_8 
REMARK    4  A    between atoms: O2_8  and  C6_9 
REMARK    5  A    between atoms: C6_9  and  S1_10 
REMARK    6  A    between atoms: S1_10  and  C7_11 
REMARK    7  A    between atoms: N3_18  and  C11_19 
ROOT
HETATM    1  C7  UNL     1      -1.396   0.778   1.301  1.00  0.00     0.151 A 
HETATM    2  N2  UNL     1      -2.194  -0.199   0.837  1.00  0.00    -0.339 N 
ATOM      3  H2  UNL     1      -1.745  -1.036   0.465  1.00  0.00     0.168 HD
HETATM    4  C8  UNL     1      -3.548  -0.160   0.824  1.00  0.00     0.034 A 
HETATM    5  C9  UNL     1      -4.110   0.979   1.333  1.00  0.00     0.091 A 
HETATM    6  C10 UNL     1      -3.339   1.993   1.812  1.00  0.00     0.268 A 
HETATM    7  O3  UNL     1      -3.829   3.050   2.283  1.00  0.00    -0.266 OA
HETATM    8  N3  UNL     1      -1.966   1.887   1.793  1.00  0.00    -0.294 N 
HETATM    9  S2  UNL     1      -5.875   0.740   1.241  1.00  0.00    -0.118 SA
HETATM   10  C13 UNL     1      -5.762  -1.116   1.170  1.00  0.00     0.054 C 
HETATM   11  C14 UNL     1      -6.952  -1.654   0.467  1.00  0.00     0.022 C 
HETATM   12  C15 UNL     1      -4.506  -1.155   0.318  1.00  0.00     0.073 C 
ENDROOT
BRANCH   1  13
HETATM   13  S1  UNL     1       0.386   0.533   1.256  1.00  0.00    -0.067 SA
BRANCH  13  14
HETATM   14  C6  UNL     1       1.037   1.141  -0.292  1.00  0.00     0.264 C 
BRANCH  14  15
HETATM   15  O2  UNL     1       2.286   0.538  -0.652  1.00  0.00    -0.282 OA
BRANCH  15  16
HETATM   16  C5  UNL     1       2.293  -0.889  -0.859  1.00  0.00     0.435 C 
HETATM   17  N1  UNL     1       3.413  -1.560  -1.211  1.00  0.00    -0.385 NA
HETATM   18  O1  UNL     1       1.105  -1.351  -0.660  1.00  0.00    -0.221 OA
BRANCH  17  19
HETATM   19  C3  UNL     1       4.556  -2.244  -1.570  1.00  0.00     0.165 C 
HETATM   20  C4  UNL     1       5.486  -2.499  -0.357  1.00  0.00     0.048 C 
BRANCH  19  21
HETATM   21  C2  UNL     1       5.349  -1.447  -2.612  1.00  0.00     0.035 C 
HETATM   22  C1  UNL     1       5.813  -0.134  -2.088  1.00  0.00     0.008 C 
ENDBRANCH  19  21
ENDBRANCH  17  19
ENDBRANCH  15  16
ENDBRANCH  14  15
ENDBRANCH  13  14
ENDBRANCH   1  13
BRANCH   8  23
HETATM   23  C11 UNL     1      -1.160   2.986   2.288  1.00  0.00     0.130 C 
HETATM   24  C12 UNL     1      -0.874   3.999   1.197  1.00  0.00     0.027 C 
ENDBRANCH   8  23
TORSDOF 7
