REMARK  11 active torsions:
REMARK  status: ('A' for Active; 'I' for Inactive)
REMARK    1  A    between atoms: C5_6  and  C6_7 
REMARK    2  A    between atoms: C6_7  and  N2_8 
REMARK    3  A    between atoms: C6_7  and  C9_14 
REMARK    4  A    between atoms: N2_8  and  C7_10 
REMARK    5  A    between atoms: C7_10  and  C8_11 
REMARK    6  A    between atoms: C8_11  and  O1_12 
REMARK    7  A    between atoms: N5_18  and  C10_19 
REMARK    8  A    between atoms: C11_25  and  N8_26 
REMARK    9  A    between atoms: C12_29  and  C13_30 
REMARK   10  A    between atoms: C19_39  and  C20_40 
REMARK   11  A    between atoms: C21_43  and  N12_44 
ROOT
HETATM    1  C9  UNL     1       0.908   0.507  -1.272  1.00  0.00     0.101 A 
HETATM    2  N3  UNL     1       1.158   0.489  -2.570  1.00  0.00    -0.279 N 
ATOM      3  H3  UNL     1       1.988   0.073  -2.992  1.00  0.00     0.184 HD
HETATM    4  N4  UNL     1       0.186   1.084  -3.254  1.00  0.00    -0.013 NA
HETATM    5  N5  UNL     1      -0.713   1.494  -2.351  1.00  0.00    -0.214 N 
HETATM    6  C12 UNL     1      -0.281   1.142  -1.103  1.00  0.00     0.115 A 
ENDROOT
BRANCH   6   7
HETATM    7  C13 UNL     1      -0.931   1.396   0.167  1.00  0.00     0.097 A 
HETATM    8  N9  UNL     1      -0.684   2.398   1.021  1.00  0.00    -0.338 N 
HETATM    9  C14 UNL     1      -1.499   2.303   2.087  1.00  0.00     0.112 A 
ATOM     10  H9  UNL     1       0.018   3.125   0.883  1.00  0.00     0.167 HD
HETATM   11  C15 UNL     1      -1.617   3.106   3.230  1.00  0.00     0.049 A 
HETATM   12  N10 UNL     1      -2.290   1.238   1.944  1.00  0.00    -0.302 N 
HETATM   13  C16 UNL     1      -2.537   2.790   4.181  1.00  0.00     0.005 A 
HETATM   14  C17 UNL     1      -3.341   1.687   4.011  1.00  0.00     0.018 A 
HETATM   15  C18 UNL     1      -3.219   0.896   2.877  1.00  0.00     0.099 A 
HETATM   16  C19 UNL     1      -1.940   0.668   0.748  1.00  0.00     0.124 A 
BRANCH  16  17
HETATM   17  C20 UNL     1      -2.580  -0.543   0.236  1.00  0.00     0.215 A 
HETATM   18  N11 UNL     1      -2.226  -1.146  -0.911  1.00  0.00    -0.165 N 
HETATM   19  C21 UNL     1      -3.033  -2.230  -1.056  1.00  0.00     0.698 A 
ATOM     20  H11 UNL     1      -1.491  -0.847  -1.552  1.00  0.00     0.186 HD
HETATM   21  N13 UNL     1      -3.853  -2.252   0.008  1.00  0.00    -0.089 N 
HETATM   22  O3  UNL     1      -3.548  -1.234   0.746  1.00  0.00    -0.202 OA
ATOM     23  H13 UNL     1      -4.580  -2.942   0.198  1.00  0.00     0.213 HD
BRANCH  19  24
HETATM   24  N12 UNL     1      -2.967  -3.035  -2.044  1.00  0.00    -0.233 N 
ATOM     25 2H12 UNL     1      -2.344  -3.018  -2.852  1.00  0.00     0.174 HD
ATOM     26 1H12 UNL     1      -3.573  -3.848  -2.153  1.00  0.00     0.174 HD
ENDBRANCH  19  24
ENDBRANCH  16  17
ENDBRANCH   6   7
BRANCH   1  27
HETATM   27  C6  UNL     1       1.811  -0.064  -0.217  1.00  0.00     0.069 C 
BRANCH  27  28
HETATM   28  C5  UNL     1       2.980  -0.682  -0.858  1.00  0.00     0.279 C 
HETATM   29  C2  UNL     1       4.250  -0.938  -0.151  1.00  0.00     0.049 C 
HETATM   30  C1  UNL     1       5.322   0.130  -0.314  1.00  0.00     0.014 C 
HETATM   31  C3  UNL     1       4.379  -2.041  -1.232  1.00  0.00     0.279 C 
HETATM   32  N1  UNL     1       2.905  -2.123  -1.094  1.00  0.00     0.095 N 
HETATM   33  C4  UNL     1       2.380  -2.552  -2.350  1.00  0.00     0.310 C 
ENDBRANCH  27  28
BRANCH  27  34
HETATM   34  N2  UNL     1       1.137  -0.634   0.847  1.00  0.00    -0.387 N 
ATOM     35  H2  UNL     1       0.168  -0.919   0.706  1.00  0.00     0.159 HD
BRANCH  34  36
HETATM   36  C7  UNL     1       1.714  -0.843   2.114  1.00  0.00     0.145 C 
BRANCH  36  37
HETATM   37  C8  UNL     1       0.637  -1.385   3.072  1.00  0.00     0.183 C 
BRANCH  37  38
HETATM   38  O1  UNL     1       1.280  -1.566   4.297  1.00  0.00    -0.399 OA
ATOM     39  H1  UNL     1       0.616  -1.900   4.888  1.00  0.00     0.209 HD
ENDBRANCH  37  38
ENDBRANCH  36  37
ENDBRANCH  34  36
ENDBRANCH  27  34
ENDBRANCH   1  27
BRANCH   5  40
HETATM   40  C10 UNL     1      -1.926   2.192  -2.589  1.00  0.00     0.194 A 
HETATM   41  N6  UNL     1      -2.497   3.147  -1.835  1.00  0.00    -0.221 N 
HETATM   42  O2  UNL     1      -3.618   3.538  -2.408  1.00  0.00    -0.153 OA
ATOM     43  H6  UNL     1      -2.123   3.511  -0.959  1.00  0.00     0.198 HD
HETATM   44  N7  UNL     1      -3.814   2.884  -3.508  1.00  0.00    -0.222 N 
HETATM   45  C11 UNL     1      -2.777   2.028  -3.663  1.00  0.00     0.169 A 
ATOM     46  H7  UNL     1      -4.605   2.994  -4.142  1.00  0.00     0.198 HD
BRANCH  45  47
HETATM   47  N8  UNL     1      -2.651   1.225  -4.649  1.00  0.00    -0.381 N 
ATOM     48  H82 UNL     1      -1.870   0.580  -4.766  1.00  0.00     0.157 HD
ATOM     49  H81 UNL     1      -3.280   1.104  -5.443  1.00  0.00     0.157 HD
ENDBRANCH  45  47
ENDBRANCH   5  40
TORSDOF 11
