REMARK  13 active torsions:
REMARK  status: ('A' for Active; 'I' for Inactive)
REMARK    1  A    between atoms: O1_2  and  C2_3 
REMARK    2  A    between atoms: C2_3  and  C3_5 
REMARK    3  A    between atoms: C5_7  and  N1_8 
REMARK    4  A    between atoms: N1_8  and  S1_10 
REMARK    5  A    between atoms: S1_10  and  C6_13 
REMARK    6  A    between atoms: C6_13  and  C10_30 
REMARK    7  A    between atoms: N2_14  and  N3_16 
REMARK       I    between atoms: N3_16  and  C7_18 
REMARK    8  A    between atoms: C7_18  and  C8_20 
REMARK    9  A    between atoms: C9_26  and  N6_27 
REMARK   10  A    between atoms: C10_30  and  C12_32 
REMARK   11  A    between atoms: C12_32  and  O7_33 
REMARK   12  A    between atoms: C12_32  and  C13_35 
REMARK   13  A    between atoms: C15_37  and  N7_38 
ROOT
HETATM    1  C6  UNL     1      -0.783  -0.445   0.014  1.00  0.00     0.148 C 
HETATM    2  N2  UNL     1      -1.445   0.363  -0.790  1.00  0.00    -0.289 N 
ATOM      3  H2  UNL     1      -2.068  -0.010  -1.507  1.00  0.00     0.187 HD
ENDROOT
BRANCH   1   4
HETATM    4  S1  UNL     1       0.271   0.195   1.230  1.00  0.00     0.276 S 
HETATM    5  O3  UNL     1      -0.449   1.403   1.846  1.00  0.00    -0.199 OA
HETATM    6  O4  UNL     1       0.407  -0.836   2.352  1.00  0.00    -0.199 OA
BRANCH   4   7
HETATM    7  N1  UNL     1       1.768   0.649   0.618  1.00  0.00    -0.279 N 
ATOM      8  H1  UNL     1       2.004   1.636   0.716  1.00  0.00     0.179 HD
BRANCH   7   9
HETATM    9  C5  UNL     1       2.765  -0.172  -0.028  1.00  0.00     0.050 A 
HETATM   10  C4  UNL     1       4.034  -0.274   0.426  1.00  0.00     0.055 A 
HETATM   11  C3  UNL     1       4.885  -1.095  -0.246  1.00  0.00     0.082 A 
HETATM   12  S2  UNL     1       3.913  -1.714  -1.498  1.00  0.00    -0.094 SA
HETATM   13  C16 UNL     1       2.451  -0.912  -1.134  1.00  0.00     0.080 A 
BRANCH  11  14
HETATM   14  C2  UNL     1       6.294  -1.357   0.065  1.00  0.00     0.299 C 
HETATM   15  O2  UNL     1       6.831  -0.799   1.038  1.00  0.00    -0.259 OA
BRANCH  14  16
HETATM   16  O1  UNL     1       7.016  -2.216  -0.715  1.00  0.00    -0.322 OA
HETATM   17  C1  UNL     1       8.369  -2.540  -0.510  1.00  0.00     0.213 C 
ENDBRANCH  14  16
ENDBRANCH  11  14
ENDBRANCH   7   9
ENDBRANCH   4   7
ENDBRANCH   1   4
BRANCH   1  18
HETATM   18  C10 UNL     1      -1.005  -1.873  -0.193  1.00  0.00     0.082 C 
HETATM   19  C11 UNL     1      -1.643  -2.141  -1.553  1.00  0.00     0.020 C 
BRANCH  18  20
HETATM   20  C12 UNL     1      -1.902  -2.423   0.904  1.00  0.00     0.187 C 
BRANCH  20  21
HETATM   21  O7  UNL     1      -2.058  -3.782   0.617  1.00  0.00    -0.388 OA
ATOM     22  H7  UNL     1      -2.619  -4.126   1.303  1.00  0.00     0.210 HD
ENDBRANCH  20  21
BRANCH  20  23
HETATM   23  C13 UNL     1      -3.202  -1.708   0.974  1.00  0.00     0.109 A 
HETATM   24  C14 UNL     1      -4.246  -1.839   0.072  1.00  0.00     0.087 A 
HETATM   25  C15 UNL     1      -5.280  -1.007   0.484  1.00  0.00     0.121 A 
HETATM   26  N8  UNL     1      -4.817  -0.421   1.600  1.00  0.00    -0.245 N 
HETATM   27  O8  UNL     1      -3.615  -0.839   1.866  1.00  0.00    -0.238 OA
ATOM     28  H8  UNL     1      -5.335   0.256   2.160  1.00  0.00     0.196 HD
BRANCH  25  29
HETATM   29  N7  UNL     1      -6.427  -0.832  -0.073  1.00  0.00    -0.384 N 
ATOM     30  H72 UNL     1      -6.779  -1.277  -0.921  1.00  0.00     0.157 HD
ATOM     31  H71 UNL     1      -7.186  -0.221   0.229  1.00  0.00     0.157 HD
ENDBRANCH  25  29
ENDBRANCH  20  23
ENDBRANCH  18  20
ENDBRANCH   1  18
BRANCH   2  32
HETATM   32  N3  UNL     1      -1.274   1.751  -0.638  1.00  0.00    -0.264 N 
HETATM   33  C7  UNL     1      -2.386   2.593  -0.552  1.00  0.00     0.292 C 
HETATM   34  O5  UNL     1      -3.550   2.045  -0.617  1.00  0.00    -0.264 OA
ATOM     35  H3  UNL     1      -0.334   2.145  -0.590  1.00  0.00     0.190 HD
BRANCH  33  36
HETATM   36  C8  UNL     1      -2.335   4.033  -0.394  1.00  0.00     0.171 A 
HETATM   37  N4  UNL     1      -3.433   4.848  -0.310  1.00  0.00    -0.232 N 
HETATM   38  O6  UNL     1      -3.055   6.077  -0.175  1.00  0.00    -0.155 OA
ATOM     39  H4  UNL     1      -4.402   4.533  -0.348  1.00  0.00     0.197 HD
HETATM   40  N5  UNL     1      -1.762   6.136  -0.162  1.00  0.00    -0.224 N 
HETATM   41  C9  UNL     1      -1.264   4.872  -0.298  1.00  0.00     0.155 A 
ATOM     42  H5  UNL     1      -1.207   6.986  -0.066  1.00  0.00     0.198 HD
BRANCH  41  43
HETATM   43  N6  UNL     1      -0.020   4.549  -0.328  1.00  0.00    -0.382 N 
ATOM     44  H62 UNL     1       0.352   3.605  -0.430  1.00  0.00     0.157 HD
ATOM     45  H61 UNL     1       0.781   5.176  -0.256  1.00  0.00     0.157 HD
ENDBRANCH  41  43
ENDBRANCH  33  36
ENDBRANCH   2  32
TORSDOF 13
