REMARK  14 active torsions:
REMARK  status: ('A' for Active; 'I' for Inactive)
REMARK    1  A    between atoms: O1_2  and  C2_3 
REMARK    2  A    between atoms: C2_3  and  C3_5 
REMARK    3  A    between atoms: C3_5  and  C4_6 
REMARK    4  A    between atoms: C5_7  and  C6_8 
REMARK    5  A    between atoms: C7_9  and  C8_10 
REMARK       I    between atoms: C8_10  and  N1_12 
REMARK    6  A    between atoms: N1_12  and  N2_14 
REMARK    7  A    between atoms: N2_14  and  C9_15 
REMARK    8  A    between atoms: C9_15  and  C10_16 
REMARK    9  A    between atoms: C9_15  and  C12_19 
REMARK   10  A    between atoms: C13_23  and  C14_24 
REMARK   11  A    between atoms: C15_30  and  N6_31 
REMARK   12  A    between atoms: N8_36  and  N9_38 
REMARK   13  A    between atoms: N9_38  and  C16_40 
REMARK   14  A    between atoms: C19_43  and  O7_44 
ROOT
HETATM    1  C8  UNL     1       1.668   0.630  -0.254  1.00  0.00     0.270 C 
HETATM    2  O3  UNL     1       2.607   1.383  -0.520  1.00  0.00    -0.266 OA
HETATM    3  N1  UNL     1       1.932  -0.474   0.637  1.00  0.00    -0.199 N 
ATOM      4  H1  UNL     1       1.147  -1.090   0.850  1.00  0.00     0.205 HD
ENDROOT
BRANCH   3   5
HETATM    5  N2  UNL     1       3.055  -0.758   1.188  1.00  0.00    -0.315 NA
BRANCH   5   6
HETATM    6  C9  UNL     1       4.109  -1.010   1.679  1.00  0.00     0.222 C 
BRANCH   6   7
HETATM    7  C10 UNL     1       4.085  -1.729   3.002  1.00  0.00     0.192 C 
HETATM    8  C11 UNL     1       2.788  -2.072   3.599  1.00  0.00     0.100 C 
HETATM    9  O4  UNL     1       5.139  -2.031   3.589  1.00  0.00    -0.290 OA
ENDBRANCH   6   7
BRANCH   6  10
HETATM   10  C12 UNL     1       5.427  -0.653   1.130  1.00  0.00     0.175 A 
HETATM   11  N3  UNL     1       6.578  -1.125   1.702  1.00  0.00    -0.240 N 
HETATM   12  O5  UNL     1       7.554  -0.631   1.043  1.00  0.00    -0.215 OA
ATOM     13  H3  UNL     1       6.644  -1.753   2.503  1.00  0.00     0.196 HD
HETATM   14  C13 UNL     1       7.135   0.140   0.071  1.00  0.00     0.204 A 
HETATM   15  N7  UNL     1       5.801   0.127   0.121  1.00  0.00    -0.315 N 
ATOM     16  H7  UNL     1       5.175   0.630  -0.508  1.00  0.00     0.169 HD
BRANCH  14  17
HETATM   17  C14 UNL     1       7.990   0.852  -0.850  1.00  0.00     0.155 A 
HETATM   18  N4  UNL     1       7.643   1.667  -1.871  1.00  0.00    -0.234 N 
HETATM   19  O6  UNL     1       8.701   2.125  -2.469  1.00  0.00    -0.155 OA
ATOM     20  H4  UNL     1       6.684   1.891  -2.135  1.00  0.00     0.197 HD
HETATM   21  N5  UNL     1       9.758   1.651  -1.889  1.00  0.00    -0.224 N 
HETATM   22  C15 UNL     1       9.379   0.831  -0.850  1.00  0.00     0.154 A 
ATOM     23  H5  UNL     1      10.720   1.854  -2.160  1.00  0.00     0.198 HD
BRANCH  22  24
HETATM   24  N6  UNL     1      10.162   0.192  -0.070  1.00  0.00    -0.382 N 
ATOM     25  H62 UNL     1       9.881  -0.415   0.700  1.00  0.00     0.157 HD
ATOM     26  H61 UNL     1      11.182   0.177  -0.070  1.00  0.00     0.157 HD
ENDBRANCH  22  24
ENDBRANCH  14  17
ENDBRANCH   6  10
ENDBRANCH   5   6
ENDBRANCH   3   5
BRANCH   1  27
HETATM   27  C7  UNL     1       0.345   0.843  -0.813  1.00  0.00     0.085 C 
HETATM   28  C6  UNL     1      -0.675   0.073  -0.547  1.00  0.00     0.070 C 
BRANCH  28  29
HETATM   29  C5  UNL     1      -2.004   0.261  -1.092  1.00  0.00    -0.071 C 
HETATM   30  C4  UNL     1      -3.128   0.388  -1.514  1.00  0.00    -0.036 C 
BRANCH  30  31
HETATM   31  C3  UNL     1      -4.485   0.484  -1.983  1.00  0.00     0.177 C 
HETATM   32  N8  UNL     1      -5.479   0.403  -1.118  1.00  0.00    -0.286 N 
ATOM     33  H8  UNL     1      -6.447   0.447  -1.435  1.00  0.00     0.188 HD
BRANCH  31  34
HETATM   34  C2  UNL     1      -4.807   0.644  -3.366  1.00  0.00     0.320 C 
HETATM   35  O2  UNL     1      -3.829   0.718  -4.181  1.00  0.00    -0.257 OA
BRANCH  34  36
HETATM   36  O1  UNL     1      -6.046   0.735  -3.933  1.00  0.00    -0.321 OA
HETATM   37  C1  UNL     1      -6.321   0.900  -5.299  1.00  0.00     0.213 C 
ENDBRANCH  34  36
ENDBRANCH  31  34
BRANCH  32  38
HETATM   38  N9  UNL     1      -5.181   0.255   0.243  1.00  0.00    -0.284 N 
ATOM     39  H9  UNL     1      -4.211   0.283   0.557  1.00  0.00     0.188 HD
BRANCH  38  40
HETATM   40  C16 UNL     1      -6.218   0.067   1.181  1.00  0.00     0.121 A 
HETATM   41  C17 UNL     1      -6.523  -1.109   1.867  1.00  0.00     0.054 A 
HETATM   42  C18 UNL     1      -7.609  -0.871   2.689  1.00  0.00     0.059 A 
HETATM   43  C19 UNL     1      -7.958   0.449   2.494  1.00  0.00     0.141 A 
HETATM   44  N10 UNL     1      -7.113   0.970   1.596  1.00  0.00    -0.322 N 
ATOM     45  H10 UNL     1      -7.147   1.936   1.269  1.00  0.00     0.169 HD
BRANCH  43  46
HETATM   46  O7  UNL     1      -9.012   1.080   3.138  1.00  0.00    -0.346 OA
ATOM     47  H7  UNL     1      -9.252   1.989   3.004  1.00  0.00     0.219 HD
ENDBRANCH  43  46
ENDBRANCH  38  40
ENDBRANCH  32  38
ENDBRANCH  30  31
ENDBRANCH  28  29
ENDBRANCH   1  27
TORSDOF 14
