REMARK  11 active torsions:
REMARK  status: ('A' for Active; 'I' for Inactive)
REMARK    1  A    between atoms: C2_2  and  N1_3 
REMARK    2  A    between atoms: N1_3  and  C3_4 
REMARK    3  A    between atoms: N1_3  and  C5_10 
REMARK    4  A    between atoms: C3_4  and  C4_5 
REMARK    5  A    between atoms: C4_5  and  S1_6 
REMARK    6  A    between atoms: C6_11  and  C7_12 
REMARK    7  A    between atoms: C8_14  and  N2_15 
REMARK    8  A    between atoms: C9_20  and  N4_21 
REMARK    9  A    between atoms: C11_29  and  N7_30 
REMARK   10  A    between atoms: N7_30  and  N8_32 
REMARK   11  A    between atoms: C14_42  and  N11_43 
ROOT
HETATM    1  C5  UNL     1       0.024  -0.214   0.394  1.00  0.00     0.093 A 
HETATM    2  C6  UNL     1      -0.404   1.038   0.119  1.00  0.00     0.084 A 
HETATM    3  N5  UNL     1      -1.743   1.213  -0.135  1.00  0.00    -0.338 N 
ATOM      4  H5  UNL     1      -2.065   2.158  -0.344  1.00  0.00     0.167 HD
HETATM    5  C10 UNL     1      -2.639   0.253  -0.128  1.00  0.00     0.138 A 
HETATM    6  N6  UNL     1      -3.913   0.567  -0.392  1.00  0.00    -0.174 N 
ATOM      7  H6  UNL     1      -4.166   1.534  -0.595  1.00  0.00     0.186 HD
HETATM    8  C11 UNL     1      -4.860  -0.387  -0.390  1.00  0.00     0.699 A 
HETATM    9  N9  UNL     1      -4.482  -1.633  -0.119  1.00  0.00    -0.175 N 
ATOM     10  H9  UNL     1      -5.197  -2.361  -0.114  1.00  0.00     0.186 HD
HETATM   11  C12 UNL     1      -3.197  -1.996   0.153  1.00  0.00     0.131 A 
HETATM   12  N10 UNL     1      -2.909  -3.207   0.417  1.00  0.00    -0.384 N 
ATOM     13 1H10 UNL     1      -1.947  -3.479   0.621  1.00  0.00     0.157 HD
ATOM     14 2H10 UNL     1      -3.644  -3.914   0.414  1.00  0.00     0.157 HD
HETATM   15  C13 UNL     1      -2.202  -1.038   0.157  1.00  0.00     0.088 A 
HETATM   16  C14 UNL     1      -0.872  -1.298   0.423  1.00  0.00     0.149 A 
ENDROOT
BRANCH   2  17
HETATM   17  C7  UNL     1       0.381   2.274   0.111  1.00  0.00     0.087 A 
HETATM   18  S2  UNL     1       1.278   3.009  -1.130  1.00  0.00    -0.048 SA
HETATM   19  C8  UNL     1       1.820   4.382  -0.284  1.00  0.00     0.144 A 
HETATM   20  N3  UNL     1       1.284   4.217   0.929  1.00  0.00    -0.317 N 
HETATM   21  C9  UNL     1       0.554   3.162   1.151  1.00  0.00     0.195 A 
ATOM     22  H3  UNL     1       1.444   4.904   1.666  1.00  0.00     0.169 HD
BRANCH  19  23
HETATM   23  N2  UNL     1       2.579   5.382  -0.688  1.00  0.00    -0.380 N 
ATOM     24  H22 UNL     1       2.988   5.508  -1.614  1.00  0.00     0.158 HD
ATOM     25  H21 UNL     1       2.904   6.205  -0.181  1.00  0.00     0.158 HD
ENDBRANCH  19  23
BRANCH  21  26
HETATM   26  N4  UNL     1      -0.112   2.915   2.425  1.00  0.00    -0.096 N 
HETATM   27  O4  UNL     1      -0.851   1.955   2.617  1.00  0.00    -0.530 OA
HETATM   28  O5  UNL     1       0.058   3.781   3.486  1.00  0.00    -0.530 OA
ENDBRANCH  21  26
ENDBRANCH   2  17
BRANCH   1  29
HETATM   29  N1  UNL     1       1.411  -0.514   0.548  1.00  0.00    -0.376 N 
BRANCH  29  30
HETATM   30  C2  UNL     1       2.101  -0.278   1.774  1.00  0.00     0.118 C 
HETATM   31  C1  UNL     1       2.543  -1.463   2.553  1.00  0.00     0.026 C 
ENDBRANCH  29  30
BRANCH  29  32
HETATM   32  C3  UNL     1       2.160  -1.158  -0.538  1.00  0.00     0.140 C 
BRANCH  32  33
HETATM   33  C4  UNL     1       3.289  -0.351  -1.080  1.00  0.00     0.185 C 
BRANCH  33  34
HETATM   34  S1  UNL     1       4.115  -1.311  -2.368  1.00  0.00     0.103 S 
HETATM   35  O1  UNL     1       3.091  -1.581  -3.416  1.00  0.00    -0.595 OA
HETATM   36  O2  UNL     1       4.704  -2.557  -1.779  1.00  0.00    -0.595 OA
HETATM   37  O3  UNL     1       5.370  -0.370  -2.954  1.00  0.00    -0.595 OA
ENDBRANCH  33  34
ENDBRANCH  32  33
ENDBRANCH  29  32
ENDBRANCH   1  29
BRANCH  16  38
HETATM   38  N11 UNL     1      -0.471  -2.620   0.668  1.00  0.00    -0.112 N 
HETATM   39  O6  UNL     1      -0.348  -3.178   1.769  1.00  0.00    -0.532 OA
HETATM   40  O7  UNL     1      -0.194  -3.437  -0.432  1.00  0.00    -0.532 OA
ENDBRANCH  16  38
BRANCH   8  41
HETATM   41  N7  UNL     1      -6.066  -0.024  -0.654  1.00  0.00    -0.138 N 
ATOM     42  H7  UNL     1      -6.230   0.964  -0.848  1.00  0.00     0.205 HD
BRANCH  41  43
HETATM   43  N8  UNL     1      -7.162  -0.879  -0.695  1.00  0.00    -0.331 N 
ATOM     44  H82 UNL     1      -6.979  -1.863  -0.499  1.00  0.00     0.177 HD
ATOM     45  H81 UNL     1      -8.118  -0.591  -0.904  1.00  0.00     0.177 HD
ENDBRANCH  41  43
ENDBRANCH   8  41
TORSDOF 11
