REMARK  11 active torsions:
REMARK  status: ('A' for Active; 'I' for Inactive)
REMARK    1  A    between atoms: N1_2  and  C2_4 
REMARK    2  A    between atoms: C3_5  and  N2_6 
REMARK    3  A    between atoms: N2_6  and  C4_8 
REMARK    4  A    between atoms: C7_14  and  S1_15 
REMARK    5  A    between atoms: S1_15  and  C8_16 
REMARK    6  A    between atoms: C8_16  and  C9_17 
REMARK    7  A    between atoms: C9_17  and  C10_19 
REMARK    8  A    between atoms: C11_20  and  O3_21 
REMARK    9  A    between atoms: N4_23  and  C12_24 
REMARK   10  A    between atoms: N5_29  and  O5_30 
REMARK   11  A    between atoms: C17_38  and  N8_39 
ROOT
HETATM    1  C4  UNL     1      -2.717   0.051  -0.032  1.00  0.00     0.114 A 
HETATM    2  C5  UNL     1      -2.093   1.245  -0.210  1.00  0.00     0.123 A 
HETATM    3  C6  UNL     1      -0.686   1.284  -0.297  1.00  0.00     0.250 A 
HETATM    4  O1  UNL     1      -0.164   2.413  -0.462  1.00  0.00    -0.268 OA
HETATM    5  N3  UNL     1       0.017   0.155  -0.203  1.00  0.00    -0.304 N 
ATOM      6  H3  UNL     1       1.034   0.196  -0.267  1.00  0.00     0.171 HD
HETATM    7  C7  UNL     1      -0.579  -1.034  -0.026  1.00  0.00     0.148 A 
HETATM    8  N6  UNL     1      -1.906  -1.073   0.056  1.00  0.00    -0.323 N 
ATOM      9  H6  UNL     1      -2.353  -1.980   0.191  1.00  0.00     0.169 HD
ENDROOT
BRANCH   7  10
HETATM   10  S1  UNL     1       0.393  -2.556   0.096  1.00  0.00    -0.086 SA
BRANCH  10  11
HETATM   11  C8  UNL     1       2.165  -2.052  -0.068  1.00  0.00     0.166 C 
BRANCH  11  12
HETATM   12  C9  UNL     1       2.557  -1.241   1.097  1.00  0.00     0.179 C 
HETATM   13  O2  UNL     1       1.706  -1.010   2.006  1.00  0.00    -0.291 OA
BRANCH  12  14
HETATM   14  C10 UNL     1       3.883  -0.703   1.235  1.00  0.00     0.132 A 
HETATM   15  C11 UNL     1       4.860  -0.910   0.287  1.00  0.00     0.166 A 
HETATM   16  N4  UNL     1       6.085  -0.369   0.511  1.00  0.00    -0.272 N 
HETATM   17  C15 UNL     1       6.367   0.341   1.596  1.00  0.00     0.358 A 
HETATM   18  O4  UNL     1       7.532   0.812   1.736  1.00  0.00    -0.244 OA
HETATM   19  N5  UNL     1       5.411   0.533   2.506  1.00  0.00    -0.133 N 
HETATM   20  C16 UNL     1       4.192   0.047   2.376  1.00  0.00     0.294 A 
HETATM   21  O6  UNL     1       3.278   0.232   3.247  1.00  0.00    -0.264 OA
BRANCH  15  22
HETATM   22  O3  UNL     1       4.629  -1.642  -0.870  1.00  0.00    -0.345 OA
ATOM     23  H3  UNL     1       5.303  -1.785  -1.524  1.00  0.00     0.219 HD
ENDBRANCH  15  22
BRANCH  16  24
HETATM   24  C12 UNL     1       7.093  -0.617  -0.522  1.00  0.00     0.097 A 
HETATM   25  C13 UNL     1       6.760  -0.037  -1.863  1.00  0.00     0.028 A 
HETATM   26  C14 UNL     1       7.912   0.479  -1.064  1.00  0.00     0.028 A 
ENDBRANCH  16  24
BRANCH  19  27
HETATM   27  O5  UNL     1       5.730   1.272   3.622  1.00  0.00    -0.276 OA
ATOM     28  H5  UNL     1       5.049   1.409   4.270  1.00  0.00     0.245 HD
ENDBRANCH  19  27
ENDBRANCH  12  14
ENDBRANCH  11  12
ENDBRANCH  10  11
ENDBRANCH   7  10
BRANCH   1  29
HETATM   29  N2  UNL     1      -4.099  -0.139   0.070  1.00  0.00    -0.326 N 
ATOM     30  H2  UNL     1      -4.338  -1.122   0.203  1.00  0.00     0.169 HD
BRANCH  29  31
HETATM   31  C3  UNL     1      -5.229   0.666   0.037  1.00  0.00     0.154 A 
HETATM   32  C2  UNL     1      -6.501   0.038   0.181  1.00  0.00     0.142 A 
HETATM   33  C18 UNL     1      -7.673   0.750   0.165  1.00  0.00     0.289 A 
HETATM   34  N9  UNL     1      -7.635   2.072   0.011  1.00  0.00    -0.154 N 
HETATM   35  O7  UNL     1      -8.763   0.106   0.301  1.00  0.00    -0.265 OA
HETATM   36  C17 UNL     1      -6.454   2.662  -0.123  1.00  0.00     0.680 A 
ATOM     37  H9  UNL     1      -8.495   2.620  -0.004  1.00  0.00     0.187 HD
HETATM   38  N7  UNL     1      -5.259   1.985  -0.113  1.00  0.00    -0.174 N 
ATOM     39  H7  UNL     1      -4.386   2.501  -0.222  1.00  0.00     0.186 HD
BRANCH  32  40
HETATM   40  N1  UNL     1      -6.502  -1.376   0.339  1.00  0.00    -0.387 N 
HETATM   41  C1  UNL     1      -6.589  -2.196  -0.860  1.00  0.00     0.146 C 
ATOM     42  H1  UNL     1      -6.444  -1.802   1.264  1.00  0.00     0.159 HD
ENDBRANCH  32  40
BRANCH  36  43
HETATM   43  N8  UNL     1      -6.426   3.930  -0.270  1.00  0.00    -0.234 N 
ATOM     44  H82 UNL     1      -5.518   4.384  -0.373  1.00  0.00     0.174 HD
ATOM     45  H81 UNL     1      -7.313   4.433  -0.277  1.00  0.00     0.174 HD
ENDBRANCH  36  43
ENDBRANCH  29  31
ENDBRANCH   1  29
TORSDOF 11
