REMARK  7 active torsions:
REMARK  status: ('A' for Active; 'I' for Inactive)
REMARK    1  A    between atoms: C3_3  and  N1_4 
REMARK       I    between atoms: N1_4  and  C4_6 
REMARK    2  A    between atoms: C9_13  and  O3_14 
REMARK    3  A    between atoms: C9_13  and  C10_16 
REMARK    4  A    between atoms: C11_17  and  C12_18 
REMARK    5  A    between atoms: C12_18  and  O4_19 
REMARK    6  A    between atoms: C12_18  and  C13_21 
REMARK    7  A    between atoms: C13_21  and  O5_23 
ROOT
HETATM    1  C1  UNL     1       0.954   0.954   2.278  1.00  0.00     0.017 C 
HETATM    2  C2  UNL     1       1.227   0.677   1.022  1.00  0.00    -0.056 A 
HETATM    3  C3  UNL     1       2.352  -0.024   0.353  1.00  0.00     0.120 A 
HETATM    4  C6  UNL     1       1.758   0.325  -0.995  1.00  0.00     0.055 A 
HETATM    5  C7  UNL     1       1.172  -0.819  -1.744  1.00  0.00     0.128 C 
HETATM    6  C8  UNL     1       1.813  -1.052  -3.088  1.00  0.00     0.040 C 
HETATM    7  O2  UNL     1      -0.200  -0.590  -1.839  1.00  0.00    -0.346 OA
HETATM    8  C9  UNL     1      -0.520  -0.074  -0.602  1.00  0.00     0.189 C 
HETATM    9  C15 UNL     1       0.566   0.923  -0.271  1.00  0.00     0.091 A 
ENDROOT
BRANCH   8  10
HETATM   10  O3  UNL     1      -0.600  -1.039   0.390  1.00  0.00    -0.362 OA
ATOM     11  H3  UNL     1      -0.821  -0.683   1.243  1.00  0.00     0.213 HD
ENDBRANCH   8  10
BRANCH   8  12
HETATM   12  C10 UNL     1      -1.840   0.603  -0.690  1.00  0.00     0.040 C 
HETATM   13  C11 UNL     1      -2.942  -0.111  -0.647  1.00  0.00     0.008 C 
BRANCH  13  14
HETATM   14  C12 UNL     1      -4.268   0.537  -0.733  1.00  0.00     0.169 C 
BRANCH  14  15
HETATM   15  O4  UNL     1      -4.166   1.933  -0.621  1.00  0.00    -0.389 OA
ATOM     16  H4  UNL     1      -5.018   2.349  -0.676  1.00  0.00     0.210 HD
ENDBRANCH  14  15
BRANCH  14  17
HETATM   17  C13 UNL     1      -5.056   0.080   0.502  1.00  0.00     0.146 C 
HETATM   18  C14 UNL     1      -4.231   0.436   1.704  1.00  0.00     0.042 C 
BRANCH  17  19
HETATM   19  O5  UNL     1      -5.182  -1.296   0.436  1.00  0.00    -0.393 OA
ATOM     20  H5  UNL     1      -5.670  -1.579   1.201  1.00  0.00     0.210 HD
ENDBRANCH  17  19
ENDBRANCH  14  17
ENDBRANCH  13  14
ENDBRANCH   8  12
BRANCH   3  21
HETATM   21  N1  UNL     1       3.662   0.556   0.596  1.00  0.00    -0.353 N 
HETATM   22  C4  UNL     1       4.769  -0.212   1.023  1.00  0.00     0.214 C 
HETATM   23  C5  UNL     1       6.067   0.449   1.248  1.00  0.00     0.117 C 
HETATM   24  O1  UNL     1       4.606  -1.443   1.197  1.00  0.00    -0.274 OA
ATOM     25  H1  UNL     1       3.788   1.558   0.453  1.00  0.00     0.163 HD
ENDBRANCH   3  21
TORSDOF 7
