REMARK  7 active torsions:
REMARK  status: ('A' for Active; 'I' for Inactive)
REMARK    1  A    between atoms: C5_5  and  C6_6 
REMARK    2  A    between atoms: C6_6  and  C7_7 
REMARK    3  A    between atoms: C7_7  and  N1_8 
REMARK    4  A    between atoms: C8_11  and  C9_12 
REMARK    5  A    between atoms: N3_18  and  C14_19 
REMARK    6  A    between atoms: C14_19  and  C15_20 
REMARK       I    between atoms: C15_20  and  N4_22 
REMARK    7  A    between atoms: N4_22  and  C16_24 
ROOT
HETATM    1  N1  UNL     1      -0.121  -1.134  -0.901  1.00  0.00    -0.242 N 
HETATM    2  N2  UNL     1       0.458  -2.072  -0.174  1.00  0.00    -0.292 N 
ATOM      3  H2  UNL     1      -0.130  -2.663   0.415  1.00  0.00     0.187 HD
HETATM    4  C8  UNL     1       1.784  -2.285  -0.173  1.00  0.00     0.102 A 
HETATM    5  C13 UNL     1       2.543  -1.450  -0.994  1.00  0.00     0.276 A 
HETATM    6  O1  UNL     1       3.799  -1.623  -1.019  1.00  0.00    -0.266 OA
HETATM    7  N3  UNL     1       1.935  -0.499  -1.728  1.00  0.00    -0.255 N 
HETATM    8  C19 UNL     1       0.580  -0.321  -1.695  1.00  0.00     0.346 A 
HETATM    9  O3  UNL     1       0.072   0.582  -2.402  1.00  0.00    -0.245 OA
ENDROOT
BRANCH   1  10
HETATM   10  C7  UNL     1      -1.559  -0.965  -0.847  1.00  0.00     0.154 C 
BRANCH  10  11
HETATM   11  C6  UNL     1      -1.905   0.007   0.244  1.00  0.00     0.026 C 
BRANCH  11  12
HETATM   12  C5  UNL     1      -3.360   0.264   0.399  1.00  0.00    -0.013 C 
HETATM   13  C4  UNL     1      -4.031   0.830  -0.807  1.00  0.00     0.005 C 
HETATM   14  C3  UNL     1      -5.533   0.851  -0.546  1.00  0.00     0.004 C 
HETATM   15  C2  UNL     1      -5.876   1.422   0.783  1.00  0.00    -0.019 C 
HETATM   16  C1  UNL     1      -7.044   2.371   0.619  1.00  0.00     0.010 C 
HETATM   17  C21 UNL     1      -4.687   2.186   1.311  1.00  0.00     0.004 C 
HETATM   18  C20 UNL     1      -3.541   1.239   1.543  1.00  0.00     0.005 C 
ENDBRANCH  11  12
ENDBRANCH  10  11
ENDBRANCH   1  10
BRANCH   4  19
HETATM   19  C9  UNL     1       2.457  -3.334   0.635  1.00  0.00    -0.002 C 
HETATM   20  C10 UNL     1       1.379  -4.076   1.420  1.00  0.00     0.021 C 
HETATM   21  C11 UNL     1       3.516  -2.815   1.543  1.00  0.00     0.021 C 
HETATM   22  C12 UNL     1       3.075  -4.383  -0.292  1.00  0.00     0.021 C 
ENDBRANCH   4  19
BRANCH   7  23
HETATM   23  C14 UNL     1       2.688   0.385  -2.585  1.00  0.00     0.240 C 
BRANCH  23  24
HETATM   24  C15 UNL     1       3.046   1.594  -1.798  1.00  0.00     0.236 C 
HETATM   25  O2  UNL     1       2.215   2.558  -1.694  1.00  0.00    -0.272 OA
HETATM   26  N4  UNL     1       4.289   1.751  -1.138  1.00  0.00    -0.355 N 
ATOM     27  H4  UNL     1       4.990   1.012  -1.190  1.00  0.00     0.162 HD
BRANCH  26  28
HETATM   28  C16 UNL     1       4.565   2.956  -0.391  1.00  0.00     0.084 A 
HETATM   29  C17 UNL     1       5.979   3.406  -0.246  1.00  0.00     0.027 A 
HETATM   30  C18 UNL     1       5.288   2.746   0.891  1.00  0.00     0.027 A 
ENDBRANCH  26  28
ENDBRANCH  23  24
ENDBRANCH   7  23
TORSDOF 7
