REMARK  8 active torsions:
REMARK  status: ('A' for Active; 'I' for Inactive)
REMARK    1  A    between atoms: C2_2  and  C3_3 
REMARK    2  A    between atoms: C3_3  and  N1_4 
REMARK    3  A    between atoms: C7_11  and  N3_12 
REMARK    4  A    between atoms: N3_12  and  C8_14 
REMARK    5  A    between atoms: C8_14  and  C10_16 
REMARK    6  A    between atoms: C10_16  and  C11_17 
REMARK    7  A    between atoms: N4_23  and  C17_24 
REMARK    8  A    between atoms: N5_27  and  C20_28 
ROOT
HETATM    1  N1  UNL     1      -2.169   2.225   0.391  1.00  0.00    -0.262 N 
HETATM    2  C4  UNL     1      -1.039   1.540   0.486  1.00  0.00     0.268 A 
HETATM    3  O1  UNL     1       0.001   2.135   0.869  1.00  0.00    -0.267 OA
HETATM    4  C5  UNL     1      -1.041   0.196   0.163  1.00  0.00     0.106 A 
HETATM    5  C6  UNL     1      -0.040  -0.708   0.195  1.00  0.00     0.081 A 
HETATM    6  N2  UNL     1       1.256  -0.575   0.532  1.00  0.00    -0.340 N 
ATOM      7  H2  UNL     1       1.594   0.343   0.819  1.00  0.00     0.167 HD
HETATM    8  C7  UNL     1       2.124  -1.602   0.506  1.00  0.00     0.102 A 
HETATM    9  C13 UNL     1       1.621  -2.801   0.117  1.00  0.00     0.057 A 
HETATM   10  C14 UNL     1       0.270  -3.011  -0.249  1.00  0.00    -0.029 A 
HETATM   11  C15 UNL     1      -0.187  -4.330  -0.651  1.00  0.00     0.050 C 
HETATM   12  C16 UNL     1      -0.587  -1.933  -0.209  1.00  0.00     0.070 A 
HETATM   13  N4  UNL     1      -1.900  -1.758  -0.480  1.00  0.00    -0.330 N 
HETATM   14  C19 UNL     1      -2.222  -0.447  -0.265  1.00  0.00     0.132 A 
HETATM   15  N5  UNL     1      -3.350   0.270  -0.356  1.00  0.00    -0.284 N 
HETATM   16  C22 UNL     1      -3.258   1.610  -0.010  1.00  0.00     0.333 A 
HETATM   17  O2  UNL     1      -4.327   2.269  -0.097  1.00  0.00    -0.246 OA
ENDROOT
BRANCH   8  18
HETATM   18  N3  UNL     1       3.358  -1.508   0.818  1.00  0.00    -0.372 N 
ATOM     19  H3  UNL     1       3.929  -2.352   0.762  1.00  0.00     0.161 HD
BRANCH  18  20
HETATM   20  C8  UNL     1       4.000  -0.289   1.245  1.00  0.00     0.079 C 
HETATM   21  C9  UNL     1       5.203  -0.678   2.068  1.00  0.00     0.032 C 
BRANCH  20  22
HETATM   22  C10 UNL     1       4.396   0.471  -0.003  1.00  0.00     0.024 C 
BRANCH  22  23
HETATM   23  C11 UNL     1       5.082   1.777   0.336  1.00  0.00    -0.003 C 
HETATM   24  C12 UNL     1       5.450   2.484  -0.952  1.00  0.00     0.005 C 
ENDBRANCH  22  23
ENDBRANCH  20  22
ENDBRANCH  18  20
ENDBRANCH   8  18
BRANCH  13  25
HETATM   25  C17 UNL     1      -2.827  -2.755  -0.867  1.00  0.00     0.126 C 
HETATM   26  C18 UNL     1      -3.046  -3.063  -2.296  1.00  0.00     0.027 C 
ENDBRANCH  13  25
BRANCH   1  27
HETATM   27  C3  UNL     1      -2.125   3.643   0.745  1.00  0.00     0.163 C 
BRANCH  27  28
HETATM   28  C2  UNL     1      -2.404   3.877   2.169  1.00  0.00    -0.017 C 
HETATM   29  C1  UNL     1      -1.490   4.465   2.921  1.00  0.00     0.008 C 
ENDBRANCH  27  28
ENDBRANCH   1  27
BRANCH  15  30
HETATM   30  C20 UNL     1      -4.561  -0.220  -0.865  1.00  0.00     0.131 C 
HETATM   31  C21 UNL     1      -4.759   0.181  -2.357  1.00  0.00     0.027 C 
ENDBRANCH  15  30
TORSDOF 8
