REMARK  6 active torsions:
REMARK  status: ('A' for Active; 'I' for Inactive)
REMARK    1  A    between atoms: C2_2  and  O1_3 
REMARK    2  A    between atoms: O1_3  and  C3_4 
REMARK    3  A    between atoms: C4_5  and  N1_6 
REMARK    4  A    between atoms: N2_9  and  C7_10 
REMARK    5  A    between atoms: C11_17  and  N4_18 
REMARK    6  A    between atoms: C12_23  and  N6_24 
ROOT
HETATM    1  C3  UNL     1      -0.942   0.644   0.352  1.00  0.00     0.120 A 
HETATM    2  C4  UNL     1       0.108  -0.125  -0.089  1.00  0.00     0.138 A 
HETATM    3  N3  UNL     1      -0.055  -1.402  -0.489  1.00  0.00    -0.335 N 
ATOM      4  H3  UNL     1       0.752  -1.937  -0.809  1.00  0.00     0.168 HD
HETATM    5  C10 UNL     1      -1.276  -1.982  -0.471  1.00  0.00     0.106 A 
HETATM    6  C11 UNL     1      -1.494  -3.272  -0.866  1.00  0.00     0.144 A 
HETATM    7  N5  UNL     1      -2.756  -3.791  -0.820  1.00  0.00    -0.175 N 
ATOM      8  H5  UNL     1      -2.914  -4.755  -1.115  1.00  0.00     0.186 HD
HETATM    9  C12 UNL     1      -3.793  -3.051  -0.392  1.00  0.00     0.678 A 
HETATM   10  N7  UNL     1      -3.582  -1.784  -0.004  1.00  0.00    -0.189 N 
ATOM     11  H7  UNL     1      -4.370  -1.224   0.321  1.00  0.00     0.184 HD
HETATM   12  C13 UNL     1      -2.350  -1.235  -0.034  1.00  0.00     0.088 A 
HETATM   13  C14 UNL     1      -2.193   0.075   0.378  1.00  0.00     0.005 A 
HETATM   14  C15 UNL     1      -3.347   0.856   0.841  1.00  0.00     0.054 C 
ENDROOT
BRANCH   2  15
HETATM   15  N1  UNL     1       1.419   0.422  -0.133  1.00  0.00    -0.362 N 
HETATM   16  C5  UNL     1       2.093   0.918   1.042  1.00  0.00     0.144 C 
HETATM   17  C6  UNL     1       3.426   0.239   1.223  1.00  0.00     0.145 C 
HETATM   18  N2  UNL     1       4.023  -0.078  -0.083  1.00  0.00    -0.356 N 
HETATM   19  C8  UNL     1       3.561   0.583  -1.272  1.00  0.00     0.145 C 
HETATM   20  C9  UNL     1       2.069   0.464  -1.437  1.00  0.00     0.144 C 
BRANCH  18  21
HETATM   21  C7  UNL     1       5.057  -1.054  -0.086  1.00  0.00     0.350 C 
HETATM   22  O2  UNL     1       5.460  -1.631   0.947  1.00  0.00    -0.284 OA
ENDBRANCH  18  21
ENDBRANCH   2  15
BRANCH   1  23
HETATM   23  O1  UNL     1      -0.720   1.941   0.748  1.00  0.00    -0.347 OA
BRANCH  23  24
HETATM   24  C2  UNL     1      -0.784   3.049  -0.130  1.00  0.00     0.171 C 
HETATM   25  C1  UNL     1      -0.497   4.346   0.573  1.00  0.00     0.034 C 
ENDBRANCH  23  24
ENDBRANCH   1  23
BRANCH   6  26
HETATM   26  N4  UNL     1      -0.525  -4.003  -1.280  1.00  0.00    -0.383 N 
ATOM     27  H42 UNL     1       0.418  -3.615  -1.314  1.00  0.00     0.157 HD
ATOM     28  H41 UNL     1      -0.688  -4.966  -1.575  1.00  0.00     0.157 HD
ENDBRANCH   6  26
BRANCH   9  29
HETATM   29  N6  UNL     1      -4.999  -3.528  -0.343  1.00  0.00    -0.234 N 
ATOM     30  H62 UNL     1      -5.159  -4.491  -0.638  1.00  0.00     0.174 HD
ATOM     31  H61 UNL     1      -5.786  -2.966  -0.018  1.00  0.00     0.174 HD
ENDBRANCH   9  29
TORSDOF 6
