REMARK  5 active torsions:
REMARK  status: ('A' for Active; 'I' for Inactive)
REMARK    1  A    between atoms: C7_8  and  N1_9 
REMARK       I    between atoms: N1_9  and  C8_11 
REMARK    2  A    between atoms: C8_11  and  C9_13 
REMARK    3  A    between atoms: C9_13  and  O2_14 
REMARK    4  A    between atoms: O2_14  and  C10_15 
REMARK    5  A    between atoms: C11_18  and  C12_19 
ROOT
HETATM    1  C1  UNL     1      -3.591   1.725   0.008  1.00  0.00     0.038 C 
HETATM    2  C2  UNL     1      -3.935   0.265  -0.298  1.00  0.00     0.030 C 
HETATM    3  C3  UNL     1      -4.963   0.292  -1.401  1.00  0.00     0.038 C 
HETATM    4  C4  UNL     1      -2.683  -0.396  -0.814  1.00  0.00     0.071 C 
HETATM    5  C5  UNL     1      -1.581  -0.457   0.218  1.00  0.00    -0.015 A 
HETATM    6  C6  UNL     1      -1.989  -0.443   1.509  1.00  0.00     0.082 A 
HETATM    7  S1  UNL     1      -0.556  -0.467   2.400  1.00  0.00    -0.065 SA
HETATM    8  C7  UNL     1       0.601  -0.489   1.065  1.00  0.00     0.093 A 
HETATM    9  C11 UNL     1      -0.218  -0.490  -0.004  1.00  0.00     0.071 A 
HETATM   10  C13 UNL     1      -3.422  -0.399   1.922  1.00  0.00     0.259 C 
HETATM   11  O5  UNL     1      -3.656  -0.398   3.129  1.00  0.00    -0.267 OA
HETATM   12  N4  UNL     1      -4.415  -0.364   0.893  1.00  0.00    -0.348 N 
ATOM     13  H4  UNL     1      -5.356  -0.744   0.997  1.00  0.00     0.163 HD
ENDROOT
BRANCH   8  14
HETATM   14  N1  UNL     1       2.003  -0.511   1.310  1.00  0.00    -0.319 N 
HETATM   15  C8  UNL     1       3.070  -0.003   0.619  1.00  0.00     0.246 C 
HETATM   16  O1  UNL     1       3.038   0.669  -0.424  1.00  0.00    -0.271 OA
ATOM     17  H1  UNL     1       2.263  -1.000   2.166  1.00  0.00     0.169 HD
BRANCH  15  18
HETATM   18  C9  UNL     1       4.483  -0.253   1.128  1.00  0.00     0.283 C 
BRANCH  18  19
HETATM   19  O2  UNL     1       5.436   0.339   0.291  1.00  0.00    -0.297 OA
BRANCH  19  20
HETATM   20  C10 UNL     1       6.776   0.211   0.605  1.00  0.00     0.373 C 
HETATM   21  N2  UNL     1       7.763   0.800  -0.225  1.00  0.00    -0.032 NA
HETATM   22  O3  UNL     1       7.069  -0.444   1.645  1.00  0.00    -0.242 OA
ENDBRANCH  19  20
ENDBRANCH  18  19
ENDBRANCH  15  18
ENDBRANCH   8  14
BRANCH   9  23
HETATM   23  C12 UNL     1       0.284  -0.866  -1.368  1.00  0.00     0.268 C 
HETATM   24  N3  UNL     1      -0.466  -0.723  -2.557  1.00  0.00    -0.057 NA
HETATM   25  O4  UNL     1       1.426  -1.344  -1.564  1.00  0.00    -0.271 OA
ENDBRANCH   9  23
TORSDOF 5
