REMARK  11 active torsions:
REMARK  status: ('A' for Active; 'I' for Inactive)
REMARK    1  A    between atoms: N1_1  and  C1_5 
REMARK    2  A    between atoms: C1_5  and  C2_6 
REMARK    3  A    between atoms: C3_7  and  S1_8 
REMARK    4  A    between atoms: S1_8  and  C4_9 
REMARK    5  A    between atoms: C12_17  and  N2_18 
REMARK    6  A    between atoms: C16_27  and  N5_28 
REMARK    7  A    between atoms: N5_28  and  C17_30 
REMARK    8  A    between atoms: C17_30  and  C18_31 
REMARK    9  A    between atoms: C17_30  and  C19_34 
REMARK   10  A    between atoms: C18_31  and  O2_32 
REMARK   11  A    between atoms: C19_34  and  O3_35 
ROOT
HETATM    1  N2  UNL     1      -1.016   1.919   0.862  1.00  0.00    -0.322 N 
HETATM    2  C13 UNL     1      -0.916   3.255   0.869  1.00  0.00     0.185 A 
HETATM    3  N3  UNL     1      -2.075   3.830   0.514  1.00  0.00    -0.345 N 
ATOM      4  H3  UNL     1      -2.251   4.832   0.445  1.00  0.00     0.167 HD
HETATM    5  C14 UNL     1      -2.957   2.858   0.267  1.00  0.00     0.147 A 
HETATM    6  C15 UNL     1      -4.279   2.819  -0.126  1.00  0.00     0.290 A 
HETATM    7  O1  UNL     1      -4.901   3.916  -0.330  1.00  0.00    -0.265 OA
HETATM    8  N4  UNL     1      -4.963   1.665  -0.310  1.00  0.00    -0.154 N 
ATOM      9  H4  UNL     1      -5.940   1.674  -0.602  1.00  0.00     0.187 HD
HETATM   10  C16 UNL     1      -4.316   0.511  -0.097  1.00  0.00     0.683 A 
HETATM   11  N6  UNL     1      -2.999   0.544   0.294  1.00  0.00    -0.174 N 
ATOM     12  H6  UNL     1      -2.525  -0.345   0.449  1.00  0.00     0.186 HD
HETATM   13  C20 UNL     1      -2.303   1.663   0.483  1.00  0.00     0.157 A 
ENDROOT
BRANCH   1  14
HETATM   14  C12 UNL     1      -0.061   0.903   1.166  1.00  0.00     0.099 C 
HETATM   15  C2  UNL     1       0.453   0.120   0.006  1.00  0.00     0.048 C 
HETATM   16  C3  UNL     1       1.748  -0.437   0.554  1.00  0.00     0.055 C 
HETATM   17  C10 UNL     1       2.307   0.537   1.518  1.00  0.00     0.017 C 
HETATM   18  C11 UNL     1       1.155   1.422   1.894  1.00  0.00     0.027 C 
BRANCH  15  19
HETATM   19  C1  UNL     1       0.663   0.932  -1.244  1.00  0.00     0.237 C 
BRANCH  19  20
HETATM   20  N1  UNL     1       1.524   2.063  -1.063  1.00  0.00    -0.079 N 
ATOM     21  H13 UNL     1       1.185   2.654  -0.304  1.00  0.00     0.274 HD
ATOM     22  H12 UNL     1       2.419   1.773  -0.669  1.00  0.00     0.274 HD
ATOM     23  H11 UNL     1       1.666   2.613  -1.910  1.00  0.00     0.274 HD
ENDBRANCH  19  20
ENDBRANCH  15  19
BRANCH  16  24
HETATM   24  S1  UNL     1       2.926  -0.833  -0.728  1.00  0.00    -0.159 SA
BRANCH  24  25
HETATM   25  C4  UNL     1       4.431  -1.511  -0.013  1.00  0.00     0.047 C 
HETATM   26  C5  UNL     1       5.248  -0.547   0.775  1.00  0.00     0.015 C 
HETATM   27  C6  UNL     1       6.666  -1.140   0.861  1.00  0.00     0.001 C 
HETATM   28  C7  UNL     1       7.407  -1.033  -0.433  1.00  0.00     0.000 C 
HETATM   29  C8  UNL     1       6.345  -1.064  -1.540  1.00  0.00     0.001 C 
HETATM   30  C9  UNL     1       5.337  -2.114  -1.079  1.00  0.00     0.015 C 
ENDBRANCH  24  25
ENDBRANCH  16  24
ENDBRANCH   1  14
BRANCH  10  31
HETATM   31  N5  UNL     1      -4.804  -0.609  -0.224  1.00  0.00    -0.217 N 
ATOM     32  H5  UNL     1      -4.081  -1.291   0.003  1.00  0.00     0.178 HD
BRANCH  31  33
HETATM   33  C17 UNL     1      -5.948  -1.303  -0.554  1.00  0.00     0.146 C 
BRANCH  33  34
HETATM   34  C18 UNL     1      -7.160  -0.559  -0.994  1.00  0.00     0.192 C 
BRANCH  34  35
HETATM   35  O2  UNL     1      -8.172  -1.474  -1.286  1.00  0.00    -0.399 OA
ATOM     36  H2  UNL     1      -8.945  -0.999  -1.567  1.00  0.00     0.209 HD
ENDBRANCH  34  35
ENDBRANCH  33  34
BRANCH  33  37
HETATM   37  C19 UNL     1      -6.334  -2.176   0.650  1.00  0.00     0.192 C 
BRANCH  37  38
HETATM   38  O3  UNL     1      -7.474  -2.914   0.389  1.00  0.00    -0.399 OA
ATOM     39  H3  UNL     1      -7.713  -3.454   1.133  1.00  0.00     0.209 HD
ENDBRANCH  37  38
ENDBRANCH  33  37
ENDBRANCH  31  33
ENDBRANCH  10  31
TORSDOF 11
