REMARK  8 active torsions:
REMARK  status: ('A' for Active; 'I' for Inactive)
REMARK    1  A    between atoms: N1_2  and  C2_4 
REMARK    2  A    between atoms: C7_12  and  C8_13 
REMARK    3  A    between atoms: C9_16  and  N4_17 
REMARK    4  A    between atoms: N4_17  and  C10_19 
REMARK    5  A    between atoms: C10_19  and  C11_20 
REMARK    6  A    between atoms: C11_20  and  N5_21 
REMARK    7  A    between atoms: C14_24  and  O1_25 
REMARK    8  A    between atoms: C18_29  and  N6_30 
ROOT
HETATM    1  C8  UNL     1      -2.833  -0.546  -0.003  1.00  0.00     0.123 A 
HETATM    2  N3  UNL     1      -1.560  -0.041  -0.059  1.00  0.00    -0.327 N 
ATOM      3  H3  UNL     1      -1.437   0.969   0.010  1.00  0.00     0.169 HD
HETATM    4  C9  UNL     1      -0.477  -0.799  -0.199  1.00  0.00     0.120 A 
HETATM    5  C17 UNL     1      -0.572  -2.172  -0.299  1.00  0.00     0.096 A 
HETATM    6  C18 UNL     1       0.533  -2.979  -0.445  1.00  0.00     0.132 A 
HETATM    7  N7  UNL     1       0.321  -4.321  -0.534  1.00  0.00    -0.176 N 
ATOM      8  H7  UNL     1       1.125  -4.939  -0.643  1.00  0.00     0.186 HD
HETATM    9  C19 UNL     1      -0.908  -4.861  -0.483  1.00  0.00     0.679 A 
HETATM   10  N8  UNL     1      -1.032  -6.142  -0.574  1.00  0.00    -0.234 N 
ATOM     11  H81 UNL     1      -1.965  -6.552  -0.535  1.00  0.00     0.174 HD
ATOM     12  H82 UNL     1      -0.230  -6.762  -0.683  1.00  0.00     0.174 HD
HETATM   13  N9  UNL     1      -1.970  -4.040  -0.339  1.00  0.00    -0.176 N 
ATOM     14  H9  UNL     1      -2.905  -4.446  -0.300  1.00  0.00     0.186 HD
HETATM   15  C20 UNL     1      -1.837  -2.703  -0.245  1.00  0.00     0.140 A 
HETATM   16  N10 UNL     1      -2.895  -1.877  -0.100  1.00  0.00    -0.326 N 
ATOM     17  H10 UNL     1      -3.820  -2.305  -0.061  1.00  0.00     0.169 HD
ENDROOT
BRANCH   1  18
HETATM   18  C7  UNL     1      -3.972   0.368   0.020  1.00  0.00     0.058 A 
HETATM   19  C2  UNL     1      -3.887   1.547   0.722  1.00  0.00     0.116 A 
HETATM   20  N2  UNL     1      -4.883   2.506   0.668  1.00  0.00    -0.332 N 
HETATM   21  C3  UNL     1      -5.990   2.368  -0.055  1.00  0.00     0.105 A 
ATOM     22  H2  UNL     1      -4.762   3.362   1.210  1.00  0.00     0.168 HD
HETATM   23 CL1  UNL     1      -7.237   3.615  -0.098  1.00  0.00    -0.064 Cl
HETATM   24  C4  UNL     1      -6.110   1.204  -0.766  1.00  0.00     0.050 A 
HETATM   25  C5  UNL     1      -5.115   0.206  -0.736  1.00  0.00    -0.041 A 
HETATM   26  C6  UNL     1      -5.321  -0.993  -1.587  1.00  0.00     0.049 C 
BRANCH  19  27
HETATM   27  N1  UNL     1      -2.811   1.784   1.615  1.00  0.00    -0.380 N 
HETATM   28  C1  UNL     1      -2.694   3.063   2.325  1.00  0.00     0.147 C 
ATOM     29  H1  UNL     1      -2.111   1.058   1.765  1.00  0.00     0.160 HD
ENDBRANCH  19  27
ENDBRANCH   1  18
BRANCH   4  30
HETATM   30  N4  UNL     1       0.727  -0.321  -0.251  1.00  0.00    -0.374 N 
ATOM     31  H4  UNL     1       1.511  -0.965  -0.359  1.00  0.00     0.161 HD
BRANCH  30  32
HETATM   32  C10 UNL     1       0.993   1.099  -0.161  1.00  0.00     0.151 C 
BRANCH  32  33
HETATM   33  C11 UNL     1       1.884   1.426   1.016  1.00  0.00     0.292 C 
BRANCH  33  34
HETATM   34  N5  UNL     1       3.166   0.757   0.922  1.00  0.00     0.092 N 
HETATM   35  C12 UNL     1       4.029   1.048   2.022  1.00  0.00     0.275 C 
HETATM   36  C13 UNL     1       5.412   0.657   1.501  1.00  0.00     0.064 C 
HETATM   37  C14 UNL     1       5.340   1.025   0.035  1.00  0.00     0.150 C 
HETATM   38  C16 UNL     1       3.863   1.061  -0.290  1.00  0.00     0.304 C 
BRANCH  37  39
HETATM   39  O1  UNL     1       5.946   2.245  -0.228  1.00  0.00    -0.389 OA
HETATM   40  C15 UNL     1       7.017   2.142  -1.099  1.00  0.00     0.202 C 
ENDBRANCH  37  39
ENDBRANCH  33  34
ENDBRANCH  32  33
ENDBRANCH  30  32
ENDBRANCH   4  30
BRANCH   6  41
HETATM   41  N6  UNL     1       1.690  -2.452  -0.491  1.00  0.00    -0.384 N 
ATOM     42  H62 UNL     1       1.849  -1.447  -0.424  1.00  0.00     0.157 HD
ATOM     43  H61 UNL     1       2.509  -3.050  -0.599  1.00  0.00     0.157 HD
ENDBRANCH   6  41
TORSDOF 8
