REMARK  9 active torsions:
REMARK  status: ('A' for Active; 'I' for Inactive)
REMARK    1  A    between atoms: O1_2  and  C2_3 
REMARK    2  A    between atoms: C3_4  and  O2_5 
REMARK    3  A    between atoms: C5_8  and  C6_9 
REMARK    4  A    between atoms: C6_9  and  O3_10 
REMARK    5  A    between atoms: C6_9  and  N1_12 
REMARK    6  A    between atoms: N1_12  and  N2_14 
REMARK    7  A    between atoms: N2_14  and  C7_16 
REMARK    8  A    between atoms: C15_29  and  N7_30 
REMARK    9  A    between atoms: C18_33  and  O4_34 
ROOT
HETATM    1  C7  UNL     1       3.401  -0.202   0.246  1.00  0.00     0.095 A 
HETATM    2  C8  UNL     1       4.640   0.260   0.738  1.00  0.00     0.096 A 
HETATM    3  C9  UNL     1       4.638   1.090   1.880  1.00  0.00     0.104 C 
HETATM    4  N3  UNL     1       4.640   1.761   2.839  1.00  0.00    -0.191 NA
HETATM    5  C10 UNL     1       5.826  -0.068   0.144  1.00  0.00     0.029 A 
HETATM    6  C11 UNL     1       7.136   0.404   0.681  1.00  0.00     0.070 C 
HETATM    7  N4  UNL     1       5.861  -0.850  -0.942  1.00  0.00    -0.346 N 
ATOM      8  H4  UNL     1       6.748  -1.093  -1.383  1.00  0.00     0.167 HD
HETATM    9  C12 UNL     1       4.705  -1.304  -1.434  1.00  0.00     0.139 A 
HETATM   10  N5  UNL     1       4.744  -2.129  -2.586  1.00  0.00    -0.081 NA
HETATM   11  C13 UNL     1       3.465  -0.996  -0.859  1.00  0.00     0.115 A 
HETATM   12  C14 UNL     1       2.302  -1.547  -1.461  1.00  0.00     0.105 C 
HETATM   13  N6  UNL     1       1.355  -2.024  -1.975  1.00  0.00    -0.191 NA
ENDROOT
BRANCH   1  14
HETATM   14  N2  UNL     1       2.335   0.110   0.808  1.00  0.00    -0.296 N 
ATOM     15  H2  UNL     1       2.485   0.708   1.620  1.00  0.00     0.187 HD
BRANCH  14  16
HETATM   16  N1  UNL     1       1.004  -0.159   0.596  1.00  0.00    -0.279 N 
ATOM     17  H1  UNL     1       0.638  -1.086   0.814  1.00  0.00     0.189 HD
BRANCH  16  18
HETATM   18  C6  UNL     1       0.152   0.810   0.091  1.00  0.00     0.167 C 
BRANCH  18  19
HETATM   19  C5  UNL     1      -1.237   0.897  -0.230  1.00  0.00     0.048 A 
HETATM   20  C4  UNL     1      -1.628   1.802  -1.259  1.00  0.00     0.057 A 
HETATM   21  C3  UNL     1      -2.932   1.981  -1.619  1.00  0.00     0.102 A 
HETATM   22  C2  UNL     1      -3.906   1.263  -0.967  1.00  0.00     0.137 A 
HETATM   23  C18 UNL     1      -3.578   0.358   0.051  1.00  0.00     0.132 A 
HETATM   24  C15 UNL     1      -2.244   0.206   0.384  1.00  0.00     0.081 A 
BRANCH  21  25
HETATM   25  O2  UNL     1      -3.272   2.884  -2.641  1.00  0.00    -0.358 OA
ATOM     26  H2  UNL     1      -2.599   3.380  -3.092  1.00  0.00     0.217 HD
ENDBRANCH  21  25
BRANCH  22  27
HETATM   27  O1  UNL     1      -5.230   1.439  -1.325  1.00  0.00    -0.351 OA
HETATM   28  C1  UNL     1      -6.072   2.429  -0.767  1.00  0.00     0.210 C 
ENDBRANCH  22  27
BRANCH  23  29
HETATM   29  O4  UNL     1      -4.564  -0.307   0.653  1.00  0.00    -0.351 OA
HETATM   30  C19 UNL     1      -5.290  -1.441   0.450  1.00  0.00     0.210 C 
ENDBRANCH  23  29
BRANCH  24  31
HETATM   31  N7  UNL     1      -1.996  -0.725   1.403  1.00  0.00    -0.386 N 
HETATM   32  C16 UNL     1      -1.853  -0.349   2.805  1.00  0.00     0.149 C 
HETATM   33  C17 UNL     1      -1.944  -2.143   1.102  1.00  0.00     0.149 C 
ENDBRANCH  24  31
ENDBRANCH  18  19
BRANCH  18  34
HETATM   34  O3  UNL     1       0.796   1.938  -0.153  1.00  0.00    -0.344 OA
ATOM     35  H3  UNL     1       1.720   1.880   0.061  1.00  0.00     0.219 HD
ENDBRANCH  18  34
ENDBRANCH  16  18
ENDBRANCH  14  16
ENDBRANCH   1  14
TORSDOF 9
