REMARK  7 active torsions:
REMARK  status: ('A' for Active; 'I' for Inactive)
REMARK       I    between atoms: C2_2  and  N1_4 
REMARK    1  A    between atoms: C4_7  and  C5_8 
REMARK       I    between atoms: C5_8  and  N2_10 
REMARK    2  A    between atoms: N2_10  and  C6_12 
REMARK    3  A    between atoms: N3_15  and  N4_16 
REMARK    4  A    between atoms: N4_16  and  S1_18 
REMARK    5  A    between atoms: S1_18  and  N5_21 
REMARK       I    between atoms: N5_21  and  C8_23 
REMARK    6  A    between atoms: C8_23  and  C9_25 
REMARK    7  A    between atoms: N6_34  and  O10_35 
ROOT
HETATM    1  C6  UNL     1       1.167  -0.387   0.220  1.00  0.00     0.203 A 
HETATM    2  C7  UNL     1       2.152   0.262   1.153  1.00  0.00     0.264 A 
HETATM    3  O3  UNL     1       2.165   0.296   2.421  1.00  0.00    -0.269 OA
HETATM    4  N3  UNL     1       2.928   0.739   0.067  1.00  0.00    -0.242 N 
HETATM    5  C10 UNL     1       1.959   0.254  -0.852  1.00  0.00     0.140 A 
HETATM    6  C11 UNL     1       1.219   1.302  -1.672  1.00  0.00     0.037 C 
ENDROOT
BRANCH   1   7
HETATM    7  N2  UNL     1      -0.138   0.166   0.520  1.00  0.00    -0.343 N 
HETATM    8  C5  UNL     1      -1.169  -0.514   1.164  1.00  0.00     0.255 C 
HETATM    9  O2  UNL     1      -0.954  -1.722   1.528  1.00  0.00    -0.270 OA
ATOM     10  H2  UNL     1      -0.316   1.130   0.237  1.00  0.00     0.163 HD
BRANCH   8  11
HETATM   11  C4  UNL     1      -2.499   0.050   1.464  1.00  0.00     0.285 C 
HETATM   12  C3  UNL     1      -3.609  -0.702   0.882  1.00  0.00     0.148 C 
HETATM   13  N1  UNL     1      -3.754  -1.979   0.720  1.00  0.00    -0.313 N 
HETATM   14  N6  UNL     1      -4.578   0.260   0.484  1.00  0.00    -0.210 N 
HETATM   15  C2  UNL     1      -4.909  -2.542   0.134  1.00  0.00     0.219 C 
ATOM     16  H1  UNL     1      -3.006  -2.601   1.027  1.00  0.00     0.170 HD
HETATM   17  C1  UNL     1      -4.998  -3.054  -1.253  1.00  0.00     0.117 C 
HETATM   18  O1  UNL     1      -5.950  -2.616   0.849  1.00  0.00    -0.274 OA
HETATM   19  C12 UNL     1      -4.026   1.520   0.937  1.00  0.00     0.156 C 
HETATM   20  O9  UNL     1      -2.661   1.335   1.011  1.00  0.00    -0.337 OA
HETATM   21  C13 UNL     1      -4.390   2.567  -0.109  1.00  0.00     0.073 C 
HETATM   22  C14 UNL     1      -4.611   1.956   2.272  1.00  0.00     0.073 C 
BRANCH  14  23
HETATM   23  O10 UNL     1      -5.753   0.115  -0.165  1.00  0.00    -0.283 OA
ATOM     24  H10 UNL     1      -6.400   0.758  -0.431  1.00  0.00     0.245 HD
ENDBRANCH  14  23
ENDBRANCH   8  11
ENDBRANCH   1   7
BRANCH   4  25
HETATM   25  N4  UNL     1       4.156   1.412   0.106  1.00  0.00    -0.204 N 
ATOM     26  H4  UNL     1       4.312   2.259   0.652  1.00  0.00     0.202 HD
BRANCH  25  27
HETATM   27  S1  UNL     1       5.353   0.688  -0.837  1.00  0.00     0.339 S 
HETATM   28  O4  UNL     1       4.692   0.061  -2.053  1.00  0.00    -0.181 OA
HETATM   29  O5  UNL     1       6.385   1.628  -1.376  1.00  0.00    -0.181 OA
BRANCH  27  30
HETATM   30  N5  UNL     1       6.100  -0.576   0.060  1.00  0.00    -0.227 N 
HETATM   31  C8  UNL     1       7.445  -0.989  -0.168  1.00  0.00     0.332 C 
HETATM   32  O6  UNL     1       8.099  -0.395  -1.060  1.00  0.00    -0.260 OA
ATOM     33  H5  UNL     1       5.559  -1.049   0.784  1.00  0.00     0.183 HD
BRANCH  31  34
HETATM   34  C9  UNL     1       8.062  -2.061   0.592  1.00  0.00     0.271 C 
HETATM   35  O7  UNL     1       7.442  -2.672   1.494  1.00  0.00    -0.640 OA
HETATM   36  O8  UNL     1       9.369  -2.450   0.344  1.00  0.00    -0.640 OA
ENDBRANCH  31  34
ENDBRANCH  27  30
ENDBRANCH  25  27
ENDBRANCH   4  25
TORSDOF 7
