REMARK  10 active torsions:
REMARK  status: ('A' for Active; 'I' for Inactive)
REMARK       I    between atoms: N1_2  and  C2_4 
REMARK    1  A    between atoms: C2_4  and  C3_6 
REMARK       I    between atoms: C3_6  and  N2_8 
REMARK    2  A    between atoms: N2_8  and  C4_10 
REMARK    3  A    between atoms: C4_10  and  C5_11 
REMARK       I    between atoms: C5_11  and  N3_13 
REMARK    4  A    between atoms: N3_13  and  C6_15 
REMARK    5  A    between atoms: C6_15  and  C7_16 
REMARK    6  A    between atoms: C7_16  and  N4_17 
REMARK       I    between atoms: N4_17  and  C8_19 
REMARK    7  A    between atoms: C8_19  and  C9_21 
REMARK    8  A    between atoms: C10_22  and  O5_23 
REMARK    9  A    between atoms: C12_28  and  O6_29 
REMARK   10  A    between atoms: C12_28  and  C13_31 
ROOT
HETATM    1  N4  UNL     1      -1.019  -2.616   0.328  1.00  0.00    -0.339 N 
ATOM      2  H4  UNL     1      -1.785  -2.823  -0.313  1.00  0.00     0.167 HD
HETATM    3  C8  UNL     1      -1.307  -1.562   1.174  1.00  0.00     0.229 C 
HETATM    4  O4  UNL     1      -0.574  -1.108   2.045  1.00  0.00    -0.273 OA
ENDROOT
BRANCH   1   5
HETATM    5  C7  UNL     1       0.089  -3.475   0.143  1.00  0.00     0.083 C 
BRANCH   5   6
HETATM    6  C6  UNL     1       1.394  -2.975  -0.293  1.00  0.00     0.167 C 
BRANCH   6   7
HETATM    7  N3  UNL     1       2.097  -2.141   0.626  1.00  0.00    -0.355 N 
HETATM    8  C5  UNL     1       3.365  -1.546   0.255  1.00  0.00     0.235 C 
HETATM    9  O3  UNL     1       3.804  -1.795  -0.886  1.00  0.00    -0.272 OA
ATOM     10  H3  UNL     1       1.705  -1.962   1.550  1.00  0.00     0.162 HD
BRANCH   8  11
HETATM   11  C4  UNL     1       4.037  -0.691   1.256  1.00  0.00     0.225 C 
BRANCH  11  12
HETATM   12  N2  UNL     1       5.286  -0.136   0.799  1.00  0.00    -0.344 N 
HETATM   13  C3  UNL     1       5.292   0.714  -0.330  1.00  0.00     0.309 C 
HETATM   14  O2  UNL     1       4.257   1.025  -0.974  1.00  0.00    -0.262 OA
ATOM     15  H2  UNL     1       6.156  -0.354   1.285  1.00  0.00     0.163 HD
BRANCH  13  16
HETATM   16  C2  UNL     1       6.551   1.281  -0.806  1.00  0.00     0.308 C 
HETATM   17  N1  UNL     1       6.620   2.140  -1.932  1.00  0.00    -0.357 N 
HETATM   18  C1  UNL     1       7.908   2.656  -2.333  1.00  0.00     0.149 C 
ATOM     19  H1  UNL     1       5.776   2.389  -2.449  1.00  0.00     0.162 HD
HETATM   20  O1  UNL     1       7.608   1.000  -0.197  1.00  0.00    -0.262 OA
ENDBRANCH  13  16
ENDBRANCH  11  12
ENDBRANCH   8  11
ENDBRANCH   6   7
ENDBRANCH   5   6
ENDBRANCH   1   5
BRANCH   3  21
HETATM   21  C9  UNL     1      -2.668  -0.896   1.011  1.00  0.00     0.123 C 
HETATM   22  C10 UNL     1      -2.904   0.228   1.972  1.00  0.00     0.148 C 
HETATM   23  C11 UNL     1      -2.385   1.189   0.935  1.00  0.00     0.103 C 
HETATM   24  S1  UNL     1      -3.450   2.617   0.626  1.00  0.00    -0.086 SA
HETATM   25  C15 UNL     1      -2.557   0.110  -0.102  1.00  0.00     0.080 C 
HETATM   26  S2  UNL     1      -5.450   2.238   1.247  1.00  0.00    -0.055 SA
HETATM   27  C12 UNL     1      -6.285   1.344  -0.081  1.00  0.00     0.150 C 
HETATM   28  C14 UNL     1      -5.553   0.034  -0.294  1.00  0.00     0.127 C 
HETATM   29  S3  UNL     1      -3.996   0.329  -1.135  1.00  0.00    -0.158 SA
BRANCH  22  30
HETATM   30  O5  UNL     1      -2.194   0.197   3.167  1.00  0.00    -0.393 OA
ATOM     31  H5  UNL     1      -2.344   0.910   3.777  1.00  0.00     0.210 HD
ENDBRANCH  22  30
BRANCH  27  32
HETATM   32  O6  UNL     1      -7.619   1.148   0.245  1.00  0.00    -0.375 OA
ATOM     33  H6  UNL     1      -8.058   0.678  -0.454  1.00  0.00     0.211 HD
ENDBRANCH  27  32
BRANCH  27  34
HETATM   34  C13 UNL     1      -6.251   2.124  -1.382  1.00  0.00     0.273 C 
HETATM   35  F1  UNL     1      -6.894   3.348  -1.186  1.00  0.00    -0.251 F 
ENDBRANCH  27  34
ENDBRANCH   3  21
TORSDOF 10
