REMARK  8 active torsions:
REMARK  status: ('A' for Active; 'I' for Inactive)
REMARK    1  A    between atoms: O1_2  and  C2_3 
REMARK    2  A    between atoms: C2_3  and  C3_5 
REMARK    3  A    between atoms: C5_8  and  C6_9 
REMARK    4  A    between atoms: C7_14  and  O5_15 
REMARK    5  A    between atoms: C9_20  and  C10_21 
REMARK    6  A    between atoms: C10_21  and  N3_22 
REMARK       I    between atoms: N3_22  and  C11_24 
REMARK       I    between atoms: C11_24  and  N5_28 
REMARK    7  A    between atoms: N5_28  and  S3_30 
REMARK    8  A    between atoms: S3_30  and  C12_33 
ROOT
HETATM    1  C3  UNL     1      -2.248  -0.407  -0.111  1.00  0.00     0.161 C 
HETATM    2  C4  UNL     1      -2.647   0.165   1.220  1.00  0.00     0.178 C 
HETATM    3  O3  UNL     1      -3.703   0.283   1.807  1.00  0.00    -0.294 OA
HETATM    4  C5  UNL     1      -1.186   0.509   1.471  1.00  0.00     0.165 C 
HETATM    5  S1  UNL     1      -0.645  -0.916   2.516  1.00  0.00    -0.066 SA
HETATM    6  S2  UNL     1      -1.816  -2.509   1.650  1.00  0.00    -0.054 SA
HETATM    7  C7  UNL     1      -2.168  -1.913  -0.029  1.00  0.00     0.155 C 
HETATM    8  C8  UNL     1      -1.119  -2.481  -0.938  1.00  0.00     0.166 C 
HETATM    9  N2  UNL     1      -0.197  -1.496  -1.371  1.00  0.00    -0.411 N 
ATOM     10  H2  UNL     1       0.139  -1.451  -2.333  1.00  0.00     0.153 HD
HETATM   11  C9  UNL     1       0.238  -0.555  -0.356  1.00  0.00     0.103 C 
HETATM   12  C13 UNL     1      -0.942   0.306   0.028  1.00  0.00     0.075 C 
ENDROOT
BRANCH  11  13
HETATM   13  C10 UNL     1       1.307   0.283  -1.022  1.00  0.00     0.163 C 
BRANCH  13  14
HETATM   14  N3  UNL     1       1.903   1.268  -0.196  1.00  0.00    -0.224 N 
HETATM   15  C11 UNL     1       2.737   0.879   0.890  1.00  0.00     0.681 C 
HETATM   16  N4  UNL     1       2.744   1.629   1.938  1.00  0.00    -0.234 N 
HETATM   17  N5  UNL     1       3.552  -0.293   0.860  1.00  0.00    -0.116 N 
ATOM     18  H42 UNL     1       2.162   2.466   1.959  1.00  0.00     0.174 HD
ATOM     19  H41 UNL     1       3.342   1.350   2.716  1.00  0.00     0.174 HD
ATOM     20  H5  UNL     1       3.115  -1.200   0.696  1.00  0.00     0.197 HD
ATOM     21  H3  UNL     1       1.734   2.257  -0.380  1.00  0.00     0.177 HD
BRANCH  17  22
HETATM   22  S3  UNL     1       5.253  -0.210   1.094  1.00  0.00     0.257 S 
HETATM   23  O6  UNL     1       5.804  -1.601   1.095  1.00  0.00    -0.204 OA
HETATM   24  O7  UNL     1       5.504   0.368   2.456  1.00  0.00    -0.204 OA
BRANCH  22  25
HETATM   25  C12 UNL     1       6.040   0.771  -0.161  1.00  0.00     0.278 C 
HETATM   26 CL1  UNL     1       5.751   0.085  -1.775  1.00  0.00    -0.113 Cl
ENDBRANCH  22  25
ENDBRANCH  17  22
ENDBRANCH  13  14
ENDBRANCH  11  13
BRANCH   1  27
HETATM   27  C2  UNL     1      -3.081   0.116  -1.220  1.00  0.00     0.279 C 
HETATM   28  O2  UNL     1      -2.626   0.803  -2.165  1.00  0.00    -0.264 OA
BRANCH  27  29
HETATM   29  O1  UNL     1      -4.466  -0.139  -1.269  1.00  0.00    -0.325 OA
HETATM   30  C1  UNL     1      -5.271   0.356  -2.322  1.00  0.00     0.213 C 
ENDBRANCH  27  29
ENDBRANCH   1  27
BRANCH   4  31
HETATM   31  C6  UNL     1      -1.046   1.819   2.094  1.00  0.00     0.259 C 
HETATM   32  N1  UNL     1      -1.544   1.920   3.455  1.00  0.00    -0.060 NA
HETATM   33  O4  UNL     1      -0.563   2.845   1.611  1.00  0.00    -0.275 OA
ENDBRANCH   4  31
BRANCH   7  34
HETATM   34  O5  UNL     1      -3.443  -2.396  -0.365  1.00  0.00    -0.375 OA
ATOM     35  H5  UNL     1      -3.393  -3.343  -0.313  1.00  0.00     0.211 HD
ENDBRANCH   7  34
TORSDOF 8
