REMARK  11 active torsions:
REMARK  status: ('A' for Active; 'I' for Inactive)
REMARK    1  A    between atoms: C2_3  and  C3_4 
REMARK    2  A    between atoms: C3_4  and  C4_5 
REMARK       I    between atoms: C4_5  and  N2_7 
REMARK    3  A    between atoms: N2_7  and  N3_8 
REMARK       I    between atoms: N3_8  and  C5_10 
REMARK    4  A    between atoms: C5_10  and  C6_12 
REMARK       I    between atoms: C6_12  and  N4_14 
REMARK    5  A    between atoms: N4_14  and  C7_16 
REMARK    6  A    between atoms: C7_16  and  C8_17 
REMARK    7  A    between atoms: C12_21  and  O4_22 
REMARK    8  A    between atoms: C13_26  and  N6_27 
REMARK    9  A    between atoms: N6_27  and  C14_29 
REMARK   10  A    between atoms: N8_32  and  C15_33 
REMARK   11  A    between atoms: C15_33  and  C16_34 
ROOT
HETATM    1  C1  UNL     1       3.442   1.172  -1.928  1.00  0.00     0.175 C 
HETATM    2  N1  UNL     1       2.868   0.157  -1.080  1.00  0.00    -0.186 N 
HETATM    3  C2  UNL     1       1.569  -0.091  -0.909  1.00  0.00     0.089 A 
HETATM    4  C12 UNL     1       1.398  -1.129  -0.021  1.00  0.00     0.179 A 
HETATM    5  N5  UNL     1       2.625  -1.503   0.345  1.00  0.00    -0.168 N 
ATOM      6  H5  UNL     1       2.839  -2.254   1.002  1.00  0.00     0.186 HD
HETATM    7  C13 UNL     1       3.563  -0.720  -0.300  1.00  0.00     0.688 A 
ENDROOT
BRANCH   3   8
HETATM    8  C3  UNL     1       0.426   0.579  -1.554  1.00  0.00     0.183 C 
BRANCH   8   9
HETATM    9  C4  UNL     1      -0.205   1.478  -0.481  1.00  0.00     0.318 C 
HETATM   10  O1  UNL     1       0.439   2.541  -0.290  1.00  0.00    -0.255 OA
HETATM   11  N2  UNL     1      -1.335   1.012   0.110  1.00  0.00    -0.283 NA
BRANCH  11  12
HETATM   12  N3  UNL     1      -2.428   0.565   0.685  1.00  0.00    -0.191 N 
HETATM   13  C5  UNL     1      -3.499   0.067  -0.196  1.00  0.00     0.338 C 
HETATM   14  O2  UNL     1      -3.398   0.062  -1.417  1.00  0.00    -0.260 OA
ATOM     15  H3  UNL     1      -2.531   0.563   1.700  1.00  0.00     0.205 HD
BRANCH  13  16
HETATM   16  C6  UNL     1      -4.696  -0.421   0.534  1.00  0.00     0.311 C 
HETATM   17  O3  UNL     1      -4.681  -0.334   1.765  1.00  0.00    -0.262 OA
HETATM   18  N4  UNL     1      -5.746  -0.948  -0.225  1.00  0.00    -0.352 N 
ATOM     19  H4  UNL     1      -5.611  -0.961  -1.236  1.00  0.00     0.162 HD
BRANCH  18  20
HETATM   20  C7  UNL     1      -6.976  -1.466   0.251  1.00  0.00     0.131 C 
BRANCH  20  21
HETATM   21  C8  UNL     1      -7.909  -0.543   0.902  1.00  0.00    -0.035 C 
HETATM   22  C9  UNL     1      -8.341   0.605  -0.025  1.00  0.00     0.016 C 
HETATM   23  C10 UNL     1      -7.610   0.056   2.228  1.00  0.00     0.016 C 
HETATM   24  C11 UNL     1      -9.209  -1.383   1.135  1.00  0.00     0.016 C 
ENDBRANCH  20  21
ENDBRANCH  18  20
ENDBRANCH  13  16
ENDBRANCH  11  12
ENDBRANCH   8   9
ENDBRANCH   3   8
BRANCH   4  25
HETATM   25  O4  UNL     1       0.213  -1.720   0.446  1.00  0.00    -0.344 OA
ATOM     26  H4  UNL     1       0.095  -2.436   1.059  1.00  0.00     0.219 HD
ENDBRANCH   4  25
BRANCH   7  27
HETATM   27  N6  UNL     1       4.786  -0.917  -0.154  1.00  0.00    -0.169 N 
ATOM     28  H6  UNL     1       4.932  -1.664   0.525  1.00  0.00     0.186 HD
BRANCH  27  29
HETATM   29  C14 UNL     1       5.977  -0.472  -0.594  1.00  0.00     0.204 A 
HETATM   30  N7  UNL     1       6.747   0.317   0.223  1.00  0.00    -0.274 N 
HETATM   31  N8  UNL     1       7.932   0.741  -0.141  1.00  0.00    -0.238 N 
ATOM     32  H7  UNL     1       6.386   0.581   1.140  1.00  0.00     0.189 HD
HETATM   33  C17 UNL     1       8.433   0.409  -1.340  1.00  0.00     0.344 A 
HETATM   34  O5  UNL     1       9.573   0.832  -1.647  1.00  0.00    -0.245 OA
HETATM   35  N9  UNL     1       7.722  -0.366  -2.190  1.00  0.00    -0.271 N 
HETATM   36  C18 UNL     1       6.513  -0.806  -1.837  1.00  0.00     0.295 A 
ATOM     37  H9  UNL     1       8.110  -0.614  -3.100  1.00  0.00     0.174 HD
HETATM   38  O6  UNL     1       5.781  -1.532  -2.571  1.00  0.00    -0.264 OA
BRANCH  31  39
HETATM   39  C15 UNL     1       8.710   1.566   0.775  1.00  0.00     0.185 C 
BRANCH  39  40
HETATM   40  C16 UNL     1       9.494   0.609   1.639  1.00  0.00     0.244 C 
HETATM   41  F1  UNL     1       8.607  -0.202   2.335  1.00  0.00    -0.254 F 
ENDBRANCH  39  40
ENDBRANCH  31  39
ENDBRANCH  27  29
ENDBRANCH   7  27
TORSDOF 11
