REMARK  9 active torsions:
REMARK  status: ('A' for Active; 'I' for Inactive)
REMARK    1  A    between atoms: O1_2  and  C2_3 
REMARK    2  A    between atoms: C5_7  and  C6_8 
REMARK       I    between atoms: C6_8  and  N1_10 
REMARK    3  A    between atoms: C11_16  and  N2_17 
REMARK    4  A    between atoms: N2_17  and  C12_19 
REMARK    5  A    between atoms: N3_21  and  C14_22 
REMARK    6  A    between atoms: N4_24  and  O3_26 
REMARK    7  A    between atoms: C17_29  and  C18_30 
REMARK    8  A    between atoms: C18_30  and  O4_31 
REMARK    9  A    between atoms: C25_40  and  O5_41 
ROOT
HETATM    1  C6  UNL     1       2.889  -1.393   0.014  1.00  0.00     0.264 C 
HETATM    2  O2  UNL     1       2.779  -2.676  -0.002  1.00  0.00    -0.267 OA
HETATM    3  N1  UNL     1       1.816  -0.568   0.393  1.00  0.00    -0.304 N 
HETATM    4  C7  UNL     1       0.528  -1.136   0.796  1.00  0.00     0.048 A 
HETATM    5  C8  UNL     1       0.201  -2.360   1.352  1.00  0.00     0.054 A 
HETATM    6  C9  UNL     1      -1.113  -2.655   1.644  1.00  0.00     0.038 A 
HETATM    7 CL2  UNL     1      -1.542  -4.186   2.342  1.00  0.00    -0.084 Cl
HETATM    8  C10 UNL     1      -2.073  -1.728   1.378  1.00  0.00     0.053 A 
HETATM    9  C11 UNL     1      -1.814  -0.491   0.826  1.00  0.00     0.038 A 
HETATM   10  C19 UNL     1      -0.466  -0.222   0.540  1.00  0.00    -0.002 A 
HETATM   11  C20 UNL     1       0.175   0.979  -0.042  1.00  0.00     0.074 C 
HETATM   12  C21 UNL     1       1.608   0.842   0.523  1.00  0.00     0.037 C 
HETATM   13  C22 UNL     1       2.495   1.750  -0.251  1.00  0.00     0.039 C 
HETATM   14  C23 UNL     1       1.490   1.260   1.985  1.00  0.00     0.039 C 
ENDROOT
BRANCH   9  15
HETATM   15  N2  UNL     1      -2.779   0.502   0.552  1.00  0.00    -0.383 N 
ATOM     16  H2  UNL     1      -2.466   1.416   0.225  1.00  0.00     0.160 HD
BRANCH  15  17
HETATM   17  C12 UNL     1      -4.165   0.273   0.716  1.00  0.00     0.107 C 
HETATM   18  C13 UNL     1      -4.795  -0.692  -0.259  1.00  0.00     0.149 C 
HETATM   19  N3  UNL     1      -6.143  -0.165  -0.501  1.00  0.00    -0.367 N 
HETATM   20  C16 UNL     1      -6.383   0.917   0.426  1.00  0.00     0.133 C 
HETATM   21  C17 UNL     1      -4.999   1.527   0.472  1.00  0.00     0.051 C 
BRANCH  19  22
HETATM   22  C14 UNL     1      -7.041  -0.642  -1.475  1.00  0.00     0.095 C 
HETATM   23  C15 UNL     1      -7.316  -2.093  -1.569  1.00  0.00     0.091 C 
HETATM   24  N4  UNL     1      -7.644   0.142  -2.303  1.00  0.00    -0.258 N 
ATOM     25  H4  UNL     1      -8.278  -0.287  -2.977  1.00  0.00     0.195 HD
BRANCH  24  26
HETATM   26  O3  UNL     1      -7.505   1.487  -2.351  1.00  0.00    -0.288 OA
ATOM     27  H3  UNL     1      -7.949   2.064  -2.961  1.00  0.00     0.244 HD
ENDBRANCH  24  26
ENDBRANCH  19  22
BRANCH  21  28
HETATM   28  C18 UNL     1      -4.848   2.529   1.577  1.00  0.00     0.172 C 
BRANCH  28  29
HETATM   29  O4  UNL     1      -5.246   2.015   2.800  1.00  0.00    -0.400 OA
ATOM     30  H4  UNL     1      -5.150   2.650   3.500  1.00  0.00     0.209 HD
ENDBRANCH  28  29
ENDBRANCH  21  28
ENDBRANCH  15  17
ENDBRANCH   9  15
BRANCH   1  31
HETATM   31  C5  UNL     1       4.208  -0.918  -0.389  1.00  0.00     0.095 A 
HETATM   32  C4  UNL     1       4.533  -0.653  -1.696  1.00  0.00     0.055 A 
HETATM   33  C3  UNL     1       5.796  -0.210  -2.004  1.00  0.00     0.064 A 
HETATM   34 CL1  UNL     1       3.336  -0.914  -2.967  1.00  0.00    -0.083 Cl
HETATM   35  C2  UNL     1       6.782  -0.011  -1.063  1.00  0.00     0.106 A 
HETATM   36  C25 UNL     1       6.455  -0.277   0.234  1.00  0.00     0.141 A 
HETATM   37  C24 UNL     1       5.205  -0.719   0.575  1.00  0.00     0.169 A 
HETATM   38  F1  UNL     1       4.888  -0.983   1.876  1.00  0.00    -0.202 F 
BRANCH  35  39
HETATM   39  O1  UNL     1       8.030   0.434  -1.425  1.00  0.00    -0.353 OA
HETATM   40  C1  UNL     1       8.439   0.727  -2.725  1.00  0.00     0.210 C 
ENDBRANCH  35  39
BRANCH  36  41
HETATM   41  O5  UNL     1       7.453  -0.078   1.203  1.00  0.00    -0.350 OA
HETATM   42  C26 UNL     1       8.279  -1.195   1.480  1.00  0.00     0.210 C 
ENDBRANCH  36  41
ENDBRANCH   1  31
TORSDOF 9
