REMARK  10 active torsions:
REMARK  status: ('A' for Active; 'I' for Inactive)
REMARK    1  A    between atoms: C2_2  and  C3_3 
REMARK    2  A    between atoms: C3_3  and  C5_5 
REMARK    3  A    between atoms: C15_17  and  N1_19 
REMARK       I    between atoms: N1_19  and  C17_21 
REMARK    4  A    between atoms: C17_21  and  C18_23 
REMARK    5  A    between atoms: C21_26  and  C22_27 
REMARK    6  A    between atoms: C22_27  and  C23_28 
REMARK    7  A    between atoms: C25_34  and  C26_35 
REMARK    8  A    between atoms: C26_35  and  O5_36 
REMARK    9  A    between atoms: C26_35  and  O6_38 
REMARK   10  A    between atoms: C28_40  and  O7_41 
ROOT
HETATM    1  C5  UNL     1      -3.837  -0.934   0.558  1.00  0.00     0.120 C 
HETATM    2  C6  UNL     1      -4.618   0.402   0.729  1.00  0.00     0.266 C 
HETATM    3  O1  UNL     1      -5.795   0.209   1.222  1.00  0.00    -0.265 OA
HETATM    4  O2  UNL     1      -4.200   1.614   0.436  1.00  0.00    -0.317 OA
HETATM    5  C7  UNL     1      -4.129   2.518  -0.585  1.00  0.00     0.206 C 
HETATM    6  C8  UNL     1      -4.104   3.956  -0.225  1.00  0.00    -0.004 C 
HETATM    7  C9  UNL     1      -3.052   4.665   0.148  1.00  0.00    -0.029 C 
HETATM    8  C10 UNL     1      -1.665   4.113   0.277  1.00  0.00     0.027 C 
HETATM    9  C11 UNL     1      -0.705   4.425  -0.772  1.00  0.00     0.004 C 
HETATM   10  C12 UNL     1      -0.284   3.391  -1.755  1.00  0.00     0.000 C 
HETATM   11  C13 UNL     1       0.783   2.424  -1.252  1.00  0.00     0.005 C 
HETATM   12  C14 UNL     1       0.098   1.164  -0.957  1.00  0.00     0.060 C 
HETATM   13  C15 UNL     1       0.462   0.336   0.236  1.00  0.00     0.133 C 
HETATM   14  C16 UNL     1       0.497   1.183   1.468  1.00  0.00     0.071 C 
HETATM   15  O4  UNL     1      -0.203  -0.785   0.257  1.00  0.00    -0.348 OA
HETATM   16  C25 UNL     1      -1.254  -1.303   0.865  1.00  0.00     0.209 C 
HETATM   17  C28 UNL     1      -2.517  -0.606   1.046  1.00  0.00     0.166 C 
ENDROOT
BRANCH  13  18
HETATM   18  N1  UNL     1       1.875  -0.044   0.026  1.00  0.00    -0.329 N 
HETATM   19  C17 UNL     1       2.353  -0.866  -1.000  1.00  0.00     0.224 C 
HETATM   20  O3  UNL     1       1.564  -1.358  -1.833  1.00  0.00    -0.273 OA
ATOM     21  H1  UNL     1       2.560   0.325   0.686  1.00  0.00     0.165 HD
BRANCH  19  22
HETATM   22  C18 UNL     1       3.792  -1.200  -1.161  1.00  0.00     0.078 C 
HETATM   23  C19 UNL     1       4.346  -1.919   0.050  1.00  0.00     0.014 C 
HETATM   24  C20 UNL     1       5.851  -1.665  -0.121  1.00  0.00     0.006 C 
HETATM   25  C21 UNL     1       5.863  -0.180  -0.403  1.00  0.00    -0.005 C 
HETATM   26  C24 UNL     1       4.665  -0.000  -1.311  1.00  0.00     0.019 C 
BRANCH  25  27
HETATM   27  C22 UNL     1       7.135   0.284  -1.028  1.00  0.00     0.122 C 
BRANCH  27  28
HETATM   28  C23 UNL     1       8.299  -0.006  -0.125  1.00  0.00     0.388 C 
HETATM   29  F1  UNL     1       8.153   0.640   1.100  1.00  0.00    -0.171 F 
HETATM   30  F2  UNL     1       9.489   0.507  -0.667  1.00  0.00    -0.171 F 
HETATM   31  F3  UNL     1       8.542  -1.345   0.068  1.00  0.00    -0.171 F 
ENDBRANCH  27  28
ENDBRANCH  25  27
ENDBRANCH  19  22
ENDBRANCH  13  18
BRANCH  16  32
HETATM   32  C26 UNL     1      -0.761  -2.080   2.089  1.00  0.00     0.287 C 
BRANCH  32  33
HETATM   33  O5  UNL     1      -0.096  -1.350   3.036  1.00  0.00    -0.369 OA
ATOM     34  H5  UNL     1       0.210  -1.832   3.795  1.00  0.00     0.212 HD
ENDBRANCH  32  33
BRANCH  32  35
HETATM   35  O6  UNL     1      -1.760  -2.766   2.764  1.00  0.00    -0.364 OA
HETATM   36  C27 UNL     1      -1.480  -4.129   2.875  1.00  0.00     0.204 C 
ENDBRANCH  32  35
ENDBRANCH  16  32
BRANCH  17  37
HETATM   37  O7  UNL     1      -2.767  -0.360   2.462  1.00  0.00    -0.392 OA
ATOM     38  H7  UNL     1      -1.899  -0.144   2.783  1.00  0.00     0.210 HD
ENDBRANCH  17  37
BRANCH   1  39
HETATM   39  C3  UNL     1      -4.277  -1.491  -0.699  1.00  0.00    -0.003 C 
HETATM   40  C4  UNL     1      -4.120  -0.601  -1.927  1.00  0.00     0.011 C 
BRANCH  39  41
HETATM   41  C2  UNL     1      -3.793  -2.853  -1.130  1.00  0.00     0.001 C 
HETATM   42  C1  UNL     1      -3.891  -3.934  -0.085  1.00  0.00     0.005 C 
ENDBRANCH  39  41
ENDBRANCH   1  39
TORSDOF 10
