REMARK  10 active torsions:
REMARK  status: ('A' for Active; 'I' for Inactive)
REMARK    1  A    between atoms: C2_2  and  O1_3 
REMARK    2  A    between atoms: C3_5  and  C4_6 
REMARK    3  A    between atoms: C4_6  and  C5_7 
REMARK    4  A    between atoms: C5_7  and  C7_9 
REMARK    5  A    between atoms: C7_9  and  O2_10 
REMARK    6  A    between atoms: C7_9  and  C8_12 
REMARK    7  A    between atoms: C8_12  and  O3_13 
REMARK    8  A    between atoms: C8_12  and  C9_15 
REMARK    9  A    between atoms: C12_21  and  C13_22 
REMARK   10  A    between atoms: C14_23  and  C15_24 
ROOT
HETATM    1  C9  UNL     1       0.184  -1.165   1.670  1.00  0.00     0.228 A 
HETATM    2  O4  UNL     1      -0.388  -1.208   3.039  1.00  0.00    -0.332 OA
HETATM    3  C10 UNL     1      -1.042  -0.562   1.993  1.00  0.00     0.272 A 
HETATM    4  O5  UNL     1      -2.279  -1.186   1.651  1.00  0.00    -0.271 OA
HETATM    5  C11 UNL     1      -3.507  -0.584   1.881  1.00  0.00     0.277 C 
HETATM    6  O6  UNL     1      -4.460  -1.140   2.492  1.00  0.00    -0.264 OA
HETATM    7  C12 UNL     1      -3.729   0.788   1.392  1.00  0.00     0.186 C 
HETATM    8  C18 UNL     1      -2.439   1.520   1.444  1.00  0.00     0.217 C 
HETATM    9  O7  UNL     1      -2.359   2.655   0.908  1.00  0.00    -0.288 OA
HETATM   10  C19 UNL     1      -1.319   0.886   2.118  1.00  0.00     0.261 C 
HETATM   11  O8  UNL     1      -0.575   1.620   2.824  1.00  0.00    -0.283 OA
ENDROOT
BRANCH   1  12
HETATM   12  C8  UNL     1       1.501  -0.465   1.664  1.00  0.00     0.182 C 
BRANCH  12  13
HETATM   13  C7  UNL     1       2.074  -0.514   0.251  1.00  0.00     0.153 C 
BRANCH  13  14
HETATM   14  C5  UNL     1       3.439   0.110   0.153  1.00  0.00     0.016 C 
HETATM   15  C6  UNL     1       3.403   1.580   0.428  1.00  0.00     0.013 C 
BRANCH  14  16
HETATM   16  C4  UNL     1       3.918  -0.098  -1.273  1.00  0.00     0.036 C 
BRANCH  16  17
HETATM   17  C3  UNL     1       5.270   0.487  -1.394  1.00  0.00     0.005 C 
HETATM   18  C2  UNL     1       6.279  -0.263  -1.729  1.00  0.00     0.035 C 
HETATM   19  C1  UNL     1       6.083  -1.702  -1.990  1.00  0.00     0.075 C 
BRANCH  18  20
HETATM   20  O1  UNL     1       7.543   0.273  -1.845  1.00  0.00    -0.366 OA
ATOM     21  H1  UNL     1       7.669   1.199  -1.677  1.00  0.00     0.217 HD
ENDBRANCH  18  20
ENDBRANCH  16  17
ENDBRANCH  14  16
ENDBRANCH  13  14
BRANCH  13  22
HETATM   22  O2  UNL     1       1.201   0.078  -0.629  1.00  0.00    -0.393 OA
ATOM     23  H2  UNL     1       0.339  -0.316  -0.567  1.00  0.00     0.210 HD
ENDBRANCH  13  22
ENDBRANCH  12  13
BRANCH  12  24
HETATM   24  O3  UNL     1       2.447  -1.082   2.481  1.00  0.00    -0.390 OA
ATOM     25  H3  UNL     1       2.090  -1.051   3.361  1.00  0.00     0.210 HD
ENDBRANCH  12  24
ENDBRANCH   1  12
BRANCH   7  26
HETATM   26  C13 UNL     1      -4.344   0.841   0.060  1.00  0.00    -0.008 C 
HETATM   27  C14 UNL     1      -4.599  -0.236  -0.646  1.00  0.00    -0.026 C 
BRANCH  27  28
HETATM   28  C15 UNL     1      -5.219  -0.223  -1.993  1.00  0.00    -0.001 C 
HETATM   29  C16 UNL     1      -6.453  -1.092  -2.066  1.00  0.00     0.013 C 
HETATM   30  C17 UNL     1      -5.534   1.161  -2.482  1.00  0.00     0.013 C 
ENDBRANCH  27  28
ENDBRANCH   7  26
TORSDOF 10
