REMARK  10 active torsions:
REMARK  status: ('A' for Active; 'I' for Inactive)
REMARK    1  A    between atoms: C2_2  and  C3_3 
REMARK    2  A    between atoms: C3_3  and  C4_5 
REMARK    3  A    between atoms: C4_5  and  C5_6 
REMARK    4  A    between atoms: C5_6  and  C7_8 
REMARK    5  A    between atoms: C9_11  and  C10_12 
REMARK    6  A    between atoms: C10_12  and  O4_14 
REMARK    7  A    between atoms: C12_16  and  C13_17 
REMARK    8  A    between atoms: C13_17  and  C14_18 
REMARK    9  A    between atoms: C15_21  and  O6_22 
REMARK   10  A    between atoms: C19_27  and  O7_28 
ROOT
HETATM    1  C7  UNL     1       1.187  -0.822  -0.678  1.00  0.00     0.155 C 
HETATM    2  O2  UNL     1       0.070  -0.130  -0.319  1.00  0.00    -0.372 OA
HETATM    3  C8  UNL     1      -0.990  -0.827   0.169  1.00  0.00     0.168 C 
HETATM    4  C9  UNL     1      -2.166   0.112   0.150  1.00  0.00     0.051 C 
HETATM    5  C12 UNL     1      -2.586   0.162  -1.087  1.00  0.00    -0.028 C 
HETATM    6  C15 UNL     1      -1.739  -0.750  -1.967  1.00  0.00     0.155 C 
HETATM    7  C16 UNL     1      -1.437  -1.798  -0.893  1.00  0.00     0.059 C 
HETATM    8  C17 UNL     1      -0.371  -2.744  -1.256  1.00  0.00     0.022 C 
HETATM    9  C18 UNL     1      -0.636  -4.039  -0.502  1.00  0.00     0.013 C 
HETATM   10  C19 UNL     1       1.002  -2.228  -1.060  1.00  0.00     0.151 C 
ENDROOT
BRANCH   1  11
HETATM   11  C5  UNL     1       2.203  -0.588   0.426  1.00  0.00     0.020 C 
HETATM   12  C6  UNL     1       3.501  -1.281   0.223  1.00  0.00     0.013 C 
BRANCH  11  13
HETATM   13  C4  UNL     1       2.409   0.911   0.450  1.00  0.00     0.085 C 
BRANCH  13  14
HETATM   14  C3  UNL     1       3.296   1.380   1.508  1.00  0.00     0.127 C 
HETATM   15  O1  UNL     1       3.843   0.667   2.313  1.00  0.00    -0.298 OA
BRANCH  14  16
HETATM   16  C2  UNL     1       3.549   2.847   1.607  1.00  0.00     0.074 C 
HETATM   17  C1  UNL     1       4.889   3.245   1.040  1.00  0.00     0.013 C 
ENDBRANCH  14  16
ENDBRANCH  13  14
ENDBRANCH  11  13
ENDBRANCH   1  11
BRANCH  10  18
HETATM   18  O7  UNL     1       1.644  -3.119  -0.183  1.00  0.00    -0.393 OA
ATOM     19  H7  UNL     1       1.524  -4.028  -0.430  1.00  0.00     0.210 HD
ENDBRANCH  10  18
BRANCH   4  20
HETATM   20  C10 UNL     1      -2.612   0.763   1.371  1.00  0.00     0.291 C 
HETATM   21  O3  UNL     1      -3.570   1.557   1.425  1.00  0.00    -0.260 OA
BRANCH  20  22
HETATM   22  O4  UNL     1      -1.978   0.534   2.605  1.00  0.00    -0.323 OA
HETATM   23  C11 UNL     1      -2.407   1.166   3.798  1.00  0.00     0.213 C 
ENDBRANCH  20  22
ENDBRANCH   4  20
BRANCH   5  24
HETATM   24  C13 UNL     1      -3.725   0.963  -1.579  1.00  0.00     0.137 C 
BRANCH  24  25
HETATM   25  C14 UNL     1      -3.263   1.976  -2.583  1.00  0.00     0.235 C 
HETATM   26  N1  UNL     1      -4.248   2.829  -3.150  1.00  0.00    -0.062 NA
HETATM   27  O5  UNL     1      -2.072   2.099  -2.936  1.00  0.00    -0.277 OA
ENDBRANCH  24  25
ENDBRANCH   5  24
BRANCH   6  28
HETATM   28  O6  UNL     1      -2.458  -1.244  -3.017  1.00  0.00    -0.391 OA
ATOM     29  H6  UNL     1      -1.930  -1.812  -3.565  1.00  0.00     0.210 HD
ENDBRANCH   6  28
TORSDOF 10
