REMARK  11 active torsions:
REMARK  status: ('A' for Active; 'I' for Inactive)
REMARK    1  A    between atoms: C2_2  and  S1_3 
REMARK    2  A    between atoms: S1_3  and  C3_4 
REMARK    3  A    between atoms: C3_4  and  N2_11 
REMARK    4  A    between atoms: N1_5  and  C4_7 
REMARK    5  A    between atoms: C4_7  and  C5_8 
REMARK    6  A    between atoms: C5_8  and  O1_9 
REMARK    7  A    between atoms: N2_11  and  C7_13 
REMARK    8  A    between atoms: C7_13  and  C8_14 
REMARK    9  A    between atoms: C8_14  and  N3_15 
REMARK   10  A    between atoms: N3_15  and  C9_17 
REMARK   11  A    between atoms: C10_20  and  N5_21 
ROOT
HETATM    1  C9  UNL     1       2.329   0.322   0.690  1.00  0.00     0.138 A 
HETATM    2  N4  UNL     1       2.535   1.519   0.110  1.00  0.00    -0.176 N 
ATOM      3  H4  UNL     1       1.964   2.331   0.344  1.00  0.00     0.186 HD
HETATM    4  C10 UNL     1       3.528   1.595  -0.792  1.00  0.00     0.680 A 
HETATM    5  N6  UNL     1       4.288   0.553  -1.117  1.00  0.00    -0.175 N 
ATOM      6  H6  UNL     1       5.023   0.686  -1.811  1.00  0.00     0.186 HD
HETATM    7  C12 UNL     1       4.131  -0.692  -0.564  1.00  0.00     0.142 A 
HETATM    8  N7  UNL     1       4.819  -1.763  -0.815  1.00  0.00    -0.339 N 
ATOM      9  H7  UNL     1       5.578  -1.732  -1.496  1.00  0.00     0.168 HD
HETATM   10  C13 UNL     1       4.540  -2.892  -0.192  1.00  0.00     0.049 A 
HETATM   11  C14 UNL     1       5.204  -4.236  -0.330  1.00  0.00     0.076 C 
HETATM   12  S2  UNL     1       3.226  -2.430   0.814  1.00  0.00    -0.070 SA
HETATM   13  C15 UNL     1       3.122  -0.786   0.358  1.00  0.00     0.095 A 
ENDROOT
BRANCH   1  14
HETATM   14  N3  UNL     1       1.417   0.101   1.573  1.00  0.00    -0.373 N 
ATOM     15  H3  UNL     1       1.353  -0.847   1.944  1.00  0.00     0.161 HD
BRANCH  14  16
HETATM   16  C8  UNL     1       0.490   1.055   2.079  1.00  0.00     0.141 C 
BRANCH  16  17
HETATM   17  C7  UNL     1      -0.807   1.116   1.326  1.00  0.00     0.141 C 
BRANCH  17  18
HETATM   18  N2  UNL     1      -1.507  -0.170   1.354  1.00  0.00    -0.369 N 
ATOM     19  H2  UNL     1      -1.079  -0.953   1.847  1.00  0.00     0.161 HD
BRANCH  18  20
HETATM   20  C3  UNL     1      -2.752  -0.362   0.723  1.00  0.00     0.136 C 
HETATM   21  N1  UNL     1      -3.819   0.295   1.058  1.00  0.00    -0.369 N 
ATOM     22  H1  UNL     1      -3.770   0.985   1.808  1.00  0.00     0.161 HD
BRANCH  20  23
HETATM   23  S1  UNL     1      -2.871  -1.562  -0.594  1.00  0.00    -0.095 SA
BRANCH  23  24
HETATM   24  C2  UNL     1      -1.268  -2.351  -0.869  1.00  0.00     0.078 C 
HETATM   25  C1  UNL     1      -0.919  -3.169   0.344  1.00  0.00     0.016 C 
ENDBRANCH  23  24
ENDBRANCH  20  23
BRANCH  21  26
HETATM   26  C4  UNL     1      -5.078   0.063   0.382  1.00  0.00     0.148 C 
BRANCH  26  27
HETATM   27  C5  UNL     1      -6.017   1.229   0.447  1.00  0.00     0.186 C 
BRANCH  27  28
HETATM   28  O1  UNL     1      -5.481   2.377  -0.135  1.00  0.00    -0.394 OA
HETATM   29  C6  UNL     1      -6.389   3.443  -0.058  1.00  0.00     0.201 C 
ENDBRANCH  27  28
ENDBRANCH  26  27
ENDBRANCH  21  26
ENDBRANCH  18  20
ENDBRANCH  17  18
ENDBRANCH  16  17
ENDBRANCH  14  16
ENDBRANCH   1  14
BRANCH   4  30
HETATM   30  N5  UNL     1       3.767   2.758  -1.389  1.00  0.00    -0.230 N 
HETATM   31  C11 UNL     1       4.824   2.875  -2.361  1.00  0.00     0.165 C 
ATOM     32  H5  UNL     1       3.199   3.573  -1.158  1.00  0.00     0.177 HD
ENDBRANCH   4  30
TORSDOF 11
