REMARK  12 active torsions:
REMARK  status: ('A' for Active; 'I' for Inactive)
REMARK    1  A    between atoms: C2_2  and  C3_3 
REMARK    2  A    between atoms: C4_4  and  C5_5 
REMARK    3  A    between atoms: C5_5  and  C6_6 
REMARK    4  A    between atoms: C6_6  and  C7_7 
REMARK    5  A    between atoms: C9_9  and  O1_10 
REMARK    6  A    between atoms: C10_12  and  O2_13 
REMARK    7  A    between atoms: C11_15  and  O3_16 
REMARK    8  A    between atoms: C13_19  and  C14_20 
REMARK    9  A    between atoms: C14_20  and  C15_21 
REMARK   10  A    between atoms: C14_20  and  O4_25 
REMARK   11  A    between atoms: C15_21  and  N1_22 
REMARK   12  A    between atoms: O4_25  and  C18_26 
ROOT
HETATM    1  C7  UNL     1       1.833   0.656  -0.193  1.00  0.00     0.125 C 
HETATM    2  C8  UNL     1       2.073   0.177  -1.607  1.00  0.00     0.075 C 
HETATM    3  C9  UNL     1       0.644   0.376  -2.146  1.00  0.00     0.115 C 
HETATM    4  C10 UNL     1       0.365   1.763  -2.541  1.00  0.00     0.183 C 
HETATM    5  C11 UNL     1      -0.580   2.575  -1.769  1.00  0.00     0.150 C 
HETATM    6  C12 UNL     1      -1.200   1.915  -0.560  1.00  0.00     0.044 C 
HETATM    7  C13 UNL     1      -1.466   0.473  -0.977  1.00  0.00     0.055 C 
HETATM    8  C20 UNL     1      -0.119  -0.168  -0.967  1.00  0.00     0.166 C 
HETATM    9  O6  UNL     1       0.633   0.114   0.167  1.00  0.00    -0.377 OA
ENDROOT
BRANCH   7  10
HETATM   10  C14 UNL     1      -2.523  -0.205  -0.187  1.00  0.00     0.176 C 
BRANCH  10  11
HETATM   11  C15 UNL     1      -2.228  -0.290   1.283  1.00  0.00     0.090 C 
BRANCH  11  12
HETATM   12  N1  UNL     1      -3.240  -0.940   2.018  1.00  0.00    -0.399 N 
HETATM   13  C16 UNL     1      -3.448  -2.320   1.829  1.00  0.00     0.148 C 
HETATM   14  C17 UNL     1      -4.185  -0.185   2.726  1.00  0.00     0.148 C 
ENDBRANCH  11  12
ENDBRANCH  10  11
BRANCH  10  15
HETATM   15  O4  UNL     1      -3.733   0.521  -0.419  1.00  0.00    -0.310 OA
BRANCH  15  16
HETATM   16  C18 UNL     1      -4.812  -0.056  -1.055  1.00  0.00     0.255 C 
HETATM   17  C19 UNL     1      -6.088   0.651  -1.325  1.00  0.00     0.126 C 
HETATM   18  O5  UNL     1      -4.678  -1.254  -1.420  1.00  0.00    -0.266 OA
ENDBRANCH  15  16
ENDBRANCH  10  15
ENDBRANCH   7  10
BRANCH   5  19
HETATM   19  O3  UNL     1      -0.048   3.794  -1.299  1.00  0.00    -0.393 OA
ATOM     20  H3  UNL     1      -0.660   4.320  -0.799  1.00  0.00     0.210 HD
ENDBRANCH   5  19
BRANCH   3  21
HETATM   21  O1  UNL     1       0.530  -0.530  -3.212  1.00  0.00    -0.384 OA
ATOM     22  H1  UNL     1      -0.351  -0.407  -3.544  1.00  0.00     0.210 HD
ENDBRANCH   3  21
BRANCH   4  23
HETATM   23  O2  UNL     1       1.621   2.415  -2.656  1.00  0.00    -0.390 OA
ATOM     24  H2  UNL     1       1.441   3.312  -2.911  1.00  0.00     0.210 HD
ENDBRANCH   4  23
BRANCH   1  25
HETATM   25  C6  UNL     1       2.960   0.380   0.731  1.00  0.00     0.036 C 
BRANCH  25  26
HETATM   26  C5  UNL     1       3.323  -1.063   0.903  1.00  0.00     0.029 C 
BRANCH  26  27
HETATM   27  C4  UNL     1       4.462  -1.123   1.844  1.00  0.00    -0.027 C 
HETATM   28  C3  UNL     1       5.603  -1.655   1.451  1.00  0.00    -0.005 C 
BRANCH  28  29
HETATM   29  C2  UNL     1       6.766  -1.745   2.328  1.00  0.00    -0.011 C 
HETATM   30  C1  UNL     1       7.871  -2.292   1.864  1.00  0.00     0.011 C 
ENDBRANCH  28  29
ENDBRANCH  26  27
ENDBRANCH  25  26
ENDBRANCH   1  25
TORSDOF 12
