REMARK  10 active torsions:
REMARK  status: ('A' for Active; 'I' for Inactive)
REMARK    1  A    between atoms: C2_2  and  C3_3 
REMARK    2  A    between atoms: C4_4  and  C5_5 
REMARK    3  A    between atoms: N2_8  and  C6_9 
REMARK    4  A    between atoms: C6_9  and  C7_13 
REMARK    5  A    between atoms: C7_13  and  N4_14 
REMARK    6  A    between atoms: C7_13  and  C13_23 
REMARK       I    between atoms: N4_14  and  C8_16 
REMARK    7  A    between atoms: C8_16  and  O3_18 
REMARK    8  A    between atoms: O3_18  and  C9_19 
REMARK    9  A    between atoms: C16_26  and  C17_27 
REMARK   10  A    between atoms: C17_27  and  O5_29 
ROOT
HETATM    1  C6  UNL     1      -0.364   0.540  -0.188  1.00  0.00     0.098 C 
HETATM    2  N3  UNL     1      -0.036   1.335  -1.107  1.00  0.00    -0.387 N 
ATOM      3  H31 UNL     1       0.918   1.675  -1.225  1.00  0.00     0.157 HD
ATOM      4  H32 UNL     1      -0.733   1.674  -1.770  1.00  0.00     0.157 HD
ENDROOT
BRANCH   1   5
HETATM    5  N2  UNL     1      -1.678   0.072  -0.026  1.00  0.00    -0.341 N 
HETATM    6  C4  UNL     1      -2.275  -1.245  -0.379  1.00  0.00     0.182 C 
HETATM    7  C3  UNL     1      -3.524  -0.499  -0.664  1.00  0.00     0.050 C 
HETATM    8  C16 UNL     1      -2.984   0.413   0.462  1.00  0.00     0.192 C 
BRANCH   6   9
HETATM    9  C5  UNL     1      -1.569  -1.921  -1.466  1.00  0.00     0.254 C 
HETATM   10  N1  UNL     1      -1.891  -3.249  -1.816  1.00  0.00    -0.060 NA
HETATM   11  O1  UNL     1      -0.643  -1.370  -2.144  1.00  0.00    -0.275 OA
ENDBRANCH   6   9
BRANCH   7  12
HETATM   12  C2  UNL     1      -4.836  -1.098  -0.259  1.00  0.00     0.005 C 
HETATM   13  C1  UNL     1      -5.054  -2.403  -0.944  1.00  0.00     0.005 C 
ENDBRANCH   7  12
BRANCH   8  14
HETATM   14  C17 UNL     1      -3.437   1.804   0.335  1.00  0.00     0.282 C 
HETATM   15  O4  UNL     1      -2.697   2.683  -0.150  1.00  0.00    -0.263 OA
BRANCH  14  16
HETATM   16  O5  UNL     1      -4.699   2.221   0.741  1.00  0.00    -0.325 OA
HETATM   17  C18 UNL     1      -5.132   3.565   0.617  1.00  0.00     0.213 C 
ENDBRANCH  14  16
ENDBRANCH   8  14
ENDBRANCH   1   5
BRANCH   1  18
HETATM   18  C7  UNL     1       0.650   0.047   0.776  1.00  0.00     0.157 C 
BRANCH  18  19
HETATM   19  N4  UNL     1       1.917   0.602   0.396  1.00  0.00    -0.325 N 
HETATM   20  C8  UNL     1       3.051  -0.099  -0.009  1.00  0.00     0.362 C 
HETATM   21  O2  UNL     1       3.008  -1.350  -0.062  1.00  0.00    -0.238 OA
ATOM     22  H4  UNL     1       1.996   1.618   0.425  1.00  0.00     0.165 HD
BRANCH  20  23
HETATM   23  O3  UNL     1       4.217   0.535  -0.352  1.00  0.00    -0.294 OA
BRANCH  23  24
HETATM   24  C9  UNL     1       5.398  -0.110  -0.769  1.00  0.00     0.061 C 
HETATM   25  C10 UNL     1       5.192  -0.935  -2.026  1.00  0.00     0.046 C 
HETATM   26  C11 UNL     1       6.409   0.968  -1.102  1.00  0.00     0.046 C 
HETATM   27  C12 UNL     1       5.988  -0.986   0.302  1.00  0.00     0.046 C 
ENDBRANCH  23  24
ENDBRANCH  20  23
ENDBRANCH  18  19
BRANCH  18  28
HETATM   28  C13 UNL     1       0.198   0.414   2.145  1.00  0.00     0.008 C 
HETATM   29  C14 UNL     1       1.150  -0.041   3.230  1.00  0.00     0.012 C 
HETATM   30  C15 UNL     1      -0.069   1.907   2.259  1.00  0.00     0.012 C 
ENDBRANCH  18  28
ENDBRANCH   1  18
TORSDOF 10
