REMARK  8 active torsions:
REMARK  status: ('A' for Active; 'I' for Inactive)
REMARK    1  A    between atoms: C2_2  and  N1_3 
REMARK    2  A    between atoms: N1_3  and  C3_5 
REMARK    3  A    between atoms: C6_12  and  N4_13 
REMARK    4  A    between atoms: N4_13  and  C7_15 
REMARK    5  A    between atoms: C7_15  and  C9_17 
REMARK    6  A    between atoms: C10_18  and  C11_19 
REMARK    7  A    between atoms: C12_20  and  O1_21 
REMARK    8  A    between atoms: C16_25  and  C17_26 
ROOT
HETATM    1  C9  UNL     1      -0.163  -0.324  -0.273  1.00  0.00    -0.076 C 
HETATM    2  C10 UNL     1       0.999  -0.542  -0.078  1.00  0.00    -0.059 C 
ENDROOT
BRANCH   1   3
HETATM    3  C7  UNL     1      -1.630  -0.041  -0.491  1.00  0.00     0.159 C 
HETATM    4  C8  UNL     1      -1.824  -0.358  -1.964  1.00  0.00     0.046 C 
BRANCH   3   5
HETATM    5  N4  UNL     1      -1.924   1.279  -0.133  1.00  0.00    -0.358 N 
ATOM      6  H4  UNL     1      -1.100   1.875  -0.051  1.00  0.00     0.162 HD
BRANCH   5   7
HETATM    7  C6  UNL     1      -2.992   1.867   0.105  1.00  0.00     0.146 A 
HETATM    8  C3  UNL     1      -4.248   1.316   0.071  1.00  0.00     0.145 A 
HETATM    9  N2  UNL     1      -5.322   2.104   0.361  1.00  0.00    -0.348 N 
HETATM   10  C4  UNL     1      -5.202   3.402   0.679  1.00  0.00     0.107 A 
ATOM     11  H2  UNL     1      -6.254   1.690   0.335  1.00  0.00     0.167 HD
HETATM   12  C5  UNL     1      -3.922   3.929   0.705  1.00  0.00     0.107 A 
HETATM   13  N3  UNL     1      -2.865   3.203   0.432  1.00  0.00    -0.348 N 
ATOM     14  H3  UNL     1      -1.939   3.629   0.461  1.00  0.00     0.167 HD
BRANCH   8  15
HETATM   15  N1  UNL     1      -4.462   0.090  -0.221  1.00  0.00    -0.374 N 
ATOM     16  H1  UNL     1      -3.649  -0.488  -0.435  1.00  0.00     0.161 HD
BRANCH  15  17
HETATM   17  C2  UNL     1      -5.741  -0.537  -0.272  1.00  0.00     0.117 C 
HETATM   18  C1  UNL     1      -5.610  -1.901  -0.932  1.00  0.00     0.026 C 
ENDBRANCH  15  17
ENDBRANCH   8  15
ENDBRANCH   5   7
ENDBRANCH   3   5
ENDBRANCH   1   3
BRANCH   2  19
HETATM   19  C11 UNL     1       2.383  -0.823   0.170  1.00  0.00     0.090 A 
HETATM   20  C12 UNL     1       2.744  -1.829   1.050  1.00  0.00     0.090 A 
HETATM   21  C14 UNL     1       4.088  -2.049   1.245  1.00  0.00     0.039 A 
HETATM   22  C15 UNL     1       5.064  -1.305   0.597  1.00  0.00     0.018 A 
HETATM   23  C16 UNL     1       4.703  -0.301  -0.280  1.00  0.00     0.017 A 
HETATM   24  C20 UNL     1       3.360  -0.078  -0.478  1.00  0.00     0.149 A 
HETATM   25  F1  UNL     1       2.981   0.896  -1.329  1.00  0.00    -0.203 F 
BRANCH  20  26
HETATM   26  O1  UNL     1       1.753  -2.570   1.694  1.00  0.00    -0.354 OA
HETATM   27  C13 UNL     1       2.181  -3.587   2.583  1.00  0.00     0.210 C 
ENDBRANCH  20  26
BRANCH  23  28
HETATM   28  C17 UNL     1       5.752   0.466  -0.947  1.00  0.00     0.011 A 
HETATM   29  C18 UNL     1       5.785   0.799  -2.290  1.00  0.00     0.120 A 
HETATM   30  N5  UNL     1       6.907   1.509  -2.532  1.00  0.00    -0.311 N 
HETATM   31  N6  UNL     1       7.564   1.626  -1.392  1.00  0.00    -0.311 N 
ATOM     32  H5  UNL     1       7.196   1.888  -3.434  1.00  0.00     0.186 HD
HETATM   33  C19 UNL     1       6.901   1.007  -0.400  1.00  0.00     0.120 A 
ATOM     34  H6  UNL     1       8.451   2.118  -1.280  1.00  0.00     0.186 HD
ENDBRANCH  23  28
ENDBRANCH   2  19
TORSDOF 8
