REMARK  2 active torsions:
REMARK  status: ('A' for Active; 'I' for Inactive)
REMARK    1  A    between atoms: C5_11  and  C6_12 
REMARK    2  A    between atoms: C6_12  and  C7_13 
ROOT
HETATM    1  C1  UNL     1      -2.494  -1.004   1.375  1.00  0.00     0.045 C 
HETATM    2  C2  UNL     1      -2.124  -0.229   0.398  1.00  0.00     0.053 A 
HETATM    3  N1  UNL     1      -3.034   0.397  -0.353  1.00  0.00    -0.298 N 
ATOM      4  H1  UNL     1      -4.018   0.245  -0.132  1.00  0.00     0.187 HD
HETATM    5  N2  UNL     1      -2.749   1.192  -1.353  1.00  0.00    -0.263 N 
ATOM      6  H2  UNL     1      -3.504   1.632  -1.879  1.00  0.00     0.190 HD
HETATM    7  C3  UNL     1      -1.480   1.432  -1.691  1.00  0.00     0.310 A 
HETATM    8  O1  UNL     1      -1.171   2.202  -2.659  1.00  0.00    -0.262 OA
HETATM    9  C4  UNL     1      -0.470   0.838  -0.983  1.00  0.00     0.253 A 
HETATM   10  O2  UNL     1       0.702   1.079  -1.319  1.00  0.00    -0.281 OA
HETATM   11  C5  UNL     1      -0.792  -0.009   0.082  1.00  0.00     0.049 A 
ENDROOT
BRANCH  11  12
HETATM   12  C6  UNL     1       0.134  -0.586   0.772  1.00  0.00     0.049 C 
BRANCH  12  13
HETATM   13  C7  UNL     1       1.562  -0.436   0.541  1.00  0.00     0.052 A 
HETATM   14  C8  UNL     1       2.442   0.464   1.090  1.00  0.00     0.122 A 
HETATM   15  N3  UNL     1       3.657   0.203   0.604  1.00  0.00    -0.317 N 
HETATM   16  C9  UNL     1       3.536  -0.838  -0.231  1.00  0.00     0.324 A 
ATOM     17  H3  UNL     1       4.518   0.703   0.827  1.00  0.00     0.170 HD
HETATM   18  O3  UNL     1       4.480  -1.359  -0.871  1.00  0.00    -0.247 OA
HETATM   19  N4  UNL     1       2.263  -1.253  -0.292  1.00  0.00    -0.307 N 
ATOM     20  H4  UNL     1       1.895  -2.024  -0.849  1.00  0.00     0.170 HD
ENDBRANCH  12  13
ENDBRANCH  11  12
TORSDOF 2
