REMARK  11 active torsions:
REMARK  status: ('A' for Active; 'I' for Inactive)
REMARK    1  A    between atoms: C5_5  and  C6_6 
REMARK    2  A    between atoms: C8_8  and  C9_9 
REMARK    3  A    between atoms: C9_9  and  C10_10 
REMARK    4  A    between atoms: C10_10  and  N1_11 
REMARK    5  A    between atoms: C10_10  and  C19_27 
REMARK    6  A    between atoms: N1_11  and  C11_13 
REMARK    7  A    between atoms: C11_13  and  O1_14 
REMARK    8  A    between atoms: C11_13  and  C12_16 
REMARK    9  A    between atoms: C12_16  and  N2_17 
REMARK   10  A    between atoms: C12_16  and  C14_22 
REMARK       I    between atoms: N2_17  and  C13_19 
REMARK   11  A    between atoms: C21_33  and  C23_35 
ROOT
HETATM    1  C6  UNL     1      -1.928  -0.979  -0.799  1.00  0.00     0.039 A 
HETATM    2  C7  UNL     1      -0.818  -0.781  -0.037  1.00  0.00     0.038 A 
HETATM    3  C8  UNL     1       0.320  -1.039  -0.805  1.00  0.00    -0.038 A 
HETATM    4  C20 UNL     1      -0.150  -1.395  -2.037  1.00  0.00     0.095 A 
HETATM    5  N3  UNL     1      -1.488  -1.355  -2.020  1.00  0.00    -0.365 N 
ATOM      6  H3  UNL     1      -2.089  -1.576  -2.814  1.00  0.00     0.165 HD
ENDROOT
BRANCH   3   7
HETATM    7  C9  UNL     1       1.734  -0.949  -0.388  1.00  0.00     0.076 C 
BRANCH   7   8
HETATM    8  C10 UNL     1       2.357   0.356  -0.723  1.00  0.00     0.188 C 
BRANCH   8   9
HETATM    9  N1  UNL     1       3.781   0.291  -0.249  1.00  0.00    -0.358 N 
ATOM     10  H1  UNL     1       4.000   0.097   0.728  1.00  0.00     0.162 HD
BRANCH   9  11
HETATM   11  C11 UNL     1       4.784   0.501  -1.172  1.00  0.00     0.136 C 
BRANCH  11  12
HETATM   12  O1  UNL     1       4.399   0.749  -2.393  1.00  0.00    -0.348 OA
ATOM     13  H1  UNL     1       5.090   0.894  -3.029  1.00  0.00     0.219 HD
ENDBRANCH  11  12
BRANCH  11  14
HETATM   14  C12 UNL     1       6.231   0.483  -0.949  1.00  0.00     0.166 C 
BRANCH  14  15
HETATM   15  N2  UNL     1       6.868   1.534  -1.765  1.00  0.00    -0.323 N 
HETATM   16  C13 UNL     1       7.641   1.229  -2.911  1.00  0.00     0.284 C 
HETATM   17  O2  UNL     1       7.784   0.032  -3.234  1.00  0.00    -0.630 OA
HETATM   18  O3  UNL     1       8.244   2.210  -3.687  1.00  0.00    -0.630 OA
ATOM     19  H2  UNL     1       6.748   2.510  -1.495  1.00  0.00     0.166 HD
ENDBRANCH  14  15
BRANCH  14  20
HETATM   20  C14 UNL     1       6.773   0.434   0.413  1.00  0.00     0.016 C 
HETATM   21  C15 UNL     1       6.409  -0.801   1.179  1.00  0.00     0.007 C 
HETATM   22  C16 UNL     1       6.193  -0.373   2.610  1.00  0.00     0.000 C 
HETATM   23  C17 UNL     1       6.694   1.036   2.667  1.00  0.00     0.000 C 
HETATM   24  C18 UNL     1       6.376   1.600   1.303  1.00  0.00     0.007 C 
ENDBRANCH  14  20
ENDBRANCH  11  14
ENDBRANCH   9  11
ENDBRANCH   8   9
BRANCH   8  25
HETATM   25  C19 UNL     1       1.720   1.490  -0.050  1.00  0.00     0.197 C 
HETATM   26  O4  UNL     1       2.368   2.125   0.837  1.00  0.00    -0.646 OA
HETATM   27  O5  UNL     1       0.426   1.877  -0.376  1.00  0.00    -0.646 OA
ENDBRANCH   8  25
ENDBRANCH   7   8
ENDBRANCH   3   7
BRANCH   1  28
HETATM   28  C5  UNL     1      -3.364  -0.854  -0.462  1.00  0.00    -0.018 C 
HETATM   29  C4  UNL     1      -4.212  -1.005  -1.457  1.00  0.00     0.021 C 
HETATM   30  C2  UNL     1      -5.688  -0.927  -1.405  1.00  0.00     0.138 C 
HETATM   31  C1  UNL     1      -6.052   0.211  -2.389  1.00  0.00     0.050 C 
HETATM   32  C3  UNL     1      -6.385  -2.137  -1.989  1.00  0.00     0.050 C 
HETATM   33  N4  UNL     1      -6.153  -0.693  -0.087  1.00  0.00    -0.054 N 
HETATM   34  C25 UNL     1      -5.234   0.088   0.720  1.00  0.00     0.135 C 
ATOM     35  H42 UNL     1      -7.077  -0.262  -0.101  1.00  0.00     0.279 HD
ATOM     36  H41 UNL     1      -6.383  -1.572   0.376  1.00  0.00     0.279 HD
HETATM   37  C21 UNL     1      -3.878  -0.593   0.917  1.00  0.00     0.068 C 
HETATM   38  C26 UNL     1      -5.990   0.423   1.967  1.00  0.00     0.047 C 
HETATM   39  C27 UNL     1      -4.914   1.452   0.081  1.00  0.00     0.047 C 
HETATM   40  C22 UNL     1      -3.030   0.410   1.683  1.00  0.00     0.028 C 
BRANCH  37  41
HETATM   41  C23 UNL     1      -3.964  -1.876   1.672  1.00  0.00     0.189 C 
HETATM   42  C24 UNL     1      -4.393  -1.732   3.132  1.00  0.00     0.071 C 
HETATM   43  F1  UNL     1      -5.002  -2.658   1.123  1.00  0.00    -0.225 F 
HETATM   44 CL1  UNL     1      -2.506  -2.877   1.660  1.00  0.00    -0.082 Cl
ENDBRANCH  37  41
ENDBRANCH   1  28
TORSDOF 11
