REMARK  11 active torsions:
REMARK  status: ('A' for Active; 'I' for Inactive)
REMARK    1  A    between atoms: C1_4  and  N2_5 
REMARK    2  A    between atoms: C1_4  and  C8_17 
REMARK    3  A    between atoms: N2_5  and  C2_7 
REMARK    4  A    between atoms: C2_7  and  C3_8 
REMARK    5  A    between atoms: C3_8  and  C4_9 
REMARK    6  A    between atoms: C4_9  and  C5_10 
REMARK    7  A    between atoms: C5_10  and  C6_11 
REMARK    8  A    between atoms: C6_11  and  C7_12 
REMARK    9  A    between atoms: C7_12  and  N3_13 
REMARK   10  A    between atoms: C8_17  and  N4_18 
REMARK       I    between atoms: N4_18  and  C9_20 
REMARK       I    between atoms: C9_20  and  N5_22 
REMARK   11  A    between atoms: N5_22  and  C10_24 
ROOT
HETATM    1  C8  UNL     1       0.907   2.466  -0.839  1.00  0.00     0.171 C 
HETATM    2  C20 UNL     1       1.241   2.800   0.607  1.00  0.00     0.103 C 
HETATM    3  C21 UNL     1       0.598   4.119   0.790  1.00  0.00    -0.026 A 
HETATM    4  C22 UNL     1       0.142   4.830   1.897  1.00  0.00     0.028 A 
HETATM    5  C23 UNL     1      -0.427   6.075   1.777  1.00  0.00     0.011 A 
HETATM    6 BR1  UNL     1      -1.032   7.001   3.335  1.00  0.00    -0.051 Br
HETATM    7  C24 UNL     1      -0.565   6.666   0.533  1.00  0.00     0.021 A 
HETATM    8  C25 UNL     1      -0.123   5.988  -0.590  1.00  0.00     0.031 A 
HETATM    9  C26 UNL     1       0.454   4.719  -0.435  1.00  0.00     0.036 A 
HETATM   10  N6  UNL     1       0.970   3.837  -1.420  1.00  0.00    -0.357 N 
ATOM     11  H6  UNL     1       1.316   4.092  -2.345  1.00  0.00     0.162 HD
ENDROOT
BRANCH   1  12
HETATM   12  C1  UNL     1       1.934   1.643  -1.488  1.00  0.00     0.121 C 
HETATM   13  N1  UNL     1       3.116   2.143  -1.579  1.00  0.00    -0.386 N 
ATOM     14  H12 UNL     1       3.830   1.571  -2.030  1.00  0.00     0.157 HD
ATOM     15  H11 UNL     1       3.309   3.066  -1.189  1.00  0.00     0.157 HD
BRANCH  12  16
HETATM   16  N2  UNL     1       1.670   0.378  -2.023  1.00  0.00    -0.377 N 
ATOM     17  H2  UNL     1       0.747   0.271  -2.443  1.00  0.00     0.160 HD
BRANCH  16  18
HETATM   18  C2  UNL     1       2.488  -0.779  -2.071  1.00  0.00     0.121 C 
BRANCH  18  19
HETATM   19  C3  UNL     1       2.774  -1.531  -0.834  1.00  0.00     0.020 C 
BRANCH  19  20
HETATM   20  C4  UNL     1       3.474  -0.688   0.190  1.00  0.00     0.002 C 
BRANCH  20  21
HETATM   21  C5  UNL     1       3.790  -1.489   1.451  1.00  0.00     0.002 C 
BRANCH  21  22
HETATM   22  C6  UNL     1       4.682  -2.665   1.190  1.00  0.00     0.027 C 
BRANCH  22  23
HETATM   23  C7  UNL     1       6.014  -2.256   0.604  1.00  0.00     0.229 C 
BRANCH  23  24
HETATM   24  N3  UNL     1       6.826  -3.432   0.377  1.00  0.00    -0.079 N 
ATOM     25  H33 UNL     1       6.933  -3.994   1.221  1.00  0.00     0.274 HD
ATOM     26  H32 UNL     1       6.348  -4.124  -0.200  1.00  0.00     0.274 HD
ATOM     27  H31 UNL     1       7.725  -3.156  -0.018  1.00  0.00     0.274 HD
ENDBRANCH  23  24
ENDBRANCH  22  23
ENDBRANCH  21  22
ENDBRANCH  20  21
ENDBRANCH  19  20
ENDBRANCH  18  19
ENDBRANCH  16  18
ENDBRANCH  12  16
ENDBRANCH   1  12
BRANCH   1  28
HETATM   28  N4  UNL     1      -0.420   2.009  -1.007  1.00  0.00    -0.309 N 
HETATM   29  C9  UNL     1      -1.004   0.815  -0.519  1.00  0.00     0.319 C 
HETATM   30  O1  UNL     1      -0.318   0.017   0.180  1.00  0.00    -0.247 OA
HETATM   31  N5  UNL     1      -2.347   0.467  -0.784  1.00  0.00    -0.334 N 
ATOM     32  H5  UNL     1      -2.875   1.129  -1.352  1.00  0.00     0.165 HD
ATOM     33  H4  UNL     1      -1.035   2.616  -1.549  1.00  0.00     0.167 HD
BRANCH  31  34
HETATM   34  C10 UNL     1      -3.055  -0.690  -0.359  1.00  0.00     0.035 C 
HETATM   35  C11 UNL     1      -3.105  -0.730   1.149  1.00  0.00     0.035 C 
HETATM   36  C12 UNL     1      -3.971  -1.902   1.634  1.00  0.00    -0.012 C 
HETATM   37  C13 UNL     1      -5.348  -1.695   1.091  1.00  0.00     0.009 C 
HETATM   38  C17 UNL     1      -3.358  -3.193   1.137  1.00  0.00     0.009 C 
HETATM   39  C14 UNL     1      -5.322  -1.774  -0.406  1.00  0.00    -0.012 C 
HETATM   40  C15 UNL     1      -4.690  -3.065  -0.898  1.00  0.00     0.009 C 
HETATM   41  C19 UNL     1      -4.460  -0.653  -0.933  1.00  0.00     0.035 C 
HETATM   42  C16 UNL     1      -3.296  -3.133  -0.371  1.00  0.00    -0.012 C 
HETATM   43  C18 UNL     1      -2.418  -1.987  -0.808  1.00  0.00     0.035 C 
ENDBRANCH  31  34
ENDBRANCH   1  28
TORSDOF 11
