REMARK  13 active torsions:
REMARK  status: ('A' for Active; 'I' for Inactive)
REMARK    1  A    between atoms: N1_4  and  C4_5 
REMARK    2  A    between atoms: C6_7  and  N2_8 
REMARK    3  A    between atoms: N2_8  and  C7_10 
REMARK    4  A    between atoms: C11_14  and  C12_15 
REMARK    5  A    between atoms: C12_15  and  C13_17 
REMARK    6  A    between atoms: C13_17  and  C14_18 
REMARK    7  A    between atoms: C17_21  and  C18_22 
REMARK    8  A    between atoms: C18_22  and  O2_23 
REMARK    9  A    between atoms: C18_22  and  N3_25 
REMARK   10  A    between atoms: N3_25  and  O3_27 
REMARK   11  A    between atoms: C19_29  and  O4_30 
REMARK   12  A    between atoms: C22_38  and  N6_39 
REMARK   13  A    between atoms: N6_39  and  C23_41 
ROOT
HETATM    1  C4  UNL     1       1.252  -0.819  -0.269  1.00  0.00     0.123 C 
HETATM    2  C5  UNL     1       0.655  -0.946   1.106  1.00  0.00     0.055 C 
HETATM    3  C6  UNL     1      -0.600  -0.311   0.446  1.00  0.00     0.109 C 
HETATM    4  C19 UNL     1       0.445   0.467  -0.342  1.00  0.00     0.163 C 
ENDROOT
BRANCH   1   5
HETATM    5  N1  UNL     1       2.649  -0.728  -0.430  1.00  0.00    -0.335 N 
HETATM    6  C3  UNL     1       3.279  -1.217  -1.541  1.00  0.00     0.101 A 
HETATM    7  C2  UNL     1       4.630  -1.001  -1.449  1.00  0.00    -0.029 A 
HETATM    8  C1  UNL     1       5.695  -1.364  -2.416  1.00  0.00     0.050 C 
HETATM    9  C29 UNL     1       4.849  -0.362  -0.255  1.00  0.00     0.059 A 
HETATM   10  C20 UNL     1       3.607  -0.220   0.329  1.00  0.00     0.123 A 
HETATM   11  C22 UNL     1       6.016   0.094   0.352  1.00  0.00     0.121 A 
HETATM   12  N4  UNL     1       3.567   0.387   1.528  1.00  0.00    -0.338 N 
HETATM   13  C21 UNL     1       4.693   0.827   2.114  1.00  0.00     0.183 A 
ATOM     14  H4  UNL     1       2.671   0.515   1.998  1.00  0.00     0.168 HD
HETATM   15  N5  UNL     1       5.924   0.694   1.549  1.00  0.00    -0.338 N 
ATOM     16  H5  UNL     1       6.757   1.042   2.024  1.00  0.00     0.168 HD
BRANCH  11  17
HETATM   17  N6  UNL     1       7.108  -0.081  -0.254  1.00  0.00    -0.342 N 
ATOM     18  H6  UNL     1       7.035  -0.551  -1.156  1.00  0.00     0.167 HD
BRANCH  17  19
HETATM   19  C23 UNL     1       8.403   0.275   0.129  1.00  0.00     0.035 A 
HETATM   20  C24 UNL     1       9.293  -0.757   0.399  1.00  0.00     0.032 A 
HETATM   21  C25 UNL     1      10.590  -0.491   0.785  1.00  0.00     0.046 A 
HETATM   22  C26 UNL     1      11.059   0.818   0.918  1.00  0.00     0.138 A 
HETATM   23  F1  UNL     1      12.339   1.067   1.298  1.00  0.00    -0.204 F 
HETATM   24  C27 UNL     1      10.179   1.844   0.650  1.00  0.00     0.074 A 
HETATM   25 CL1  UNL     1      10.740   3.502   0.808  1.00  0.00    -0.081 Cl
HETATM   26  C28 UNL     1       8.891   1.544   0.267  1.00  0.00     0.056 A 
ENDBRANCH  17  19
ENDBRANCH  11  17
ENDBRANCH   1   5
BRANCH   4  27
HETATM   27  O4  UNL     1       0.938   1.489   0.466  1.00  0.00    -0.391 OA
ATOM     28  H4  UNL     1       0.434   2.293   0.420  1.00  0.00     0.210 HD
ENDBRANCH   4  27
BRANCH   3  29
HETATM   29  N2  UNL     1      -1.290  -1.346  -0.207  1.00  0.00    -0.410 N 
ATOM     30  H2  UNL     1      -0.873  -2.275  -0.262  1.00  0.00     0.154 HD
BRANCH  29  31
HETATM   31  C7  UNL     1      -2.560  -1.111  -0.790  1.00  0.00     0.089 C 
HETATM   32  C8  UNL     1      -2.611  -0.129  -1.915  1.00  0.00     0.026 C 
HETATM   33  C9  UNL     1      -3.030   1.265  -1.518  1.00  0.00     0.003 C 
HETATM   34  C10 UNL     1      -4.254   1.253  -0.673  1.00  0.00     0.013 C 
HETATM   35  C11 UNL     1      -4.779  -0.188  -0.405  1.00  0.00     0.069 C 
HETATM   36  C17 UNL     1      -3.666  -0.927   0.255  1.00  0.00     0.095 C 
BRANCH  35  37
HETATM   37  C12 UNL     1      -6.024   0.003   0.363  1.00  0.00     0.132 C 
HETATM   38  O1  UNL     1      -6.181  -0.319   1.501  1.00  0.00    -0.298 OA
BRANCH  37  39
HETATM   39  C13 UNL     1      -7.196   0.659  -0.323  1.00  0.00     0.082 C 
BRANCH  39  40
HETATM   40  C14 UNL     1      -7.799   1.769   0.477  1.00  0.00    -0.016 C 
HETATM   41  C15 UNL     1      -8.963   2.318  -0.351  1.00  0.00     0.010 C 
HETATM   42  C16 UNL     1      -8.310   1.336   1.824  1.00  0.00     0.010 C 
ENDBRANCH  39  40
ENDBRANCH  37  39
ENDBRANCH  35  37
BRANCH  36  43
HETATM   43  C18 UNL     1      -3.996  -2.291   0.719  1.00  0.00     0.142 C 
BRANCH  43  44
HETATM   44  O2  UNL     1      -4.631  -2.510   1.929  1.00  0.00    -0.348 OA
ATOM     45  H2  UNL     1      -4.843  -3.387   2.227  1.00  0.00     0.219 HD
ENDBRANCH  43  44
BRANCH  43  46
HETATM   46  N3  UNL     1      -3.723  -3.366   0.042  1.00  0.00    -0.251 N 
ATOM     47  H3  UNL     1      -3.256  -3.255  -0.858  1.00  0.00     0.196 HD
BRANCH  46  48
HETATM   48  O3  UNL     1      -4.017  -4.624   0.450  1.00  0.00    -0.288 OA
ATOM     49  H3  UNL     1      -3.817  -5.410  -0.045  1.00  0.00     0.244 HD
ENDBRANCH  46  48
ENDBRANCH  43  46
ENDBRANCH  36  43
ENDBRANCH  29  31
ENDBRANCH   3  29
TORSDOF 13
