REMARK  14 active torsions:
REMARK  status: ('A' for Active; 'I' for Inactive)
REMARK    1  A    between atoms: O1_2  and  C2_3 
REMARK    2  A    between atoms: C5_6  and  N1_7 
REMARK    3  A    between atoms: N1_7  and  C6_9 
REMARK    4  A    between atoms: C7_12  and  O2_13 
REMARK    5  A    between atoms: O2_13  and  C8_14 
REMARK    6  A    between atoms: C8_14  and  C9_15 
REMARK    7  A    between atoms: C9_15  and  C10_16 
REMARK    8  A    between atoms: C10_16  and  N3_17 
REMARK    9  A    between atoms: C14_23  and  N5_24 
REMARK   10  A    between atoms: C17_33  and  O3_34 
REMARK   11  A    between atoms: O3_34  and  C18_35 
REMARK   12  A    between atoms: C18_35  and  C19_36 
REMARK   13  A    between atoms: C24_43  and  C25_44 
REMARK   14  A    between atoms: C25_44  and  C28_47 
ROOT
HETATM    1  N1  UNL     1       1.127  -1.384  -1.457  1.00  0.00    -0.338 N 
ATOM      2  H1  UNL     1       0.897  -0.668  -2.146  1.00  0.00     0.167 HD
ENDROOT
BRANCH   1   3
HETATM    3  C5  UNL     1       0.612  -2.630  -1.777  1.00  0.00     0.067 A 
HETATM    4  C4  UNL     1       1.275  -3.589  -2.505  1.00  0.00     0.035 A 
HETATM    5  C3  UNL     1       0.685  -4.790  -2.807  1.00  0.00     0.039 A 
HETATM    6  C2  UNL     1      -0.612  -5.045  -2.370  1.00  0.00     0.070 A 
HETATM    7  C32 UNL     1      -1.309  -4.123  -1.644  1.00  0.00     0.075 A 
HETATM    8  C17 UNL     1      -0.713  -2.894  -1.330  1.00  0.00     0.098 A 
BRANCH   6   9
HETATM    9  O1  UNL     1      -1.203  -6.255  -2.676  1.00  0.00    -0.356 OA
HETATM   10  C1  UNL     1      -0.497  -7.207  -3.416  1.00  0.00     0.210 C 
ENDBRANCH   6   9
BRANCH   8  11
HETATM   11  O3  UNL     1      -1.352  -1.991  -0.632  1.00  0.00    -0.348 OA
BRANCH  11  12
HETATM   12  C18 UNL     1      -1.978  -1.109   0.050  1.00  0.00     0.180 C 
BRANCH  12  13
HETATM   13  C19 UNL     1      -3.285  -0.489  -0.496  1.00  0.00     0.015 C 
HETATM   14  C20 UNL     1      -4.264  -1.594  -0.673  1.00  0.00     0.013 C 
HETATM   15  C21 UNL     1      -4.739  -2.184   0.635  1.00  0.00     0.079 C 
HETATM   16  C22 UNL     1      -5.245  -1.101   1.526  1.00  0.00     0.244 C 
HETATM   17  F1  UNL     1      -6.619  -1.325   1.699  1.00  0.00    -0.206 F 
HETATM   18  F2  UNL     1      -4.695  -1.102   2.783  1.00  0.00    -0.206 F 
HETATM   19  C23 UNL     1      -5.171   0.293   0.877  1.00  0.00     0.084 C 
HETATM   20  C24 UNL     1      -3.790   0.608   0.424  1.00  0.00     0.006 C 
BRANCH  20  21
HETATM   21  C25 UNL     1      -3.613   1.934  -0.206  1.00  0.00    -0.037 C 
HETATM   22  C26 UNL     1      -4.397   1.963  -1.521  1.00  0.00     0.016 C 
HETATM   23  C27 UNL     1      -2.157   2.148  -0.591  1.00  0.00     0.016 C 
BRANCH  21  24
HETATM   24  C28 UNL     1      -4.032   3.136   0.559  1.00  0.00    -0.044 C 
HETATM   25  C29 UNL     1      -3.345   3.318   1.888  1.00  0.00     0.015 C 
HETATM   26  C30 UNL     1      -5.497   3.352   0.735  1.00  0.00     0.015 C 
HETATM   27  C31 UNL     1      -3.540   4.350  -0.269  1.00  0.00     0.015 C 
ENDBRANCH  21  24
ENDBRANCH  20  21
ENDBRANCH  12  13
ENDBRANCH  11  12
ENDBRANCH   8  11
ENDBRANCH   1   3
BRANCH   1  28
HETATM   28  C6  UNL     1       1.813  -0.945  -0.507  1.00  0.00     0.138 A 
HETATM   29  N2  UNL     1       2.160   0.375  -0.498  1.00  0.00    -0.306 N 
HETATM   30  C7  UNL     1       2.897   0.938   0.475  1.00  0.00     0.225 A 
ATOM     31  H2  UNL     1       1.844   0.964  -1.269  1.00  0.00     0.171 HD
HETATM   32  N4  UNL     1       3.293   0.130   1.471  1.00  0.00    -0.317 N 
HETATM   33  C13 UNL     1       2.986  -1.191   1.528  1.00  0.00     0.110 A 
ATOM     34  H4  UNL     1       3.854   0.529   2.224  1.00  0.00     0.169 HD
HETATM   35  C14 UNL     1       3.420  -1.974   2.580  1.00  0.00     0.129 A 
HETATM   36  C16 UNL     1       2.234  -1.763   0.535  1.00  0.00     0.108 A 
HETATM   37  N6  UNL     1       3.084  -3.273   2.586  1.00  0.00    -0.337 N 
HETATM   38  C15 UNL     1       2.343  -3.806   1.593  1.00  0.00     0.182 A 
ATOM     39  H6  UNL     1       3.394  -3.868   3.355  1.00  0.00     0.168 HD
HETATM   40  N7  UNL     1       1.911  -3.069   0.564  1.00  0.00    -0.347 N 
ATOM     41  H7  UNL     1       1.351  -3.486  -0.180  1.00  0.00     0.167 HD
BRANCH  30  42
HETATM   42  O2  UNL     1       3.194   2.286   0.393  1.00  0.00    -0.322 OA
BRANCH  42  43
HETATM   43  C8  UNL     1       3.952   2.939   1.350  1.00  0.00     0.180 C 
BRANCH  43  44
HETATM   44  C9  UNL     1       5.369   2.443   1.514  1.00  0.00     0.057 C 
BRANCH  44  45
HETATM   45  C10 UNL     1       6.072   2.613   0.178  1.00  0.00     0.273 C 
BRANCH  45  46
HETATM   46  N3  UNL     1       7.447   2.151   0.283  1.00  0.00     0.080 N 
HETATM   47  C11 UNL     1       8.112   2.311  -0.989  1.00  0.00     0.309 C 
HETATM   48  C12 UNL     1       8.148   2.986   1.245  1.00  0.00     0.309 C 
ENDBRANCH  45  46
ENDBRANCH  44  45
ENDBRANCH  43  44
ENDBRANCH  42  43
ENDBRANCH  30  42
BRANCH  35  49
HETATM   49  N5  UNL     1       4.128  -1.423   3.506  1.00  0.00    -0.384 N 
ATOM     50  H52 UNL     1       4.383  -0.436   3.501  1.00  0.00     0.157 HD
ATOM     51  H51 UNL     1       4.448  -2.001   4.283  1.00  0.00     0.157 HD
ENDBRANCH  35  49
ENDBRANCH   1  28
TORSDOF 14
