REMARK  14 active torsions:
REMARK  status: ('A' for Active; 'I' for Inactive)
REMARK    1  A    between atoms: C3_3  and  C4_4 
REMARK    2  A    between atoms: C3_3  and  C13_15 
REMARK    3  A    between atoms: C4_4  and  C5_5 
REMARK    4  A    between atoms: C5_5  and  C6_6 
REMARK    5  A    between atoms: C6_6  and  N1_7 
REMARK    6  A    between atoms: N2_10  and  C9_11 
REMARK    7  A    between atoms: C14_16  and  C15_17 
REMARK    8  A    between atoms: C15_17  and  N3_18 
REMARK    9  A    between atoms: N3_18  and  C16_19 
REMARK   10  A    between atoms: N3_18  and  C18_21 
REMARK   11  A    between atoms: C18_21  and  C19_22 
REMARK   12  A    between atoms: C25_30  and  O1_31 
REMARK   13  A    between atoms: C28_36  and  O3_37 
REMARK   14  A    between atoms: C30_40  and  O4_41 
ROOT
HETATM    1  C13 UNL     1      -0.698  -1.728  -0.334  1.00  0.00     0.019 A 
HETATM    2  C14 UNL     1      -1.888  -1.307   0.274  1.00  0.00     0.003 A 
HETATM    3  C25 UNL     1      -2.594  -2.142   1.123  1.00  0.00     0.087 A 
HETATM    4  C26 UNL     1      -2.090  -3.424   1.368  1.00  0.00     0.038 A 
HETATM    5  C27 UNL     1      -2.552  -4.479   2.177  1.00  0.00     0.160 A 
HETATM    6  O2  UNL     1      -1.717  -5.426   2.043  1.00  0.00    -0.299 OA
HETATM    7  C28 UNL     1      -0.734  -5.158   1.246  1.00  0.00     0.197 A 
HETATM    8  C29 UNL     1      -0.911  -3.885   0.781  1.00  0.00     0.071 A 
HETATM    9  C30 UNL     1      -0.239  -2.992  -0.073  1.00  0.00     0.093 A 
ENDROOT
BRANCH   1  10
HETATM   10  C3  UNL     1      -0.031  -0.917  -1.362  1.00  0.00    -0.019 C 
HETATM   11  C2  UNL     1      -0.454  -0.459  -2.503  1.00  0.00    -0.018 C 
HETATM   12  C1  UNL     1      -1.638  -0.631  -3.309  1.00  0.00     0.037 C 
BRANCH  10  13
HETATM   13  C4  UNL     1       1.307  -0.436  -0.950  1.00  0.00     0.064 C 
BRANCH  13  14
HETATM   14  C5  UNL     1       1.919  -0.712   0.179  1.00  0.00    -0.125 C 
BRANCH  14  15
HETATM   15  C6  UNL     1       2.685  -0.901   1.295  1.00  0.00     0.357 C 
BRANCH  15  16
HETATM   16  N1  UNL     1       4.009  -0.409   1.510  1.00  0.00     0.102 N 
HETATM   17  C7  UNL     1       5.056  -1.266   0.992  1.00  0.00     0.303 C 
HETATM   18  C8  UNL     1       5.919  -0.751  -0.074  1.00  0.00     0.302 C 
HETATM   19  N2  UNL     1       6.203   0.677  -0.057  1.00  0.00     0.091 N 
HETATM   20  C11 UNL     1       5.766   1.271   1.202  1.00  0.00     0.302 C 
HETATM   21  C12 UNL     1       4.244   0.975   1.226  1.00  0.00     0.303 C 
BRANCH  19  22
HETATM   22  C9  UNL     1       7.514   1.015  -0.450  1.00  0.00     0.268 C 
HETATM   23  C10 UNL     1       7.737   2.519  -0.507  1.00  0.00     0.037 C 
ENDBRANCH  19  22
ENDBRANCH  15  16
ENDBRANCH  14  15
ENDBRANCH  13  14
ENDBRANCH  10  13
ENDBRANCH   1  10
BRANCH   2  24
HETATM   24  C15 UNL     1      -2.171   0.097   0.254  1.00  0.00     0.137 C 
BRANCH  24  25
HETATM   25  N3  UNL     1      -3.542   0.572   0.627  1.00  0.00    -0.288 NA
BRANCH  25  26
HETATM   26  C16 UNL     1      -4.368   0.185  -0.527  1.00  0.00     0.090 C 
HETATM   27  C17 UNL     1      -5.827   0.223  -0.437  1.00  0.00     0.021 C 
ENDBRANCH  25  26
BRANCH  25  28
HETATM   28  C18 UNL     1      -3.315   2.020   0.714  1.00  0.00     0.072 C 
BRANCH  28  29
HETATM   29  C19 UNL     1      -4.330   2.976   0.348  1.00  0.00    -0.008 A 
HETATM   30  C20 UNL     1      -5.561   2.978   0.936  1.00  0.00     0.017 A 
HETATM   31  C21 UNL     1      -6.526   3.923   0.597  1.00  0.00     0.043 A 
HETATM   32  C22 UNL     1      -6.204   4.868  -0.354  1.00  0.00     0.117 A 
HETATM   33  F1  UNL     1      -7.118   5.777  -0.762  1.00  0.00    -0.206 F 
HETATM   34  C23 UNL     1      -4.914   4.872  -0.968  1.00  0.00     0.062 A 
HETATM   35  C24 UNL     1      -4.039   3.947  -0.611  1.00  0.00     0.025 A 
HETATM   36 BR1  UNL     1      -2.275   3.807  -1.396  1.00  0.00    -0.050 Br
ENDBRANCH  28  29
ENDBRANCH  25  28
ENDBRANCH  24  25
ENDBRANCH   2  24
BRANCH   9  37
HETATM   37  O4  UNL     1       0.926  -3.476  -0.629  1.00  0.00    -0.359 OA
ATOM     38  H4  UNL     1       1.244  -4.353  -0.448  1.00  0.00     0.217 HD
ENDBRANCH   9  37
BRANCH   3  39
HETATM   39  O1  UNL     1      -3.766  -1.810   1.763  1.00  0.00    -0.359 OA
ATOM     40  H1  UNL     1      -4.250  -2.383   2.346  1.00  0.00     0.217 HD
ENDBRANCH   3  39
BRANCH   7  41
HETATM   41  O3  UNL     1       0.341  -6.008   0.895  1.00  0.00    -0.340 OA
ATOM     42  H3  UNL     1       1.063  -5.811   0.310  1.00  0.00     0.220 HD
ENDBRANCH   7  41
TORSDOF 14
