REMARK  12 active torsions:
REMARK  status: ('A' for Active; 'I' for Inactive)
REMARK    1  A    between atoms: C2_2  and  S1_3 
REMARK    2  A    between atoms: S1_3  and  N1_6 
REMARK    3  A    between atoms: N1_6  and  C3_8 
REMARK    4  A    between atoms: C5_10  and  N2_11 
REMARK    5  A    between atoms: N2_11  and  C6_13 
REMARK    6  A    between atoms: C7_16  and  C8_17 
REMARK    7  A    between atoms: C12_23  and  N5_24 
REMARK    8  A    between atoms: N5_24  and  C13_26 
REMARK    9  A    between atoms: C17_30  and  C18_31 
REMARK   10  A    between atoms: C20_33  and  O3_34 
REMARK   11  A    between atoms: C22_36  and  O4_37 
REMARK   12  A    between atoms: C24_39  and  O5_40 
ROOT
HETATM    1  C6  UNL     1       0.128  -0.688   0.515  1.00  0.00     0.122 A 
HETATM    2  N3  UNL     1       0.167  -2.013   0.423  1.00  0.00    -0.331 N 
ATOM      3  H3  UNL     1       1.014  -2.489   0.732  1.00  0.00     0.168 HD
HETATM    4  C7  UNL     1      -0.840  -2.765  -0.052  1.00  0.00     0.092 A 
HETATM    5  N4  UNL     1      -1.934  -2.093  -0.448  1.00  0.00    -0.331 N 
ATOM      6  H4  UNL     1      -2.717  -2.634  -0.815  1.00  0.00     0.168 HD
HETATM    7  C12 UNL     1      -2.068  -0.753  -0.394  1.00  0.00     0.117 A 
HETATM    8  C17 UNL     1      -0.999  -0.018   0.105  1.00  0.00     0.062 A 
ENDROOT
BRANCH   1   9
HETATM    9  N2  UNL     1       1.113   0.018   0.983  1.00  0.00    -0.339 N 
ATOM     10  H2  UNL     1       1.044   1.034   1.037  1.00  0.00     0.167 HD
BRANCH   9  11
HETATM   11  C5  UNL     1       2.309  -0.662   1.426  1.00  0.00     0.075 A 
HETATM   12  C4  UNL     1       3.493  -0.520   0.726  1.00  0.00     0.066 A 
HETATM   13  C3  UNL     1       4.643  -1.159   1.103  1.00  0.00     0.083 A 
HETATM   14  C29 UNL     1       4.581  -1.978   2.242  1.00  0.00     0.146 A 
HETATM   15  C28 UNL     1       3.421  -2.140   2.960  1.00  0.00     0.089 A 
HETATM   16  F2  UNL     1       5.700  -2.625   2.643  1.00  0.00    -0.204 F 
HETATM   17  C27 UNL     1       2.297  -1.471   2.532  1.00  0.00     0.146 A 
HETATM   18  F1  UNL     1       1.135  -1.626   3.255  1.00  0.00    -0.204 F 
BRANCH  13  19
HETATM   19  N1  UNL     1       5.892  -1.082   0.429  1.00  0.00    -0.281 N 
ATOM     20  H1  UNL     1       6.283  -1.947   0.056  1.00  0.00     0.178 HD
BRANCH  19  21
HETATM   21  S1  UNL     1       6.788   0.363   0.199  1.00  0.00     0.230 S 
HETATM   22  O1  UNL     1       8.102   0.054  -0.511  1.00  0.00    -0.206 OA
HETATM   23  O2  UNL     1       7.136   0.990   1.537  1.00  0.00    -0.206 OA
BRANCH  21  24
HETATM   24  C2  UNL     1       5.972   1.593  -0.745  1.00  0.00     0.159 C 
HETATM   25  C1  UNL     1       5.626   1.176  -2.148  1.00  0.00     0.023 C 
ENDBRANCH  21  24
ENDBRANCH  19  21
ENDBRANCH  13  19
ENDBRANCH   9  11
ENDBRANCH   1   9
BRANCH   8  26
HETATM   26  C18 UNL     1      -1.123   1.451   0.155  1.00  0.00    -0.013 A 
HETATM   27  C19 UNL     1      -1.439   2.124   1.310  1.00  0.00     0.052 A 
HETATM   28  C20 UNL     1      -1.548   3.516   1.340  1.00  0.00     0.105 A 
HETATM   29  C22 UNL     1      -1.339   4.263   0.199  1.00  0.00     0.135 A 
HETATM   30  C24 UNL     1      -1.023   3.593  -0.961  1.00  0.00     0.105 A 
HETATM   31  C26 UNL     1      -0.915   2.202  -0.988  1.00  0.00     0.052 A 
BRANCH  28  32
HETATM   32  O3  UNL     1      -1.865   4.224   2.489  1.00  0.00    -0.353 OA
HETATM   33  C21 UNL     1      -2.086   3.495   3.680  1.00  0.00     0.210 C 
ENDBRANCH  28  32
BRANCH  29  34
HETATM   34  O4  UNL     1      -1.439   5.624   0.213  1.00  0.00    -0.351 OA
HETATM   35  C23 UNL     1      -0.368   6.507   0.455  1.00  0.00     0.210 C 
ENDBRANCH  29  34
BRANCH  30  36
HETATM   36  O5  UNL     1      -0.816   4.368  -2.098  1.00  0.00    -0.353 OA
HETATM   37  C25 UNL     1      -0.486   3.672  -3.293  1.00  0.00     0.210 C 
ENDBRANCH  30  36
ENDBRANCH   8  26
BRANCH   4  38
HETATM   38  C8  UNL     1      -0.741  -4.249  -0.137  1.00  0.00     0.008 C 
HETATM   39  C9  UNL     1       0.731  -4.612  -0.260  1.00  0.00     0.022 C 
HETATM   40  C10 UNL     1      -1.519  -4.735  -1.313  1.00  0.00     0.022 C 
HETATM   41  C11 UNL     1      -1.340  -4.837   1.123  1.00  0.00     0.022 C 
ENDBRANCH   4  38
BRANCH   7  42
HETATM   42  N5  UNL     1      -3.255  -0.095  -0.827  1.00  0.00    -0.371 N 
ATOM     43  H5  UNL     1      -3.335   0.921  -0.778  1.00  0.00     0.161 HD
BRANCH  42  44
HETATM   44  C13 UNL     1      -4.338  -0.892  -1.335  1.00  0.00     0.083 C 
HETATM   45  C14 UNL     1      -5.551  -0.142  -1.779  1.00  0.00     0.025 C 
HETATM   46  C15 UNL     1      -6.411  -1.110  -0.997  1.00  0.00     0.004 C 
HETATM   47  C16 UNL     1      -5.169  -1.518  -0.230  1.00  0.00     0.025 C 
ENDBRANCH  42  44
ENDBRANCH   7  42
TORSDOF 12
