REMARK  9 active torsions:
REMARK  status: ('A' for Active; 'I' for Inactive)
REMARK    1  A    between atoms: C6_6  and  N1_7 
REMARK       I    between atoms: N1_7  and  C7_8 
REMARK    2  A    between atoms: N1_7  and  C22_31 
REMARK    3  A    between atoms: C7_8  and  C8_10 
REMARK    4  A    between atoms: C8_10  and  C9_11 
REMARK    5  A    between atoms: C8_10  and  N2_16 
REMARK    6  A    between atoms: C9_11  and  C10_12 
REMARK       I    between atoms: N2_16  and  C14_18 
REMARK    7  A    between atoms: C14_18  and  C15_20 
REMARK    8  A    between atoms: C18_23  and  C19_24 
REMARK    9  A    between atoms: C19_24  and  N3_25 
ROOT
HETATM    1  C8  UNL     1       0.247   0.274   0.515  1.00  0.00     0.177 C 
ENDROOT
BRANCH   1   2
HETATM    2  C7  UNL     1      -0.465   0.265  -0.819  1.00  0.00     0.243 C 
HETATM    3  N1  UNL     1      -1.821   0.010  -0.968  1.00  0.00    -0.341 N 
HETATM    4  O1  UNL     1       0.234   0.501  -1.826  1.00  0.00    -0.271 OA
BRANCH   3   5
HETATM    5  C6  UNL     1      -2.665  -0.342   0.145  1.00  0.00     0.088 C 
HETATM    6  C5  UNL     1      -3.092  -1.786  -0.106  1.00  0.00     0.031 C 
HETATM    7  C4  UNL     1      -3.943  -2.273   1.004  1.00  0.00     0.005 A 
HETATM    8  C2  UNL     1      -5.396  -2.484   0.686  1.00  0.00    -0.036 A 
HETATM    9  C29 UNL     1      -4.897  -1.334   1.578  1.00  0.00    -0.032 A 
HETATM   10  C1  UNL     1      -5.964  -2.172  -0.659  1.00  0.00     0.016 C 
HETATM   11  C3  UNL     1      -6.034  -3.678   1.357  1.00  0.00     0.016 C 
HETATM   12  C28 UNL     1      -5.015   0.011   0.998  1.00  0.00     0.012 C 
HETATM   13  C30 UNL     1      -5.263  -1.540   3.055  1.00  0.00     0.016 C 
HETATM   14  C27 UNL     1      -3.850   0.574   0.300  1.00  0.00     0.026 C 
ENDBRANCH   3   5
BRANCH   3  15
HETATM   15  C22 UNL     1      -2.379   0.100  -2.325  1.00  0.00     0.087 C 
HETATM   16  C23 UNL     1      -2.168   1.373  -2.997  1.00  0.00     0.025 C 
HETATM   17  C24 UNL     1      -1.918   1.145  -4.462  1.00  0.00     0.002 C 
HETATM   18  C25 UNL     1      -1.431  -0.258  -4.498  1.00  0.00     0.002 C 
HETATM   19  C26 UNL     1      -1.737  -0.929  -3.201  1.00  0.00     0.025 C 
ENDBRANCH   3  15
ENDBRANCH   1   2
BRANCH   1  20
HETATM   20  C9  UNL     1      -0.066   1.526   1.300  1.00  0.00     0.039 C 
BRANCH  20  21
HETATM   21  C10 UNL     1       0.552   1.525   2.657  1.00  0.00    -0.012 C 
HETATM   22  C11 UNL     1       0.169   2.778   3.469  1.00  0.00     0.005 C 
HETATM   23  C12 UNL     1       1.558   2.647   4.097  1.00  0.00     0.001 C 
HETATM   24  C13 UNL     1       1.956   2.012   2.748  1.00  0.00     0.005 C 
ENDBRANCH  20  21
ENDBRANCH   1  20
BRANCH   1  25
HETATM   25  N2  UNL     1       1.661   0.064   0.293  1.00  0.00    -0.347 N 
HETATM   26  C14 UNL     1       2.584   0.917  -0.336  1.00  0.00     0.222 C 
HETATM   27  O2  UNL     1       2.219   2.036  -0.774  1.00  0.00    -0.273 OA
ATOM     28  H2  UNL     1       2.037  -0.819   0.638  1.00  0.00     0.163 HD
BRANCH  26  29
HETATM   29  C15 UNL     1       4.008   0.509  -0.503  1.00  0.00     0.078 C 
HETATM   30  C16 UNL     1       4.783   1.596  -1.187  1.00  0.00     0.014 C 
HETATM   31  C17 UNL     1       6.064   0.955  -1.709  1.00  0.00     0.007 C 
HETATM   32  C18 UNL     1       6.840   0.420  -0.554  1.00  0.00     0.011 C 
HETATM   33  C20 UNL     1       6.067  -0.381   0.438  1.00  0.00     0.007 C 
HETATM   34  C21 UNL     1       4.702   0.160   0.765  1.00  0.00     0.014 C 
BRANCH  32  35
HETATM   35  C19 UNL     1       7.924  -0.493  -1.140  1.00  0.00     0.234 C 
BRANCH  35  36
HETATM   36  N3  UNL     1       8.735  -1.066  -0.083  1.00  0.00    -0.079 N 
ATOM     37  H33 UNL     1       9.132  -0.347   0.522  1.00  0.00     0.274 HD
ATOM     38  H32 UNL     1       8.166  -1.551   0.610  1.00  0.00     0.274 HD
ATOM     39  H31 UNL     1       9.456  -1.673  -0.473  1.00  0.00     0.274 HD
ENDBRANCH  35  36
ENDBRANCH  32  35
ENDBRANCH  26  29
ENDBRANCH   1  25
TORSDOF 9
