REMARK  9 active torsions:
REMARK  status: ('A' for Active; 'I' for Inactive)
REMARK    1  A    between atoms: C2_2  and  C4_4 
REMARK    2  A    between atoms: C4_4  and  C5_5 
REMARK    3  A    between atoms: C4_4  and  C19_23 
REMARK    4  A    between atoms: C5_5  and  C6_6 
REMARK    5  A    between atoms: C6_6  and  N1_7 
REMARK    6  A    between atoms: C9_10  and  N2_11 
REMARK       I    between atoms: N2_11  and  C10_13 
REMARK    7  A    between atoms: C10_13  and  C11_15 
REMARK    8  A    between atoms: C19_23  and  N3_24 
REMARK       I    between atoms: N3_24  and  C20_26 
REMARK    9  A    between atoms: C20_26  and  C21_28 
ROOT
HETATM    1  C4  UNL     1      -1.454  -1.332  -1.075  1.00  0.00    -0.039 C 
ENDROOT
BRANCH   1   2
HETATM    2  C2  UNL     1      -1.617  -2.609  -0.853  1.00  0.00    -0.080 C 
HETATM    3  C1  UNL     1      -0.463  -3.561  -1.169  1.00  0.00     0.043 C 
HETATM    4  C3  UNL     1      -2.815  -3.290  -0.294  1.00  0.00     0.043 C 
ENDBRANCH   1   2
BRANCH   1   5
HETATM    5  C5  UNL     1      -0.056  -0.961  -1.649  1.00  0.00     0.070 C 
BRANCH   5   6
HETATM    6  C6  UNL     1       0.629  -0.183  -0.590  1.00  0.00     0.277 C 
BRANCH   6   7
HETATM    7  N1  UNL     1       1.974   0.232  -0.964  1.00  0.00     0.089 N 
HETATM    8  C7  UNL     1       2.799  -0.948  -1.055  1.00  0.00     0.274 C 
HETATM    9  C8  UNL     1       4.255  -0.663  -1.152  1.00  0.00     0.056 C 
HETATM   10  C9  UNL     1       4.713   0.546  -0.404  1.00  0.00     0.091 C 
HETATM   11  C16 UNL     1       3.715   0.826   0.694  1.00  0.00     0.032 C 
HETATM   12  C17 UNL     1       3.599  -0.284   1.685  1.00  0.00     0.014 C 
HETATM   13  C18 UNL     1       2.414   1.160   0.046  1.00  0.00     0.278 C 
BRANCH  10  14
HETATM   14  N2  UNL     1       6.059   0.423   0.099  1.00  0.00    -0.356 N 
HETATM   15  C10 UNL     1       7.081   1.332  -0.274  1.00  0.00     0.222 C 
HETATM   16  O1  UNL     1       6.790   2.265  -1.062  1.00  0.00    -0.273 OA
ATOM     17  H2  UNL     1       6.282  -0.338   0.740  1.00  0.00     0.162 HD
BRANCH  15  18
HETATM   18  C11 UNL     1       8.454   1.216   0.228  1.00  0.00     0.078 C 
HETATM   19  C12 UNL     1       9.357   2.312  -0.291  1.00  0.00     0.014 C 
HETATM   20  C13 UNL     1      10.728   1.776   0.106  1.00  0.00     0.001 C 
HETATM   21  C14 UNL     1      10.605   0.272  -0.002  1.00  0.00     0.001 C 
HETATM   22  C15 UNL     1       9.155  -0.026  -0.304  1.00  0.00     0.014 C 
ENDBRANCH  15  18
ENDBRANCH  10  14
ENDBRANCH   6   7
ENDBRANCH   5   6
ENDBRANCH   1   5
BRANCH   1  23
HETATM   23  C19 UNL     1      -2.375  -0.244  -0.909  1.00  0.00     0.098 C 
BRANCH  23  24
HETATM   24  N3  UNL     1      -3.699  -0.401  -0.494  1.00  0.00    -0.336 N 
HETATM   25  C20 UNL     1      -4.553   0.781  -0.342  1.00  0.00     0.230 C 
HETATM   26  O2  UNL     1      -4.031   1.877  -0.600  1.00  0.00    -0.272 OA
ATOM     27  H3  UNL     1      -4.069  -1.331  -0.298  1.00  0.00     0.168 HD
BRANCH  25  28
HETATM   28  C21 UNL     1      -5.946   0.698   0.087  1.00  0.00     0.042 C 
HETATM   29  C22 UNL     1      -6.704  -0.148  -0.921  1.00  0.00     0.024 C 
HETATM   30  C23 UNL     1      -8.152  -0.191  -0.522  1.00  0.00    -0.013 C 
HETATM   31  C24 UNL     1      -8.339  -0.832   0.834  1.00  0.00     0.009 C 
HETATM   32  C28 UNL     1      -8.746   1.189  -0.463  1.00  0.00     0.009 C 
HETATM   33  C25 UNL     1      -7.515  -0.059   1.839  1.00  0.00    -0.013 C 
HETATM   34  C26 UNL     1      -8.037   1.348   1.934  1.00  0.00     0.009 C 
HETATM   35  C30 UNL     1      -6.075  -0.016   1.417  1.00  0.00     0.024 C 
HETATM   36  C27 UNL     1      -7.998   1.980   0.567  1.00  0.00    -0.013 C 
HETATM   37  C29 UNL     1      -6.548   2.063   0.112  1.00  0.00     0.024 C 
ENDBRANCH  25  28
ENDBRANCH  23  24
ENDBRANCH   1  23
TORSDOF 9
