REMARK  7 active torsions:
REMARK  status: ('A' for Active; 'I' for Inactive)
REMARK    1  A    between atoms: O1_1  and  C1_3 
REMARK    2  A    between atoms: C3_5  and  C4_6 
REMARK    3  A    between atoms: C4_6  and  O2_7 
REMARK    4  A    between atoms: C4_6  and  N1_9 
REMARK    5  A    between atoms: N2_22  and  C14_23 
REMARK    6  A    between atoms: C14_23  and  C15_24 
REMARK    7  A    between atoms: C15_24  and  N3_25 
ROOT
HETATM    1  C4  UNL     1      -1.918  -0.030  -1.596  1.00  0.00     0.256 C 
ENDROOT
BRANCH   1   2
HETATM    2  C3  UNL     1      -0.534  -0.507  -1.356  1.00  0.00     0.010 A 
HETATM    3  C2  UNL     1       0.350  -0.811  -2.362  1.00  0.00     0.069 A 
HETATM    4  C1  UNL     1       1.530  -1.229  -1.731  1.00  0.00     0.142 A 
HETATM    5  N2  UNL     1       1.384  -1.184  -0.419  1.00  0.00    -0.336 N 
HETATM    6  C13 UNL     1       0.126  -0.745  -0.178  1.00  0.00     0.104 A 
BRANCH   4   7
HETATM    7  O1  UNL     1       2.655  -1.620  -2.489  1.00  0.00    -0.346 OA
ATOM      8  H1  UNL     1       3.455  -1.903  -2.061  1.00  0.00     0.219 HD
ENDBRANCH   4   7
BRANCH   5   9
HETATM    9  C14 UNL     1       2.395  -1.534   0.568  1.00  0.00     0.160 C 
BRANCH   9  10
HETATM   10  C15 UNL     1       3.241  -0.435   1.041  1.00  0.00     0.292 C 
BRANCH  10  11
HETATM   11  N3  UNL     1       4.066   0.278   0.188  1.00  0.00     0.090 N 
HETATM   12  C16 UNL     1       5.214  -0.224  -0.421  1.00  0.00     0.274 C 
HETATM   13  C17 UNL     1       6.033   0.868   0.234  1.00  0.00     0.060 C 
HETATM   14  C18 UNL     1       4.693   1.489   0.560  1.00  0.00     0.274 C 
ENDBRANCH  10  11
ENDBRANCH   9  10
ENDBRANCH   5   9
ENDBRANCH   1   2
BRANCH   1  15
HETATM   15  O2  UNL     1      -1.779   0.938  -2.637  1.00  0.00    -0.372 OA
ATOM     16  H2  UNL     1      -2.665   1.243  -2.791  1.00  0.00     0.212 HD
ENDBRANCH   1  15
BRANCH   1  17
HETATM   17  N1  UNL     1      -2.544   0.566  -0.451  1.00  0.00    -0.346 N 
HETATM   18  C5  UNL     1      -2.018   1.788   0.109  1.00  0.00     0.153 C 
HETATM   19  C6  UNL     1      -2.804   2.359   1.236  1.00  0.00     0.195 C 
HETATM   20  O3  UNL     1      -4.190   2.037   1.199  1.00  0.00    -0.347 OA
HETATM   21  C7  UNL     1      -4.526   0.712   0.989  1.00  0.00     0.097 A 
HETATM   22  C8  UNL     1      -5.640   0.178   1.589  1.00  0.00     0.064 A 
HETATM   23  C12 UNL     1      -3.685  -0.031   0.149  1.00  0.00     0.068 A 
HETATM   24  C9  UNL     1      -5.951  -1.167   1.354  1.00  0.00     0.058 A 
HETATM   25 CL1  UNL     1      -7.367  -1.810   2.129  1.00  0.00    -0.082 Cl
HETATM   26  C10 UNL     1      -5.120  -1.897   0.527  1.00  0.00     0.058 A 
HETATM   27 CL2  UNL     1      -5.544  -3.582   0.256  1.00  0.00    -0.082 Cl
HETATM   28  C11 UNL     1      -4.006  -1.347  -0.068  1.00  0.00     0.057 A 
ENDBRANCH   1  17
TORSDOF 7
