REMARK  7 active torsions:
REMARK  status: ('A' for Active; 'I' for Inactive)
REMARK    1  A    between atoms: C2_2  and  N1_3 
REMARK    2  A    between atoms: N1_3  and  C3_4 
REMARK       I    between atoms: N1_3  and  C14_22 
REMARK    3  A    between atoms: C3_4  and  C4_5 
REMARK    4  A    between atoms: C5_6  and  O1_7 
REMARK    5  A    between atoms: N2_9  and  C6_10 
REMARK    6  A    between atoms: C6_10  and  C7_11 
REMARK    7  A    between atoms: C14_22  and  O4_24 
ROOT
HETATM    1  C4  UNL     1       0.588   0.516   0.236  1.00  0.00     0.043 A 
HETATM    2  C5  UNL     1       1.918   0.980   0.141  1.00  0.00     0.156 A 
HETATM    3  N2  UNL     1       2.770  -0.010   0.447  1.00  0.00    -0.317 N 
HETATM    4  C8  UNL     1       2.108  -1.130   0.751  1.00  0.00     0.070 A 
HETATM    5  C9  UNL     1       2.503  -2.383   1.138  1.00  0.00     0.063 A 
HETATM    6 CL1  UNL     1       4.181  -2.791   1.340  1.00  0.00    -0.082 Cl
HETATM    7  C10 UNL     1       1.568  -3.387   1.418  1.00  0.00     0.050 A 
HETATM    8  C11 UNL     1       0.258  -3.057   1.287  1.00  0.00     0.036 A 
HETATM    9 CL2  UNL     1      -0.982  -4.242   1.631  1.00  0.00    -0.084 Cl
HETATM   10  C12 UNL     1      -0.171  -1.805   0.899  1.00  0.00     0.038 A 
HETATM   11  C13 UNL     1       0.733  -0.791   0.616  1.00  0.00     0.010 A 
ENDROOT
BRANCH   1  12
HETATM   12  C3  UNL     1      -0.576   1.350  -0.032  1.00  0.00     0.113 C 
BRANCH  12  13
HETATM   13  N1  UNL     1      -1.881   0.855   0.061  1.00  0.00    -0.303 N 
HETATM   14  C14 UNL     1      -2.600   0.243  -1.024  1.00  0.00     0.366 C 
HETATM   15  O3  UNL     1      -2.034   0.108  -2.142  1.00  0.00    -0.238 OA
BRANCH  13  16
HETATM   16  C2  UNL     1      -2.598   0.997   1.329  1.00  0.00     0.129 C 
HETATM   17  C1  UNL     1      -3.345   2.302   1.412  1.00  0.00     0.027 C 
ENDBRANCH  13  16
BRANCH  14  18
HETATM   18  O4  UNL     1      -3.894  -0.214  -0.914  1.00  0.00    -0.309 OA
HETATM   19  C15 UNL     1      -4.634  -0.827  -1.950  1.00  0.00     0.215 C 
ENDBRANCH  14  18
ENDBRANCH  12  13
ENDBRANCH   1  12
BRANCH   2  20
HETATM   20  O1  UNL     1       2.203   2.281  -0.223  1.00  0.00    -0.345 OA
ATOM     21  H1  UNL     1       3.098   2.593  -0.287  1.00  0.00     0.219 HD
ENDBRANCH   2  20
BRANCH   3  22
HETATM   22  C6  UNL     1       4.192   0.192   0.469  1.00  0.00     0.223 C 
BRANCH  22  23
HETATM   23  C7  UNL     1       4.858   0.141  -0.848  1.00  0.00     0.215 C 
HETATM   24  O2  UNL     1       5.103  -0.875  -1.432  1.00  0.00    -0.283 OA
HETATM   25  S1  UNL     1       5.385   1.642  -1.732  1.00  0.00    -0.010 SA
ENDBRANCH  22  23
ENDBRANCH   3  22
TORSDOF 7
