REMARK  3 active torsions:
REMARK  status: ('A' for Active; 'I' for Inactive)
REMARK    1  A    between atoms: C2_2  and  C4_5 
REMARK    2  A    between atoms: C4_5  and  N2_9 
REMARK    3  A    between atoms: C5_11  and  C6_13 
ROOT
HETATM    1  N2  UNL     1       0.630  -0.181   0.297  1.00  0.00    -0.335 N 
ATOM      2  H2  UNL     1       0.448   0.685   0.804  1.00  0.00     0.168 HD
HETATM    3  C5  UNL     1      -0.284  -0.643  -0.488  1.00  0.00     0.098 C 
HETATM    4  N3  UNL     1      -0.065  -1.849  -1.212  1.00  0.00    -0.087 NA
ENDROOT
BRANCH   1   5
HETATM    5  C4  UNL     1       1.870  -0.826   0.482  1.00  0.00     0.115 C 
HETATM    6  N1  UNL     1       1.990  -2.084   0.747  1.00  0.00    -0.386 N 
ATOM      7  H12 UNL     1       2.887  -2.551   0.881  1.00  0.00     0.157 HD
ATOM      8  H11 UNL     1       1.122  -2.616   0.820  1.00  0.00     0.157 HD
BRANCH   5   9
HETATM    9  C2  UNL     1       3.138  -0.049   0.376  1.00  0.00     0.153 C 
HETATM   10  C1  UNL     1       3.175   0.527  -1.024  1.00  0.00     0.060 C 
HETATM   11  C3  UNL     1       3.217   1.027   1.438  1.00  0.00     0.060 C 
HETATM   12  F1  UNL     1       4.254  -0.852   0.506  1.00  0.00    -0.235 F 
ENDBRANCH   5   9
ENDBRANCH   1   5
BRANCH   3  13
HETATM   13  C6  UNL     1      -1.568   0.038  -0.671  1.00  0.00     0.050 C 
HETATM   14  C7  UNL     1      -1.721   1.293   0.120  1.00  0.00     0.012 C 
HETATM   15  C8  UNL     1      -3.230   1.449   0.162  1.00  0.00     0.001 C 
HETATM   16  C9  UNL     1      -3.645   0.033   0.583  1.00  0.00     0.001 C 
HETATM   17  C10 UNL     1      -2.757  -0.817  -0.319  1.00  0.00     0.012 C 
ENDBRANCH   3  13
TORSDOF 3
