REMARK  2 active torsions:
REMARK  status: ('A' for Active; 'I' for Inactive)
REMARK    1  A    between atoms: C2_2  and  C4_4 
REMARK    2  A    between atoms: C7_7  and  C8_8 
ROOT
HETATM    1  C4  UNL     1      -0.992  -0.050  -0.346  1.00  0.00     0.010 C 
HETATM    2  C5  UNL     1      -1.806   0.479  -1.537  1.00  0.00     0.023 C 
HETATM    3  C6  UNL     1       0.315   0.705  -0.227  1.00  0.00     0.028 C 
HETATM    4  C7  UNL     1       1.344  -0.256   0.326  1.00  0.00     0.051 C 
HETATM    5  C9  UNL     1       1.779  -1.124  -0.863  1.00  0.00     0.015 C 
HETATM    6  C10 UNL     1       0.507  -1.488  -1.597  1.00  0.00     0.039 C 
HETATM    7  C11 UNL     1      -0.691  -1.483  -0.637  1.00  0.00     0.182 C 
HETATM    8  F1  UNL     1      -1.738  -2.055  -1.371  1.00  0.00    -0.248 F 
ENDROOT
BRANCH   4   9
HETATM    9  C8  UNL     1       2.479   0.407   0.960  1.00  0.00     0.090 C 
HETATM   10  N1  UNL     1       2.789   0.233   2.194  1.00  0.00    -0.391 N 
ATOM     11  H12 UNL     1       2.197  -0.402   2.730  1.00  0.00     0.157 HD
ATOM     12  H11 UNL     1       3.582   0.696   2.637  1.00  0.00     0.157 HD
HETATM   13  N2  UNL     1       3.301   1.289   0.216  1.00  0.00    -0.088 NA
ENDBRANCH   4   9
BRANCH   1  14
HETATM   14  C2  UNL     1      -1.778   0.199   0.865  1.00  0.00    -0.082 C 
HETATM   15  C1  UNL     1      -2.206  -0.721   1.695  1.00  0.00     0.015 C 
HETATM   16  C3  UNL     1      -2.105   1.643   1.151  1.00  0.00     0.043 C 
ENDBRANCH   1  14
TORSDOF 2
