REMARK  1 active torsions:
REMARK  status: ('A' for Active; 'I' for Inactive)
REMARK    1  A    between atoms: C1_4  and  C2_6 
ROOT
HETATM    1  C2  UNL     1       0.894   0.051  -0.080  1.00  0.00     0.016 C 
HETATM    2  C3  UNL     1       0.403  -0.506  -1.364  1.00  0.00     0.021 C 
HETATM    3  C4  UNL     1      -1.107  -0.637  -1.332  1.00  0.00    -0.013 C 
HETATM    4  C5  UNL     1      -1.688   0.744  -1.183  1.00  0.00     0.009 C 
HETATM    5  C6  UNL     1      -1.193   1.304   0.136  1.00  0.00    -0.013 C 
HETATM    6  C7  UNL     1      -1.677   0.414   1.227  1.00  0.00     0.009 C 
HETATM    7  C8  UNL     1      -1.013  -0.951   1.130  1.00  0.00    -0.013 C 
HETATM    8  C9  UNL     1      -1.459  -1.553  -0.187  1.00  0.00     0.009 C 
HETATM    9  C10 UNL     1       0.473  -0.767   1.124  1.00  0.00     0.021 C 
HETATM   10  C11 UNL     1       0.296   1.432   0.111  1.00  0.00     0.021 C 
ENDROOT
BRANCH   1  11
HETATM   11  C1  UNL     1       2.380   0.111  -0.080  1.00  0.00     0.095 C 
HETATM   12  N1  UNL     1       3.012  -0.211  -1.137  1.00  0.00    -0.390 N 
ATOM     13  H12 UNL     1       4.031  -0.170  -1.137  1.00  0.00     0.157 HD
ATOM     14  H11 UNL     1       2.498  -0.509  -1.966  1.00  0.00     0.157 HD
HETATM   15  N2  UNL     1       3.100   0.528   1.080  1.00  0.00    -0.087 NA
ENDBRANCH   1  11
TORSDOF 1
