REMARK  11 active torsions:
REMARK  status: ('A' for Active; 'I' for Inactive)
REMARK    1  A    between atoms: C2_2  and  C3_3 
REMARK    2  A    between atoms: C2_2  and  N4_36 
REMARK    3  A    between atoms: C3_3  and  N1_4 
REMARK    4  A    between atoms: N1_4  and  C4_7 
REMARK    5  A    between atoms: C4_7  and  C6_10 
REMARK    6  A    between atoms: C6_10  and  C7_12 
REMARK    7  A    between atoms: C14_19  and  N3_20 
REMARK    8  A    between atoms: C25_31  and  O2_32 
REMARK    9  A    between atoms: C30_39  and  C31_40 
REMARK   10  A    between atoms: C31_40  and  C32_41 
REMARK   11  A    between atoms: C32_41  and  N5_42 
ROOT
HETATM    1  C4  UNL     1       0.728  -0.747   0.163  1.00  0.00     0.360 C 
HETATM    2  C5  UNL     1       1.598  -1.611  -0.817  1.00  0.00     0.100 C 
HETATM    3  N2  UNL     1       2.236  -2.234  -1.564  1.00  0.00    -0.195 NA
ENDROOT
BRANCH   1   4
HETATM    4  N1  UNL     1       0.810   0.576  -0.536  1.00  0.00    -0.050 N 
ATOM      5  H12 UNL     1       0.264   1.306  -0.078  1.00  0.00     0.279 HD
ATOM      6  H11 UNL     1       0.319   0.588  -1.430  1.00  0.00     0.279 HD
BRANCH   4   7
HETATM    7  C3  UNL     1       2.213   0.904  -0.653  1.00  0.00     0.269 C 
BRANCH   7   8
HETATM    8  C2  UNL     1       2.883   1.176   0.630  1.00  0.00     0.244 C 
HETATM    9  C1  UNL     1       2.353   2.376   1.350  1.00  0.00     0.045 C 
BRANCH   8  10
HETATM   10  N4  UNL     1       4.322   1.268   0.494  1.00  0.00     0.094 N 
HETATM   11  C28 UNL     1       4.663   0.894  -0.891  1.00  0.00     0.273 C 
HETATM   12  C29 UNL     1       6.121   1.045  -1.004  1.00  0.00     0.035 C 
HETATM   13  C30 UNL     1       6.835  -0.027  -0.191  1.00  0.00    -0.010 C 
HETATM   14  C38 UNL     1       5.803  -0.642   0.786  1.00  0.00     0.035 C 
HETATM   15  C39 UNL     1       5.049   0.483   1.426  1.00  0.00     0.273 C 
BRANCH  13  16
HETATM   16  C31 UNL     1       7.262  -1.149  -1.095  1.00  0.00     0.024 C 
BRANCH  16  17
HETATM   17  C32 UNL     1       8.252  -2.098  -0.408  1.00  0.00     0.122 C 
BRANCH  17  18
HETATM   18  N5  UNL     1       9.339  -1.190  -0.025  1.00  0.00    -0.390 N 
HETATM   19  C33 UNL     1       9.977  -0.565  -1.133  1.00  0.00     0.152 C 
HETATM   20  C34 UNL     1      10.493   0.786  -0.618  1.00  0.00     0.292 C 
HETATM   21  N6  UNL     1      11.305   0.574   0.539  1.00  0.00     0.090 N 
HETATM   22  C35 UNL     1      12.596   1.176   0.253  1.00  0.00     0.310 C 
HETATM   23  C36 UNL     1      11.529  -0.819   0.863  1.00  0.00     0.316 C 
HETATM   24  C37 UNL     1      10.234  -1.614   0.967  1.00  0.00     0.088 C 
ENDBRANCH  17  18
ENDBRANCH  16  17
ENDBRANCH  13  16
ENDBRANCH   8  10
ENDBRANCH   7   8
ENDBRANCH   4   7
ENDBRANCH   1   4
BRANCH   1  25
HETATM   25  C6  UNL     1      -0.572  -1.392   0.000  1.00  0.00     0.176 C 
HETATM   26  O1  UNL     1      -0.779  -2.205  -0.921  1.00  0.00    -0.294 OA
BRANCH  25  27
HETATM   27  C7  UNL     1      -1.734  -1.058   0.903  1.00  0.00     0.070 C 
HETATM   28  C8  UNL     1      -2.586  -2.289   1.077  1.00  0.00     0.013 C 
HETATM   29  C9  UNL     1      -3.803  -2.059   0.222  1.00  0.00     0.007 C 
HETATM   30  C10 UNL     1      -3.989  -0.587   0.438  1.00  0.00     0.002 C 
HETATM   31  C11 UNL     1      -5.001   0.031  -0.458  1.00  0.00     0.000 C 
HETATM   32  C26 UNL     1      -2.591  -0.045   0.147  1.00  0.00    -0.004 C 
HETATM   33  C12 UNL     1      -6.285   0.238   0.354  1.00  0.00     0.001 C 
HETATM   34  C23 UNL     1      -4.816   1.532  -0.432  1.00  0.00     0.001 C 
HETATM   35  C13 UNL     1      -7.365  -0.588  -0.323  1.00  0.00     0.041 C 
HETATM   36  C21 UNL     1      -6.289   1.659  -0.117  1.00  0.00    -0.036 C 
HETATM   37  C14 UNL     1      -8.679   0.083  -0.087  1.00  0.00     0.223 C 
HETATM   38  C19 UNL     1      -8.632   1.339  -0.988  1.00  0.00     0.036 C 
HETATM   39  C20 UNL     1      -7.200   1.742  -1.297  1.00  0.00     0.012 C 
HETATM   40  C22 UNL     1      -6.612   2.718   0.913  1.00  0.00     0.016 C 
HETATM   41  C24 UNL     1      -3.945   1.940   0.733  1.00  0.00     0.038 C 
HETATM   42  C25 UNL     1      -2.580   1.332   0.746  1.00  0.00     0.128 C 
HETATM   43  C27 UNL     1      -2.343   0.098  -1.304  1.00  0.00     0.019 C 
BRANCH  37  44
HETATM   44  N3  UNL     1      -9.723  -0.816  -0.613  1.00  0.00     0.093 N 
HETATM   45  C15 UNL     1      -9.552  -2.134   0.028  1.00  0.00     0.273 C 
HETATM   46  C16 UNL     1     -10.941  -2.701  -0.219  1.00  0.00     0.032 C 
HETATM   47  C17 UNL     1     -11.758  -1.570   0.430  1.00  0.00     0.032 C 
HETATM   48  C18 UNL     1     -11.008  -0.362  -0.046  1.00  0.00     0.273 C 
ENDBRANCH  37  44
BRANCH  42  49
HETATM   49  O2  UNL     1      -2.070   1.314   2.037  1.00  0.00    -0.395 OA
ATOM     50  H2  UNL     1      -1.202   0.927   2.045  1.00  0.00     0.210 HD
ENDBRANCH  42  49
ENDBRANCH  25  27
ENDBRANCH   1  25
TORSDOF 11
