REMARK  13 active torsions:
REMARK  status: ('A' for Active; 'I' for Inactive)
REMARK    1  A    between atoms: C2_2  and  C3_3 
REMARK    2  A    between atoms: C3_3  and  C5_5 
REMARK    3  A    between atoms: C5_5  and  O2_7 
REMARK    4  A    between atoms: O2_7  and  C6_8 
REMARK    5  A    between atoms: C14_16  and  O3_17 
REMARK    6  A    between atoms: O3_17  and  C15_18 
REMARK    7  A    between atoms: C19_23  and  N1_24 
REMARK    8  A    between atoms: C22_27  and  O5_28 
REMARK    9  A    between atoms: C23_30  and  C24_31 
REMARK   10  A    between atoms: C26_33  and  O6_34 
REMARK   11  A    between atoms: C31_40  and  O7_41 
REMARK   12  A    between atoms: C36_47  and  C37_48 
REMARK   13  A    between atoms: C37_48  and  C38_49 
ROOT
HETATM    1  C6  UNL     1       3.596   0.759   0.268  1.00  0.00     0.141 C 
HETATM    2  C7  UNL     1       3.143   1.181   1.633  1.00  0.00     0.067 C 
HETATM    3  C8  UNL     1       1.891   0.568   2.122  1.00  0.00    -0.077 C 
HETATM    4  C9  UNL     1       2.069  -0.080   3.507  1.00  0.00     0.044 C 
HETATM    5  C10 UNL     1       1.024  -0.260   1.173  1.00  0.00    -0.058 C 
HETATM    6  C11 UNL     1      -0.285   0.445   0.869  1.00  0.00     0.004 C 
HETATM    7  C12 UNL     1      -0.624   1.234   2.171  1.00  0.00     0.022 C 
HETATM    8  C13 UNL     1      -0.132   1.611  -0.090  1.00  0.00     0.022 C 
HETATM    9  C14 UNL     1      -1.578  -0.267   0.644  1.00  0.00     0.143 C 
HETATM   10  C23 UNL     1      -1.824  -1.567   1.270  1.00  0.00     0.048 C 
HETATM   11  C26 UNL     1      -2.680  -2.541   0.494  1.00  0.00     0.153 C 
HETATM   12  C27 UNL     1      -1.969  -3.809   0.041  1.00  0.00    -0.055 C 
HETATM   13  C28 UNL     1      -1.498  -4.709   1.101  1.00  0.00     0.046 C 
HETATM   14  C29 UNL     1      -1.121  -3.558  -1.138  1.00  0.00     0.003 C 
HETATM   15  C30 UNL     1       0.159  -3.455  -1.324  1.00  0.00     0.005 C 
HETATM   16  C31 UNL     1       1.398  -3.511  -0.624  1.00  0.00     0.145 C 
HETATM   17  C32 UNL     1       1.959  -2.539   0.326  1.00  0.00     0.027 C 
HETATM   18  C33 UNL     1       2.039  -3.027   1.782  1.00  0.00     0.014 C 
HETATM   19  C34 UNL     1       1.786  -1.045   0.171  1.00  0.00    -0.007 C 
HETATM   20  C35 UNL     1       1.409  -0.798  -1.274  1.00  0.00     0.021 C 
HETATM   21  C36 UNL     1       3.283  -0.615   0.076  1.00  0.00     0.038 C 
ENDROOT
BRANCH   9  22
HETATM   22  O3  UNL     1      -2.189  -0.058  -0.618  1.00  0.00    -0.352 OA
BRANCH  22  23
HETATM   23  C15 UNL     1      -3.240   0.766  -0.724  1.00  0.00     0.291 C 
HETATM   24  O4  UNL     1      -2.939   1.734  -1.701  1.00  0.00    -0.354 OA
HETATM   25  C16 UNL     1      -3.833   2.740  -1.830  1.00  0.00     0.122 C 
HETATM   26  C17 UNL     1      -3.105   4.056  -1.519  1.00  0.00     0.040 C 
HETATM   27  C18 UNL     1      -5.085   2.687  -1.032  1.00  0.00     0.070 C 
HETATM   28  C19 UNL     1      -5.602   1.298  -0.781  1.00  0.00     0.257 C 
HETATM   29  C22 UNL     1      -4.574   0.262  -1.200  1.00  0.00     0.206 C 
BRANCH  28  30
HETATM   30  N1  UNL     1      -6.922   1.034  -1.228  1.00  0.00     0.087 N 
HETATM   31  C20 UNL     1      -7.176   1.129  -2.624  1.00  0.00     0.310 C 
HETATM   32  C21 UNL     1      -7.928   1.755  -0.465  1.00  0.00     0.310 C 
ENDBRANCH  28  30
BRANCH  29  33
HETATM   33  O5  UNL     1      -4.605   0.209  -2.610  1.00  0.00    -0.388 OA
ATOM     34  H5  UNL     1      -5.448  -0.109  -2.911  1.00  0.00     0.210 HD
ENDBRANCH  29  33
ENDBRANCH  22  23
ENDBRANCH   9  22
BRANCH  10  35
HETATM   35  C24 UNL     1      -2.447  -1.536   2.677  1.00  0.00     0.006 C 
HETATM   36  C25 UNL     1      -3.752  -0.895   2.795  1.00  0.00     0.006 C 
ENDBRANCH  10  35
BRANCH  11  37
HETATM   37  O6  UNL     1      -3.828  -2.933   1.170  1.00  0.00    -0.391 OA
ATOM     38  H6  UNL     1      -4.366  -3.545   0.682  1.00  0.00     0.210 HD
ENDBRANCH  11  37
BRANCH  21  39
HETATM   39  C37 UNL     1       4.019  -1.168  -1.061  1.00  0.00     0.121 C 
BRANCH  39  40
HETATM   40  C38 UNL     1       5.494  -1.246  -0.931  1.00  0.00     0.173 C 
HETATM   41  O8  UNL     1       6.140  -1.027   0.113  1.00  0.00    -0.648 OA
HETATM   42  O9  UNL     1       6.281  -1.593  -2.051  1.00  0.00    -0.648 OA
ENDBRANCH  39  40
ENDBRANCH  21  39
BRANCH   1  43
HETATM   43  O2  UNL     1       4.793   1.262  -0.136  1.00  0.00    -0.315 OA
BRANCH  43  44
HETATM   44  C5  UNL     1       5.051   2.260  -1.062  1.00  0.00     0.263 C 
HETATM   45  O1  UNL     1       3.969   2.707  -1.572  1.00  0.00    -0.265 OA
BRANCH  44  46
HETATM   46  C3  UNL     1       6.341   2.800  -1.467  1.00  0.00     0.081 C 
HETATM   47  C4  UNL     1       7.112   3.386  -0.274  1.00  0.00     0.020 C 
BRANCH  46  48
HETATM   48  C2  UNL     1       7.256   1.877  -2.214  1.00  0.00     0.010 C 
HETATM   49  C1  UNL     1       8.441   2.705  -2.683  1.00  0.00     0.006 C 
ENDBRANCH  46  48
ENDBRANCH  44  46
ENDBRANCH  43  44
ENDBRANCH   1  43
BRANCH  16  50
HETATM   50  O7  UNL     1       1.459  -4.767   0.053  1.00  0.00    -0.391 OA
ATOM     51  H7  UNL     1       2.285  -4.804   0.520  1.00  0.00     0.210 HD
ENDBRANCH  16  50
TORSDOF 13
