REMARK  2 active torsions:
REMARK  status: ('A' for Active; 'I' for Inactive)
REMARK    1  A    between atoms: C4_4  and  C5_5 
REMARK    2  A    between atoms: C5_5  and  N1_6 
ROOT
HETATM    1  C1  UNL     1      -2.724  -2.006  -0.511  1.00  0.00     0.068 C 
HETATM    2  C2  UNL     1      -2.034  -0.741  -0.126  1.00  0.00     0.007 A 
HETATM    3  C3  UNL     1      -0.666  -0.587  -0.081  1.00  0.00     0.036 A 
HETATM    4  C4  UNL     1      -0.368   0.715   0.316  1.00  0.00     0.005 A 
HETATM    5  C8  UNL     1      -1.575   1.329   0.505  1.00  0.00     0.124 A 
HETATM    6  N4  UNL     1      -1.726   2.690   0.921  1.00  0.00    -0.082 NA
HETATM    7  N5  UNL     1      -2.548   0.434   0.234  1.00  0.00    -0.348 N 
ATOM      8  H5  UNL     1      -3.547   0.631   0.297  1.00  0.00     0.167 HD
ENDROOT
BRANCH   4   9
HETATM    9  C5  UNL     1       0.988   1.297   0.491  1.00  0.00     0.192 C 
BRANCH   9  10
HETATM   10  N1  UNL     1       1.986   0.278   0.179  1.00  0.00    -0.282 N 
HETATM   11  C6  UNL     1       2.518   0.052  -1.033  1.00  0.00     0.201 A 
HETATM   12  N2  UNL     1       3.400  -0.953  -0.964  1.00  0.00    -0.346 N 
HETATM   13  C7  UNL     1       3.402  -1.346   0.322  1.00  0.00     0.198 A 
ATOM     14  H2  UNL     1       3.955  -1.340  -1.728  1.00  0.00     0.167 HD
HETATM   15  N3  UNL     1       2.533  -0.586   1.012  1.00  0.00    -0.293 N 
ATOM     16  H3  UNL     1       2.331  -0.664   2.009  1.00  0.00     0.188 HD
ENDBRANCH   9  10
ENDBRANCH   4   9
TORSDOF 2
