REMARK  4 active torsions:
REMARK  status: ('A' for Active; 'I' for Inactive)
REMARK    1  A    between atoms: C3_3  and  C4_4 
REMARK    2  A    between atoms: C4_4  and  N1_5 
REMARK    3  A    between atoms: N2_7  and  O1_8 
REMARK    4  A    between atoms: C6_10  and  N3_11 
ROOT
HETATM    1  N1  UNL     1      -0.303  -0.248   0.285  1.00  0.00    -0.327 N 
HETATM    2  C5  UNL     1      -0.407   0.844   1.093  1.00  0.00     0.236 A 
HETATM    3  N2  UNL     1      -1.587   1.410   1.357  1.00  0.00    -0.048 N 
HETATM    4  C6  UNL     1      -2.711   0.924   0.837  1.00  0.00     0.704 A 
HETATM    5  N4  UNL     1      -2.621  -0.154   0.037  1.00  0.00    -0.179 N 
ATOM      6  H4  UNL     1      -3.469  -0.545  -0.374  1.00  0.00     0.185 HD
HETATM    7  C7  UNL     1      -1.434  -0.726  -0.231  1.00  0.00     0.097 A 
HETATM    8  C8  UNL     1      -1.419  -1.912  -1.122  1.00  0.00     0.090 C 
ENDROOT
BRANCH   1   9
HETATM    9  C4  UNL     1       0.986  -0.839   0.016  1.00  0.00     0.158 C 
BRANCH   9  10
HETATM   10  C3  UNL     1       1.630  -0.238  -1.181  1.00  0.00    -0.011 C 
HETATM   11  C2  UNL     1       2.799   0.380  -1.144  1.00  0.00    -0.033 C 
HETATM   12  C1  UNL     1       3.601   0.547   0.088  1.00  0.00     0.036 C 
ENDBRANCH   9  10
ENDBRANCH   1   9
BRANCH   3  13
HETATM   13  O1  UNL     1      -1.630   2.513   2.183  1.00  0.00    -0.269 OA
ATOM     14  H1  UNL     1      -2.470   2.916   2.371  1.00  0.00     0.246 HD
ENDBRANCH   3  13
BRANCH   4  15
HETATM   15  N3  UNL     1      -3.832   1.490   1.110  1.00  0.00    -0.232 N 
ATOM     16  H32 UNL     1      -3.900   2.307   1.716  1.00  0.00     0.174 HD
ATOM     17  H31 UNL     1      -4.694   1.117   0.711  1.00  0.00     0.174 HD
ENDBRANCH   4  15
TORSDOF 4
