REMARK  2 active torsions:
REMARK  status: ('A' for Active; 'I' for Inactive)
REMARK    1  A    between atoms: N2_5  and  C4_6 
REMARK    2  A    between atoms: C4_6  and  C5_7 
ROOT
HETATM    1  C5  UNL     1       1.649   0.067   0.402  1.00  0.00     0.060 A 
HETATM    2  C6  UNL     1       1.885  -1.226   0.798  1.00  0.00     0.133 A 
HETATM    3  N3  UNL     1       2.834  -1.787   0.018  1.00  0.00    -0.200 N 
ATOM      4  H3  UNL     1       3.199  -2.736   0.093  1.00  0.00     0.183 HD
HETATM    5  C7  UNL     1       3.206  -0.851  -0.879  1.00  0.00     0.676 A 
HETATM    6  N4  UNL     1       4.099  -1.027  -1.793  1.00  0.00    -0.234 N 
ATOM      7  H41 UNL     1       4.380  -0.319  -2.471  1.00  0.00     0.174 HD
ATOM      8  H42 UNL     1       4.645  -1.869  -1.976  1.00  0.00     0.174 HD
HETATM    9  N5  UNL     1       2.480   0.270  -0.636  1.00  0.00    -0.193 N 
ATOM     10  H5  UNL     1       2.554   1.140  -1.164  1.00  0.00     0.184 HD
ENDROOT
BRANCH   1  11
HETATM   11  C4  UNL     1       0.676   1.007   1.016  1.00  0.00     0.188 C 
BRANCH  11  12
HETATM   12  N2  UNL     1      -0.624   0.925   0.405  1.00  0.00    -0.346 N 
HETATM   13  C3  UNL     1      -1.052   1.644  -0.645  1.00  0.00     0.109 A 
HETATM   14  C2  UNL     1      -2.341   1.296  -0.945  1.00  0.00     0.108 A 
HETATM   15  N1  UNL     1      -2.702   0.357  -0.072  1.00  0.00    -0.356 N 
HETATM   16  C1  UNL     1      -3.987  -0.342   0.027  1.00  0.00     0.156 C 
HETATM   17  C8  UNL     1      -1.643   0.133   0.755  1.00  0.00     0.185 A 
ENDBRANCH  11  12
ENDBRANCH   1  11
TORSDOF 2
