REMARK  3 active torsions:
REMARK  status: ('A' for Active; 'I' for Inactive)
REMARK    1  A    between atoms: N2_7  and  C5_9 
REMARK    2  A    between atoms: C5_9  and  C6_10 
REMARK    3  A    between atoms: N3_11  and  C7_13 
ROOT
HETATM    1  C1  UNL     1      -4.346   0.737   0.046  1.00  0.00     0.070 C 
HETATM    2  C2  UNL     1      -2.932   0.295   0.174  1.00  0.00     0.024 A 
HETATM    3  C3  UNL     1      -2.002   0.509  -0.820  1.00  0.00     0.114 A 
HETATM    4  N1  UNL     1      -0.725   0.092  -0.665  1.00  0.00    -0.346 N 
ATOM      5  H1  UNL     1      -0.064   0.268  -1.422  1.00  0.00     0.167 HD
HETATM    6  C4  UNL     1      -0.280  -0.542   0.432  1.00  0.00     0.171 A 
HETATM    7  N2  UNL     1       0.935  -0.946   0.593  1.00  0.00    -0.367 N 
ATOM      8  H2  UNL     1       1.197  -1.421   1.457  1.00  0.00     0.161 HD
HETATM    9  C8  UNL     1      -1.235  -0.753   1.434  1.00  0.00     0.289 A 
HETATM   10  O1  UNL     1      -0.825  -1.348   2.468  1.00  0.00    -0.264 OA
HETATM   11  N5  UNL     1      -2.501  -0.338   1.279  1.00  0.00    -0.323 N 
ATOM     12  H5  UNL     1      -3.166  -0.510   2.033  1.00  0.00     0.169 HD
ENDROOT
BRANCH   7  13
HETATM   13  C5  UNL     1       1.916  -0.737  -0.419  1.00  0.00     0.165 C 
BRANCH  13  14
HETATM   14  C6  UNL     1       2.367   0.675  -0.362  1.00  0.00     0.081 C 
HETATM   15  N3  UNL     1       3.598   0.958  -0.568  1.00  0.00    -0.365 N 
ATOM     16  H3  UNL     1       3.918   1.926  -0.531  1.00  0.00     0.165 HD
BRANCH  15  17
HETATM   17  C7  UNL     1       4.509  -0.084  -0.847  1.00  0.00     0.172 C 
HETATM   18  N4  UNL     1       5.403  -0.392   0.017  1.00  0.00    -0.395 N 
ATOM     19  H42 UNL     1       5.443   0.122   0.897  1.00  0.00     0.156 HD
ATOM     20  H41 UNL     1       6.061  -1.145  -0.185  1.00  0.00     0.156 HD
ENDBRANCH  15  17
ENDBRANCH  13  14
ENDBRANCH   7  13
TORSDOF 3
