REMARK  5 active torsions:
REMARK  status: ('A' for Active; 'I' for Inactive)
REMARK    1  A    between atoms: N1_2  and  C2_4 
REMARK    2  A    between atoms: C4_8  and  C5_9 
REMARK    3  A    between atoms: C5_9  and  N3_10 
REMARK    4  A    between atoms: N3_10  and  O1_12 
REMARK    5  A    between atoms: C7_14  and  N4_15 
ROOT
HETATM    1  C2  UNL     1      -2.041   0.433   0.289  1.00  0.00     0.679 A 
HETATM    2  N2  UNL     1      -1.317  -0.699   0.225  1.00  0.00    -0.201 N 
ATOM      3  H2  UNL     1      -1.784  -1.605   0.254  1.00  0.00     0.183 HD
HETATM    4  C3  UNL     1       0.043  -0.634   0.121  1.00  0.00     0.122 A 
HETATM    5  C4  UNL     1       0.714   0.549   0.076  1.00  0.00     0.041 A 
HETATM    6  C7  UNL     1      -0.050   1.704   0.143  1.00  0.00     0.127 A 
HETATM    7  N5  UNL     1      -1.383   1.600   0.246  1.00  0.00    -0.176 N 
ATOM      8  H5  UNL     1      -1.929   2.460   0.295  1.00  0.00     0.186 HD
ENDROOT
BRANCH   5   9
HETATM    9  C5  UNL     1       2.166   0.737  -0.027  1.00  0.00     0.132 C 
BRANCH   9  10
HETATM   10  N3  UNL     1       2.953  -0.423  -0.110  1.00  0.00    -0.276 N 
HETATM   11  C6  UNL     1       2.869  -1.338  -1.208  1.00  0.00     0.184 C 
BRANCH  10  12
HETATM   12  O1  UNL     1       3.730  -0.677   0.757  1.00  0.00    -0.288 OA
ATOM     13  H1  UNL     1       4.262  -1.462   0.701  1.00  0.00     0.244 HD
ENDBRANCH  10  12
ENDBRANCH   9  10
ENDBRANCH   5   9
BRANCH   6  14
HETATM   14  N4  UNL     1       0.473   2.886   0.111  1.00  0.00    -0.384 N 
ATOM     15  H42 UNL     1       1.487   2.965   0.033  1.00  0.00     0.157 HD
ATOM     16  H41 UNL     1      -0.089   3.736   0.160  1.00  0.00     0.157 HD
ENDBRANCH   6  14
BRANCH   1  17
HETATM   17  N1  UNL     1      -3.328   0.360   0.388  1.00  0.00    -0.230 N 
HETATM   18  C1  UNL     1      -4.030  -0.904   0.433  1.00  0.00     0.165 C 
ATOM     19  H1  UNL     1      -3.867   1.224   0.436  1.00  0.00     0.177 HD
ENDBRANCH   1  17
TORSDOF 5
