REMARK  5 active torsions:
REMARK  status: ('A' for Active; 'I' for Inactive)
REMARK    1  A    between atoms: C2_2  and  C3_3 
REMARK    2  A    between atoms: C3_3  and  C4_4 
REMARK    3  A    between atoms: C5_5  and  N1_6 
REMARK    4  A    between atoms: N1_6  and  O1_8 
REMARK    5  A    between atoms: C8_15  and  N4_16 
ROOT
HETATM    1  C4  UNL     1       0.013   0.112   0.325  1.00  0.00     0.049 A 
HETATM    2  C5  UNL     1       1.261  -0.430   0.257  1.00  0.00     0.139 A 
HETATM    3  N2  UNL     1       2.213   0.012  -0.588  1.00  0.00    -0.332 N 
HETATM    4  C6  UNL     1       3.507  -0.617  -0.606  1.00  0.00     0.158 C 
HETATM    5  C7  UNL     1       1.869   1.038  -1.380  1.00  0.00     0.186 A 
HETATM    6  N3  UNL     1       0.680   1.622  -1.373  1.00  0.00    -0.327 N 
ATOM      7  H3  UNL     1       0.489   2.401  -2.004  1.00  0.00     0.169 HD
HETATM    8  C8  UNL     1      -0.310   1.170  -0.502  1.00  0.00     0.188 A 
ENDROOT
BRANCH   2   9
HETATM    9  N1  UNL     1       1.620  -1.466   1.135  1.00  0.00    -0.252 N 
ATOM     10  H1  UNL     1       1.379  -2.454   1.051  1.00  0.00     0.196 HD
BRANCH   9  11
HETATM   11  O1  UNL     1       2.370  -0.870   2.140  1.00  0.00    -0.288 OA
ATOM     12  H1  UNL     1       2.613  -1.571   2.734  1.00  0.00     0.244 HD
ENDBRANCH   9  11
ENDBRANCH   2   9
BRANCH   1  13
HETATM   13  C3  UNL     1      -1.010  -0.450   1.214  1.00  0.00     0.074 C 
BRANCH  13  14
HETATM   14  C2  UNL     1      -1.574  -1.643   0.513  1.00  0.00    -0.032 C 
HETATM   15  C1  UNL     1      -2.861  -1.774   0.237  1.00  0.00     0.007 C 
ENDBRANCH  13  14
ENDBRANCH   1  13
BRANCH   8  16
HETATM   16  N4  UNL     1      -1.373   1.736  -0.502  1.00  0.00    -0.410 NA
HETATM   17  C9  UNL     1      -2.621   2.087  -0.209  1.00  0.00     0.231 C 
ENDBRANCH   8  16
TORSDOF 5
