REMARK  7 active torsions:
REMARK  status: ('A' for Active; 'I' for Inactive)
REMARK    1  A    between atoms: O1_2  and  C2_3 
REMARK    2  A    between atoms: C2_3  and  C3_4 
REMARK    3  A    between atoms: C4_5  and  C5_6 
REMARK    4  A    between atoms: C6_7  and  C7_8 
REMARK    5  A    between atoms: C7_8  and  N1_9 
REMARK    6  A    between atoms: N1_9  and  C8_11 
REMARK    7  A    between atoms: C11_16  and  N3_17 
ROOT
HETATM    1  C8  UNL     1      -2.901  -0.139  -0.125  1.00  0.00     0.118 A 
HETATM    2  C9  UNL     1      -3.291  -0.426  -1.414  1.00  0.00     0.066 A 
HETATM    3  C10 UNL     1      -4.606  -0.460  -1.768  1.00  0.00     0.110 A 
HETATM    4  N2  UNL     1      -5.551  -0.211  -0.852  1.00  0.00    -0.202 N 
ATOM      5  H2  UNL     1      -6.543  -0.231  -1.091  1.00  0.00     0.183 HD
HETATM    6  C11 UNL     1      -5.136   0.065   0.391  1.00  0.00     0.677 A 
HETATM    7  N4  UNL     1      -3.863   0.110   0.785  1.00  0.00    -0.177 N 
ATOM      8  H4  UNL     1      -3.623   0.328   1.752  1.00  0.00     0.185 HD
ENDROOT
BRANCH   1   9
HETATM    9  N1  UNL     1      -1.656  -0.119   0.159  1.00  0.00    -0.365 N 
ATOM     10  H1  UNL     1      -1.347   0.091   1.108  1.00  0.00     0.162 HD
BRANCH   9  11
HETATM   11  C7  UNL     1      -0.690  -0.397  -0.879  1.00  0.00     0.216 C 
BRANCH  11  12
HETATM   12  C6  UNL     1       0.676  -0.261  -0.318  1.00  0.00    -0.073 C 
HETATM   13  C5  UNL     1       1.779  -0.139   0.153  1.00  0.00    -0.013 C 
BRANCH  13  14
HETATM   14  C4  UNL     1       3.065   0.014   0.727  1.00  0.00    -0.013 C 
HETATM   15  C3  UNL     1       4.154   0.155   1.233  1.00  0.00    -0.066 C 
BRANCH  15  16
HETATM   16  C2  UNL     1       5.486   0.351   1.845  1.00  0.00     0.261 C 
BRANCH  16  17
HETATM   17  O1  UNL     1       6.300   1.095   0.988  1.00  0.00    -0.384 OA
HETATM   18  C1  UNL     1       6.478   0.456  -0.237  1.00  0.00     0.202 C 
ENDBRANCH  16  17
ENDBRANCH  15  16
ENDBRANCH  13  14
ENDBRANCH  11  12
ENDBRANCH   9  11
ENDBRANCH   1   9
BRANCH   6  19
HETATM   19  N3  UNL     1      -6.090   0.303   1.259  1.00  0.00    -0.234 N 
ATOM     20  H32 UNL     1      -7.064   0.269   0.958  1.00  0.00     0.174 HD
ATOM     21  H31 UNL     1      -5.774   0.513   2.206  1.00  0.00     0.174 HD
ENDBRANCH   6  19
TORSDOF 7
