REMARK  3 active torsions:
REMARK  status: ('A' for Active; 'I' for Inactive)
REMARK    1  A    between atoms: C3_5  and  N2_6 
REMARK    2  A    between atoms: C5_12  and  C6_13 
REMARK    3  A    between atoms: C10_17  and  O1_18 
ROOT
HETATM    1  C1  UNL     1      -3.411   2.429  -0.367  1.00  0.00     0.046 C 
HETATM    2  C2  UNL     1      -3.182   1.135  -0.378  1.00  0.00     0.067 A 
HETATM    3  N1  UNL     1      -4.116   0.196  -0.631  1.00  0.00    -0.191 N 
ATOM      4  H1  UNL     1      -5.098   0.374  -0.841  1.00  0.00     0.184 HD
HETATM    5  C3  UNL     1      -3.541  -1.002  -0.561  1.00  0.00     0.676 A 
HETATM    6  N3  UNL     1      -2.238  -0.808  -0.262  1.00  0.00    -0.190 N 
ATOM      7  H3  UNL     1      -1.549  -1.551  -0.145  1.00  0.00     0.184 HD
HETATM    8  C4  UNL     1      -1.983   0.502  -0.142  1.00  0.00     0.076 A 
HETATM    9  C5  UNL     1      -0.855   1.066   0.136  1.00  0.00     0.044 C 
ENDROOT
BRANCH   9  10
HETATM   10  C6  UNL     1       0.397   0.357   0.380  1.00  0.00    -0.031 A 
HETATM   11  C7  UNL     1       0.512  -0.682   1.282  1.00  0.00     0.011 A 
HETATM   12  C8  UNL     1       1.724  -1.338   1.490  1.00  0.00     0.004 A 
HETATM   13  C9  UNL     1       2.854  -0.958   0.789  1.00  0.00     0.037 A 
HETATM   14  C10 UNL     1       2.751   0.079  -0.115  1.00  0.00     0.069 A 
HETATM   15  C12 UNL     1       1.537   0.719  -0.308  1.00  0.00     0.048 A 
BRANCH  14  16
HETATM   16  O1  UNL     1       3.860   0.520  -0.865  1.00  0.00    -0.356 OA
HETATM   17  C11 UNL     1       5.112  -0.105  -0.697  1.00  0.00     0.210 C 
ENDBRANCH  14  16
ENDBRANCH   9  10
BRANCH   5  18
HETATM   18  N2  UNL     1      -4.177  -2.111  -0.756  1.00  0.00    -0.234 N 
ATOM     19  H22 UNL     1      -5.161  -2.257  -0.982  1.00  0.00     0.174 HD
ATOM     20  H21 UNL     1      -3.736  -3.029  -0.702  1.00  0.00     0.174 HD
ENDBRANCH   5  18
TORSDOF 3
