REMARK  2 active torsions:
REMARK  status: ('A' for Active; 'I' for Inactive)
REMARK    1  A    between atoms: O1_2  and  C2_3 
REMARK    2  A    between atoms: C2_3  and  C3_4 
ROOT
HETATM    1  C3  UNL     1       1.539   0.328  -0.690  1.00  0.00     0.109 A 
HETATM    2  N1  UNL     1       0.961  -0.838  -0.981  1.00  0.00    -0.328 N 
ATOM      3  H1  UNL     1       1.412  -1.628  -1.442  1.00  0.00     0.169 HD
HETATM    4  C4  UNL     1      -0.305  -0.796  -0.567  1.00  0.00     0.135 A 
HETATM    5  N2  UNL     1      -1.313  -1.677  -0.608  1.00  0.00    -0.327 N 
ATOM      6  H2  UNL     1      -1.146  -2.590  -1.031  1.00  0.00     0.169 HD
HETATM    7  C5  UNL     1      -2.540  -1.408  -0.114  1.00  0.00     0.106 A 
HETATM    8  N3  UNL     1      -3.507  -2.285  -0.166  1.00  0.00    -0.385 N 
ATOM      9  H31 UNL     1      -4.434  -2.082   0.207  1.00  0.00     0.157 HD
ATOM     10  H32 UNL     1      -3.343  -3.199  -0.588  1.00  0.00     0.157 HD
HETATM   11  C6  UNL     1      -2.760  -0.179   0.454  1.00  0.00    -0.016 A 
HETATM   12  C7  UNL     1      -4.089   0.182   1.018  1.00  0.00     0.052 C 
HETATM   13  C8  UNL     1      -1.758   0.767   0.524  1.00  0.00     0.044 A 
HETATM   14  C9  UNL     1      -0.504   0.440  -0.003  1.00  0.00     0.080 A 
HETATM   15  N4  UNL     1       0.636   1.112  -0.088  1.00  0.00    -0.336 N 
HETATM   16  C10 UNL     1       0.798   2.468   0.412  1.00  0.00     0.158 C 
ENDROOT
BRANCH   1  17
HETATM   17  C2  UNL     1       2.952   0.733  -0.969  1.00  0.00     0.243 C 
BRANCH  17  18
HETATM   18  O1  UNL     1       3.812   0.425   0.052  1.00  0.00    -0.389 OA
HETATM   19  C1  UNL     1       3.893  -0.908   0.363  1.00  0.00     0.202 C 
ENDBRANCH  17  18
ENDBRANCH   1  17
TORSDOF 2
