REMARK  4 active torsions:
REMARK  status: ('A' for Active; 'I' for Inactive)
REMARK    1  A    between atoms: C4_7  and  N3_8 
REMARK    2  A    between atoms: N3_8  and  N4_10 
REMARK    3  A    between atoms: N4_10  and  C5_12 
REMARK    4  A    between atoms: N5_17  and  N6_18 
ROOT
HETATM    1  N4  UNL     1       0.745  -0.307  -0.847  1.00  0.00    -0.282 N 
ATOM      2  H4  UNL     1       0.446   0.340  -1.577  1.00  0.00     0.188 HD
ENDROOT
BRANCH   1   3
HETATM    3  N3  UNL     1      -0.071  -1.380  -0.479  1.00  0.00    -0.283 N 
ATOM      4  H3  UNL     1       0.320  -2.321  -0.444  1.00  0.00     0.188 HD
BRANCH   3   5
HETATM    5  C4  UNL     1      -1.319  -1.193  -0.182  1.00  0.00     0.135 A 
HETATM    6  N2  UNL     1      -2.072  -2.253   0.168  1.00  0.00    -0.349 N 
HETATM    7  C3  UNL     1      -3.368  -2.028   0.472  1.00  0.00     0.107 A 
ATOM      8  H2  UNL     1      -1.677  -3.193   0.202  1.00  0.00     0.167 HD
HETATM    9  C2  UNL     1      -3.910  -0.766   0.429  1.00  0.00     0.107 A 
HETATM   10  N1  UNL     1      -3.125   0.262   0.075  1.00  0.00    -0.366 N 
HETATM   11  C1  UNL     1      -3.652   1.630   0.013  1.00  0.00     0.155 C 
HETATM   12  C10 UNL     1      -1.830   0.082  -0.235  1.00  0.00     0.139 A 
ENDBRANCH   3   5
ENDBRANCH   1   3
BRANCH   1  13
HETATM   13  C5  UNL     1       1.985  -0.126  -0.202  1.00  0.00     0.140 A 
HETATM   14  C6  UNL     1       2.388  -1.000   0.781  1.00  0.00     0.052 A 
HETATM   15  C7  UNL     1       3.600  -0.844   1.428  1.00  0.00     0.005 A 
HETATM   16  C8  UNL     1       4.374   0.227   1.035  1.00  0.00     0.019 A 
HETATM   17  C9  UNL     1       3.948   1.089   0.046  1.00  0.00     0.118 A 
HETATM   18  N5  UNL     1       2.767   0.928  -0.577  1.00  0.00    -0.257 N 
BRANCH  18  19
HETATM   19  N6  UNL     1       2.355   1.814  -1.576  1.00  0.00    -0.337 N 
ATOM     20  H62 UNL     1       1.459   1.692  -2.048  1.00  0.00     0.177 HD
ATOM     21  H61 UNL     1       2.939   2.602  -1.856  1.00  0.00     0.177 HD
ENDBRANCH  18  19
ENDBRANCH   1  13
TORSDOF 4
