REMARK  5 active torsions:
REMARK  status: ('A' for Active; 'I' for Inactive)
REMARK    1  A    between atoms: C3_3  and  C4_4 
REMARK    2  A    between atoms: C4_4  and  C5_5 
REMARK    3  A    between atoms: C9_10  and  N2_11 
REMARK    4  A    between atoms: C10_16  and  N4_17 
REMARK    5  A    between atoms: N4_17  and  C11_19 
ROOT
HETATM    1  C1  UNL     1      -3.264  -2.587   1.474  1.00  0.00     0.012 C 
HETATM    2  C2  UNL     1      -2.658  -2.274   0.480  1.00  0.00    -0.114 C 
HETATM    3  C3  UNL     1      -1.938  -1.892  -0.731  1.00  0.00     0.121 C 
ENDROOT
BRANCH   3   4
HETATM    4  C4  UNL     1      -1.367  -0.550  -0.621  1.00  0.00     0.000 C 
BRANCH   4   5
HETATM    5  C5  UNL     1      -0.153  -0.362  -0.201  1.00  0.00     0.007 C 
HETATM    6  C6  UNL     1       0.551  -1.526   0.126  1.00  0.00     0.033 C 
HETATM    7  C7  UNL     1       1.923  -1.753  -0.053  1.00  0.00     0.114 C 
HETATM    8  N1  UNL     1       2.866  -0.831  -0.292  1.00  0.00    -0.179 N 
HETATM    9  C8  UNL     1       4.062  -1.218  -0.111  1.00  0.00     0.146 C 
HETATM   10  C9  UNL     1       2.698   0.445  -0.698  1.00  0.00     0.682 C 
HETATM   11  N3  UNL     1       1.599   1.246  -0.557  1.00  0.00    -0.176 N 
HETATM   12  C10 UNL     1       0.340   0.910  -0.110  1.00  0.00     0.127 C 
ATOM     13  H3  UNL     1       1.729   2.224  -0.818  1.00  0.00     0.186 HD
BRANCH  10  14
HETATM   14  N2  UNL     1       3.695   0.984  -1.294  1.00  0.00    -0.234 N 
ATOM     15  H22 UNL     1       4.515   0.386  -1.399  1.00  0.00     0.174 HD
ATOM     16  H21 UNL     1       3.568   1.948  -1.601  1.00  0.00     0.174 HD
ENDBRANCH  10  14
BRANCH  12  17
HETATM   17  N4  UNL     1      -0.291   1.808   0.403  1.00  0.00    -0.376 N 
ATOM     18  H4  UNL     1       0.234   2.682   0.376  1.00  0.00     0.161 HD
BRANCH  17  19
HETATM   19  C11 UNL     1      -1.520   1.991   1.016  1.00  0.00     0.116 C 
HETATM   20  C12 UNL     1      -2.385   3.058   0.341  1.00  0.00     0.026 C 
ENDBRANCH  17  19
ENDBRANCH  12  17
ENDBRANCH   4   5
ENDBRANCH   3   4
TORSDOF 5
