REMARK  2 active torsions:
REMARK  status: ('A' for Active; 'I' for Inactive)
REMARK    1  A    between atoms: C1_2  and  C2_4 
REMARK    2  A    between atoms: N1_9  and  C7_10 
ROOT
HETATM    1  C7  UNL     1       0.355   0.124  -0.490  1.00  0.00     0.085 C 
HETATM    2  C8  UNL     1       0.293  -0.218  -1.956  1.00  0.00     0.026 C 
HETATM    3  C9  UNL     1      -0.982   0.160  -2.637  1.00  0.00     0.007 C 
HETATM    4  C10 UNL     1      -2.230  -0.356  -2.055  1.00  0.00    -0.014 C 
HETATM    5  C11 UNL     1      -2.138  -1.745  -1.517  1.00  0.00     0.005 C 
HETATM    6  C12 UNL     1      -1.238  -1.811  -0.338  1.00  0.00     0.008 C 
HETATM    7  C13 UNL     1      -0.831  -0.434   0.199  1.00  0.00     0.019 C 
HETATM    8  C14 UNL     1      -2.036   0.499   0.240  1.00  0.00    -0.011 C 
HETATM    9  C15 UNL     1      -3.031  -0.033   1.259  1.00  0.00     0.038 C 
HETATM   10  C16 UNL     1      -3.601   1.265   1.788  1.00  0.00     0.168 C 
HETATM   11  O3  UNL     1      -2.503   2.076   1.901  1.00  0.00    -0.390 OA
HETATM   12  C17 UNL     1      -1.629   1.795   0.863  1.00  0.00     0.177 C 
HETATM   13  C18 UNL     1      -2.747   0.641  -1.056  1.00  0.00     0.017 C 
ENDROOT
BRANCH   1  14
HETATM   14  N1  UNL     1       1.584  -0.298   0.068  1.00  0.00    -0.394 N 
HETATM   15  C2  UNL     1       2.775   0.269  -0.423  1.00  0.00     0.181 C 
HETATM   16  C3  UNL     1       3.898  -0.730  -0.157  1.00  0.00     0.036 C 
HETATM   17  C4  UNL     1       4.047  -1.076   1.278  1.00  0.00     0.004 C 
HETATM   18  C5  UNL     1       2.893  -0.689   2.134  1.00  0.00     0.020 C 
HETATM   19  C6  UNL     1       1.579  -0.620   1.450  1.00  0.00     0.118 C 
BRANCH  15  20
HETATM   20  C1  UNL     1       3.083   1.628   0.068  1.00  0.00     0.196 C 
HETATM   21  O1  UNL     1       4.132   2.209  -0.282  1.00  0.00    -0.646 OA
HETATM   22  O2  UNL     1       2.229   2.295   0.919  1.00  0.00    -0.646 OA
ENDBRANCH  15  20
ENDBRANCH   1  14
TORSDOF 2
