REMARK  3 active torsions:
REMARK  status: ('A' for Active; 'I' for Inactive)
REMARK    1  A    between atoms: C2_2  and  C3_4 
REMARK    2  A    between atoms: C3_4  and  C4_5 
REMARK    3  A    between atoms: C4_5  and  O2_6 
ROOT
HETATM    1  C4  UNL     1       2.232  -0.124  -0.324  1.00  0.00     0.072 C 
HETATM    2  C5  UNL     1       1.830   0.459  -1.623  1.00  0.00     0.039 C 
HETATM    3  C6  UNL     1       0.661  -0.448  -2.023  1.00  0.00     0.009 C 
HETATM    4  C7  UNL     1       0.113  -1.004  -0.710  1.00  0.00     0.001 C 
HETATM    5  C8  UNL     1      -1.339  -0.862  -0.715  1.00  0.00    -0.003 C 
HETATM    6  C9  UNL     1      -2.173  -2.073  -0.531  1.00  0.00     0.008 C 
HETATM    7  C10 UNL     1      -3.549  -1.464  -0.211  1.00  0.00     0.039 C 
HETATM    8  C11 UNL     1      -3.304   0.026  -0.016  1.00  0.00     0.067 C 
HETATM    9  C12 UNL     1      -4.307   0.721   0.803  1.00  0.00     0.065 C 
HETATM   10  C13 UNL     1      -4.876   0.975  -0.599  1.00  0.00     0.171 C 
HETATM   11  O3  UNL     1      -3.586   0.809  -1.126  1.00  0.00    -0.380 OA
HETATM   12  C14 UNL     1      -1.879   0.013   0.434  1.00  0.00     0.025 C 
HETATM   13  C15 UNL     1      -1.145   1.286   0.343  1.00  0.00     0.009 C 
HETATM   14  C16 UNL     1       0.295   1.046   0.737  1.00  0.00     0.013 C 
HETATM   15  C17 UNL     1       0.849  -0.260   0.349  1.00  0.00    -0.009 C 
HETATM   16  C18 UNL     1       1.110  -1.192   1.530  1.00  0.00     0.019 C 
ENDROOT
BRANCH   1  17
HETATM   17  C3  UNL     1       3.182   0.635   0.510  1.00  0.00     0.116 C 
BRANCH  17  18
HETATM   18  C2  UNL     1       4.489   0.732  -0.150  1.00  0.00     0.126 C 
HETATM   19  C1  UNL     1       5.588   1.480   0.514  1.00  0.00     0.091 C 
HETATM   20  O1  UNL     1       4.689   0.213  -1.225  1.00  0.00    -0.298 OA
ENDBRANCH  17  18
ENDBRANCH   1  17
BRANCH   1  21
HETATM   21  O2  UNL     1       2.742  -1.405  -0.535  1.00  0.00    -0.389 OA
ATOM     22  H2  UNL     1       2.130  -1.894  -1.072  1.00  0.00     0.210 HD
ENDBRANCH   1  21
TORSDOF 3
