REMARK  2 active torsions:
REMARK  status: ('A' for Active; 'I' for Inactive)
REMARK    1  A    between atoms: C9_11  and  C10_12 
REMARK    2  A    between atoms: C10_12  and  O3_13 
ROOT
HETATM    1  C1  UNL     1      -2.891  -0.809  -0.976  1.00  0.00     0.019 C 
HETATM    2  C2  UNL     1      -2.091  -0.366   0.213  1.00  0.00    -0.002 C 
HETATM    3  C3  UNL     1      -0.659  -0.725   0.160  1.00  0.00     0.020 C 
HETATM    4  C4  UNL     1       0.257   0.503  -0.034  1.00  0.00     0.025 C 
HETATM    5  C5  UNL     1      -0.277   1.259  -1.165  1.00  0.00    -0.001 C 
HETATM    6  C6  UNL     1      -1.653   1.810  -0.792  1.00  0.00     0.039 C 
HETATM    7  C7  UNL     1      -2.212   1.150   0.400  1.00  0.00     0.141 C 
HETATM    8  O1  UNL     1      -3.611   1.245   0.544  1.00  0.00    -0.315 OA
HETATM    9  C8  UNL     1      -3.942   0.206   1.442  1.00  0.00     0.266 C 
HETATM   10  O2  UNL     1      -4.981   0.096   2.142  1.00  0.00    -0.265 OA
HETATM   11  C9  UNL     1      -2.833  -0.807   1.455  1.00  0.00     0.119 C 
HETATM   12  C11 UNL     1       0.466   2.368  -1.746  1.00  0.00    -0.003 A 
HETATM   13  C12 UNL     1       0.531   3.629  -0.831  1.00  0.00     0.012 A 
HETATM   14  C13 UNL     1       1.712   2.841  -1.265  1.00  0.00     0.014 A 
HETATM   15  C14 UNL     1       2.488   2.014  -0.285  1.00  0.00     0.173 C 
HETATM   16  O4  UNL     1       2.538   0.730  -0.820  1.00  0.00    -0.379 OA
HETATM   17  C15 UNL     1       1.631  -0.044  -0.147  1.00  0.00     0.065 C 
HETATM   18  C16 UNL     1       2.170  -0.240   1.271  1.00  0.00     0.038 C 
HETATM   19  C17 UNL     1       2.808  -1.586   1.456  1.00  0.00     0.003 C 
HETATM   20  C18 UNL     1       3.802  -1.804   0.339  1.00  0.00     0.000 C 
HETATM   21  C19 UNL     1       3.123  -1.803  -0.995  1.00  0.00     0.003 C 
HETATM   22  C20 UNL     1       1.670  -1.428  -0.802  1.00  0.00     0.038 C 
ENDROOT
BRANCH  11  23
HETATM   23  C10 UNL     1      -3.382  -2.210   1.344  1.00  0.00     0.179 C 
BRANCH  23  24
HETATM   24  O3  UNL     1      -2.371  -3.145   1.134  1.00  0.00    -0.400 OA
ATOM     25  H3  UNL     1      -2.716  -4.027   1.064  1.00  0.00     0.209 HD
ENDBRANCH  23  24
ENDBRANCH  11  23
TORSDOF 2
