REMARK  3 active torsions:
REMARK  status: ('A' for Active; 'I' for Inactive)
REMARK    1  A    between atoms: O1_2  and  C2_3 
REMARK    2  A    between atoms: C14_16  and  C15_17 
REMARK    3  A    between atoms: C18_20  and  O3_21 
ROOT
HETATM    1  C2  UNL     1       2.183   0.900  -0.140  1.00  0.00     0.138 C 
HETATM    2  C3  UNL     1       3.215   0.250   0.782  1.00  0.00     0.077 C 
HETATM    3  C4  UNL     1       2.534  -1.038   1.037  1.00  0.00     0.122 A 
HETATM    4  O2  UNL     1       2.537  -2.222   0.498  1.00  0.00    -0.359 OA
HETATM    5  C5  UNL     1       2.364  -1.367  -0.467  1.00  0.00     0.105 A 
HETATM    6  C6  UNL     1       3.600  -1.272  -1.343  1.00  0.00     0.050 C 
HETATM    7  C7  UNL     1       1.403  -0.275  -0.768  1.00  0.00     0.050 C 
HETATM    8  C8  UNL     1       1.329   0.031  -2.241  1.00  0.00     0.024 C 
HETATM    9  C9  UNL     1       0.105  -0.507  -0.113  1.00  0.00     0.100 C 
HETATM   10  C10 UNL     1      -0.317  -1.947  -0.123  1.00  0.00     0.046 C 
HETATM   11  C11 UNL     1      -0.630  -2.340   1.305  1.00  0.00    -0.009 C 
HETATM   12  C12 UNL     1      -1.906  -1.818   1.791  1.00  0.00     0.005 C 
HETATM   13  C13 UNL     1      -2.322  -0.443   1.473  1.00  0.00     0.008 C 
HETATM   14  C14 UNL     1      -2.341  -0.041   0.052  1.00  0.00     0.021 C 
HETATM   15  C18 UNL     1      -1.065   0.289  -0.625  1.00  0.00     0.158 C 
HETATM   16  C19 UNL     1       0.563  -2.088   2.226  1.00  0.00     0.039 C 
HETATM   17  C20 UNL     1       1.247  -0.814   1.775  1.00  0.00     0.161 C 
HETATM   18  O4  UNL     1       0.318  -0.022   1.202  1.00  0.00    -0.368 OA
ENDROOT
BRANCH  14  19
HETATM   19  C15 UNL     1      -3.323   1.143  -0.054  1.00  0.00    -0.016 C 
HETATM   20  C16 UNL     1      -2.879   2.295   0.807  1.00  0.00     0.010 C 
HETATM   21  C17 UNL     1      -3.530   1.561  -1.475  1.00  0.00     0.010 C 
ENDBRANCH  14  19
BRANCH  15  22
HETATM   22  O3  UNL     1      -1.309   0.048  -2.000  1.00  0.00    -0.392 OA
ATOM     23  H3  UNL     1      -2.048   0.550  -2.323  1.00  0.00     0.210 HD
ENDBRANCH  15  22
BRANCH   1  24
HETATM   24  O1  UNL     1       2.707   1.758  -1.055  1.00  0.00    -0.390 OA
HETATM   25  C1  UNL     1       2.239   3.047  -0.923  1.00  0.00     0.202 C 
ENDBRANCH   1  24
TORSDOF 3
