REMARK  1 active torsions:
REMARK  status: ('A' for Active; 'I' for Inactive)
REMARK    1  A    between atoms: C14_15  and  O1_16 
ROOT
HETATM    1  C1  UNL     1       0.221  -2.969   1.070  1.00  0.00     0.017 C 
HETATM    2  C2  UNL     1       0.326  -1.596   0.346  1.00  0.00    -0.017 C 
HETATM    3  C3  UNL     1       1.424  -1.765  -0.612  1.00  0.00     0.011 C 
HETATM    4  C4  UNL     1       2.819  -1.512  -0.174  1.00  0.00     0.006 C 
HETATM    5  C5  UNL     1       3.206  -0.142  -0.564  1.00  0.00    -0.002 A 
HETATM    6  C6  UNL     1       2.873   0.700   0.712  1.00  0.00    -0.001 A 
HETATM    7  C7  UNL     1       1.596   1.343   0.408  1.00  0.00     0.010 C 
HETATM    8  C8  UNL     1       0.470   0.789   1.271  1.00  0.00    -0.011 C 
HETATM    9  C9  UNL     1      -0.769   1.478   0.897  1.00  0.00     0.046 C 
HETATM   10  C10 UNL     1      -1.897   0.604   0.328  1.00  0.00     0.288 C 
HETATM   11  N1  UNL     1      -1.369  -0.147  -0.723  1.00  0.00     0.099 N 
HETATM   12  C11 UNL     1      -2.140  -0.178  -1.931  1.00  0.00     0.280 C 
HETATM   13  C12 UNL     1      -3.495   0.390  -1.812  1.00  0.00     0.053 C 
HETATM   14  C13 UNL     1      -4.393  -0.294  -0.809  1.00  0.00     0.069 C 
HETATM   15  C14 UNL     1      -5.027   0.692   0.160  1.00  0.00     0.261 C 
HETATM   16  O2  UNL     1      -4.104   1.494   0.818  1.00  0.00    -0.321 OA
HETATM   17  C15 UNL     1      -2.978   1.580   0.102  1.00  0.00     0.225 A 
HETATM   18  O3  UNL     1      -2.554   2.553  -0.751  1.00  0.00    -0.340 OA
HETATM   19  C16 UNL     1      -3.428   1.788  -1.352  1.00  0.00     0.196 A 
HETATM   20  C17 UNL     1      -0.977  -1.495  -0.425  1.00  0.00     0.282 C 
HETATM   21  C18 UNL     1       0.444  -0.656   1.455  1.00  0.00     0.015 C 
HETATM   22  C19 UNL     1       4.138   0.767   0.020  1.00  0.00    -0.040 A 
HETATM   23  C20 UNL     1       4.448   2.061  -0.709  1.00  0.00     0.015 C 
HETATM   24  C21 UNL     1       5.371   0.182   0.682  1.00  0.00     0.015 C 
ENDROOT
BRANCH  15  25
HETATM   25  O1  UNL     1      -5.648  -0.094   1.153  1.00  0.00    -0.371 OA
ATOM     26  H1  UNL     1      -6.044   0.522   1.758  1.00  0.00     0.212 HD
ENDBRANCH  15  25
TORSDOF 1
