REMARK  6 active torsions:
REMARK  status: ('A' for Active; 'I' for Inactive)
REMARK    1  A    between atoms: O1_1  and  C1_3 
REMARK    2  A    between atoms: C1_3  and  C2_4 
REMARK    3  A    between atoms: C1_3  and  C8_10 
REMARK    4  A    between atoms: C11_13  and  C12_14 
REMARK    5  A    between atoms: C13_15  and  C14_16 
REMARK    6  A    between atoms: N3_26  and  C20_27 
ROOT
HETATM    1  C14 UNL     1       2.330  -1.136   0.282  1.00  0.00     0.101 A 
HETATM    2  N1  UNL     1       2.798  -2.391   0.421  1.00  0.00    -0.358 N 
ATOM      3  H1  UNL     1       2.134  -3.143   0.607  1.00  0.00     0.166 HD
HETATM    4  C15 UNL     1       4.105  -2.694   0.324  1.00  0.00     0.091 A 
HETATM    5  C16 UNL     1       5.028  -1.700   0.071  1.00  0.00     0.049 A 
HETATM    6  C17 UNL     1       4.572  -0.397  -0.077  1.00  0.00     0.072 A 
HETATM    7  C18 UNL     1       3.214  -0.128   0.032  1.00  0.00     0.045 A 
HETATM    8  C19 UNL     1       3.048   1.224  -0.155  1.00  0.00     0.124 A 
HETATM    9  N2  UNL     1       4.273   1.742  -0.369  1.00  0.00    -0.304 N 
ATOM     10  H2  UNL     1       4.473   2.727  -0.541  1.00  0.00     0.186 HD
HETATM   11  N3  UNL     1       5.180   0.773  -0.321  1.00  0.00    -0.256 N 
ENDROOT
BRANCH   1  12
HETATM   12  C13 UNL     1       0.932  -0.818   0.388  1.00  0.00    -0.042 C 
HETATM   13  C12 UNL     1      -0.238  -0.540   0.492  1.00  0.00    -0.060 C 
BRANCH  13  14
HETATM   14  C11 UNL     1      -1.642  -0.220   0.636  1.00  0.00     0.018 A 
HETATM   15  C10 UNL     1      -2.159   0.983   0.206  1.00  0.00     0.021 A 
HETATM   16  C9  UNL     1      -3.495   1.304   0.336  1.00  0.00     0.011 A 
HETATM   17  C8  UNL     1      -4.383   0.419   0.910  1.00  0.00    -0.025 A 
HETATM   18  C27 UNL     1      -3.867  -0.785   1.341  1.00  0.00     0.011 A 
HETATM   19  C26 UNL     1      -2.531  -1.105   1.211  1.00  0.00     0.021 A 
BRANCH  17  20
HETATM   20  C1  UNL     1      -5.835   0.745   1.061  1.00  0.00     0.184 C 
BRANCH  20  21
HETATM   21  O1  UNL     1      -6.294   0.402   2.332  1.00  0.00    -0.386 OA
ATOM     22  H1  UNL     1      -5.775   0.834   3.000  1.00  0.00     0.210 HD
ENDBRANCH  20  21
BRANCH  20  23
HETATM   23  C2  UNL     1      -6.646   0.070   0.017  1.00  0.00    -0.025 A 
HETATM   24  C3  UNL     1      -6.042  -0.536  -1.059  1.00  0.00     0.010 A 
HETATM   25  C4  UNL     1      -6.772  -1.177  -2.053  1.00  0.00     0.001 A 
HETATM   26  C5  UNL     1      -8.146  -1.225  -1.989  1.00  0.00     0.000 A 
HETATM   27  C6  UNL     1      -8.761  -0.620  -0.915  1.00  0.00     0.001 A 
HETATM   28  C7  UNL     1      -8.021   0.013   0.066  1.00  0.00     0.010 A 
ENDBRANCH  20  23
ENDBRANCH  17  20
ENDBRANCH  13  14
ENDBRANCH   1  12
BRANCH  11  29
HETATM   29  C20 UNL     1       6.580   0.949  -0.502  1.00  0.00     0.059 A 
HETATM   30  C21 UNL     1       7.081   1.655  -1.575  1.00  0.00     0.032 A 
HETATM   31  C22 UNL     1       8.434   1.821  -1.744  1.00  0.00     0.005 A 
HETATM   32  C23 UNL     1       9.350   1.290  -0.851  1.00  0.00     0.042 A 
HETATM   33  C24 UNL     1       8.819   0.581   0.225  1.00  0.00     0.118 A 
HETATM   34  F1  UNL     1       9.663   0.024   1.154  1.00  0.00    -0.206 F 
HETATM   35  C25 UNL     1       7.469   0.409   0.403  1.00  0.00     0.073 A 
ENDBRANCH  11  29
TORSDOF 6
