REMARK  5 active torsions:
REMARK  status: ('A' for Active; 'I' for Inactive)
REMARK    1  A    between atoms: C4_5  and  N1_6 
REMARK    2  A    between atoms: N3_11  and  C7_12 
REMARK    3  A    between atoms: C7_12  and  N4_14 
REMARK    4  A    between atoms: N4_14  and  C8_16 
REMARK    5  A    between atoms: C14_22  and  C15_23 
ROOT
HETATM    1  N1  UNL     1       3.196  -0.566   0.457  1.00  0.00    -0.286 N 
HETATM    2  C5  UNL     1       2.283  -0.332   1.552  1.00  0.00     0.210 C 
HETATM    3  C6  UNL     1       0.965  -0.224   0.836  1.00  0.00     0.072 C 
HETATM    4  N2  UNL     1      -0.311  -0.262   0.955  1.00  0.00    -0.296 N 
ATOM      5  H2  UNL     1      -0.791  -0.424   1.840  1.00  0.00     0.187 HD
HETATM    6  N3  UNL     1      -0.974  -0.058  -0.257  1.00  0.00    -0.252 N 
HETATM    7  C14 UNL     1       0.006   0.418  -1.184  1.00  0.00     0.197 C 
HETATM    8  C21 UNL     1       1.313   0.026  -0.556  1.00  0.00     0.081 C 
HETATM    9  N5  UNL     1       2.571  -0.175  -0.733  1.00  0.00    -0.297 N 
ATOM     10  H5  UNL     1       3.052  -0.064  -1.626  1.00  0.00     0.187 HD
ENDROOT
BRANCH   6  11
HETATM   11  C7  UNL     1      -2.378  -0.286  -0.520  1.00  0.00     0.194 C 
HETATM   12  S1  UNL     1      -2.890   0.001  -2.019  1.00  0.00    -0.039 SA
BRANCH  11  13
HETATM   13  N4  UNL     1      -3.186  -0.756   0.514  1.00  0.00    -0.332 N 
ATOM     14  H4  UNL     1      -2.699  -0.915   1.396  1.00  0.00     0.168 HD
BRANCH  13  15
HETATM   15  C8  UNL     1      -4.555  -1.046   0.543  1.00  0.00     0.034 A 
HETATM   16  C9  UNL     1      -5.033  -1.934   1.514  1.00  0.00     0.029 A 
HETATM   17  C10 UNL     1      -6.367  -2.251   1.622  1.00  0.00     0.002 A 
HETATM   18  C11 UNL     1      -7.278  -1.682   0.750  1.00  0.00     0.000 A 
HETATM   19  C12 UNL     1      -6.843  -0.815  -0.205  1.00  0.00     0.002 A 
HETATM   20  C13 UNL     1      -5.478  -0.504  -0.299  1.00  0.00     0.029 A 
ENDBRANCH  13  15
ENDBRANCH  11  13
ENDBRANCH   6  11
BRANCH   7  21
HETATM   21  C15 UNL     1      -0.030   1.882  -1.377  1.00  0.00    -0.028 A 
HETATM   22  C16 UNL     1      -0.135   2.788  -0.358  1.00  0.00     0.010 A 
HETATM   23  C17 UNL     1      -0.165   4.150  -0.576  1.00  0.00     0.001 A 
HETATM   24  C18 UNL     1      -0.088   4.626  -1.872  1.00  0.00     0.000 A 
HETATM   25  C19 UNL     1       0.017   3.742  -2.918  1.00  0.00     0.001 A 
HETATM   26  C20 UNL     1       0.046   2.375  -2.661  1.00  0.00     0.010 A 
ENDBRANCH   7  21
BRANCH   1  27
HETATM   27  C4  UNL     1       4.498  -1.102   0.608  1.00  0.00     0.051 A 
HETATM   28  C3  UNL     1       4.981  -1.443   1.850  1.00  0.00     0.034 A 
HETATM   29  C2  UNL     1       6.255  -1.969   2.008  1.00  0.00     0.044 A 
HETATM   30  C1  UNL     1       7.018  -2.137   0.872  1.00  0.00     0.116 A 
HETATM   31  F1  UNL     1       8.274  -2.649   0.970  1.00  0.00    -0.206 F 
HETATM   32  C23 UNL     1       6.529  -1.796  -0.358  1.00  0.00     0.044 A 
HETATM   33  C22 UNL     1       5.264  -1.272  -0.524  1.00  0.00     0.034 A 
ENDBRANCH   1  27
TORSDOF 5
