REMARK  4 active torsions:
REMARK  status: ('A' for Active; 'I' for Inactive)
REMARK    1  A    between atoms: O1_2  and  C2_3 
REMARK    2  A    between atoms: C5_6  and  C6_7 
REMARK    3  A    between atoms: C10_11  and  C11_12 
REMARK    4  A    between atoms: N1_19  and  C17_20 
ROOT
HETATM    1  C6  UNL     1       1.246   0.896  -1.133  1.00  0.00     0.136 C 
HETATM    2  C7  UNL     1       1.398   2.240  -0.466  1.00  0.00     0.031 C 
HETATM    3  C8  UNL     1       0.516   3.251  -1.102  1.00  0.00     0.005 C 
HETATM    4  C9  UNL     1      -0.434   2.777  -2.145  1.00  0.00     0.031 C 
HETATM    5  C10 UNL     1      -1.012   1.412  -1.908  1.00  0.00     0.136 C 
HETATM    6  N1  UNL     1      -0.154   0.585  -1.093  1.00  0.00    -0.201 N 
ENDROOT
BRANCH   1   7
HETATM    7  C5  UNL     1       2.140  -0.147  -0.604  1.00  0.00    -0.035 A 
HETATM    8  C4  UNL     1       3.118   0.113   0.339  1.00  0.00     0.012 A 
HETATM    9  C3  UNL     1       3.970  -0.881   0.819  1.00  0.00     0.037 A 
HETATM   10  C2  UNL     1       3.868  -2.179   0.365  1.00  0.00     0.068 A 
HETATM   11  C22 UNL     1       2.892  -2.434  -0.575  1.00  0.00     0.037 A 
HETATM   12  C21 UNL     1       2.048  -1.451  -1.051  1.00  0.00     0.012 A 
BRANCH  10  13
HETATM   13  O1  UNL     1       4.701  -3.193   0.823  1.00  0.00    -0.356 OA
HETATM   14  C1  UNL     1       5.697  -2.911   1.789  1.00  0.00     0.210 C 
ENDBRANCH  10  13
ENDBRANCH   1   7
BRANCH   6  15
HETATM   15  C17 UNL     1      -0.657  -0.446  -0.320  1.00  0.00     0.673 C 
HETATM   16  N2  UNL     1      -0.324  -0.626   0.903  1.00  0.00    -0.226 N 
HETATM   17  C18 UNL     1      -0.811  -1.674   1.755  1.00  0.00     0.139 C 
ATOM     18  H2  UNL     1       0.344   0.031   1.306  1.00  0.00     0.177 HD
HETATM   19  C19 UNL     1      -2.186  -2.155   1.353  1.00  0.00     0.040 C 
HETATM   20  C20 UNL     1      -2.351  -2.274  -0.124  1.00  0.00     0.139 C 
HETATM   21  N3  UNL     1      -1.588  -1.350  -0.899  1.00  0.00    -0.226 N 
ATOM     22  H3  UNL     1      -1.716  -1.338  -1.911  1.00  0.00     0.177 HD
ENDBRANCH   6  15
BRANCH   5  23
HETATM   23  C11 UNL     1      -2.322   1.527  -1.236  1.00  0.00    -0.035 A 
HETATM   24  C12 UNL     1      -2.407   1.893   0.085  1.00  0.00     0.010 A 
HETATM   25  C13 UNL     1      -3.650   1.987   0.703  1.00  0.00     0.019 A 
HETATM   26  C14 UNL     1      -4.809   1.717   0.012  1.00  0.00     0.011 A 
HETATM   27 BR1  UNL     1      -6.510   1.846   0.860  1.00  0.00    -0.051 Br
HETATM   28  C15 UNL     1      -4.733   1.348  -1.316  1.00  0.00     0.019 A 
HETATM   29  C16 UNL     1      -3.499   1.259  -1.916  1.00  0.00     0.010 A 
ENDBRANCH   5  23
TORSDOF 4
