REMARK  4 active torsions:
REMARK  status: ('A' for Active; 'I' for Inactive)
REMARK    1  A    between atoms: O1_2  and  C2_3 
REMARK    2  A    between atoms: C7_8  and  N1_9 
REMARK    3  A    between atoms: N1_9  and  C8_11 
REMARK    4  A    between atoms: C14_20  and  C15_21 
ROOT
HETATM    1  C2  UNL     1      -1.761  -2.649  -1.194  1.00  0.00     0.095 A 
HETATM    2  C3  UNL     1      -1.128  -3.783  -1.665  1.00  0.00     0.039 A 
HETATM    3  C4  UNL     1       0.250  -3.876  -1.669  1.00  0.00     0.004 A 
HETATM    4  C5  UNL     1       0.966  -2.799  -1.189  1.00  0.00     0.018 A 
HETATM    5  C6  UNL     1       0.342  -1.659  -0.715  1.00  0.00     0.038 A 
HETATM    6  C7  UNL     1       1.048  -0.576  -0.233  1.00  0.00     0.120 A 
HETATM    7  N2  UNL     1       0.360   0.478   0.202  1.00  0.00    -0.327 N 
ATOM      8  H2  UNL     1       0.890   1.274   0.557  1.00  0.00     0.169 HD
HETATM    9  C14 UNL     1      -1.008   0.574   0.208  1.00  0.00     0.117 A 
HETATM   10  N4  UNL     1      -1.693  -0.475  -0.260  1.00  0.00    -0.339 N 
ATOM     11  H4  UNL     1      -2.713  -0.449  -0.275  1.00  0.00     0.167 HD
HETATM   12  C20 UNL     1      -1.046  -1.565  -0.711  1.00  0.00     0.081 A 
ENDROOT
BRANCH   6  13
HETATM   13  N1  UNL     1       2.338  -0.632  -0.224  1.00  0.00    -0.342 N 
ATOM     14  H1  UNL     1       2.799  -1.472  -0.573  1.00  0.00     0.167 HD
BRANCH  13  15
HETATM   15  C8  UNL     1       3.133   0.439   0.257  1.00  0.00     0.034 A 
HETATM   16  C9  UNL     1       2.910   1.696  -0.259  1.00  0.00     0.029 A 
HETATM   17  C10 UNL     1       3.698   2.729   0.223  1.00  0.00     0.004 A 
HETATM   18  C11 UNL     1       4.659   2.484   1.180  1.00  0.00     0.019 A 
HETATM   19  C12 UNL     1       4.886   1.235   1.698  1.00  0.00     0.013 A 
HETATM   20 BR1  UNL     1       6.225   0.909   3.026  1.00  0.00    -0.051 Br
HETATM   21  C13 UNL     1       4.094   0.200   1.212  1.00  0.00     0.048 A 
ENDBRANCH  13  15
ENDBRANCH   6  13
BRANCH   9  22
HETATM   22  C15 UNL     1      -1.641   1.778   0.709  1.00  0.00     0.011 A 
HETATM   23  C16 UNL     1      -0.839   2.794   1.166  1.00  0.00     0.032 A 
HETATM   24  C17 UNL     1      -1.422   3.971   1.656  1.00  0.00     0.088 A 
HETATM   25  N3  UNL     1      -2.753   4.065   1.662  1.00  0.00    -0.375 N 
HETATM   26  C18 UNL     1      -3.556   3.098   1.226  1.00  0.00     0.088 A 
ATOM     27  H3  UNL     1      -3.176   4.922   2.019  1.00  0.00     0.164 HD
HETATM   28  C19 UNL     1      -2.982   1.930   0.740  1.00  0.00     0.032 A 
ENDBRANCH   9  22
BRANCH   1  29
HETATM   29  O1  UNL     1      -3.138  -2.542  -1.184  1.00  0.00    -0.354 OA
HETATM   30  C1  UNL     1      -3.986  -3.586  -1.654  1.00  0.00     0.210 C 
ENDBRANCH   1  29
TORSDOF 4
