REMARK  2 active torsions:
REMARK  status: ('A' for Active; 'I' for Inactive)
REMARK    1  A    between atoms: C3_5  and  N2_6 
REMARK    2  A    between atoms: C4_7  and  C5_8 
ROOT
HETATM    1  N2  UNL     1      -0.568   0.244   0.078  1.00  0.00    -0.127 N 
HETATM    2  C4  UNL     1      -0.195   1.507   0.196  1.00  0.00     0.140 A 
HETATM    3  N3  UNL     1       1.147   1.851   0.093  1.00  0.00    -0.338 N 
ATOM      4  H3  UNL     1       1.416   2.831   0.185  1.00  0.00     0.167 HD
HETATM    5  C11 UNL     1       2.088   0.942  -0.121  1.00  0.00     0.075 A 
HETATM    6  C12 UNL     1       1.721  -0.378  -0.244  1.00  0.00     0.089 A 
HETATM    7  N4  UNL     1       2.823  -1.115  -0.453  1.00  0.00    -0.352 N 
ATOM      8  H4  UNL     1       2.832  -2.127  -0.578  1.00  0.00     0.166 HD
HETATM    9  C13 UNL     1       3.914  -0.327  -0.474  1.00  0.00     0.045 A 
HETATM   10  C14 UNL     1       5.273  -0.566  -0.649  1.00  0.00     0.030 A 
HETATM   11  C15 UNL     1       6.163   0.483  -0.616  1.00  0.00     0.002 A 
HETATM   12  C16 UNL     1       5.699   1.755  -0.410  1.00  0.00     0.001 A 
HETATM   13  C17 UNL     1       4.358   2.040  -0.231  1.00  0.00     0.016 A 
HETATM   14  C18 UNL     1       3.479   0.970  -0.267  1.00  0.00     0.020 A 
HETATM   15  C19 UNL     1       0.391  -0.717  -0.143  1.00  0.00     0.098 A 
HETATM   16  C20 UNL     1       0.000  -2.094  -0.278  1.00  0.00    -0.006 A 
HETATM   17  C21 UNL     1      -0.387  -2.673  -1.458  1.00  0.00     0.017 A 
HETATM   18  C22 UNL     1      -0.723  -4.003  -1.473  1.00  0.00     0.043 A 
HETATM   19  C23 UNL     1      -0.687  -4.789  -0.341  1.00  0.00     0.116 A 
HETATM   20  F1  UNL     1      -1.014  -6.102  -0.334  1.00  0.00    -0.206 F 
HETATM   21  C24 UNL     1      -0.300  -4.224   0.854  1.00  0.00     0.043 A 
HETATM   22  C25 UNL     1       0.034  -2.886   0.851  1.00  0.00     0.017 A 
ENDROOT
BRANCH   1  23
HETATM   23  C3  UNL     1      -1.881  -0.259   0.056  1.00  0.00     0.713 A 
HETATM   24  N1  UNL     1      -2.583  -1.090   0.811  1.00  0.00    -0.170 N 
HETATM   25  C2  UNL     1      -3.808  -1.256   0.294  1.00  0.00     0.158 A 
ATOM     26  H1  UNL     1      -2.241  -1.538   1.661  1.00  0.00     0.186 HD
HETATM   27  C1  UNL     1      -4.928  -2.099   0.809  1.00  0.00     0.100 C 
HETATM   28  O1  UNL     1      -3.871  -0.532  -0.779  1.00  0.00    -0.210 OA
HETATM   29  N5  UNL     1      -2.746   0.076  -0.955  1.00  0.00    -0.089 N 
ATOM     30  H5  UNL     1      -2.533   0.708  -1.727  1.00  0.00     0.213 HD
ENDBRANCH   1  23
BRANCH   2  31
HETATM   31  C5  UNL     1      -1.134   2.620   0.362  1.00  0.00     0.009 A 
HETATM   32  C6  UNL     1      -0.738   3.878  -0.142  1.00  0.00     0.015 A 
HETATM   33  C7  UNL     1      -1.472   5.018   0.003  1.00  0.00     0.001 A 
HETATM   34  C8  UNL     1      -2.673   4.919   0.688  1.00  0.00     0.000 A 
HETATM   35  C9  UNL     1      -3.085   3.732   1.186  1.00  0.00     0.001 A 
HETATM   36  C10 UNL     1      -2.309   2.573   1.023  1.00  0.00     0.015 A 
ENDBRANCH   2  31
TORSDOF 2
