REMARK  5 active torsions:
REMARK  status: ('A' for Active; 'I' for Inactive)
REMARK    1  A    between atoms: C4_5  and  N2_6 
REMARK    2  A    between atoms: C6_8  and  C7_9 
REMARK    3  A    between atoms: C7_9  and  O1_11 
REMARK    4  A    between atoms: C7_9  and  C9_13 
REMARK    5  A    between atoms: C16_24  and  C17_25 
ROOT
HETATM    1  C1  UNL     1       3.164  -3.212   0.755  1.00  0.00     0.144 C 
HETATM    2  N1  UNL     1       2.293  -2.102   0.651  1.00  0.00    -0.405 N 
HETATM    3  C2  UNL     1       2.166  -1.475  -0.621  1.00  0.00     0.104 C 
HETATM    4  C3  UNL     1       0.740  -1.002  -0.685  1.00  0.00     0.025 C 
HETATM    5  C4  UNL     1       0.171  -0.571   0.440  1.00  0.00     0.035 C 
HETATM    6  C13 UNL     1       0.860  -0.518   1.746  1.00  0.00     0.084 C 
HETATM    7  C14 UNL     1       2.191  -1.213   1.745  1.00  0.00     0.085 C 
HETATM    8  C15 UNL     1       3.300  -0.172   1.723  1.00  0.00     0.034 C 
HETATM    9  C16 UNL     1       3.425   0.474   0.366  1.00  0.00     0.022 C 
HETATM   10  C23 UNL     1       3.088  -0.350  -0.808  1.00  0.00     0.038 C 
ENDROOT
BRANCH   5  11
HETATM   11  N2  UNL     1      -1.203  -0.113   0.409  1.00  0.00    -0.256 N 
HETATM   12  C5  UNL     1      -2.022  -0.088  -0.643  1.00  0.00     0.147 A 
HETATM   13  C6  UNL     1      -3.245   0.410  -0.235  1.00  0.00     0.079 A 
HETATM   14  N3  UNL     1      -3.087   0.663   1.076  1.00  0.00    -0.286 N 
HETATM   15  N4  UNL     1      -1.854   0.340   1.435  1.00  0.00    -0.236 N 
ATOM     16  H3  UNL     1      -3.803   1.043   1.695  1.00  0.00     0.188 HD
ATOM     17  H4  UNL     1      -1.474   0.433   2.377  1.00  0.00     0.209 HD
BRANCH  13  18
HETATM   18  C7  UNL     1      -4.469   0.622  -1.056  1.00  0.00     0.105 C 
HETATM   19  C8  UNL     1      -4.573  -0.579  -2.012  1.00  0.00     0.053 C 
BRANCH  18  20
HETATM   20  O1  UNL     1      -4.396   1.742  -1.862  1.00  0.00    -0.383 OA
ATOM     21  H1  UNL     1      -5.177   1.877  -2.386  1.00  0.00     0.211 HD
ENDBRANCH  18  20
BRANCH  18  22
HETATM   22  C9  UNL     1      -5.724   0.620  -0.224  1.00  0.00    -0.015 C 
HETATM   23  C10 UNL     1      -5.941  -0.693   0.504  1.00  0.00     0.018 C 
HETATM   24  C11 UNL     1      -5.640   1.677   0.878  1.00  0.00     0.018 C 
HETATM   25  C12 UNL     1      -6.929   0.950  -1.071  1.00  0.00     0.018 C 
ENDBRANCH  18  22
ENDBRANCH  13  18
ENDBRANCH   5  11
BRANCH   9  26
HETATM   26  C17 UNL     1       4.859   0.864   0.252  1.00  0.00    -0.054 A 
HETATM   27  C18 UNL     1       5.229   2.179   0.288  1.00  0.00     0.009 A 
HETATM   28  C19 UNL     1       6.579   2.547   0.181  1.00  0.00     0.019 A 
HETATM   29  C20 UNL     1       7.538   1.567   0.038  1.00  0.00     0.011 A 
HETATM   30 BR1  UNL     1       9.385   2.021  -0.105  1.00  0.00    -0.051 Br
HETATM   31  C21 UNL     1       7.180   0.239  -0.001  1.00  0.00     0.019 A 
HETATM   32  C22 UNL     1       5.827  -0.102   0.108  1.00  0.00     0.009 A 
ENDBRANCH   9  26
TORSDOF 5
