REMARK  13 active torsions:
REMARK  status: ('A' for Active; 'I' for Inactive)
REMARK    1  A    between atoms: C3_4  and  C4_5 
REMARK    2  A    between atoms: C4_5  and  C5_6 
REMARK    3  A    between atoms: C5_6  and  O2_7 
REMARK    4  A    between atoms: O2_7  and  C6_8 
REMARK    5  A    between atoms: C7_9  and  O3_10 
REMARK    6  A    between atoms: O3_10  and  C8_11 
REMARK    7  A    between atoms: C14_17  and  O4_18 
REMARK    8  A    between atoms: C15_20  and  O5_21 
REMARK    9  A    between atoms: C16_23  and  O6_24 
REMARK   10  A    between atoms: C17_26  and  C18_27 
REMARK   11  A    between atoms: C19_30  and  O9_31 
REMARK   12  A    between atoms: C20_33  and  O10_34 
REMARK   13  A    between atoms: C21_36  and  O11_37 
ROOT
HETATM    1  C6  UNL     1       0.550   1.469   0.254  1.00  0.00     0.169 C 
HETATM    2  C7  UNL     1       2.050   1.374   0.304  1.00  0.00     0.183 C 
HETATM    3  C14 UNL     1       2.709   2.387  -0.603  1.00  0.00     0.180 C 
HETATM    4  C15 UNL     1       1.803   3.206  -1.438  1.00  0.00     0.179 C 
HETATM    5  C16 UNL     1       0.520   3.644  -0.822  1.00  0.00     0.166 C 
HETATM    6  C17 UNL     1       0.160   2.934   0.442  1.00  0.00     0.149 C 
ENDROOT
BRANCH   1   7
HETATM    7  O2  UNL     1      -0.111   0.766   1.231  1.00  0.00    -0.382 OA
BRANCH   7   8
HETATM    8  C5  UNL     1      -1.081  -0.098   0.797  1.00  0.00     0.171 C 
BRANCH   8   9
HETATM    9  C4  UNL     1      -2.200   0.557   0.025  1.00  0.00     0.061 C 
BRANCH   9  10
HETATM   10  C3  UNL     1      -3.216  -0.479  -0.396  1.00  0.00     0.155 C 
HETATM   11  O1  UNL     1      -2.646  -1.457  -1.206  1.00  0.00    -0.376 OA
HETATM   12  C2  UNL     1      -3.564  -2.476  -1.412  1.00  0.00     0.149 C 
HETATM   13  C1  UNL     1      -2.958  -3.705  -0.716  1.00  0.00     0.042 C 
HETATM   14  C21 UNL     1      -4.900  -2.257  -0.797  1.00  0.00     0.178 C 
HETATM   15  C20 UNL     1      -5.519  -0.919  -1.010  1.00  0.00     0.180 C 
HETATM   16  C19 UNL     1      -4.435   0.132  -1.048  1.00  0.00     0.178 C 
BRANCH  14  17
HETATM   17  O11 UNL     1      -5.775  -3.205  -1.384  1.00  0.00    -0.390 OA
ATOM     18  H11 UNL     1      -6.629  -3.065  -0.991  1.00  0.00     0.210 HD
ENDBRANCH  14  17
BRANCH  15  19
HETATM   19  O10 UNL     1      -6.225  -0.842  -2.226  1.00  0.00    -0.390 OA
ATOM     20  H10 UNL     1      -6.907  -1.503  -2.202  1.00  0.00     0.210 HD
ENDBRANCH  15  19
BRANCH  16  21
HETATM   21  O9  UNL     1      -4.139   0.406  -2.373  1.00  0.00    -0.390 OA
ATOM     22  H9  UNL     1      -4.905   0.790  -2.783  1.00  0.00     0.210 HD
ENDBRANCH  16  21
ENDBRANCH   9  10
ENDBRANCH   8   9
ENDBRANCH   7   8
ENDBRANCH   1   7
BRANCH   2  23
HETATM   23  O3  UNL     1       2.463   0.143  -0.072  1.00  0.00    -0.375 OA
BRANCH  23  24
HETATM   24  C8  UNL     1       3.217  -0.609   0.780  1.00  0.00     0.122 C 
HETATM   25  C9  UNL     1       4.602  -0.920   0.276  1.00  0.00     0.032 C 
HETATM   26  C10 UNL     1       5.352  -1.701   1.328  1.00  0.00     0.002 C 
HETATM   27  C11 UNL     1       4.615  -2.921   1.790  1.00  0.00     0.000 C 
HETATM   28  C12 UNL     1       3.212  -2.551   2.267  1.00  0.00     0.002 C 
HETATM   29  C13 UNL     1       2.537  -1.908   1.069  1.00  0.00     0.032 C 
ENDBRANCH  23  24
ENDBRANCH   2  23
BRANCH   6  30
HETATM   30  C18 UNL     1       0.754   3.544   1.639  1.00  0.00     0.182 C 
HETATM   31  O7  UNL     1       1.484   4.556   1.512  1.00  0.00    -0.648 OA
HETATM   32  O8  UNL     1       0.544   3.050   2.914  1.00  0.00    -0.648 OA
ENDBRANCH   6  30
BRANCH   3  33
HETATM   33  O4  UNL     1       3.576   1.712  -1.498  1.00  0.00    -0.390 OA
ATOM     34  H4  UNL     1       3.990   2.349  -2.068  1.00  0.00     0.210 HD
ENDBRANCH   3  33
BRANCH   5  35
HETATM   35  O6  UNL     1       0.432   5.023  -0.631  1.00  0.00    -0.392 OA
ATOM     36  H6  UNL     1      -0.387   5.302  -0.238  1.00  0.00     0.210 HD
ENDBRANCH   5  35
BRANCH   4  37
HETATM   37  O5  UNL     1       2.501   4.393  -1.778  1.00  0.00    -0.390 OA
ATOM     38  H5  UNL     1       1.919   4.919  -2.314  1.00  0.00     0.210 HD
ENDBRANCH   4  37
TORSDOF 13
