REMARK  14 active torsions:
REMARK  status: ('A' for Active; 'I' for Inactive)
REMARK    1  A    between atoms: C1_2  and  O2_3 
REMARK    2  A    between atoms: C1_2  and  C9_20 
REMARK    3  A    between atoms: O2_3  and  C2_4 
REMARK    4  A    between atoms: C2_4  and  C3_5 
REMARK    5  A    between atoms: C4_7  and  C5_8 
REMARK    6  A    between atoms: C5_8  and  O4_9 
REMARK    7  A    between atoms: C6_11  and  O5_12 
REMARK    8  A    between atoms: C7_14  and  O6_15 
REMARK    9  A    between atoms: C8_17  and  O7_18 
REMARK   10  A    between atoms: C9_20  and  N1_21 
REMARK   11  A    between atoms: C9_20  and  C17_33 
REMARK   12  A    between atoms: N1_21  and  C10_23 
REMARK   13  A    between atoms: C10_23  and  N2_25 
REMARK   14  A    between atoms: N2_25  and  C11_27 
ROOT
HETATM    1  O1  UNL     1      -0.308  -1.442   1.421  1.00  0.00    -0.263 OA
HETATM    2  C1  UNL     1      -0.594  -0.742   0.424  1.00  0.00     0.284 C 
ENDROOT
BRANCH   2   3
HETATM    3  O2  UNL     1      -1.902  -0.544   0.016  1.00  0.00    -0.317 OA
BRANCH   3   4
HETATM    4  C2  UNL     1      -2.919  -1.178   0.785  1.00  0.00     0.213 C 
BRANCH   4   5
HETATM    5  C3  UNL     1      -4.294  -0.877   0.226  1.00  0.00     0.177 C 
HETATM    6  O3  UNL     1      -4.470   0.498   0.264  1.00  0.00    -0.371 OA
HETATM    7  C4  UNL     1      -5.674   0.906  -0.282  1.00  0.00     0.177 C 
HETATM    8  C6  UNL     1      -6.814  -0.018  -0.013  1.00  0.00     0.180 C 
HETATM    9  C7  UNL     1      -6.564  -0.791   1.246  1.00  0.00     0.180 C 
HETATM   10  C8  UNL     1      -5.306  -1.612   1.065  1.00  0.00     0.180 C 
BRANCH   7  11
HETATM   11  C5  UNL     1      -6.005   2.270   0.285  1.00  0.00     0.198 C 
BRANCH  11  12
HETATM   12  O4  UNL     1      -4.992   3.202  -0.043  1.00  0.00    -0.398 OA
ATOM     13  H4  UNL     1      -5.200   4.058   0.313  1.00  0.00     0.209 HD
ENDBRANCH  11  12
ENDBRANCH   7  11
BRANCH   8  14
HETATM   14  O5  UNL     1      -6.989  -0.959  -1.044  1.00  0.00    -0.390 OA
ATOM     15  H5  UNL     1      -7.715  -1.547  -0.873  1.00  0.00     0.210 HD
ENDBRANCH   8  14
BRANCH   9  16
HETATM   16  O6  UNL     1      -6.400   0.025   2.356  1.00  0.00    -0.390 OA
ATOM     17  H6  UNL     1      -6.241  -0.465   3.154  1.00  0.00     0.210 HD
ENDBRANCH   9  16
BRANCH  10  18
HETATM   18  O7  UNL     1      -5.672  -2.815   0.463  1.00  0.00    -0.390 OA
ATOM     19  H7  UNL     1      -6.310  -3.279   0.992  1.00  0.00     0.210 HD
ENDBRANCH  10  18
ENDBRANCH   4   5
ENDBRANCH   3   4
ENDBRANCH   2   3
BRANCH   2  20
HETATM   20  C9  UNL     1       0.559  -0.114  -0.323  1.00  0.00     0.218 C 
BRANCH  20  21
HETATM   21  N1  UNL     1       1.803  -0.478   0.309  1.00  0.00    -0.351 N 
ATOM     22  H1  UNL     1       1.771  -1.260   0.963  1.00  0.00     0.163 HD
BRANCH  21  23
HETATM   23  C10 UNL     1       3.059   0.133   0.118  1.00  0.00     0.168 C 
HETATM   24  S1  UNL     1       3.205   1.425  -0.854  1.00  0.00    -0.041 SA
BRANCH  23  25
HETATM   25  N2  UNL     1       4.189  -0.355   0.802  1.00  0.00    -0.363 N 
ATOM     26  H2  UNL     1       4.021  -1.149   1.420  1.00  0.00     0.162 HD
BRANCH  25  27
HETATM   27  C11 UNL     1       5.530   0.107   0.748  1.00  0.00     0.083 C 
HETATM   28  C12 UNL     1       6.110  -0.050  -0.633  1.00  0.00     0.025 C 
HETATM   29  C13 UNL     1       7.600   0.282  -0.638  1.00  0.00     0.002 C 
HETATM   30  C14 UNL     1       7.660   1.774  -0.295  1.00  0.00     0.000 C 
HETATM   31  C15 UNL     1       7.198   1.938   1.111  1.00  0.00     0.002 C 
HETATM   32  C16 UNL     1       5.783   1.465   1.335  1.00  0.00     0.025 C 
ENDBRANCH  25  27
ENDBRANCH  23  25
ENDBRANCH  21  23
ENDBRANCH  20  21
BRANCH  20  33
HETATM   33  C17 UNL     1       0.452  -0.613  -1.762  1.00  0.00     0.219 C 
HETATM   34  C18 UNL     1       0.953  -2.038  -1.927  1.00  0.00     0.247 C 
HETATM   35  O8  UNL     1       1.668  -1.422  -2.956  1.00  0.00    -0.238 OA
HETATM   36  O9  UNL     1       1.378  -0.181  -2.646  1.00  0.00    -0.231 OA
ENDBRANCH  20  33
ENDBRANCH   2  20
TORSDOF 14
