REMARK  12 active torsions:
REMARK  status: ('A' for Active; 'I' for Inactive)
REMARK    1  A    between atoms: C1_2  and  C2_4 
REMARK    2  A    between atoms: C3_6  and  S1_7 
REMARK    3  A    between atoms: S1_7  and  C4_8 
REMARK    4  A    between atoms: C5_9  and  C6_10 
REMARK    5  A    between atoms: C6_10  and  N2_11 
REMARK    6  A    between atoms: N2_11  and  C7_13 
REMARK    7  A    between atoms: C7_13  and  C8_14 
REMARK    8  A    between atoms: C14_21  and  C15_22 
REMARK    9  A    between atoms: C15_22  and  O4_23 
REMARK   10  A    between atoms: C16_25  and  O5_26 
REMARK   11  A    between atoms: C18_30  and  O7_31 
REMARK   12  A    between atoms: C20_34  and  O8_35 
ROOT
HETATM    1  C4  UNL     1       0.281   1.072  -1.589  1.00  0.00     0.114 C 
HETATM    2  C5  UNL     1      -0.983   0.329  -1.315  1.00  0.00     0.156 C 
HETATM    3  O3  UNL     1      -1.969   0.936  -2.020  1.00  0.00    -0.373 OA
HETATM    4  C14 UNL     1      -1.540   2.062  -2.653  1.00  0.00     0.175 C 
HETATM    5  C16 UNL     1      -0.053   2.069  -2.639  1.00  0.00     0.165 C 
ENDROOT
BRANCH   1   6
HETATM    6  S1  UNL     1       1.676   0.013  -2.060  1.00  0.00    -0.100 SA
BRANCH   6   7
HETATM    7  C3  UNL     1       2.126  -0.980  -0.620  1.00  0.00     0.328 C 
HETATM    8  O2  UNL     1       2.586  -0.066   0.343  1.00  0.00    -0.326 OA
HETATM    9  C2  UNL     1       3.761  -0.542   0.862  1.00  0.00     0.196 C 
HETATM   10  C17 UNL     1       3.733  -1.985   0.413  1.00  0.00     0.200 C 
HETATM   11  C20 UNL     1       5.001  -0.027   0.166  1.00  0.00     0.167 C 
HETATM   12  O6  UNL     1       3.220  -1.810  -0.890  1.00  0.00    -0.341 OA
HETATM   13  C18 UNL     1       5.160  -2.448   0.374  1.00  0.00     0.153 C 
HETATM   14  C19 UNL     1       5.968  -1.207   0.151  1.00  0.00     0.069 C 
BRANCH   9  15
HETATM   15  C1  UNL     1       3.772  -0.352   2.307  1.00  0.00     0.271 C 
HETATM   16  N1  UNL     1       2.655   0.225   2.958  1.00  0.00    -0.059 NA
HETATM   17  O1  UNL     1       4.753  -0.685   3.015  1.00  0.00    -0.273 OA
ENDBRANCH   9  15
BRANCH  13  18
HETATM   18  O7  UNL     1       5.501  -3.049   1.564  1.00  0.00    -0.393 OA
ATOM     19  H7  UNL     1       6.404  -3.342   1.539  1.00  0.00     0.210 HD
ENDBRANCH  13  18
BRANCH  11  20
HETATM   20  O8  UNL     1       4.696   0.277  -1.167  1.00  0.00    -0.392 OA
ATOM     21  H8  UNL     1       5.475   0.601  -1.604  1.00  0.00     0.210 HD
ENDBRANCH  11  20
ENDBRANCH   6   7
ENDBRANCH   1   6
BRANCH   2  22
HETATM   22  C6  UNL     1      -1.200   0.305   0.180  1.00  0.00     0.152 C 
BRANCH  22  23
HETATM   23  N2  UNL     1      -2.344  -0.369   0.671  1.00  0.00    -0.396 N 
ATOM     24  H2  UNL     1      -2.289  -1.257   1.169  1.00  0.00     0.159 HD
BRANCH  23  25
HETATM   25  C7  UNL     1      -3.563   0.285   0.416  1.00  0.00     0.094 C 
BRANCH  25  26
HETATM   26  C8  UNL     1      -4.745  -0.424   0.992  1.00  0.00    -0.021 A 
HETATM   27  C9  UNL     1      -5.777  -0.810   0.171  1.00  0.00     0.013 A 
HETATM   28  C10 UNL     1      -6.899  -1.472   0.667  1.00  0.00     0.001 A 
HETATM   29  C11 UNL     1      -6.990  -1.751   2.005  1.00  0.00     0.000 A 
HETATM   30  C12 UNL     1      -5.961  -1.368   2.832  1.00  0.00     0.001 A 
HETATM   31  C13 UNL     1      -4.831  -0.702   2.336  1.00  0.00     0.013 A 
ENDBRANCH  25  26
ENDBRANCH  23  25
ENDBRANCH  22  23
ENDBRANCH   2  22
BRANCH   5  32
HETATM   32  O5  UNL     1       0.505   1.759  -3.878  1.00  0.00    -0.392 OA
ATOM     33  H5  UNL     1       0.291   2.396  -4.549  1.00  0.00     0.210 HD
ENDBRANCH   5  32
BRANCH   4  34
HETATM   34  C15 UNL     1      -2.091   3.274  -1.913  1.00  0.00     0.198 C 
BRANCH  34  35
HETATM   35  O4  UNL     1      -1.682   4.461  -2.517  1.00  0.00    -0.398 OA
ATOM     36  H4  UNL     1      -2.026   5.217  -2.055  1.00  0.00     0.209 HD
ENDBRANCH  34  35
ENDBRANCH   4  34
TORSDOF 12
