REMARK  16 active torsions:
REMARK  status: ('A' for Active; 'I' for Inactive)
REMARK    1  A    between atoms: O1_2  and  C2_3 
REMARK    2  A    between atoms: C2_3  and  C5_6 
REMARK       I    between atoms: C5_6  and  N1_8 
REMARK       I    between atoms: N2_11  and  C8_12 
REMARK    3  A    between atoms: C8_12  and  C9_14 
REMARK    4  A    between atoms: C9_14  and  C11_16 
REMARK    5  A    between atoms: C11_16  and  C12_17 
REMARK    6  A    between atoms: C12_17  and  N3_18 
REMARK    7  A    between atoms: C12_17  and  C26_38 
REMARK       I    between atoms: N3_18  and  C13_20 
REMARK    8  A    between atoms: C13_20  and  C14_22 
REMARK    9  A    between atoms: N4_26  and  C18_27 
REMARK   10  A    between atoms: C18_27  and  O5_28 
REMARK   11  A    between atoms: C18_27  and  C19_30 
REMARK   12  A    between atoms: C19_30  and  C20_32 
REMARK   13  A    between atoms: C20_32  and  C23_35 
REMARK   14  A    between atoms: C26_38  and  O7_39 
REMARK   15  A    between atoms: C26_38  and  C27_41 
REMARK   16  A    between atoms: C27_41  and  C28_42 
ROOT
HETATM    1  C12 UNL     1       0.044  -2.044   0.198  1.00  0.00     0.019 C 
ENDROOT
BRANCH   1   2
HETATM    2  C11 UNL     1       1.049  -1.375  -0.689  1.00  0.00     0.069 C 
BRANCH   2   3
HETATM    3  C9  UNL     1       0.726   0.022  -1.142  1.00  0.00     0.079 C 
HETATM    4  C10 UNL     1      -0.499   0.049  -2.052  1.00  0.00     0.020 C 
BRANCH   3   5
HETATM    5  C8  UNL     1       1.831   0.570  -1.986  1.00  0.00     0.224 C 
HETATM    6  N2  UNL     1       3.079   0.936  -1.453  1.00  0.00    -0.349 N 
HETATM    7  C7  UNL     1       3.502   0.864  -0.080  1.00  0.00     0.145 C 
HETATM    8  C31 UNL     1       4.088   1.462  -2.383  1.00  0.00     0.145 C 
HETATM    9  C6  UNL     1       4.588   1.925   0.195  1.00  0.00     0.145 C 
HETATM   10  N1  UNL     1       5.750   1.649  -0.603  1.00  0.00    -0.346 N 
HETATM   11  C5  UNL     1       7.098   1.834  -0.283  1.00  0.00     0.254 C 
HETATM   12  C32 UNL     1       5.471   1.088  -1.940  1.00  0.00     0.145 C 
HETATM   13  O2  UNL     1       8.000   1.468  -1.142  1.00  0.00    -0.270 OA
HETATM   14  O3  UNL     1       1.634   0.706  -3.212  1.00  0.00    -0.273 OA
BRANCH  11  15
HETATM   15  C2  UNL     1       7.688   2.409   0.954  1.00  0.00     0.133 C 
HETATM   16  C3  UNL     1       7.983   1.106   1.790  1.00  0.00     0.056 C 
HETATM   17  C4  UNL     1       9.029   3.033   0.702  1.00  0.00     0.056 C 
BRANCH  15  18
HETATM   18  O1  UNL     1       6.843   3.113   1.754  1.00  0.00    -0.376 OA
HETATM   19  C1  UNL     1       6.553   4.391   1.346  1.00  0.00     0.203 C 
ENDBRANCH  15  18
ENDBRANCH  11  15
ENDBRANCH   3   5
ENDBRANCH   2   3
ENDBRANCH   1   2
BRANCH   1  20
HETATM   20  N3  UNL     1      -1.262  -2.241  -0.345  1.00  0.00    -0.330 N 
HETATM   21  C13 UNL     1      -2.463  -1.778   0.332  1.00  0.00     0.244 C 
HETATM   22  O4  UNL     1      -2.300  -1.211   1.409  1.00  0.00    -0.271 OA
ATOM     23  H3  UNL     1      -1.356  -2.723  -1.239  1.00  0.00     0.168 HD
BRANCH  21  24
HETATM   24  C14 UNL     1      -3.748  -2.008  -0.289  1.00  0.00     0.178 C 
HETATM   25  C15 UNL     1      -4.330  -3.309   0.382  1.00  0.00     0.037 C 
HETATM   26  C16 UNL     1      -5.793  -3.172   0.122  1.00  0.00     0.022 C 
HETATM   27  C17 UNL     1      -5.950  -1.998  -0.770  1.00  0.00     0.126 C 
HETATM   28  N4  UNL     1      -4.823  -1.115  -0.201  1.00  0.00    -0.345 N 
BRANCH  28  29
HETATM   29  C18 UNL     1      -5.174   0.202   0.088  1.00  0.00     0.186 C 
BRANCH  29  30
HETATM   30  O5  UNL     1      -6.485   0.376   0.132  1.00  0.00    -0.343 OA
ATOM     31  H5  UNL     1      -6.724   1.274   0.329  1.00  0.00     0.219 HD
ENDBRANCH  29  30
BRANCH  29  32
HETATM   32  C19 UNL     1      -4.470   1.410   0.341  1.00  0.00     0.207 C 
HETATM   33  O6  UNL     1      -3.228   1.479   0.342  1.00  0.00    -0.288 OA
BRANCH  32  34
HETATM   34  C20 UNL     1      -5.153   2.723   0.624  1.00  0.00     0.025 C 
HETATM   35  C21 UNL     1      -6.254   2.615   1.620  1.00  0.00     0.024 C 
HETATM   36  C22 UNL     1      -4.065   3.575   1.355  1.00  0.00     0.024 C 
BRANCH  34  37
HETATM   37  C23 UNL     1      -5.512   3.509  -0.567  1.00  0.00    -0.007 C 
HETATM   38  C24 UNL     1      -6.196   4.798  -0.072  1.00  0.00     0.011 C 
HETATM   39  C25 UNL     1      -6.437   2.908  -1.566  1.00  0.00     0.011 C 
ENDBRANCH  34  37
ENDBRANCH  32  34
ENDBRANCH  29  32
ENDBRANCH  28  29
ENDBRANCH  21  24
ENDBRANCH   1  20
BRANCH   1  40
HETATM   40  C26 UNL     1       0.643  -3.191   0.958  1.00  0.00     0.164 C 
BRANCH  40  41
HETATM   41  O7  UNL     1       1.908  -2.717   1.423  1.00  0.00    -0.390 OA
ATOM     42  H7  UNL     1       2.287  -3.443   1.904  1.00  0.00     0.210 HD
ENDBRANCH  40  41
BRANCH  40  43
HETATM   43  C27 UNL     1       0.870  -4.476   0.320  1.00  0.00     0.041 C 
BRANCH  43  44
HETATM   44  C28 UNL     1      -0.281  -5.261  -0.220  1.00  0.00    -0.020 C 
HETATM   45  C29 UNL     1      -1.287  -5.618   0.862  1.00  0.00     0.009 C 
HETATM   46  C30 UNL     1       0.333  -6.633  -0.614  1.00  0.00     0.009 C 
ENDBRANCH  43  44
ENDBRANCH  40  43
ENDBRANCH   1  40
TORSDOF 16
