REMARK  14 active torsions:
REMARK  status: ('A' for Active; 'I' for Inactive)
REMARK    1  A    between atoms: C2_2  and  C3_3 
REMARK       I    between atoms: N1_4  and  C4_6 
REMARK    2  A    between atoms: C4_6  and  C5_8 
REMARK       I    between atoms: N2_11  and  C8_12 
REMARK    3  A    between atoms: C8_12  and  C9_14 
REMARK    4  A    between atoms: C9_14  and  C10_16 
REMARK    5  A    between atoms: C10_16  and  C11_17 
REMARK    6  A    between atoms: C10_16  and  N3_22 
REMARK    7  A    between atoms: C11_17  and  C12_18 
REMARK       I    between atoms: N3_22  and  C16_24 
REMARK    8  A    between atoms: C16_24  and  C17_26 
REMARK       I    between atoms: N4_30  and  C21_31 
REMARK    9  A    between atoms: C21_31  and  C22_33 
REMARK   10  A    between atoms: C22_33  and  C23_35 
REMARK   11  A    between atoms: C23_35  and  N5_36 
REMARK   12  A    between atoms: C23_35  and  C29_45 
REMARK       I    between atoms: N5_36  and  C24_38 
REMARK   13  A    between atoms: C24_38  and  O8_40 
REMARK   14  A    between atoms: O8_40  and  C25_41 
ROOT
HETATM    1  N3  UNL     1       1.881  -0.290   0.285  1.00  0.00    -0.347 N 
ATOM      2  H3  UNL     1       2.303   0.255   1.037  1.00  0.00     0.163 HD
HETATM    3  C16 UNL     1       0.546   0.046  -0.179  1.00  0.00     0.241 C 
HETATM    4  O4  UNL     1       0.135  -0.695  -1.093  1.00  0.00    -0.271 OA
ENDROOT
BRANCH   3   5
HETATM    5  C17 UNL     1      -0.091   1.145   0.462  1.00  0.00     0.179 C 
HETATM    6  C18 UNL     1       0.298   1.397   1.929  1.00  0.00     0.037 C 
HETATM    7  C19 UNL     1      -0.747   2.386   2.424  1.00  0.00     0.022 C 
HETATM    8  C20 UNL     1      -1.585   2.623   1.149  1.00  0.00     0.127 C 
HETATM    9  N4  UNL     1      -1.513   1.263   0.582  1.00  0.00    -0.332 N 
HETATM   10  C21 UNL     1      -2.615   0.425   0.359  1.00  0.00     0.296 C 
HETATM   11  O5  UNL     1      -2.323  -0.771  -0.001  1.00  0.00    -0.264 OA
BRANCH  10  12
HETATM   12  C22 UNL     1      -4.007   0.714   0.476  1.00  0.00     0.262 C 
HETATM   13  O6  UNL     1      -4.368   1.927   0.649  1.00  0.00    -0.280 OA
BRANCH  12  14
HETATM   14  C23 UNL     1      -5.098  -0.241   0.419  1.00  0.00     0.073 C 
BRANCH  14  15
HETATM   15  N5  UNL     1      -6.155   0.295  -0.433  1.00  0.00    -0.302 N 
HETATM   16  C24 UNL     1      -7.409   0.745   0.018  1.00  0.00     0.365 C 
HETATM   17  O7  UNL     1      -7.735   0.724   1.256  1.00  0.00    -0.238 OA
ATOM     18  H5  UNL     1      -5.970   0.347  -1.435  1.00  0.00     0.171 HD
BRANCH  16  19
HETATM   19  O8  UNL     1      -8.396   1.242  -0.817  1.00  0.00    -0.294 OA
BRANCH  19  20
HETATM   20  C25 UNL     1      -9.649   1.685  -0.352  1.00  0.00     0.061 C 
HETATM   21  C26 UNL     1     -10.428   2.144  -1.581  1.00  0.00     0.046 C 
HETATM   22  C27 UNL     1      -9.558   2.871   0.573  1.00  0.00     0.046 C 
HETATM   23  C28 UNL     1     -10.410   0.598   0.366  1.00  0.00     0.046 C 
ENDBRANCH  19  20
ENDBRANCH  16  19
ENDBRANCH  14  15
BRANCH  14  24
HETATM   24  C29 UNL     1      -4.870  -1.687   0.312  1.00  0.00     0.032 C 
HETATM   25  C30 UNL     1      -6.245  -2.426   0.204  1.00  0.00     0.016 C 
HETATM   26  C31 UNL     1      -4.239  -2.314   1.538  1.00  0.00     0.016 C 
ENDBRANCH  14  24
ENDBRANCH  12  14
ENDBRANCH  10  12
ENDBRANCH   3   5
BRANCH   1  27
HETATM   27  C10 UNL     1       2.635  -1.406  -0.313  1.00  0.00     0.165 C 
BRANCH  27  28
HETATM   28  C9  UNL     1       3.992  -0.980  -0.644  1.00  0.00     0.239 C 
HETATM   29  O3  UNL     1       4.548  -0.148   0.152  1.00  0.00    -0.285 OA
BRANCH  28  30
HETATM   30  C8  UNL     1       4.769  -1.406  -1.793  1.00  0.00     0.292 C 
HETATM   31  N2  UNL     1       6.095  -0.965  -2.001  1.00  0.00    -0.332 N 
HETATM   32  C5  UNL     1       6.967  -0.077  -1.251  1.00  0.00     0.181 C 
HETATM   33  C7  UNL     1       7.129  -1.179  -2.986  1.00  0.00     0.129 C 
HETATM   34  C6  UNL     1       8.154  -0.555  -2.063  1.00  0.00     0.055 C 
HETATM   35  O2  UNL     1       4.252  -2.187  -2.623  1.00  0.00    -0.264 OA
BRANCH  32  36
HETATM   36  C4  UNL     1       6.707   1.359  -1.471  1.00  0.00     0.244 C 
HETATM   37  N1  UNL     1       7.433   2.310  -0.718  1.00  0.00    -0.339 N 
HETATM   38  C3  UNL     1       8.302   3.128  -1.146  1.00  0.00     0.063 C 
ATOM     39  H1  UNL     1       7.235   2.342   0.282  1.00  0.00     0.167 HD
HETATM   40  O1  UNL     1       5.858   1.800  -2.306  1.00  0.00    -0.271 OA
BRANCH  38  41
HETATM   41  C2  UNL     1       8.960   4.052  -0.208  1.00  0.00     0.040 C 
HETATM   42  C1  UNL     1      10.412   4.176  -0.580  1.00  0.00     0.010 C 
ENDBRANCH  38  41
ENDBRANCH  32  36
ENDBRANCH  28  30
ENDBRANCH  27  28
BRANCH  27  43
HETATM   43  C11 UNL     1       2.549  -2.564   0.666  1.00  0.00     0.038 C 
BRANCH  43  44
HETATM   44  C12 UNL     1       3.232  -3.801   0.193  1.00  0.00    -0.012 C 
HETATM   45  C13 UNL     1       3.053  -4.923   1.209  1.00  0.00     0.005 C 
HETATM   46  C14 UNL     1       4.462  -4.745   1.686  1.00  0.00     0.001 C 
HETATM   47  C15 UNL     1       4.720  -3.820   0.531  1.00  0.00     0.005 C 
ENDBRANCH  43  44
ENDBRANCH  27  43
ENDBRANCH   1  27
TORSDOF 14
