REMARK  13 active torsions:
REMARK  status: ('A' for Active; 'I' for Inactive)
REMARK    1  A    between atoms: C2_2  and  C3_3 
REMARK    2  A    between atoms: C3_3  and  N1_4 
REMARK    3  A    between atoms: C6_7  and  C7_8 
REMARK    4  A    between atoms: C7_8  and  S1_9 
REMARK    5  A    between atoms: S1_9  and  C8_10 
REMARK    6  A    between atoms: C8_10  and  C9_11 
REMARK    7  A    between atoms: C9_11  and  N2_12 
REMARK    8  A    between atoms: C9_11  and  C22_33 
REMARK       I    between atoms: N2_12  and  C10_14 
REMARK    9  A    between atoms: C10_14  and  C11_16 
REMARK   10  A    between atoms: C15_20  and  S2_21 
REMARK   11  A    between atoms: S2_21  and  C16_22 
REMARK   12  A    between atoms: C16_22  and  C17_23 
REMARK       I    between atoms: C17_23  and  N3_25 
REMARK       I    between atoms: C22_33  and  N4_35 
REMARK   13  A    between atoms: N4_35  and  C23_37 
ROOT
HETATM    1  C9  UNL     1      -1.690   0.269  -0.808  1.00  0.00     0.186 C 
ENDROOT
BRANCH   1   2
HETATM    2  C8  UNL     1      -2.773   0.981  -0.127  1.00  0.00     0.108 C 
BRANCH   2   3
HETATM    3  S1  UNL     1      -4.288   1.081  -1.044  1.00  0.00    -0.164 SA
BRANCH   3   4
HETATM    4  C7  UNL     1      -5.309  -0.284  -1.334  1.00  0.00     0.109 C 
BRANCH   4   5
HETATM    5  C6  UNL     1      -6.278  -0.764  -0.305  1.00  0.00     0.233 C 
HETATM    6  N1  UNL     1      -7.344   0.071   0.121  1.00  0.00     0.093 N 
HETATM    7  C4  UNL     1      -8.102  -0.383  -1.046  1.00  0.00     0.275 C 
HETATM    8  C5  UNL     1      -7.309  -1.670  -0.996  1.00  0.00     0.067 C 
BRANCH   6   9
HETATM    9  C3  UNL     1      -7.216   1.485   0.192  1.00  0.00     0.272 C 
BRANCH   9  10
HETATM   10  C2  UNL     1      -8.565   2.157   0.439  1.00  0.00     0.026 C 
HETATM   11  C1  UNL     1      -9.213   1.736   1.708  1.00  0.00     0.007 C 
ENDBRANCH   9  10
ENDBRANCH   6   9
ENDBRANCH   4   5
ENDBRANCH   3   4
ENDBRANCH   2   3
ENDBRANCH   1   2
BRANCH   1  12
HETATM   12  N2  UNL     1      -0.405   0.286  -0.117  1.00  0.00    -0.347 N 
HETATM   13  C10 UNL     1       0.857   0.245  -0.786  1.00  0.00     0.222 C 
HETATM   14  O1  UNL     1       0.911   0.194  -2.011  1.00  0.00    -0.273 OA
ATOM     15  H2  UNL     1      -0.408   0.330   0.902  1.00  0.00     0.163 HD
BRANCH  13  16
HETATM   16  C11 UNL     1       2.127   0.255   0.013  1.00  0.00     0.079 C 
HETATM   17  C12 UNL     1       2.266   1.562   0.740  1.00  0.00     0.014 C 
HETATM   18  C13 UNL     1       3.072   2.569  -0.083  1.00  0.00     0.002 C 
HETATM   19  C14 UNL     1       4.481   2.008  -0.131  1.00  0.00     0.015 C 
HETATM   20  C15 UNL     1       4.455   0.755  -0.940  1.00  0.00     0.048 C 
HETATM   21  C21 UNL     1       3.266  -0.121  -0.859  1.00  0.00     0.029 C 
BRANCH  20  22
HETATM   22  S2  UNL     1       6.006  -0.181  -0.735  1.00  0.00    -0.155 SA
BRANCH  22  23
HETATM   23  C16 UNL     1       6.247  -0.729   0.981  1.00  0.00     0.178 C 
BRANCH  23  24
HETATM   24  C17 UNL     1       7.668  -1.159   1.153  1.00  0.00     0.242 C 
HETATM   25  O2  UNL     1       7.953  -2.342   1.353  1.00  0.00    -0.272 OA
HETATM   26  N3  UNL     1       8.648  -0.174   1.079  1.00  0.00    -0.245 N 
HETATM   27  C18 UNL     1       8.507   1.267   0.853  1.00  0.00     0.145 C 
HETATM   28  S3  UNL     1      10.359  -0.354   1.229  1.00  0.00     0.235 S 
HETATM   29  C19 UNL     1       9.507   1.548  -0.272  1.00  0.00     0.038 C 
HETATM   30  C20 UNL     1      10.852   1.124   0.304  1.00  0.00     0.165 C 
HETATM   31  O3  UNL     1      10.750  -0.170   2.658  1.00  0.00    -0.205 OA
HETATM   32  O4  UNL     1      10.898  -1.578   0.600  1.00  0.00    -0.205 OA
ENDBRANCH  23  24
ENDBRANCH  22  23
ENDBRANCH  20  22
ENDBRANCH  13  16
ENDBRANCH   1  12
BRANCH   1  33
HETATM   33  C22 UNL     1      -1.971  -1.232  -0.939  1.00  0.00     0.247 C 
HETATM   34  O5  UNL     1      -1.827  -1.716  -2.088  1.00  0.00    -0.271 OA
HETATM   35  N4  UNL     1      -2.324  -1.987   0.131  1.00  0.00    -0.305 N 
ATOM     36  H4  UNL     1      -1.909  -1.613   0.985  1.00  0.00     0.171 HD
BRANCH  35  37
HETATM   37  C23 UNL     1      -3.018  -3.022   0.388  1.00  0.00     0.150 A 
HETATM   38  N5  UNL     1      -3.746  -3.860  -0.335  1.00  0.00    -0.346 N 
HETATM   39  C24 UNL     1      -4.280  -4.905   0.211  1.00  0.00     0.097 A 
ATOM     40  H5  UNL     1      -3.887  -3.680  -1.329  1.00  0.00     0.167 HD
HETATM   41  C25 UNL     1      -4.066  -5.114   1.554  1.00  0.00     0.070 A 
HETATM   42  S4  UNL     1      -3.102  -3.789   1.975  1.00  0.00    -0.064 SA
ENDBRANCH  35  37
ENDBRANCH   1  33
TORSDOF 13
