REMARK  8 active torsions:
REMARK  status: ('A' for Active; 'I' for Inactive)
REMARK    1  A    between atoms: C2_2  and  O2_4 
REMARK    2  A    between atoms: O2_4  and  C3_5 
REMARK    3  A    between atoms: C4_6  and  C5_7 
REMARK    4  A    between atoms: C13_16  and  O3_17 
REMARK    5  A    between atoms: C14_19  and  C15_20 
REMARK    6  A    between atoms: C16_23  and  O4_24 
REMARK    7  A    between atoms: C17_26  and  C18_27 
REMARK    8  A    between atoms: C18_27  and  C19_28 
ROOT
HETATM    1  C3  UNL     1       0.428   0.092   0.025  1.00  0.00     0.101 A 
HETATM    2  C4  UNL     1      -0.603   0.917  -0.443  1.00  0.00     0.033 A 
HETATM    3  C13 UNL     1      -0.447   1.495  -1.682  1.00  0.00     0.090 A 
HETATM    4  C14 UNL     1       0.693   1.280  -2.468  1.00  0.00     0.042 A 
HETATM    5  C16 UNL     1       1.667   0.472  -1.978  1.00  0.00     0.086 A 
HETATM    6  C17 UNL     1       1.555  -0.146  -0.707  1.00  0.00     0.014 A 
ENDROOT
BRANCH   2   7
HETATM    7  C5  UNL     1      -1.820   1.105   0.339  1.00  0.00     0.027 C 
HETATM    8  C6  UNL     1      -2.710   0.204   0.649  1.00  0.00    -0.024 C 
HETATM    9  C7  UNL     1      -3.823   0.730   1.463  1.00  0.00     0.006 C 
HETATM   10  C12 UNL     1      -2.641  -1.195   0.191  1.00  0.00     0.203 C 
HETATM   11  C8  UNL     1      -5.044   0.246   1.632  1.00  0.00    -0.026 C 
HETATM   12  C9  UNL     1      -5.559  -1.016   0.983  1.00  0.00     0.027 C 
HETATM   13  C10 UNL     1      -5.081  -0.935  -0.449  1.00  0.00     0.007 C 
HETATM   14  C11 UNL     1      -3.788  -1.602  -0.709  1.00  0.00     0.042 C 
HETATM   15  F1  UNL     1      -2.696  -2.090   1.271  1.00  0.00    -0.244 F 
ENDBRANCH   2   7
BRANCH   1  16
HETATM   16  O2  UNL     1       0.292  -0.494   1.268  1.00  0.00    -0.278 OA
BRANCH  16  17
HETATM   17  C2  UNL     1       0.352   0.324   2.385  1.00  0.00     0.260 C 
HETATM   18  C1  UNL     1       0.215  -0.195   3.769  1.00  0.00     0.126 C 
HETATM   19  O1  UNL     1       0.527   1.568   2.272  1.00  0.00    -0.265 OA
ENDBRANCH  16  17
ENDBRANCH   1  16
BRANCH   3  20
HETATM   20  O3  UNL     1      -1.433   2.322  -2.197  1.00  0.00    -0.359 OA
ATOM     21  H3  UNL     1      -1.325   2.721  -3.052  1.00  0.00     0.217 HD
ENDBRANCH   3  20
BRANCH   6  22
HETATM   22  C18 UNL     1       2.620  -1.010  -0.213  1.00  0.00     0.072 C 
BRANCH  22  23
HETATM   23  C19 UNL     1       3.575  -0.470   0.734  1.00  0.00    -0.020 C 
HETATM   24  C20 UNL     1       4.878  -0.506   0.494  1.00  0.00    -0.091 C 
HETATM   25  C21 UNL     1       5.513  -1.075  -0.717  1.00  0.00     0.042 C 
HETATM   26  C22 UNL     1       5.836   0.076   1.517  1.00  0.00     0.042 C 
ENDBRANCH  22  23
ENDBRANCH   6  22
BRANCH   4  27
HETATM   27  C15 UNL     1       0.790   1.939  -3.794  1.00  0.00     0.216 C 
HETATM   28 CL1  UNL     1      -0.643   1.554  -4.779  1.00  0.00    -0.103 Cl
HETATM   29 CL2  UNL     1       0.795   3.708  -3.449  1.00  0.00    -0.103 Cl
ENDBRANCH   4  27
BRANCH   5  30
HETATM   30  O4  UNL     1       2.808   0.215  -2.689  1.00  0.00    -0.359 OA
ATOM     31  H4  UNL     1       3.490  -0.351  -2.346  1.00  0.00     0.217 HD
ENDBRANCH   5  30
TORSDOF 8
