REMARK  8 active torsions:
REMARK  status: ('A' for Active; 'I' for Inactive)
REMARK    1  A    between atoms: C3_4  and  C4_5 
REMARK    2  A    between atoms: C4_5  and  O1_6 
REMARK    3  A    between atoms: C4_5  and  N1_8 
REMARK    4  A    between atoms: N1_8  and  O2_10 
REMARK    5  A    between atoms: C6_13  and  O3_14 
REMARK    6  A    between atoms: O3_14  and  C7_15 
REMARK    7  A    between atoms: C7_15  and  C8_16 
REMARK    8  A    between atoms: C13_21  and  C14_22 
ROOT
HETATM    1  C8  UNL     1      -1.003  -0.865  -0.287  1.00  0.00     0.018 C 
HETATM    2  C9  UNL     1      -0.687  -1.830  -1.482  1.00  0.00     0.007 C 
HETATM    3  C10 UNL     1      -1.683  -2.959  -1.323  1.00  0.00     0.001 C 
HETATM    4  C11 UNL     1      -3.039  -2.409  -0.908  1.00  0.00     0.001 C 
HETATM    5  C12 UNL     1      -3.192  -0.975  -1.364  1.00  0.00     0.010 C 
HETATM    6  C13 UNL     1      -2.140  -0.054  -0.728  1.00  0.00     0.028 C 
ENDROOT
BRANCH   1   7
HETATM    7  C7  UNL     1       0.296  -0.080  -0.164  1.00  0.00     0.181 C 
BRANCH   7   8
HETATM    8  O3  UNL     1       1.365  -0.935   0.128  1.00  0.00    -0.350 OA
BRANCH   8   9
HETATM    9  C6  UNL     1       2.691  -0.443   0.304  1.00  0.00     0.083 A 
HETATM   10  C2  UNL     1       3.699  -1.330   0.591  1.00  0.00     0.013 A 
HETATM   11  C1  UNL     1       3.577  -2.825   0.754  1.00  0.00     0.059 C 
HETATM   12  S1  UNL     1       5.071  -0.330   0.714  1.00  0.00    -0.088 SA
HETATM   13  C3  UNL     1       4.347   1.173   0.402  1.00  0.00     0.060 A 
HETATM   14  C5  UNL     1       3.028   0.854   0.206  1.00  0.00     0.061 A 
BRANCH  13  15
HETATM   15  C4  UNL     1       4.925   2.533   0.347  1.00  0.00     0.177 C 
BRANCH  15  16
HETATM   16  O1  UNL     1       4.158   3.632   0.047  1.00  0.00    -0.344 OA
ATOM     17  H1  UNL     1       4.529   4.506   0.012  1.00  0.00     0.219 HD
ENDBRANCH  15  16
BRANCH  15  18
HETATM   18  N1  UNL     1       6.179   2.651   0.590  1.00  0.00    -0.246 N 
ATOM     19  H1  UNL     1       6.584   3.586   0.554  1.00  0.00     0.196 HD
BRANCH  18  20
HETATM   20  O2  UNL     1       6.999   1.622   0.890  1.00  0.00    -0.288 OA
ATOM     21  H2  UNL     1       7.928   1.709   1.070  1.00  0.00     0.244 HD
ENDBRANCH  18  20
ENDBRANCH  15  18
ENDBRANCH  13  15
ENDBRANCH   8   9
ENDBRANCH   7   8
ENDBRANCH   1   7
BRANCH   6  22
HETATM   22  C14 UNL     1      -2.767   0.918   0.144  1.00  0.00    -0.010 A 
HETATM   23  C15 UNL     1      -3.526   1.952  -0.463  1.00  0.00     0.044 A 
HETATM   24 CL1  UNL     1      -3.603   1.968  -2.207  1.00  0.00    -0.084 Cl
HETATM   25  C16 UNL     1      -4.179   2.909   0.266  1.00  0.00     0.048 A 
HETATM   26  C17 UNL     1      -4.131   2.913   1.627  1.00  0.00     0.037 A 
HETATM   27 CL2  UNL     1      -4.955   4.128   2.600  1.00  0.00    -0.084 Cl
HETATM   28  C18 UNL     1      -3.413   1.935   2.242  1.00  0.00     0.048 A 
HETATM   29  C19 UNL     1      -2.750   0.962   1.496  1.00  0.00     0.044 A 
HETATM   30 CL3  UNL     1      -1.935  -0.251   2.442  1.00  0.00    -0.084 Cl
ENDBRANCH   6  22
TORSDOF 8
