REMARK  7 active torsions:
REMARK  status: ('A' for Active; 'I' for Inactive)
REMARK    1  A    between atoms: C2_2  and  O1_3 
REMARK    2  A    between atoms: O1_3  and  C3_4 
REMARK    3  A    between atoms: C5_7  and  O2_8 
REMARK    4  A    between atoms: C7_12  and  C8_13 
REMARK    5  A    between atoms: C8_13  and  N1_15 
REMARK    6  A    between atoms: N1_15  and  C10_17 
REMARK    7  A    between atoms: C13_22  and  C14_23 
ROOT
HETATM    1  C8  UNL     1      -0.707  -2.369   1.157  1.00  0.00     0.117 C 
HETATM    2  C9  UNL     1      -0.137  -3.305   0.132  1.00  0.00     0.037 C 
ENDROOT
BRANCH   1   3
HETATM    3  C7  UNL     1      -2.067  -1.943   0.978  1.00  0.00     0.013 A 
HETATM    4  C6  UNL     1      -3.047  -2.243   1.977  1.00  0.00     0.079 A 
HETATM    5  C5  UNL     1      -4.325  -1.768   1.941  1.00  0.00     0.112 A 
HETATM    6 CL2  UNL     1      -2.575  -3.292   3.262  1.00  0.00    -0.081 Cl
HETATM    7  C4  UNL     1      -4.748  -0.956   0.941  1.00  0.00     0.103 A 
HETATM    8  C3  UNL     1      -3.863  -0.623  -0.034  1.00  0.00     0.115 A 
HETATM    9 CL1  UNL     1      -6.447  -0.425   0.952  1.00  0.00    -0.078 Cl
HETATM   10  C19 UNL     1      -2.534  -1.125  -0.002  1.00  0.00     0.079 A 
HETATM   11 CL3  UNL     1      -1.562  -0.595  -1.361  1.00  0.00    -0.081 Cl
BRANCH   5  12
HETATM   12  O2  UNL     1      -5.223  -2.124   2.943  1.00  0.00    -0.357 OA
ATOM     13  H2  UNL     1      -4.927  -2.693   3.644  1.00  0.00     0.217 HD
ENDBRANCH   5  12
BRANCH   8  14
HETATM   14  O1  UNL     1      -4.255   0.225  -1.082  1.00  0.00    -0.348 OA
BRANCH  14  15
HETATM   15  C2  UNL     1      -4.150   1.634  -0.944  1.00  0.00     0.171 C 
HETATM   16  C1  UNL     1      -4.494   2.288  -2.246  1.00  0.00     0.034 C 
ENDBRANCH  14  15
ENDBRANCH   8  14
ENDBRANCH   1   3
BRANCH   1  17
HETATM   17  N1  UNL     1       0.141  -1.215   1.168  1.00  0.00    -0.347 N 
ATOM     18  H1  UNL     1      -0.117  -0.566   1.912  1.00  0.00     0.163 HD
BRANCH  17  19
HETATM   19  C10 UNL     1       1.121  -0.790   0.502  1.00  0.00     0.225 A 
HETATM   20  N2  UNL     1       1.829  -1.220  -0.528  1.00  0.00    -0.323 N 
HETATM   21  C11 UNL     1       2.818  -0.317  -0.850  1.00  0.00     0.043 A 
ATOM     22  H2  UNL     1       1.665  -2.100  -1.017  1.00  0.00     0.169 HD
HETATM   23  C12 UNL     1       3.726  -0.494  -2.018  1.00  0.00     0.071 C 
HETATM   24  C13 UNL     1       2.682   0.686   0.034  1.00  0.00     0.114 A 
HETATM   25  O4  UNL     1       1.682   0.400   0.822  1.00  0.00    -0.277 OA
BRANCH  24  26
HETATM   26  C14 UNL     1       3.445   1.937   0.175  1.00  0.00     0.031 A 
HETATM   27  C15 UNL     1       2.819   3.127   0.677  1.00  0.00     0.041 A 
HETATM   28  C16 UNL     1       3.813   4.089   0.786  1.00  0.00     0.143 A 
HETATM   29  O3  UNL     1       4.930   3.550   0.393  1.00  0.00    -0.327 OA
HETATM   30  C17 UNL     1       4.745   2.271   0.028  1.00  0.00     0.061 A 
HETATM   31  C18 UNL     1       5.877   1.433  -0.440  1.00  0.00     0.077 C 
ENDBRANCH  24  26
ENDBRANCH  17  19
ENDBRANCH   1  17
TORSDOF 7
