REMARK  7 active torsions:
REMARK  status: ('A' for Active; 'I' for Inactive)
REMARK    1  A    between atoms: C2_2  and  C3_3 
REMARK    2  A    between atoms: C3_3  and  C4_4 
REMARK    3  A    between atoms: C4_4  and  C5_5 
REMARK    4  A    between atoms: C5_5  and  C6_7 
REMARK    5  A    between atoms: C8_9  and  C9_10 
REMARK    6  A    between atoms: C10_11  and  O2_12 
REMARK    7  A    between atoms: C18_24  and  O4_25 
ROOT
HETATM    1  C6  UNL     1       0.851   0.989   0.080  1.00  0.00     0.022 C 
HETATM    2  C7  UNL     1       0.033  -0.038   0.241  1.00  0.00     0.026 C 
HETATM    3  C8  UNL     1      -1.258   0.065   0.893  1.00  0.00     0.189 C 
HETATM    4  O3  UNL     1      -1.632   1.366   1.142  1.00  0.00    -0.336 OA
HETATM    5  C16 UNL     1      -0.826   2.467   1.021  1.00  0.00     0.084 A 
HETATM    6  C17 UNL     1      -1.286   3.720   1.439  1.00  0.00     0.076 A 
HETATM    7  C18 UNL     1      -0.497   4.843   1.330  1.00  0.00     0.090 A 
HETATM    8  C19 UNL     1       0.758   4.686   0.795  1.00  0.00     0.068 A 
HETATM    9 CL3  UNL     1       1.797   6.086   0.636  1.00  0.00    -0.081 Cl
HETATM   10  C20 UNL     1       1.245   3.444   0.368  1.00  0.00     0.042 A 
HETATM   11  C21 UNL     1       0.450   2.327   0.481  1.00  0.00     0.013 A 
ENDROOT
BRANCH   3  12
HETATM   12  C9  UNL     1      -2.377  -0.689   0.290  1.00  0.00     0.016 A 
HETATM   13  C10 UNL     1      -3.535  -0.006  -0.009  1.00  0.00     0.077 A 
HETATM   14  C11 UNL     1      -4.659  -0.642  -0.549  1.00  0.00     0.062 A 
HETATM   15  C12 UNL     1      -4.633  -1.994  -0.799  1.00  0.00     0.059 A 
HETATM   16 CL1  UNL     1      -6.031  -2.803  -1.475  1.00  0.00    -0.082 Cl
HETATM   17  C13 UNL     1      -3.472  -2.653  -0.493  1.00  0.00     0.062 A 
HETATM   18 CL2  UNL     1      -3.408  -4.373  -0.798  1.00  0.00    -0.082 Cl
HETATM   19  C14 UNL     1      -2.339  -2.036   0.048  1.00  0.00    -0.027 A 
HETATM   20  C15 UNL     1      -1.148  -2.898   0.382  1.00  0.00     0.050 C 
BRANCH  13  21
HETATM   21  O2  UNL     1      -3.663   1.365   0.206  1.00  0.00    -0.360 OA
ATOM     22  H2  UNL     1      -4.462   1.836  -0.000  1.00  0.00     0.217 HD
ENDBRANCH  13  21
ENDBRANCH   3  12
BRANCH   1  23
HETATM   23  C5  UNL     1       2.156   0.780  -0.594  1.00  0.00     0.160 C 
HETATM   24  O1  UNL     1       3.019   1.631  -0.799  1.00  0.00    -0.292 OA
BRANCH  23  25
HETATM   25  C4  UNL     1       2.491  -0.595  -1.088  1.00  0.00     0.084 C 
BRANCH  25  26
HETATM   26  C3  UNL     1       3.133  -1.389   0.027  1.00  0.00     0.007 C 
BRANCH  26  27
HETATM   27  C2  UNL     1       3.460  -2.773  -0.484  1.00  0.00    -0.004 C 
HETATM   28  C1  UNL     1       4.406  -2.764  -1.644  1.00  0.00     0.005 C 
ENDBRANCH  26  27
ENDBRANCH  25  26
ENDBRANCH  23  25
ENDBRANCH   1  23
BRANCH   7  29
HETATM   29  O4  UNL     1      -1.004   6.059   1.761  1.00  0.00    -0.359 OA
ATOM     30  H4  UNL     1      -0.460   6.834   1.686  1.00  0.00     0.217 HD
ENDBRANCH   7  29
TORSDOF 7
