REMARK  9 active torsions:
REMARK  status: ('A' for Active; 'I' for Inactive)
REMARK    1  A    between atoms: S1_2  and  C2_3 
REMARK    2  A    between atoms: C2_3  and  C3_4 
REMARK    3  A    between atoms: C3_4  and  N1_5 
REMARK    4  A    between atoms: C3_4  and  C4_9 
REMARK       I    between atoms: C4_9  and  N2_11 
REMARK    5  A    between atoms: N2_11  and  C5_13 
REMARK    6  A    between atoms: C5_13  and  C6_14 
REMARK    7  A    between atoms: C5_13  and  C10_22 
REMARK    8  A    between atoms: C6_14  and  C7_15 
REMARK    9  A    between atoms: C10_22  and  O2_24 
ROOT
HETATM    1  C5  UNL     1      -0.838  -0.849   0.427  1.00  0.00     0.118 C 
ENDROOT
BRANCH   1   2
HETATM    2  N2  UNL     1       0.174  -0.360  -0.476  1.00  0.00    -0.352 N 
HETATM    3  C4  UNL     1       1.546  -0.825  -0.401  1.00  0.00     0.249 C 
HETATM    4  O1  UNL     1       1.768  -1.670   0.498  1.00  0.00    -0.271 OA
ATOM      5  H2  UNL     1      -0.081   0.329  -1.184  1.00  0.00     0.163 HD
BRANCH   3   6
HETATM    6  C3  UNL     1       2.556  -0.303  -1.342  1.00  0.00     0.283 C 
BRANCH   6   7
HETATM    7  C2  UNL     1       3.499   0.716  -0.808  1.00  0.00     0.116 C 
BRANCH   7   8
HETATM    8  S1  UNL     1       4.466   0.214   0.581  1.00  0.00    -0.171 SA
HETATM    9  C1  UNL     1       3.636   0.037   2.142  1.00  0.00     0.089 C 
ENDBRANCH   7   8
ENDBRANCH   6   7
BRANCH   6  10
HETATM   10  N1  UNL     1       1.873   0.347  -2.483  1.00  0.00    -0.066 N 
ATOM     11  H13 UNL     1       1.427   1.232  -2.243  1.00  0.00     0.275 HD
ATOM     12  H12 UNL     1       2.513   0.721  -3.184  1.00  0.00     0.275 HD
ATOM     13  H11 UNL     1       1.226  -0.352  -2.849  1.00  0.00     0.275 HD
ENDBRANCH   6  10
ENDBRANCH   3   6
ENDBRANCH   1   2
BRANCH   1  14
HETATM   14  C6  UNL     1      -1.429   0.180   1.307  1.00  0.00     0.086 C 
BRANCH  14  15
HETATM   15  C7  UNL     1      -2.109   1.302   0.651  1.00  0.00     0.027 A 
HETATM   16  C8  UNL     1      -2.695   2.328   1.357  1.00  0.00     0.114 A 
HETATM   17  N3  UNL     1      -3.222   3.178   0.501  1.00  0.00    -0.360 N 
HETATM   18  C9  UNL     1      -2.984   2.715  -0.733  1.00  0.00     0.180 A 
ATOM     19  H3  UNL     1      -3.722   4.036   0.736  1.00  0.00     0.166 HD
HETATM   20  N4  UNL     1      -2.304   1.569  -0.641  1.00  0.00    -0.355 N 
ATOM     21  H4  UNL     1      -1.988   0.997  -1.424  1.00  0.00     0.166 HD
ENDBRANCH  14  15
ENDBRANCH   1  14
BRANCH   1  22
HETATM   22  C10 UNL     1      -1.863  -1.657  -0.346  1.00  0.00     0.137 C 
HETATM   23  C11 UNL     1      -1.138  -2.887  -0.860  1.00  0.00     0.041 C 
BRANCH  22  24
HETATM   24  O2  UNL     1      -2.826  -2.115   0.556  1.00  0.00    -0.394 OA
ATOM     25  H2  UNL     1      -3.468  -2.621   0.072  1.00  0.00     0.210 HD
ENDBRANCH  22  24
ENDBRANCH   1  22
TORSDOF 9
