REMARK  9 active torsions:
REMARK  status: ('A' for Active; 'I' for Inactive)
REMARK    1  A    between atoms: C1_2  and  C2_4 
REMARK    2  A    between atoms: C2_4  and  C3_5 
REMARK    3  A    between atoms: C2_4  and  N3_13 
REMARK    4  A    between atoms: C3_5  and  C4_6 
REMARK    5  A    between atoms: C4_6  and  N1_7 
REMARK    6  A    between atoms: N3_13  and  C8_15 
REMARK    7  A    between atoms: C8_15  and  C9_16 
REMARK    8  A    between atoms: C9_16  and  O3_17 
REMARK    9  A    between atoms: C9_16  and  C10_19 
ROOT
HETATM    1  N3  UNL     1       0.667  -1.541  -0.215  1.00  0.00    -0.405 N 
ATOM      2  H3  UNL     1       1.108  -2.234  -0.820  1.00  0.00     0.154 HD
ENDROOT
BRANCH   1   3
HETATM    3  C2  UNL     1      -0.742  -1.633   0.067  1.00  0.00     0.180 C 
BRANCH   3   4
HETATM    4  C1  UNL     1      -0.925  -1.919   1.478  1.00  0.00     0.196 C 
HETATM    5  O1  UNL     1       0.066  -1.993   2.276  1.00  0.00    -0.646 OA
HETATM    6  O2  UNL     1      -2.147  -2.133   2.045  1.00  0.00    -0.646 OA
ENDBRANCH   3   4
BRANCH   3   7
HETATM    7  C3  UNL     1      -1.481  -0.435  -0.399  1.00  0.00     0.056 C 
BRANCH   7   8
HETATM    8  C4  UNL     1      -2.959  -0.558  -0.240  1.00  0.00     0.131 C 
BRANCH   8   9
HETATM    9  N1  UNL     1      -3.629   0.640  -0.776  1.00  0.00    -0.352 N 
HETATM   10  C5  UNL     1      -4.051   0.804  -2.036  1.00  0.00     0.108 A 
HETATM   11  C6  UNL     1      -4.630   2.057  -2.167  1.00  0.00     0.106 A 
HETATM   12  N2  UNL     1      -4.544   2.636  -0.958  1.00  0.00    -0.361 N 
HETATM   13  C7  UNL     1      -3.929   1.757  -0.120  1.00  0.00     0.182 A 
ATOM     14  H2  UNL     1      -4.879   3.567  -0.712  1.00  0.00     0.166 HD
ENDBRANCH   8   9
ENDBRANCH   7   8
ENDBRANCH   3   7
ENDBRANCH   1   3
BRANCH   1  15
HETATM   15  C8  UNL     1       1.430  -0.517   0.329  1.00  0.00     0.152 C 
BRANCH  15  16
HETATM   16  C9  UNL     1       2.871  -0.718  -0.205  1.00  0.00     0.186 C 
BRANCH  16  17
HETATM   17  O3  UNL     1       2.755  -0.636  -1.591  1.00  0.00    -0.388 OA
ATOM     18  H3  UNL     1       3.638  -0.759  -1.918  1.00  0.00     0.210 HD
ENDBRANCH  16  17
BRANCH  16  19
HETATM   19  C10 UNL     1       3.766   0.316   0.357  1.00  0.00     0.056 A 
HETATM   20  C11 UNL     1       3.584   1.113   1.468  1.00  0.00     0.116 A 
HETATM   21  N4  UNL     1       4.655   1.924   1.619  1.00  0.00    -0.360 N 
HETATM   22  C12 UNL     1       5.493   1.641   0.620  1.00  0.00     0.180 A 
ATOM     23  H4  UNL     1       4.795   2.617   2.354  1.00  0.00     0.166 HD
HETATM   24  N5  UNL     1       4.965   0.681  -0.135  1.00  0.00    -0.352 N 
ATOM     25  H5  UNL     1       5.404   0.281  -0.964  1.00  0.00     0.166 HD
ENDBRANCH  16  19
ENDBRANCH  15  16
ENDBRANCH   1  15
TORSDOF 9
