REMARK  11 active torsions:
REMARK  status: ('A' for Active; 'I' for Inactive)
REMARK    1  A    between atoms: C2_2  and  C3_3 
REMARK    2  A    between atoms: C3_3  and  O1_4 
REMARK    3  A    between atoms: C3_3  and  C4_6 
REMARK    4  A    between atoms: C4_6  and  O2_7 
REMARK    5  A    between atoms: C4_6  and  C5_9 
REMARK    6  A    between atoms: C5_9  and  N1_10 
REMARK    7  A    between atoms: C6_11  and  C7_12 
REMARK    8  A    between atoms: C8_13  and  N2_14 
REMARK    9  A    between atoms: C13_19  and  C14_20 
REMARK   10  A    between atoms: C14_20  and  N3_21 
REMARK   11  A    between atoms: C14_20  and  O3_25 
ROOT
HETATM    1  N1  UNL     1      -0.053  -0.758  -0.235  1.00  0.00    -0.344 N 
HETATM    2  C6  UNL     1       1.202  -0.216  -0.340  1.00  0.00     0.036 A 
HETATM    3  C11 UNL     1       2.061  -1.028   0.356  1.00  0.00     0.032 A 
HETATM    4  C12 UNL     1       1.290  -2.058   0.871  1.00  0.00     0.032 A 
HETATM    5  C13 UNL     1      -0.011  -1.870   0.494  1.00  0.00     0.068 A 
ENDROOT
BRANCH   1   6
HETATM    6  C5  UNL     1      -1.215  -0.193  -0.811  1.00  0.00     0.164 C 
BRANCH   6   7
HETATM    7  C4  UNL     1      -1.945   0.751   0.150  1.00  0.00     0.168 C 
BRANCH   7   8
HETATM    8  C3  UNL     1      -3.171   1.321  -0.529  1.00  0.00     0.170 C 
BRANCH   8   9
HETATM    9  C2  UNL     1      -3.840   2.350   0.264  1.00  0.00    -0.003 C 
HETATM   10  C1  UNL     1      -3.654   2.403   1.565  1.00  0.00     0.009 C 
ENDBRANCH   8   9
BRANCH   8  11
HETATM   11  O1  UNL     1      -4.012   0.285  -0.950  1.00  0.00    -0.389 OA
ATOM     12  H1  UNL     1      -3.577  -0.384  -1.466  1.00  0.00     0.210 HD
ENDBRANCH   8  11
ENDBRANCH   7   8
BRANCH   7  13
HETATM   13  O2  UNL     1      -1.136   1.797   0.559  1.00  0.00    -0.391 OA
ATOM     14  H2  UNL     1      -0.366   1.439   0.985  1.00  0.00     0.210 HD
ENDBRANCH   7  13
ENDBRANCH   6   7
ENDBRANCH   1   6
BRANCH   2  15
HETATM   15  C7  UNL     1       1.577   0.980  -1.058  1.00  0.00     0.046 C 
HETATM   16  C8  UNL     1       2.696   1.563  -1.189  1.00  0.00     0.088 C 
BRANCH  16  17
HETATM   17  N2  UNL     1       3.969   1.288  -0.704  1.00  0.00    -0.387 N 
HETATM   18  C9  UNL     1       5.027   1.439   0.348  1.00  0.00     0.142 A 
HETATM   19  C10 UNL     1       5.326   0.672  -0.851  1.00  0.00     0.142 A 
ENDBRANCH  16  17
ENDBRANCH   2  15
BRANCH   5  20
HETATM   20  C14 UNL     1      -1.054  -2.829   0.917  1.00  0.00     0.367 C 
BRANCH  20  21
HETATM   21  N3  UNL     1      -0.498  -4.175   0.690  1.00  0.00    -0.047 N 
ATOM     22  H33 UNL     1      -0.176  -4.324  -0.266  1.00  0.00     0.277 HD
ATOM     23  H32 UNL     1       0.400  -4.325   1.150  1.00  0.00     0.277 HD
ATOM     24  H31 UNL     1      -1.217  -4.837   0.982  1.00  0.00     0.277 HD
ENDBRANCH  20  21
BRANCH  20  25
HETATM   25  O3  UNL     1      -2.247  -2.780   0.291  1.00  0.00    -0.365 OA
ATOM     26  H3  UNL     1      -2.917  -3.396   0.563  1.00  0.00     0.212 HD
ENDBRANCH  20  25
ENDBRANCH   5  20
TORSDOF 11
