REMARK  8 active torsions:
REMARK  status: ('A' for Active; 'I' for Inactive)
REMARK    1  A    between atoms: N1_1  and  C1_5 
REMARK    2  A    between atoms: C1_5  and  C2_6 
REMARK    3  A    between atoms: C2_6  and  C3_7 
REMARK    4  A    between atoms: C3_7  and  N2_8 
REMARK    5  A    between atoms: C3_7  and  C12_22 
REMARK    6  A    between atoms: C4_10  and  C5_11 
REMARK    7  A    between atoms: C5_11  and  C6_12 
REMARK    8  A    between atoms: C11_18  and  N4_19 
ROOT
HETATM    1  N2  UNL     1      -1.430  -0.801  -1.146  1.00  0.00    -0.388 N 
ATOM      2  H2  UNL     1      -1.448  -1.527  -1.862  1.00  0.00     0.159 HD
HETATM    3  C4  UNL     1      -0.220  -0.701  -0.554  1.00  0.00     0.061 C 
ENDROOT
BRANCH   1   4
HETATM    4  C3  UNL     1      -2.637  -0.169  -1.023  1.00  0.00     0.183 C 
BRANCH   4   5
HETATM    5  C2  UNL     1      -3.415  -0.506   0.198  1.00  0.00     0.063 C 
BRANCH   5   6
HETATM    6  C1  UNL     1      -2.884  -0.206   1.546  1.00  0.00     0.232 C 
BRANCH   6   7
HETATM    7  N1  UNL     1      -2.679   1.196   1.741  1.00  0.00    -0.079 N 
ATOM      8  H13 UNL     1      -2.082   1.588   1.012  1.00  0.00     0.274 HD
ATOM      9  H12 UNL     1      -3.531   1.724   1.553  1.00  0.00     0.274 HD
ATOM     10  H11 UNL     1      -2.313   1.403   2.670  1.00  0.00     0.274 HD
ENDBRANCH   6   7
ENDBRANCH   5   6
ENDBRANCH   4   5
BRANCH   4  11
HETATM   11  C12 UNL     1      -3.574  -0.475  -2.174  1.00  0.00     0.196 C 
HETATM   12  O3  UNL     1      -3.174  -1.229  -3.055  1.00  0.00    -0.646 OA
HETATM   13  O4  UNL     1      -4.808   0.090  -2.187  1.00  0.00    -0.646 OA
ENDBRANCH   4  11
ENDBRANCH   1   4
BRANCH   3  14
HETATM   14  C5  UNL     1       0.655   0.492  -0.921  1.00  0.00     0.085 C 
BRANCH  14  15
HETATM   15  C6  UNL     1       1.959   0.326  -0.214  1.00  0.00    -0.020 A 
HETATM   16  C7  UNL     1       3.007  -0.329  -0.897  1.00  0.00     0.012 A 
HETATM   17  C8  UNL     1       4.206  -0.602  -0.301  1.00  0.00     0.027 A 
HETATM   18  C9  UNL     1       4.460  -0.251   1.007  1.00  0.00     0.048 A 
HETATM   19  N3  UNL     1       5.706  -0.529   1.650  1.00  0.00    -0.102 NA
HETATM   20  C10 UNL     1       3.444   0.384   1.663  1.00  0.00     0.063 A 
HETATM   21  C11 UNL     1       2.200   0.680   1.079  1.00  0.00     0.111 A 
BRANCH  21  22
HETATM   22  N4  UNL     1       1.237   1.375   1.869  1.00  0.00    -0.115 N 
HETATM   23  O1  UNL     1       0.517   2.217   1.341  1.00  0.00    -0.532 OA
HETATM   24  O2  UNL     1       1.148   1.156   3.213  1.00  0.00    -0.532 OA
ENDBRANCH  21  22
ENDBRANCH  14  15
ENDBRANCH   3  14
TORSDOF 8
