REMARK  9 active torsions:
REMARK  status: ('A' for Active; 'I' for Inactive)
REMARK       I    between atoms: C2_3  and  N2_5 
REMARK    1  A    between atoms: N2_5  and  N3_7 
REMARK    2  A    between atoms: N3_7  and  C3_9 
REMARK    3  A    between atoms: C3_9  and  C4_10 
REMARK    4  A    between atoms: C7_13  and  O2_14 
REMARK    5  A    between atoms: O2_14  and  C8_15 
REMARK    6  A    between atoms: C8_15  and  C9_16 
REMARK    7  A    between atoms: C9_16  and  C10_18 
REMARK    8  A    between atoms: C10_18  and  C11_19 
REMARK    9  A    between atoms: C11_19  and  N4_20 
ROOT
HETATM    1  N1  UNL     1       9.314   0.479   0.313  1.00  0.00    -0.186 NA
HETATM    2  C1  UNL     1       8.166   0.253   0.183  1.00  0.00     0.163 C 
HETATM    3  C2  UNL     1       6.766  -0.047   0.035  1.00  0.00     0.340 C 
HETATM    4  O1  UNL     1       6.435  -1.238  -0.109  1.00  0.00    -0.254 OA
HETATM    5  N2  UNL     1       5.831   0.979   0.056  1.00  0.00    -0.262 N 
ATOM      6  H2  UNL     1       6.182   1.929   0.178  1.00  0.00     0.190 HD
ENDROOT
BRANCH   5   7
HETATM    7  N3  UNL     1       4.488   0.822  -0.072  1.00  0.00    -0.329 N 
ATOM      8  H3  UNL     1       3.872   1.633  -0.006  1.00  0.00     0.180 HD
BRANCH   7   9
HETATM    9  C3  UNL     1       3.941  -0.463  -0.297  1.00  0.00     0.178 C 
BRANCH   9  10
HETATM   10  C4  UNL     1       2.461  -0.313  -0.389  1.00  0.00    -0.039 A 
HETATM   11  C5  UNL     1       1.661  -0.677   0.650  1.00  0.00     0.011 A 
HETATM   12  C6  UNL     1       0.269  -0.520   0.547  1.00  0.00     0.037 A 
HETATM   13  C7  UNL     1      -0.290  -0.004  -0.593  1.00  0.00     0.069 A 
HETATM   14  C12 UNL     1       0.530   0.364  -1.648  1.00  0.00     0.037 A 
HETATM   15  C13 UNL     1       1.884   0.202  -1.523  1.00  0.00     0.011 A 
BRANCH  13  16
HETATM   16  O2  UNL     1      -1.640   0.154  -0.706  1.00  0.00    -0.344 OA
BRANCH  16  17
HETATM   17  C8  UNL     1      -2.529  -0.203   0.325  1.00  0.00     0.253 C 
BRANCH  17  18
HETATM   18  C9  UNL     1      -3.937   0.093  -0.063  1.00  0.00     0.152 C 
HETATM   19  O3  UNL     1      -4.175   0.563  -1.148  1.00  0.00    -0.296 OA
BRANCH  18  20
HETATM   20  C10 UNL     1      -5.040  -0.189   0.876  1.00  0.00     0.108 C 
BRANCH  20  21
HETATM   21  C11 UNL     1      -6.381   0.215   0.244  1.00  0.00     0.237 C 
BRANCH  21  22
HETATM   22  N4  UNL     1      -7.402  -0.076   1.197  1.00  0.00    -0.079 N 
ATOM     23  H43 UNL     1      -7.386  -1.045   1.516  1.00  0.00     0.274 HD
ATOM     24  H42 UNL     1      -7.239   0.363   2.103  1.00  0.00     0.274 HD
ATOM     25  H41 UNL     1      -8.292   0.192   0.777  1.00  0.00     0.274 HD
ENDBRANCH  21  22
ENDBRANCH  20  21
ENDBRANCH  18  20
ENDBRANCH  17  18
ENDBRANCH  16  17
ENDBRANCH  13  16
ENDBRANCH   9  10
ENDBRANCH   7   9
ENDBRANCH   5   7
TORSDOF 9
