REMARK  8 active torsions:
REMARK  status: ('A' for Active; 'I' for Inactive)
REMARK    1  A    between atoms: C5_6  and  O2_7 
REMARK    2  A    between atoms: O2_7  and  C6_8 
REMARK    3  A    between atoms: C6_8  and  C7_9 
REMARK    4  A    between atoms: C7_9  and  C8_10 
REMARK    5  A    between atoms: C7_9  and  N2_15 
REMARK    6  A    between atoms: C8_10  and  N1_11 
REMARK    7  A    between atoms: N2_15  and  C9_17 
REMARK    8  A    between atoms: C9_17  and  C11_19 
ROOT
HETATM    1  C1  UNL     1       6.774   0.626  -0.098  1.00  0.00     0.210 C 
HETATM    2  O1  UNL     1       5.528   0.279  -0.127  1.00  0.00    -0.354 OA
HETATM    3  C2  UNL     1       4.266   0.065  -0.089  1.00  0.00     0.092 A 
HETATM    4  C3  UNL     1       3.389   1.016   0.456  1.00  0.00     0.041 A 
HETATM    5  C4  UNL     1       2.059   0.790   0.491  1.00  0.00     0.039 A 
HETATM    6  C5  UNL     1       1.485  -0.375  -0.001  1.00  0.00     0.070 A 
HETATM    7  C12 UNL     1       2.317  -1.325  -0.540  1.00  0.00     0.066 A 
HETATM    8  C13 UNL     1       3.681  -1.113  -0.584  1.00  0.00     0.082 A 
HETATM    9  N3  UNL     1       4.604  -2.057  -1.114  1.00  0.00    -0.099 NA
ENDROOT
BRANCH   6  10
HETATM   10  O2  UNL     1       0.116  -0.596   0.038  1.00  0.00    -0.349 OA
BRANCH  10  11
HETATM   11  C6  UNL     1      -0.658   0.402   0.599  1.00  0.00     0.202 C 
BRANCH  11  12
HETATM   12  C7  UNL     1      -2.159   0.164   0.585  1.00  0.00     0.131 C 
BRANCH  12  13
HETATM   13  C8  UNL     1      -2.692   1.273   1.457  1.00  0.00     0.256 C 
BRANCH  13  14
HETATM   14  N1  UNL     1      -2.279   2.538   0.883  1.00  0.00    -0.077 N 
ATOM     15  H13 UNL     1      -1.270   2.597   0.745  1.00  0.00     0.274 HD
ATOM     16  H12 UNL     1      -2.558   2.637  -0.093  1.00  0.00     0.274 HD
ATOM     17  H11 UNL     1      -2.639   3.288   1.473  1.00  0.00     0.274 HD
ENDBRANCH  13  14
ENDBRANCH  12  13
BRANCH  12  18
HETATM   18  N2  UNL     1      -2.614   0.043  -0.723  1.00  0.00    -0.380 N 
ATOM     19  H2  UNL     1      -2.037   0.407  -1.482  1.00  0.00     0.160 HD
BRANCH  18  20
HETATM   20  C9  UNL     1      -3.843  -0.564  -1.034  1.00  0.00     0.079 C 
HETATM   21  C10 UNL     1      -3.990  -1.983  -0.612  1.00  0.00     0.075 C 
BRANCH  20  22
HETATM   22  C11 UNL     1      -5.076   0.226  -0.917  1.00  0.00     0.221 C 
HETATM   23  O3  UNL     1      -5.031   1.482  -0.869  1.00  0.00    -0.643 OA
HETATM   24  O4  UNL     1      -6.346  -0.356  -0.850  1.00  0.00    -0.643 OA
ENDBRANCH  20  22
ENDBRANCH  18  20
ENDBRANCH  12  18
ENDBRANCH  11  12
ENDBRANCH  10  11
ENDBRANCH   6  10
TORSDOF 8
