REMARK  10 active torsions:
REMARK  status: ('A' for Active; 'I' for Inactive)
REMARK    1  A    between atoms: N1_1  and  C1_5 
REMARK    2  A    between atoms: C1_5  and  C2_6 
REMARK    3  A    between atoms: C2_6  and  N2_7 
REMARK    4  A    between atoms: C2_6  and  C3_11 
REMARK    5  A    between atoms: C3_11  and  C4_12 
REMARK    6  A    between atoms: C4_12  and  N3_13 
REMARK       I    between atoms: N3_13  and  C5_15 
REMARK    7  A    between atoms: C5_15  and  C6_17 
REMARK    8  A    between atoms: C6_17  and  N4_18 
REMARK    9  A    between atoms: N4_18  and  C7_20 
REMARK   10  A    between atoms: C10_23  and  N5_24 
ROOT
HETATM    1  N3  UNL     1       1.178  -0.816  -1.050  1.00  0.00    -0.360 N 
ATOM      2  H3  UNL     1       0.906  -0.891  -2.030  1.00  0.00     0.162 HD
HETATM    3  C5  UNL     1       0.158  -0.557  -0.113  1.00  0.00     0.235 C 
HETATM    4  O1  UNL     1       0.435  -0.460   1.098  1.00  0.00    -0.272 OA
ENDROOT
BRANCH   1   5
HETATM    5  C4  UNL     1       2.564  -0.982  -0.737  1.00  0.00     0.125 C 
BRANCH   5   6
HETATM    6  C3  UNL     1       3.188   0.230  -0.090  1.00  0.00     0.054 C 
BRANCH   6   7
HETATM    7  C2  UNL     1       4.645  -0.123   0.163  1.00  0.00     0.210 C 
BRANCH   7   8
HETATM    8  C1  UNL     1       5.388   1.026   0.816  1.00  0.00     0.262 C 
BRANCH   8   9
HETATM    9  N1  UNL     1       6.752   0.582   1.031  1.00  0.00    -0.077 N 
ATOM     10  H13 UNL     1       6.811  -0.287   1.562  1.00  0.00     0.274 HD
ATOM     11  H12 UNL     1       7.203   0.246   0.180  1.00  0.00     0.274 HD
ATOM     12  H11 UNL     1       7.252   1.355   1.470  1.00  0.00     0.274 HD
ENDBRANCH   8   9
ENDBRANCH   7   8
BRANCH   7  13
HETATM   13  N2  UNL     1       5.277  -0.456  -1.096  1.00  0.00    -0.073 N 
ATOM     14  H23 UNL     1       5.355   0.352  -1.713  1.00  0.00     0.274 HD
ATOM     15  H22 UNL     1       6.272  -0.653  -0.987  1.00  0.00     0.274 HD
ATOM     16  H21 UNL     1       4.777  -1.229  -1.535  1.00  0.00     0.274 HD
ENDBRANCH   7  13
ENDBRANCH   6   7
ENDBRANCH   5   6
ENDBRANCH   1   5
BRANCH   3  17
HETATM   17  C6  UNL     1      -1.234  -0.403  -0.563  1.00  0.00     0.222 C 
BRANCH  17  18
HETATM   18  N4  UNL     1      -2.087  -0.146   0.576  1.00  0.00    -0.381 N 
ATOM     19  H4  UNL     1      -1.667  -0.101   1.504  1.00  0.00     0.160 HD
BRANCH  18  20
HETATM   20  C7  UNL     1      -3.491   0.047   0.450  1.00  0.00     0.028 A 
HETATM   21  C8  UNL     1      -4.291   0.291   1.546  1.00  0.00     0.031 A 
HETATM   22  C9  UNL     1      -5.652   0.478   1.421  1.00  0.00     0.038 A 
HETATM   23  C10 UNL     1      -6.286   0.432   0.198  1.00  0.00     0.103 A 
HETATM   24  C11 UNL     1      -5.481   0.186  -0.904  1.00  0.00     0.038 A 
HETATM   25  C12 UNL     1      -4.120  -0.001  -0.780  1.00  0.00     0.031 A 
BRANCH  23  26
HETATM   26  N5  UNL     1      -7.688   0.625   0.074  1.00  0.00    -0.116 N 
HETATM   27  O2  UNL     1      -8.298   0.591  -1.007  1.00  0.00    -0.532 OA
HETATM   28  O3  UNL     1      -8.411   0.862   1.213  1.00  0.00    -0.532 OA
ENDBRANCH  23  26
ENDBRANCH  18  20
ENDBRANCH  17  18
ENDBRANCH   3  17
TORSDOF 10
