REMARK  8 active torsions:
REMARK  status: ('A' for Active; 'I' for Inactive)
REMARK    1  A    between atoms: N1_1  and  C1_5 
REMARK    2  A    between atoms: C1_5  and  C2_6 
REMARK    3  A    between atoms: C2_6  and  N2_7 
REMARK    4  A    between atoms: N2_7  and  C3_10 
REMARK    5  A    between atoms: C3_10  and  C4_11 
REMARK    6  A    between atoms: C3_10  and  C6_15 
REMARK    7  A    between atoms: C4_11  and  C5_12 
REMARK    8  A    between atoms: N3_17  and  C8_18 
ROOT
HETATM    1  C3  UNL     1      -1.550  -0.803  -0.041  1.00  0.00     0.247 C 
ENDROOT
BRANCH   1   2
HETATM    2  N2  UNL     1      -2.598  -0.015   0.507  1.00  0.00    -0.063 N 
ATOM      3  H22 UNL     1      -2.459   0.981   0.334  1.00  0.00     0.278 HD
ATOM      4  H21 UNL     1      -2.569   0.006   1.526  1.00  0.00     0.278 HD
BRANCH   2   5
HETATM    5  C2  UNL     1      -3.873  -0.480   0.010  1.00  0.00     0.260 C 
BRANCH   5   6
HETATM    6  C1  UNL     1      -5.027   0.315   0.605  1.00  0.00     0.257 C 
BRANCH   6   7
HETATM    7  N1  UNL     1      -4.945   1.710   0.297  1.00  0.00    -0.078 N 
ATOM      8  H13 UNL     1      -4.046   2.097   0.583  1.00  0.00     0.274 HD
ATOM      9  H12 UNL     1      -4.875   1.861  -0.709  1.00  0.00     0.274 HD
ATOM     10  H11 UNL     1      -5.718   2.243   0.696  1.00  0.00     0.274 HD
ENDBRANCH   6   7
ENDBRANCH   5   6
ENDBRANCH   2   5
ENDBRANCH   1   2
BRANCH   1  11
HETATM   11  C4  UNL     1      -1.489  -0.656  -1.522  1.00  0.00     0.152 C 
BRANCH  11  12
HETATM   12  C5  UNL     1      -1.258   0.721  -2.003  1.00  0.00     0.174 C 
HETATM   13  O1  UNL     1      -1.231   0.862  -3.263  1.00  0.00    -0.648 OA
HETATM   14  O2  UNL     1      -1.074   1.834  -1.236  1.00  0.00    -0.648 OA
ENDBRANCH  11  12
ENDBRANCH   1  11
BRANCH   1  15
HETATM   15  C6  UNL     1      -0.246  -0.618   0.624  1.00  0.00     0.072 A 
HETATM   16  C7  UNL     1       0.966  -0.476  -0.010  1.00  0.00     0.142 A 
HETATM   17  N3  UNL     1       1.948  -0.328   0.930  1.00  0.00    -0.249 N 
HETATM   18  N4  UNL     1       1.345  -0.378   2.106  1.00  0.00    -0.015 NA
HETATM   19  N5  UNL     1       0.039  -0.551   1.932  1.00  0.00    -0.284 N 
ATOM     20  H5  UNL     1      -0.646  -0.622   2.684  1.00  0.00     0.184 HD
BRANCH  17  21
HETATM   21  C8  UNL     1       3.337  -0.158   0.657  1.00  0.00     0.054 A 
HETATM   22  C9  UNL     1       4.105   0.842   1.200  1.00  0.00     0.031 A 
HETATM   23  C10 UNL     1       5.453   0.957   0.900  1.00  0.00     0.002 A 
HETATM   24  C11 UNL     1       6.064   0.054   0.034  1.00  0.00     0.000 A 
HETATM   25  C12 UNL     1       5.304  -0.944  -0.510  1.00  0.00     0.002 A 
HETATM   26  C13 UNL     1       3.980  -1.043  -0.204  1.00  0.00     0.031 A 
ENDBRANCH  17  21
ENDBRANCH   1  15
TORSDOF 8
