REMARK  10 active torsions:
REMARK  status: ('A' for Active; 'I' for Inactive)
REMARK    1  A    between atoms: C3_5  and  C4_6 
REMARK    2  A    between atoms: N2_10  and  C8_11 
REMARK    3  A    between atoms: C8_11  and  C9_12 
REMARK    4  A    between atoms: C9_12  and  N3_13 
REMARK    5  A    between atoms: N3_13  and  N4_14 
REMARK       I    between atoms: N4_14  and  C10_16 
REMARK    6  A    between atoms: C10_16  and  C11_18 
REMARK    7  A    between atoms: C11_18  and  N5_19 
REMARK    8  A    between atoms: C11_18  and  C12_23 
REMARK    9  A    between atoms: C12_23  and  C13_24 
REMARK   10  A    between atoms: C13_24  and  N6_25 
ROOT
HETATM    1  N4  UNL     1       1.819   0.236  -0.176  1.00  0.00    -0.272 N 
ATOM      2  H4  UNL     1       1.757   1.135   0.302  1.00  0.00     0.185 HD
HETATM    3  C10 UNL     1       3.093  -0.303  -0.414  1.00  0.00     0.263 C 
HETATM    4  O1  UNL     1       3.141  -1.427  -1.016  1.00  0.00    -0.270 OA
ENDROOT
BRANCH   1   5
HETATM    5  N3  UNL     1       0.628  -0.394  -0.560  1.00  0.00    -0.137 NA
BRANCH   5   6
HETATM    6  C9  UNL     1       0.087   0.168  -1.767  1.00  0.00     0.155 C 
BRANCH   6   7
HETATM    7  C8  UNL     1      -1.162  -0.454  -2.270  1.00  0.00     0.147 C 
BRANCH   7   8
HETATM    8  N2  UNL     1      -2.283  -0.409  -1.355  1.00  0.00    -0.344 N 
HETATM    9  C2  UNL     1      -2.657  -1.332  -0.436  1.00  0.00     0.079 A 
HETATM   10  C1  UNL     1      -1.947  -2.643  -0.207  1.00  0.00     0.089 C 
HETATM   11  N1  UNL     1      -3.737  -0.866   0.183  1.00  0.00    -0.348 N 
HETATM   12  C3  UNL     1      -4.088   0.336  -0.299  1.00  0.00     0.029 A 
ATOM     13  H1  UNL     1      -4.233  -1.357   0.926  1.00  0.00     0.167 HD
HETATM   14  C7  UNL     1      -3.167   0.633  -1.278  1.00  0.00     0.117 A 
BRANCH  12  15
HETATM   15  C4  UNL     1      -5.250   1.190   0.134  1.00  0.00     0.029 C 
HETATM   16  C5  UNL     1      -6.552   0.477  -0.144  1.00  0.00     0.016 C 
HETATM   17  C6  UNL     1      -5.092   1.513   1.589  1.00  0.00     0.016 C 
ENDBRANCH  12  15
ENDBRANCH   7   8
ENDBRANCH   6   7
ENDBRANCH   5   6
ENDBRANCH   1   5
BRANCH   3  18
HETATM   18  C11 UNL     1       4.322   0.389   0.008  1.00  0.00     0.277 C 
BRANCH  18  19
HETATM   19  N5  UNL     1       3.944   1.623   0.676  1.00  0.00    -0.066 N 
ATOM     20  H53 UNL     1       3.339   2.211   0.102  1.00  0.00     0.275 HD
ATOM     21  H52 UNL     1       3.295   1.469   1.448  1.00  0.00     0.275 HD
ATOM     22  H51 UNL     1       4.795   2.102   0.968  1.00  0.00     0.275 HD
ENDBRANCH  18  19
BRANCH  18  23
HETATM   23  C12 UNL     1       5.157  -0.484   0.945  1.00  0.00     0.069 C 
BRANCH  23  24
HETATM   24  C13 UNL     1       6.380   0.329   1.303  1.00  0.00     0.232 C 
BRANCH  24  25
HETATM   25  N6  UNL     1       7.281  -0.348   2.184  1.00  0.00    -0.079 N 
ATOM     26  H63 UNL     1       6.796  -0.659   3.026  1.00  0.00     0.274 HD
ATOM     27  H62 UNL     1       7.550  -1.253   1.798  1.00  0.00     0.274 HD
ATOM     28  H61 UNL     1       8.106   0.201   2.426  1.00  0.00     0.274 HD
ENDBRANCH  24  25
ENDBRANCH  23  24
ENDBRANCH  18  23
ENDBRANCH   3  18
TORSDOF 10
