REMARK  8 active torsions:
REMARK  status: ('A' for Active; 'I' for Inactive)
REMARK    1  A    between atoms: C2_2  and  C3_3 
REMARK    2  A    between atoms: C3_3  and  N1_4 
REMARK    3  A    between atoms: N1_4  and  C4_6 
REMARK    4  A    between atoms: C4_6  and  O1_7 
REMARK    5  A    between atoms: C4_6  and  C5_9 
REMARK    6  A    between atoms: C5_9  and  N2_21 
REMARK    7  A    between atoms: C6_10  and  C7_11 
REMARK       I    between atoms: N2_21  and  C17_23 
REMARK    8  A    between atoms: C17_23  and  C18_25 
ROOT
HETATM    1  C5  UNL     1      -0.542   0.956   0.132  1.00  0.00     0.082 C 
HETATM    2  C6  UNL     1      -1.383   0.153   0.989  1.00  0.00     0.017 C 
ENDROOT
BRANCH   1   3
HETATM    3  C4  UNL     1      -0.938   2.247  -0.392  1.00  0.00     0.163 C 
BRANCH   3   4
HETATM    4  N1  UNL     1      -1.955   3.127  -0.009  1.00  0.00    -0.366 N 
ATOM      5  H1  UNL     1      -2.556   2.878   0.776  1.00  0.00     0.162 HD
BRANCH   4   6
HETATM    6  C3  UNL     1      -2.183   4.406  -0.709  1.00  0.00     0.148 C 
BRANCH   6   7
HETATM    7  C2  UNL     1      -0.996   5.285  -0.639  1.00  0.00    -0.018 C 
HETATM    8  C1  UNL     1      -0.349   5.729  -1.700  1.00  0.00     0.008 C 
ENDBRANCH   6   7
ENDBRANCH   4   6
ENDBRANCH   3   4
BRANCH   3   9
HETATM    9  O1  UNL     1      -0.211   2.677  -1.400  1.00  0.00    -0.345 OA
ATOM     10  H1  UNL     1       0.480   2.079  -1.660  1.00  0.00     0.219 HD
ENDBRANCH   3   9
ENDBRANCH   1   3
BRANCH   1  11
HETATM   11  N2  UNL     1       0.891   0.951   0.376  1.00  0.00    -0.323 N 
HETATM   12  C17 UNL     1       1.870   0.404  -0.477  1.00  0.00     0.227 C 
HETATM   13  O2  UNL     1       1.494  -0.137  -1.560  1.00  0.00    -0.273 OA
ATOM     14  H2  UNL     1       1.217   1.382   1.241  1.00  0.00     0.169 HD
BRANCH  12  15
HETATM   15  C18 UNL     1       3.311   0.413  -0.198  1.00  0.00     0.086 C 
HETATM   16  C19 UNL     1       3.583  -0.366   1.071  1.00  0.00    -0.000 C 
HETATM   17  C20 UNL     1       3.384  -1.852   0.856  1.00  0.00     0.010 C 
HETATM   18  C24 UNL     1       5.013  -0.091   1.482  1.00  0.00     0.010 C 
HETATM   19  C21 UNL     1       4.355  -2.347  -0.172  1.00  0.00    -0.013 C 
HETATM   20  C22 UNL     1       5.787  -2.039   0.242  1.00  0.00     0.009 C 
HETATM   21  C27 UNL     1       4.055  -1.617  -1.483  1.00  0.00     0.010 C 
HETATM   22  C23 UNL     1       5.910  -0.552   0.355  1.00  0.00    -0.013 C 
HETATM   23  C25 UNL     1       5.610   0.169  -0.938  1.00  0.00     0.010 C 
HETATM   24  C26 UNL     1       4.149  -0.123  -1.305  1.00  0.00    -0.000 C 
ENDBRANCH  12  15
ENDBRANCH   1  11
BRANCH   2  25
HETATM   25  C7  UNL     1      -2.653  -0.455   0.521  1.00  0.00    -0.019 C 
HETATM   26  C8  UNL     1      -3.167  -1.203   1.777  1.00  0.00     0.018 C 
HETATM   27  C9  UNL     1      -4.385  -2.007   1.528  1.00  0.00    -0.013 C 
HETATM   28  C10 UNL     1      -5.495  -1.086   1.058  1.00  0.00     0.009 C 
HETATM   29  C14 UNL     1      -4.064  -3.082   0.514  1.00  0.00     0.009 C 
HETATM   30  C11 UNL     1      -5.017  -0.450  -0.205  1.00  0.00    -0.013 C 
HETATM   31  C12 UNL     1      -4.722  -1.508  -1.220  1.00  0.00     0.009 C 
HETATM   32  C16 UNL     1      -3.748   0.370   0.012  1.00  0.00     0.018 C 
HETATM   33  C13 UNL     1      -3.583  -2.380  -0.728  1.00  0.00    -0.013 C 
HETATM   34  C15 UNL     1      -2.366  -1.568  -0.498  1.00  0.00     0.018 C 
ENDBRANCH   2  25
TORSDOF 8
