REMARK  4 active torsions:
REMARK  status: ('A' for Active; 'I' for Inactive)
REMARK    1  A    between atoms: N1_2  and  C3_4 
REMARK    2  A    between atoms: C4_5  and  C5_6 
REMARK    3  A    between atoms: C10_15  and  O4_16 
REMARK    4  A    between atoms: N2_20  and  C13_21 
ROOT
HETATM    1  C3  UNL     1      -1.080  -0.332  -0.005  1.00  0.00     0.128 A 
HETATM    2  C4  UNL     1      -1.004  -1.708  -0.312  1.00  0.00     0.135 A 
HETATM    3  C6  UNL     1       0.196  -2.339  -0.526  1.00  0.00     0.205 A 
HETATM    4  O3  UNL     1       0.254  -3.571  -0.800  1.00  0.00    -0.286 OA
HETATM    5  C7  UNL     1       1.318  -1.586  -0.430  1.00  0.00     0.044 A 
HETATM    6  C8  UNL     1       2.548  -2.225  -0.682  1.00  0.00     0.044 A 
HETATM    7  C9  UNL     1       3.717  -1.518  -0.635  1.00  0.00     0.068 A 
HETATM    8 CL1  UNL     1       5.260  -2.288  -0.946  1.00  0.00    -0.081 Cl
HETATM    9  C10 UNL     1       3.664  -0.203  -0.346  1.00  0.00     0.089 A 
HETATM   10  C11 UNL     1       2.417   0.416  -0.095  1.00  0.00     0.069 A 
HETATM   11  C12 UNL     1       1.232  -0.247  -0.126  1.00  0.00     0.055 A 
HETATM   12  N2  UNL     1       0.038   0.414   0.098  1.00  0.00    -0.308 N 
ENDROOT
BRANCH  12  13
HETATM   13  C13 UNL     1       0.057   1.780   0.495  1.00  0.00     0.109 C 
HETATM   14  C14 UNL     1       0.880   2.023   1.795  1.00  0.00     0.056 C 
HETATM   15  C15 UNL     1       0.473   2.738  -0.609  1.00  0.00     0.056 C 
HETATM   16 CL2  UNL     1      -1.495   2.456   1.015  1.00  0.00    -0.096 Cl
ENDBRANCH  12  13
BRANCH   1  17
HETATM   17  N1  UNL     1      -2.405   0.125   0.040  1.00  0.00    -0.375 N 
HETATM   18  C1  UNL     1      -3.393  -0.021   1.073  1.00  0.00     0.150 C 
HETATM   19  C2  UNL     1      -2.933   0.782  -1.172  1.00  0.00     0.150 C 
ENDBRANCH   1  17
BRANCH   2  20
HETATM   20  C5  UNL     1      -2.194  -2.511  -0.365  1.00  0.00     0.217 C 
HETATM   21  O1  UNL     1      -2.838  -2.647  -1.408  1.00  0.00    -0.644 OA
HETATM   22  O2  UNL     1      -2.621  -3.143   0.784  1.00  0.00    -0.644 OA
ENDBRANCH   2  20
BRANCH   9  23
HETATM   23  O4  UNL     1       4.815   0.556  -0.289  1.00  0.00    -0.359 OA
ATOM     24  H4  UNL     1       4.778   1.483  -0.085  1.00  0.00     0.217 HD
ENDBRANCH   9  23
TORSDOF 4
