REMARK  4 active torsions:
REMARK  status: ('A' for Active; 'I' for Inactive)
REMARK    1  A    between atoms: C3_5  and  C4_6 
REMARK       I    between atoms: C4_6  and  N2_8 
REMARK    2  A    between atoms: N2_8  and  C5_10 
REMARK    3  A    between atoms: C8_15  and  C9_16 
REMARK    4  A    between atoms: C9_16  and  O2_17 
ROOT
HETATM    1  C5  UNL     1      -0.436   0.482  -1.129  1.00  0.00     0.152 A 
HETATM    2  N3  UNL     1      -1.139  -0.510  -0.574  1.00  0.00    -0.339 N 
ATOM      3  H3  UNL     1      -0.735  -1.440  -0.464  1.00  0.00     0.168 HD
HETATM    4  C6  UNL     1      -2.356  -0.258  -0.177  1.00  0.00     0.026 A 
HETATM    5  C7  UNL     1      -3.236  -1.321   0.466  1.00  0.00     0.069 C 
HETATM    6  C8  UNL     1      -2.843   1.009  -0.351  1.00  0.00     0.074 A 
HETATM    7  S1  UNL     1      -1.516   1.794  -1.087  1.00  0.00    -0.051 SA
ENDROOT
BRANCH   1   8
HETATM    8  N2  UNL     1       0.784   0.428  -1.584  1.00  0.00    -0.302 N 
HETATM    9  C4  UNL     1       1.557  -0.740  -1.548  1.00  0.00     0.274 C 
HETATM   10  O1  UNL     1       1.160  -1.722  -2.203  1.00  0.00    -0.266 OA
ATOM     11  H2  UNL     1       1.194   1.272  -1.984  1.00  0.00     0.171 HD
BRANCH   9  12
HETATM   12  C3  UNL     1       2.811  -0.769  -0.737  1.00  0.00     0.108 A 
HETATM   13  N1  UNL     1       3.253   0.236  -0.043  1.00  0.00    -0.349 N 
HETATM   14  C2  UNL     1       4.373   0.123   0.645  1.00  0.00     0.047 A 
ATOM     15  H1  UNL     1       2.734   1.114  -0.030  1.00  0.00     0.166 HD
HETATM   16  C1  UNL     1       5.045   1.172   1.507  1.00  0.00     0.076 C 
HETATM   17  S2  UNL     1       4.854  -1.480   0.315  1.00  0.00    -0.087 SA
HETATM   18  C10 UNL     1       3.561  -1.923  -0.710  1.00  0.00     0.086 A 
ENDBRANCH   9  12
ENDBRANCH   1   8
BRANCH   6  19
HETATM   19  C9  UNL     1      -4.201   1.545   0.020  1.00  0.00     0.251 C 
HETATM   20 CL1  UNL     1      -5.471   0.719  -0.913  1.00  0.00    -0.065 Cl
HETATM   21 CL2  UNL     1      -4.204   3.279  -0.375  1.00  0.00    -0.065 Cl
BRANCH  19  22
HETATM   22  O2  UNL     1      -4.420   1.427   1.391  1.00  0.00    -0.358 OA
ATOM     23  H2  UNL     1      -5.276   1.765   1.625  1.00  0.00     0.213 HD
ENDBRANCH  19  22
ENDBRANCH   6  19
TORSDOF 4
