REMARK  4 active torsions:
REMARK  status: ('A' for Active; 'I' for Inactive)
REMARK    1  A    between atoms: C2_2  and  O1_3 
REMARK    2  A    between atoms: O1_3  and  C3_4 
REMARK    3  A    between atoms: C3_4  and  C4_6 
REMARK    4  A    between atoms: C19_25  and  O5_27 
ROOT
HETATM    1  C4  UNL     1       0.817   0.038  -0.057  1.00  0.00     0.062 C 
HETATM    2  C5  UNL     1       1.346   0.240  -1.509  1.00  0.00     0.021 C 
HETATM    3  C6  UNL     1       1.294   1.695  -1.802  1.00  0.00     0.009 C 
HETATM    4  C7  UNL     1       1.434   2.245  -0.477  1.00  0.00     0.029 C 
HETATM    5  C8  UNL     1       0.969   1.279   0.586  1.00  0.00     0.050 C 
HETATM    6  C9  UNL     1       1.688   1.931   1.651  1.00  0.00     0.121 C 
HETATM    7 CL1  UNL     1       1.244   1.531   3.322  1.00  0.00    -0.101 Cl
HETATM    8 CL2  UNL     1       3.405   2.157   1.575  1.00  0.00    -0.101 Cl
HETATM    9  C10 UNL     1       1.015   3.344   1.436  1.00  0.00     0.081 C 
HETATM   10  C11 UNL     1       0.585   3.376  -0.022  1.00  0.00     0.074 C 
HETATM   11  C12 UNL     1       1.062   4.641  -0.706  1.00  0.00     0.047 C 
HETATM   12  O3  UNL     1      -0.718   3.047  -0.320  1.00  0.00    -0.310 OA
HETATM   13  C13 UNL     1      -1.536   2.018  -0.754  1.00  0.00     0.264 C 
HETATM   14  O4  UNL     1      -2.312   2.403  -1.645  1.00  0.00    -0.265 OA
HETATM   15  C14 UNL     1      -1.648   0.652  -0.378  1.00  0.00     0.094 C 
HETATM   16  C15 UNL     1      -2.786   0.057  -1.226  1.00  0.00     0.015 C 
HETATM   17  C16 UNL     1      -4.006  -0.255  -0.389  1.00  0.00     0.001 C 
HETATM   18  C17 UNL     1      -3.616  -1.586   0.272  1.00  0.00     0.003 C 
HETATM   19  C18 UNL     1      -2.513  -1.351   1.226  1.00  0.00     0.038 C 
HETATM   20  C19 UNL     1      -1.108  -1.437   0.723  1.00  0.00     0.060 C 
HETATM   21  C20 UNL     1      -0.960  -2.861   0.205  1.00  0.00     0.046 C 
HETATM   22  C21 UNL     1      -0.630  -0.385  -0.245  1.00  0.00     0.052 C 
ENDROOT
BRANCH   1  23
HETATM   23  C3  UNL     1       1.725  -1.014   0.456  1.00  0.00     0.268 C 
HETATM   24  O2  UNL     1       2.325  -0.829   1.548  1.00  0.00    -0.264 OA
BRANCH  23  25
HETATM   25  O1  UNL     1       2.008  -2.222  -0.143  1.00  0.00    -0.321 OA
BRANCH  25  26
HETATM   26  C2  UNL     1       2.910  -3.176   0.436  1.00  0.00     0.174 C 
HETATM   27  C1  UNL     1       3.017  -4.382  -0.434  1.00  0.00     0.034 C 
ENDBRANCH  25  26
ENDBRANCH  23  25
ENDBRANCH   1  23
BRANCH  20  28
HETATM   28  O5  UNL     1      -0.387  -1.420   1.937  1.00  0.00    -0.390 OA
ATOM     29  H5  UNL     1       0.506  -1.475   1.617  1.00  0.00     0.210 HD
ENDBRANCH  20  28
TORSDOF 4
