REMARK  3 active torsions:
REMARK  status: ('A' for Active; 'I' for Inactive)
REMARK    1  A    between atoms: C2_2  and  C4_4 
REMARK    2  A    between atoms: C17_21  and  O4_22 
REMARK    3  A    between atoms: C18_24  and  C19_25 
ROOT
HETATM    1  C4  UNL     1       2.884  -0.767  -0.982  1.00  0.00     0.264 C 
HETATM    2  O1  UNL     1       1.654  -1.208  -1.469  1.00  0.00    -0.352 OA
HETATM    3  C5  UNL     1       0.776  -0.580  -0.645  1.00  0.00     0.164 C 
HETATM    4  C6  UNL     1      -0.632  -0.429  -1.107  1.00  0.00     0.026 C 
HETATM    5  C7  UNL     1      -1.149  -1.695  -1.597  1.00  0.00     0.012 C 
HETATM    6  C8  UNL     1      -2.499  -2.127  -1.241  1.00  0.00     0.038 C 
HETATM    7  C9  UNL     1      -3.242  -1.245  -0.309  1.00  0.00    -0.038 C 
HETATM    8  C10 UNL     1      -4.379  -1.732   0.156  1.00  0.00     0.083 C 
HETATM    9 CL1  UNL     1      -4.917  -3.353  -0.349  1.00  0.00    -0.080 Cl
HETATM   10  C11 UNL     1      -5.268  -1.039   1.077  1.00  0.00     0.178 C 
HETATM   11  O2  UNL     1      -6.481  -1.342   1.206  1.00  0.00    -0.291 OA
HETATM   12  C12 UNL     1      -4.698   0.057   1.877  1.00  0.00     0.164 C 
HETATM   13  C13 UNL     1      -3.292   0.366   1.472  1.00  0.00     0.147 C 
HETATM   14  O3  UNL     1      -2.613   0.850   2.361  1.00  0.00    -0.296 OA
HETATM   15  C14 UNL     1      -2.783   0.097   0.096  1.00  0.00     0.049 C 
HETATM   16  C15 UNL     1      -3.516   1.082  -0.800  1.00  0.00     0.029 C 
HETATM   17  C16 UNL     1      -1.301   0.224   0.081  1.00  0.00     0.041 C 
HETATM   18  C17 UNL     1      -0.813   1.649   0.105  1.00  0.00     0.131 C 
HETATM   19  C18 UNL     1       0.683   1.832   0.113  1.00  0.00     0.055 C 
HETATM   20  C22 UNL     1       1.404   0.812  -0.663  1.00  0.00     0.093 C 
HETATM   21  C23 UNL     1       1.475   1.194  -2.152  1.00  0.00     0.049 C 
HETATM   22  O5  UNL     1       2.660   0.437  -0.313  1.00  0.00    -0.347 OA
ENDROOT
BRANCH   1  23
HETATM   23  C2  UNL     1       3.500  -1.726   0.003  1.00  0.00     0.033 C 
HETATM   24  C1  UNL     1       3.749  -3.087  -0.601  1.00  0.00     0.014 C 
HETATM   25  C3  UNL     1       4.830  -1.104   0.432  1.00  0.00     0.014 C 
ENDBRANCH   1  23
BRANCH  19  26
HETATM   26  C19 UNL     1       1.232   2.212   1.447  1.00  0.00    -0.013 C 
HETATM   27  C20 UNL     1       2.732   2.412   1.337  1.00  0.00     0.010 C 
HETATM   28  C21 UNL     1       0.958   1.283   2.584  1.00  0.00     0.010 C 
ENDBRANCH  19  26
BRANCH  18  29
HETATM   29  O4  UNL     1      -1.248   2.186  -1.138  1.00  0.00    -0.395 OA
ATOM     30  H4  UNL     1      -0.940   3.085  -1.123  1.00  0.00     0.210 HD
ENDBRANCH  18  29
TORSDOF 3
