REMARK  4 active torsions:
REMARK  status: ('A' for Active; 'I' for Inactive)
REMARK    1  A    between atoms: O1_2  and  C2_3 
REMARK    2  A    between atoms: C2_3  and  C3_5 
REMARK    3  A    between atoms: C10_13  and  C11_14 
REMARK    4  A    between atoms: C17_21  and  O4_22 
ROOT
HETATM    1  C3  UNL     1       2.787   0.500  -0.232  1.00  0.00     0.019 C 
HETATM    2  C4  UNL     1       3.034   1.828  -0.296  1.00  0.00    -0.013 C 
HETATM    3  C5  UNL     1       2.003   2.869  -0.223  1.00  0.00     0.029 C 
HETATM    4  C6  UNL     1       0.683   2.224  -0.637  1.00  0.00     0.021 C 
HETATM    5  C7  UNL     1       0.408   1.011   0.200  1.00  0.00     0.026 C 
HETATM    6  C8  UNL     1       0.333   1.455   1.621  1.00  0.00     0.024 C 
HETATM    7  C9  UNL     1      -0.871   0.388  -0.276  1.00  0.00     0.155 C 
HETATM    8  O3  UNL     1      -0.912   0.560  -1.504  1.00  0.00    -0.295 OA
HETATM    9  C10 UNL     1      -2.001  -0.322   0.292  1.00  0.00     0.103 C 
HETATM   10  C15 UNL     1      -1.588  -1.357   1.337  1.00  0.00     0.060 C 
HETATM   11  C16 UNL     1      -0.971  -2.435   0.550  1.00  0.00     0.092 C 
HETATM   12 CL1  UNL     1      -1.146  -3.955   1.532  1.00  0.00    -0.114 Cl
HETATM   13  C17 UNL     1       0.457  -2.313   0.169  1.00  0.00     0.144 C 
HETATM   14  C18 UNL     1       1.258  -1.227   0.821  1.00  0.00     0.044 C 
HETATM   15  C19 UNL     1       1.462  -0.040  -0.084  1.00  0.00     0.042 C 
HETATM   16  C20 UNL     1      -1.909  -2.584  -0.609  1.00  0.00     0.119 C 
HETATM   17  C21 UNL     1      -1.227  -3.031  -1.877  1.00  0.00     0.043 C 
HETATM   18 CL2  UNL     1      -3.134  -3.805  -0.200  1.00  0.00    -0.109 Cl
HETATM   19  C22 UNL     1      -2.561  -1.274  -0.738  1.00  0.00     0.171 C 
HETATM   20  O5  UNL     1      -3.416  -1.023  -1.556  1.00  0.00    -0.294 OA
ENDROOT
BRANCH   1  21
HETATM   21  C2  UNL     1       4.020  -0.304  -0.337  1.00  0.00     0.289 C 
HETATM   22  O2  UNL     1       3.943  -1.539  -0.320  1.00  0.00    -0.260 OA
BRANCH  21  23
HETATM   23  O1  UNL     1       5.288   0.238  -0.457  1.00  0.00    -0.323 OA
HETATM   24  C1  UNL     1       6.458  -0.553  -0.556  1.00  0.00     0.213 C 
ENDBRANCH  21  23
ENDBRANCH   1  21
BRANCH  13  25
HETATM   25  O4  UNL     1       1.056  -3.564   0.304  1.00  0.00    -0.394 OA
ATOM     26  H4  UNL     1       1.971  -3.486   0.060  1.00  0.00     0.210 HD
ENDBRANCH  13  25
BRANCH   9  27
HETATM   27  C11 UNL     1      -3.050   0.549   0.802  1.00  0.00     0.000 C 
HETATM   28  C12 UNL     1      -3.607   1.630   0.341  1.00  0.00    -0.090 C 
HETATM   29  C13 UNL     1      -3.345   2.358  -0.906  1.00  0.00     0.042 C 
HETATM   30  C14 UNL     1      -4.700   2.251   1.214  1.00  0.00     0.042 C 
ENDBRANCH   9  27
TORSDOF 4
