REMARK  16 active torsions:
REMARK  status: ('A' for Active; 'I' for Inactive)
REMARK    1  A    between atoms: O1_2  and  N1_3 
REMARK    2  A    between atoms: C2_5  and  C3_6 
REMARK    3  A    between atoms: C2_5  and  C23_41 
REMARK    4  A    between atoms: C3_6  and  N2_7 
REMARK    5  A    between atoms: C4_10  and  C5_11 
REMARK    6  A    between atoms: C11_17  and  N4_18 
REMARK    7  A    between atoms: N4_18  and  C12_20 
REMARK    8  A    between atoms: C12_20  and  C13_21 
REMARK    9  A    between atoms: C13_21  and  O2_22 
REMARK   10  A    between atoms: C13_21  and  C14_24 
REMARK   11  A    between atoms: C14_24  and  O3_25 
REMARK   12  A    between atoms: C15_29  and  N6_30 
REMARK   13  A    between atoms: N6_30  and  O4_32 
REMARK   14  A    between atoms: O4_32  and  C16_33 
REMARK   15  A    between atoms: C16_33  and  C17_34 
REMARK   16  A    between atoms: C25_44  and  N8_45 
ROOT
HETATM    1  N2  UNL     1      -0.287   0.318   0.815  1.00  0.00    -0.116 N 
HETATM    2  N3  UNL     1      -1.533   0.461   1.244  1.00  0.00    -0.279 N 
ATOM      3  H3  UNL     1      -1.690   1.204   1.925  1.00  0.00     0.188 HD
HETATM    4  C4  UNL     1      -2.595  -0.242   0.897  1.00  0.00     0.103 A 
HETATM    5  C11 UNL     1      -2.376  -1.246  -0.026  1.00  0.00     0.146 A 
HETATM    6  N5  UNL     1      -1.141  -1.425  -0.483  1.00  0.00    -0.171 N 
ATOM      7  H5  UNL     1      -0.982  -2.166  -1.165  1.00  0.00     0.186 HD
HETATM    8  C15 UNL     1      -0.056  -0.657  -0.082  1.00  0.00     0.720 A 
ENDROOT
BRANCH   1   9
HETATM    9  C3  UNL     1       0.768   1.180   1.232  1.00  0.00     0.229 C 
BRANCH   9  10
HETATM   10  C2  UNL     1       0.889   2.477   0.530  1.00  0.00     0.079 C 
HETATM   11  N1  UNL     1       1.693   2.529  -0.421  1.00  0.00    -0.267 N 
ATOM     12  H1  UNL     1       2.156   1.632  -0.567  1.00  0.00     0.194 HD
BRANCH  11  13
HETATM   13  O1  UNL     1       2.104   3.427  -1.284  1.00  0.00    -0.285 OA
HETATM   14  C1  UNL     1       3.486   3.791  -1.386  1.00  0.00     0.237 C 
ENDBRANCH  11  13
BRANCH  10  15
HETATM   15  C23 UNL     1       0.043   3.658   0.900  1.00  0.00     0.067 A 
HETATM   16  C24 UNL     1       0.010   4.781   0.111  1.00  0.00     0.084 A 
HETATM   17  S1  UNL     1      -1.048   5.826   0.999  1.00  0.00    -0.064 SA
HETATM   18  C25 UNL     1      -1.368   4.772   2.294  1.00  0.00     0.142 A 
HETATM   19  N9  UNL     1      -0.671   3.695   2.002  1.00  0.00    -0.335 N 
ATOM     20  H9  UNL     1      -0.685   2.891   2.630  1.00  0.00     0.168 HD
BRANCH  18  21
HETATM   21  N8  UNL     1      -2.130   4.984   3.338  1.00  0.00    -0.380 N 
ATOM     22  H82 UNL     1      -2.670   5.819   3.564  1.00  0.00     0.158 HD
ATOM     23  H81 UNL     1      -2.322   4.352   4.115  1.00  0.00     0.158 HD
ENDBRANCH  18  21
ENDBRANCH  10  15
ENDBRANCH   9  10
ENDBRANCH   1   9
BRANCH   8  24
HETATM   24  N6  UNL     1       1.040  -1.014  -0.587  1.00  0.00    -0.094 N 
ATOM     25  H6  UNL     1       0.850  -1.782  -1.230  1.00  0.00     0.213 HD
BRANCH  24  26
HETATM   26  O4  UNL     1       2.299  -0.789  -0.608  1.00  0.00    -0.262 OA
BRANCH  26  27
HETATM   27  C16 UNL     1       3.195  -1.558  -1.384  1.00  0.00     0.240 C 
BRANCH  27  28
HETATM   28  C17 UNL     1       4.589  -1.094  -1.230  1.00  0.00    -0.030 A 
HETATM   29  C18 UNL     1       4.971  -0.054  -0.434  1.00  0.00     0.026 A 
HETATM   30  C19 UNL     1       6.309   0.282  -0.376  1.00  0.00     0.090 A 
HETATM   31  N7  UNL     1       7.262  -0.372  -1.072  1.00  0.00    -0.371 N 
HETATM   32  C20 UNL     1       8.657  -0.017  -1.007  1.00  0.00     0.154 C 
HETATM   33  C21 UNL     1       6.873  -1.384  -1.843  1.00  0.00     0.090 A 
HETATM   34  C22 UNL     1       5.558  -1.764  -1.941  1.00  0.00     0.026 A 
ENDBRANCH  27  28
ENDBRANCH  26  27
ENDBRANCH  24  26
ENDBRANCH   8  24
BRANCH   4  35
HETATM   35  C5  UNL     1      -3.934   0.011   1.434  1.00  0.00    -0.004 A 
HETATM   36  C6  UNL     1      -4.379   1.312   1.471  1.00  0.00     0.014 A 
HETATM   37  C7  UNL     1      -5.623   1.666   1.965  1.00  0.00     0.001 A 
HETATM   38  C8  UNL     1      -6.432   0.668   2.431  1.00  0.00     0.000 A 
HETATM   39  C9  UNL     1      -6.009  -0.635   2.403  1.00  0.00     0.001 A 
HETATM   40  C10 UNL     1      -4.761  -0.979   1.907  1.00  0.00     0.014 A 
ENDBRANCH   4  35
BRANCH   5  41
HETATM   41  N4  UNL     1      -3.385  -1.958  -0.406  1.00  0.00    -0.371 N 
ATOM     42  H4  UNL     1      -4.317  -1.780  -0.032  1.00  0.00     0.161 HD
BRANCH  41  43
HETATM   43  C12 UNL     1      -3.165  -3.024  -1.383  1.00  0.00     0.155 C 
BRANCH  43  44
HETATM   44  C13 UNL     1      -4.481  -3.716  -1.623  1.00  0.00     0.159 C 
BRANCH  44  45
HETATM   45  O2  UNL     1      -4.236  -4.730  -2.563  1.00  0.00    -0.392 OA
ATOM     46  H2  UNL     1      -5.066  -5.166  -2.714  1.00  0.00     0.210 HD
ENDBRANCH  44  45
BRANCH  44  47
HETATM   47  C14 UNL     1      -4.948  -4.414  -0.362  1.00  0.00     0.197 C 
BRANCH  47  48
HETATM   48  O3  UNL     1      -3.931  -5.263   0.043  1.00  0.00    -0.398 OA
ATOM     49  H3  UNL     1      -4.224  -5.701   0.834  1.00  0.00     0.209 HD
ENDBRANCH  47  48
ENDBRANCH  44  47
ENDBRANCH  43  44
ENDBRANCH  41  43
ENDBRANCH   5  41
TORSDOF 16
