REMARK  15 active torsions:
REMARK  status: ('A' for Active; 'I' for Inactive)
REMARK    1  A    between atoms: O1_2  and  C2_3 
REMARK    2  A    between atoms: C3_4  and  O2_5 
REMARK    3  A    between atoms: C4_7  and  C5_8 
REMARK    4  A    between atoms: C5_8  and  O3_9 
REMARK    5  A    between atoms: C6_12  and  C7_13 
REMARK    6  A    between atoms: C8_14  and  C9_15 
REMARK    7  A    between atoms: C9_15  and  C11_17 
REMARK    8  A    between atoms: C11_17  and  O5_18 
REMARK    9  A    between atoms: C11_17  and  C12_20 
REMARK   10  A    between atoms: C12_20  and  C13_21 
REMARK   11  A    between atoms: C19_27  and  O6_28 
REMARK   12  A    between atoms: O6_28  and  C20_29 
REMARK   13  A    between atoms: C21_31  and  C22_32 
REMARK   14  A    between atoms: C22_32  and  O8_33 
REMARK   15  A    between atoms: C28_41  and  O10_42 
ROOT
HETATM    1  C2  UNL     1      -1.949  -2.687  -0.793  1.00  0.00     0.184 C 
HETATM    2  C3  UNL     1      -1.008  -3.718  -1.435  1.00  0.00     0.180 C 
HETATM    3  C4  UNL     1      -0.109  -4.251  -0.369  1.00  0.00     0.177 C 
HETATM    4  O4  UNL     1      -0.322  -3.621   0.821  1.00  0.00    -0.369 OA
HETATM    5  C6  UNL     1      -0.153  -2.241   0.818  1.00  0.00     0.176 C 
HETATM    6  C19 UNL     1      -1.034  -1.634  -0.211  1.00  0.00     0.189 C 
ENDROOT
BRANCH   6   7
HETATM    7  O6  UNL     1      -1.771  -0.553   0.161  1.00  0.00    -0.347 OA
BRANCH   7   8
HETATM    8  C20 UNL     1      -1.568   0.613  -0.506  1.00  0.00     0.300 C 
HETATM    9  O7  UNL     1      -1.013   1.538   0.359  1.00  0.00    -0.326 OA
HETATM   10  C21 UNL     1      -1.879   2.282   1.084  1.00  0.00     0.287 C 
HETATM   11  O9  UNL     1      -3.035   2.673   0.429  1.00  0.00    -0.350 OA
HETATM   12  C23 UNL     1      -2.878   2.623  -0.955  1.00  0.00     0.167 C 
HETATM   13  C24 UNL     1      -4.188   2.916  -1.632  1.00  0.00     0.014 C 
HETATM   14  C28 UNL     1      -2.732   1.128  -1.279  1.00  0.00     0.134 C 
HETATM   15  C25 UNL     1      -4.798   4.217  -1.159  1.00  0.00     0.012 C 
HETATM   16  C26 UNL     1      -5.024   1.727  -1.291  1.00  0.00     0.010 C 
HETATM   17  C27 UNL     1      -4.062   0.609  -0.882  1.00  0.00     0.046 C 
BRANCH  10  18
HETATM   18  C22 UNL     1      -2.280   1.655   2.410  1.00  0.00     0.224 C 
BRANCH  18  19
HETATM   19  O8  UNL     1      -3.174   2.547   3.029  1.00  0.00    -0.396 OA
ATOM     20  H8  UNL     1      -3.425   2.155   3.857  1.00  0.00     0.209 HD
ENDBRANCH  18  19
ENDBRANCH  10  18
BRANCH  14  21
HETATM   21  O10 UNL     1      -2.593   1.045  -2.652  1.00  0.00    -0.382 OA
ATOM     22  H10 UNL     1      -3.336   1.374  -3.145  1.00  0.00     0.210 HD
ENDBRANCH  14  21
ENDBRANCH   7   8
ENDBRANCH   6   7
BRANCH   1  23
HETATM   23  O1  UNL     1      -2.600  -3.345   0.218  1.00  0.00    -0.385 OA
HETATM   24  C1  UNL     1      -3.967  -3.401   0.094  1.00  0.00     0.202 C 
ENDBRANCH   1  23
BRANCH   5  25
HETATM   25  C7  UNL     1       1.284  -1.991   0.525  1.00  0.00     0.004 C 
HETATM   26  C8  UNL     1       2.058  -1.215   1.275  1.00  0.00    -0.021 C 
BRANCH  26  27
HETATM   27  C9  UNL     1       3.476  -0.967   0.986  1.00  0.00     0.033 C 
HETATM   28  C10 UNL     1       4.286  -1.407   2.196  1.00  0.00     0.017 C 
BRANCH  27  29
HETATM   29  C11 UNL     1       3.766   0.498   0.757  1.00  0.00     0.129 C 
BRANCH  29  30
HETATM   30  O5  UNL     1       3.433   1.256   1.889  1.00  0.00    -0.395 OA
ATOM     31  H5  UNL     1       3.615   2.177   1.745  1.00  0.00     0.210 HD
ENDBRANCH  29  30
BRANCH  29  32
HETATM   32  C12 UNL     1       5.259   0.661   0.507  1.00  0.00     0.070 C 
BRANCH  32  33
HETATM   33  C13 UNL     1       5.516   2.103   0.286  1.00  0.00    -0.056 A 
HETATM   34  C14 UNL     1       5.458   2.632  -0.978  1.00  0.00     0.007 A 
HETATM   35  C15 UNL     1       5.700   3.973  -1.160  1.00  0.00     0.001 A 
HETATM   36  C16 UNL     1       5.998   4.797  -0.115  1.00  0.00     0.000 A 
HETATM   37  C17 UNL     1       6.054   4.255   1.154  1.00  0.00     0.001 A 
HETATM   38  C18 UNL     1       5.814   2.911   1.357  1.00  0.00     0.007 A 
ENDBRANCH  32  33
ENDBRANCH  29  32
ENDBRANCH  27  29
ENDBRANCH  26  27
ENDBRANCH   5  25
BRANCH   2  39
HETATM   39  O2  UNL     1      -1.705  -4.680  -2.123  1.00  0.00    -0.390 OA
ATOM     40  H2  UNL     1      -1.123  -5.317  -2.520  1.00  0.00     0.210 HD
ENDBRANCH   2  39
BRANCH   3  41
HETATM   41  C5  UNL     1      -0.510  -5.720  -0.144  1.00  0.00     0.198 C 
BRANCH  41  42
HETATM   42  O3  UNL     1      -0.322  -6.442  -1.318  1.00  0.00    -0.398 OA
ATOM     43  H3  UNL     1      -0.569  -7.349  -1.179  1.00  0.00     0.209 HD
ENDBRANCH  41  42
ENDBRANCH   3  41
TORSDOF 15
