REMARK  15 active torsions:
REMARK  status: ('A' for Active; 'I' for Inactive)
REMARK    1  A    between atoms: O1_1  and  C1_3 
REMARK    2  A    between atoms: C1_3  and  C2_4 
REMARK    3  A    between atoms: C3_6  and  O3_7 
REMARK    4  A    between atoms: O3_7  and  C4_8 
REMARK    5  A    between atoms: C4_8  and  C5_9 
REMARK    6  A    between atoms: C6_11  and  O5_12 
REMARK    7  A    between atoms: O5_12  and  C7_13 
REMARK    8  A    between atoms: C10_16  and  O6_17 
REMARK    9  A    between atoms: O6_17  and  C11_18 
REMARK   10  A    between atoms: C11_18  and  C12_19 
REMARK   11  A    between atoms: C12_19  and  C13_20 
REMARK   12  A    between atoms: C21_28  and  O7_29 
REMARK   13  A    between atoms: C27_36  and  O8_37 
REMARK   14  A    between atoms: C28_39  and  O9_40 
REMARK   15  A    between atoms: C29_42  and  O10_43 
ROOT
HETATM    1  C5  UNL     1      -2.249  -0.512  -0.676  1.00  0.00     0.156 C 
HETATM    2  O4  UNL     1      -1.023  -0.289   0.040  1.00  0.00    -0.350 OA
HETATM    3  C6  UNL     1       0.081  -0.134  -0.721  1.00  0.00     0.295 C 
HETATM    4  C21 UNL     1      -0.014   0.731  -1.948  1.00  0.00     0.178 C 
HETATM    5  C22 UNL     1      -1.289   0.489  -2.637  1.00  0.00     0.033 C 
HETATM    6  C23 UNL     1      -1.163   0.093  -4.092  1.00  0.00     0.035 C 
HETATM    7  C24 UNL     1      -2.395  -0.740  -4.254  1.00  0.00    -0.030 C 
HETATM    8  C25 UNL     1      -2.761  -1.233  -3.073  1.00  0.00    -0.023 C 
HETATM    9  C26 UNL     1      -1.850  -0.796  -2.066  1.00  0.00     0.046 C 
ENDROOT
BRANCH   1  10
HETATM   10  C4  UNL     1      -3.024   0.685  -0.343  1.00  0.00     0.203 C 
BRANCH  10  11
HETATM   11  O3  UNL     1      -4.297   0.916  -0.682  1.00  0.00    -0.356 OA
BRANCH  11  12
HETATM   12  C3  UNL     1      -5.283   0.113  -0.226  1.00  0.00     0.291 C 
HETATM   13  O2  UNL     1      -5.956   0.799   0.884  1.00  0.00    -0.348 OA
HETATM   14  C2  UNL     1      -6.584  -0.269   1.548  1.00  0.00     0.179 C 
HETATM   15  C29 UNL     1      -7.752  -0.728   0.709  1.00  0.00     0.180 C 
HETATM   16  C28 UNL     1      -7.263  -1.254  -0.650  1.00  0.00     0.183 C 
HETATM   17  C27 UNL     1      -6.384  -0.116  -1.187  1.00  0.00     0.204 C 
BRANCH  14  18
HETATM   18  C1  UNL     1      -7.151   0.260   2.849  1.00  0.00     0.198 C 
BRANCH  18  19
HETATM   19  O1  UNL     1      -8.068   1.262   2.587  1.00  0.00    -0.398 OA
ATOM     20  H1  UNL     1      -8.424   1.594   3.403  1.00  0.00     0.209 HD
ENDBRANCH  18  19
ENDBRANCH  14  18
BRANCH  15  21
HETATM   21  O10 UNL     1      -8.519  -1.663   1.366  1.00  0.00    -0.390 OA
ATOM     22  H10 UNL     1      -9.254  -1.952   0.838  1.00  0.00     0.210 HD
ENDBRANCH  15  21
BRANCH  16  23
HETATM   23  O9  UNL     1      -8.341  -1.433  -1.486  1.00  0.00    -0.390 OA
ATOM     24  H9  UNL     1      -8.885  -2.137  -1.154  1.00  0.00     0.210 HD
ENDBRANCH  16  23
BRANCH  17  25
HETATM   25  O8  UNL     1      -6.018  -0.285  -2.481  1.00  0.00    -0.388 OA
ATOM     26  H8  UNL     1      -6.725  -0.432  -3.098  1.00  0.00     0.210 HD
ENDBRANCH  17  25
ENDBRANCH  11  12
ENDBRANCH  10  11
ENDBRANCH   1  10
BRANCH   3  27
HETATM   27  O5  UNL     1       0.985   0.590   0.132  1.00  0.00    -0.318 OA
BRANCH  27  28
HETATM   28  C7  UNL     1       2.215   0.217   0.536  1.00  0.00     0.072 A 
HETATM   29  C8  UNL     1       2.899  -0.934   0.233  1.00  0.00     0.039 A 
HETATM   30  C9  UNL     1       4.179  -1.186   0.729  1.00  0.00     0.039 A 
HETATM   31  C10 UNL     1       4.812  -0.293   1.543  1.00  0.00     0.068 A 
HETATM   32  C19 UNL     1       4.152   0.873   1.866  1.00  0.00     0.039 A 
HETATM   33  C20 UNL     1       2.889   1.116   1.373  1.00  0.00     0.039 A 
BRANCH  31  34
HETATM   34  O6  UNL     1       6.083  -0.578   2.015  1.00  0.00    -0.351 OA
BRANCH  34  35
HETATM   35  C11 UNL     1       6.704   0.374   2.857  1.00  0.00     0.180 C 
BRANCH  35  36
HETATM   36  C12 UNL     1       8.071  -0.183   3.223  1.00  0.00     0.065 C 
BRANCH  36  37
HETATM   37  C13 UNL     1       8.816  -0.366   1.956  1.00  0.00    -0.056 A 
HETATM   38  C14 UNL     1       9.576   0.671   1.487  1.00  0.00     0.007 A 
HETATM   39  C15 UNL     1      10.288   0.521   0.293  1.00  0.00     0.001 A 
HETATM   40  C16 UNL     1      10.216  -0.677  -0.400  1.00  0.00     0.000 A 
HETATM   41  C17 UNL     1       9.450  -1.709   0.082  1.00  0.00     0.001 A 
HETATM   42  C18 UNL     1       8.740  -1.554   1.276  1.00  0.00     0.007 A 
ENDBRANCH  36  37
ENDBRANCH  35  36
ENDBRANCH  34  35
ENDBRANCH  31  34
ENDBRANCH  27  28
ENDBRANCH   3  27
BRANCH   4  43
HETATM   43  O7  UNL     1       0.245   2.072  -1.669  1.00  0.00    -0.390 OA
ATOM     44  H7  UNL     1       0.185   2.618  -2.444  1.00  0.00     0.210 HD
ENDBRANCH   4  43
TORSDOF 15
