REMARK  17 active torsions:
REMARK  status: ('A' for Active; 'I' for Inactive)
REMARK    1  A    between atoms: C2_2  and  C4_4 
REMARK    2  A    between atoms: C4_4  and  C5_5 
REMARK    3  A    between atoms: C4_4  and  C28_45 
REMARK    4  A    between atoms: C5_5  and  C6_6 
REMARK    5  A    between atoms: C7_8  and  C8_9 
REMARK    6  A    between atoms: C10_12  and  C11_13 
REMARK    7  A    between atoms: C11_13  and  O3_14 
REMARK    8  A    between atoms: C11_13  and  C12_16 
REMARK    9  A    between atoms: C12_16  and  O4_17 
REMARK   10  A    between atoms: O4_17  and  C13_18 
REMARK   11  A    between atoms: C17_23  and  O6_24 
REMARK   12  A    between atoms: O6_24  and  C18_25 
REMARK   13  A    between atoms: C21_29  and  O8_30 
REMARK   14  A    between atoms: C22_32  and  O9_33 
REMARK   15  A    between atoms: C23_35  and  O10_36 
REMARK   16  A    between atoms: C24_38  and  O11_39 
REMARK   17  A    between atoms: C28_45  and  O13_47 
ROOT
HETATM    1  C13 UNL     1      -1.491  -0.823  -3.027  1.00  0.00     0.267 C 
HETATM    2  O5  UNL     1      -1.556  -1.083  -4.428  1.00  0.00    -0.349 OA
HETATM    3  C14 UNL     1      -2.763  -0.477  -4.772  1.00  0.00     0.069 A 
HETATM    4  C15 UNL     1      -3.676  -1.157  -3.831  1.00  0.00     0.050 C 
HETATM    5  C16 UNL     1      -2.909  -0.976  -2.538  1.00  0.00     0.075 C 
HETATM    6  C17 UNL     1      -3.318   0.190  -1.731  1.00  0.00     0.162 C 
HETATM    7  C24 UNL     1      -3.652   1.472  -2.345  1.00  0.00     0.148 C 
HETATM    8  C25 UNL     1      -3.974   1.494  -3.821  1.00  0.00     0.042 C 
HETATM    9  C26 UNL     1      -2.845   0.999  -4.660  1.00  0.00     0.026 A 
HETATM   10  C27 UNL     1      -3.103   0.229  -5.963  1.00  0.00     0.046 A 
ENDROOT
BRANCH   1  11
HETATM   11  O4  UNL     1      -0.566  -1.628  -2.420  1.00  0.00    -0.358 OA
BRANCH  11  12
HETATM   12  C12 UNL     1       0.592  -1.099  -1.984  1.00  0.00     0.205 C 
BRANCH  12  13
HETATM   13  C11 UNL     1       0.536  -0.022  -0.955  1.00  0.00     0.174 C 
BRANCH  13  14
HETATM   14  C10 UNL     1       1.906   0.518  -0.619  1.00  0.00     0.181 C 
HETATM   15  C9  UNL     1       1.727   1.705   0.250  1.00  0.00     0.047 C 
HETATM   16  C7  UNL     1       2.808   2.052   0.953  1.00  0.00     0.108 C 
HETATM   17  O1  UNL     1       3.934   1.284   0.792  1.00  0.00    -0.318 OA
HETATM   18  C6  UNL     1       3.909  -0.046   0.385  1.00  0.00     0.268 C 
HETATM   19  O12 UNL     1       2.631  -0.481  -0.002  1.00  0.00    -0.349 OA
BRANCH  16  20
HETATM   20  C8  UNL     1       2.732   3.206   1.835  1.00  0.00     0.295 C 
HETATM   21  O2  UNL     1       3.788   3.496   2.481  1.00  0.00    -0.299 OA
ENDBRANCH  16  20
BRANCH  18  22
HETATM   22  C5  UNL     1       4.332  -0.929   1.496  1.00  0.00     0.068 C 
BRANCH  22  23
HETATM   23  C4  UNL     1       5.674  -0.779   2.081  1.00  0.00     0.022 C 
BRANCH  23  24
HETATM   24  C2  UNL     1       6.837  -1.006   1.172  1.00  0.00    -0.016 C 
HETATM   25  C1  UNL     1       6.784  -2.412   0.599  1.00  0.00     0.010 C 
HETATM   26  C3  UNL     1       7.063  -0.039   0.081  1.00  0.00     0.010 C 
ENDBRANCH  23  24
BRANCH  23  27
HETATM   27  C28 UNL     1       5.838   0.497   2.892  1.00  0.00     0.118 C 
HETATM   28  C29 UNL     1       7.113   0.348   3.712  1.00  0.00     0.040 C 
BRANCH  27  29
HETATM   29  O13 UNL     1       4.767   0.535   3.803  1.00  0.00    -0.396 OA
ATOM     30  H13 UNL     1       4.869   1.332   4.310  1.00  0.00     0.210 HD
ENDBRANCH  27  29
ENDBRANCH  23  27
ENDBRANCH  22  23
ENDBRANCH  18  22
ENDBRANCH  13  14
BRANCH  13  31
HETATM   31  O3  UNL     1      -0.054  -0.419   0.255  1.00  0.00    -0.391 OA
ATOM     32  H3  UNL     1      -0.916  -0.759   0.044  1.00  0.00     0.210 HD
ENDBRANCH  13  31
ENDBRANCH  12  13
ENDBRANCH  11  12
ENDBRANCH   1  11
BRANCH   6  33
HETATM   33  O6  UNL     1      -4.439  -0.225  -0.975  1.00  0.00    -0.350 OA
BRANCH  33  34
HETATM   34  C18 UNL     1      -4.183  -0.226   0.390  1.00  0.00     0.292 C 
HETATM   35  O7  UNL     1      -5.108   0.629   0.993  1.00  0.00    -0.351 OA
HETATM   36  C19 UNL     1      -4.834   0.809   2.349  1.00  0.00     0.152 C 
HETATM   37  C20 UNL     1      -5.787   1.867   2.863  1.00  0.00     0.042 C 
HETATM   38  C21 UNL     1      -5.180  -0.483   3.063  1.00  0.00     0.178 C 
HETATM   39  C22 UNL     1      -4.392  -1.593   2.446  1.00  0.00     0.183 C 
HETATM   40  C23 UNL     1      -4.430  -1.612   0.948  1.00  0.00     0.204 C 
BRANCH  38  41
HETATM   41  O8  UNL     1      -6.545  -0.713   2.874  1.00  0.00    -0.390 OA
ATOM     42  H8  UNL     1      -6.762  -1.523   3.321  1.00  0.00     0.210 HD
ENDBRANCH  38  41
BRANCH  39  43
HETATM   43  O9  UNL     1      -3.071  -1.599   2.898  1.00  0.00    -0.390 OA
ATOM     44  H9  UNL     1      -2.570  -2.305   2.506  1.00  0.00     0.210 HD
ENDBRANCH  39  43
BRANCH  40  45
HETATM   45  O10 UNL     1      -5.682  -2.022   0.495  1.00  0.00    -0.388 OA
ATOM     46  H10 UNL     1      -5.837  -2.891   0.845  1.00  0.00     0.210 HD
ENDBRANCH  40  45
ENDBRANCH  33  34
ENDBRANCH   6  33
BRANCH   7  47
HETATM   47  O11 UNL     1      -4.626   2.199  -1.620  1.00  0.00    -0.393 OA
ATOM     48  H11 UNL     1      -4.843   3.033  -2.019  1.00  0.00     0.210 HD
ENDBRANCH   7  47
TORSDOF 17
