REMARK  21 active torsions:
REMARK  status: ('A' for Active; 'I' for Inactive)
REMARK    1  A    between atoms: C2_2  and  O2_4 
REMARK    2  A    between atoms: O2_4  and  C3_5 
REMARK    3  A    between atoms: C3_5  and  C4_6 
REMARK    4  A    between atoms: C6_8  and  C7_9 
REMARK    5  A    between atoms: C7_9  and  C8_10 
REMARK    6  A    between atoms: C7_9  and  C14_28 
REMARK    7  A    between atoms: C8_10  and  O4_12 
REMARK    8  A    between atoms: O4_12  and  C9_13 
REMARK    9  A    between atoms: C9_13  and  O5_14 
REMARK   10  A    between atoms: O5_14  and  C10_15 
REMARK   11  A    between atoms: C10_15  and  C11_17 
REMARK   12  A    between atoms: C11_17  and  N1_18 
REMARK   13  A    between atoms: C11_17  and  C12_22 
REMARK   14  A    between atoms: C12_22  and  O7_23 
REMARK   15  A    between atoms: C12_22  and  C13_25 
REMARK   16  A    between atoms: C13_25  and  O8_26 
REMARK   17  A    between atoms: C14_28  and  O9_29 
REMARK   18  A    between atoms: C14_28  and  C15_31 
REMARK   19  A    between atoms: C15_31  and  O10_32 
REMARK   20  A    between atoms: C15_31  and  C16_34 
REMARK   21  A    between atoms: C28_46  and  O11_47 
ROOT
HETATM    1  C7  UNL     1       1.177   0.267  -0.764  1.00  0.00     0.140 C 
ENDROOT
BRANCH   1   2
HETATM    2  C6  UNL     1       1.901   1.163   0.112  1.00  0.00    -0.005 C 
HETATM    3  C4  UNL     1       1.919   2.491   0.098  1.00  0.00    -0.063 C 
HETATM    4  C5  UNL     1       1.199   3.273  -0.936  1.00  0.00     0.045 C 
BRANCH   3   5
HETATM    5  C3  UNL     1       2.758   3.214   1.128  1.00  0.00     0.212 C 
BRANCH   5   6
HETATM    6  O2  UNL     1       2.109   4.033   1.968  1.00  0.00    -0.318 OA
BRANCH   6   7
HETATM    7  C2  UNL     1       1.418   5.179   1.925  1.00  0.00     0.255 C 
HETATM    8  C1  UNL     1       0.825   5.761   3.165  1.00  0.00     0.126 C 
HETATM    9  O1  UNL     1       1.254   5.791   0.848  1.00  0.00    -0.266 OA
ENDBRANCH   6   7
ENDBRANCH   5   6
ENDBRANCH   3   5
ENDBRANCH   1   2
BRANCH   1  10
HETATM   10  C8  UNL     1       2.173  -0.575  -1.476  1.00  0.00     0.271 C 
HETATM   11  O3  UNL     1       2.117  -1.816  -1.364  1.00  0.00    -0.264 OA
BRANCH  10  12
HETATM   12  O4  UNL     1       3.172  -0.033  -2.266  1.00  0.00    -0.294 OA
BRANCH  12  13
HETATM   13  C9  UNL     1       4.120  -0.829  -2.943  1.00  0.00     0.358 C 
BRANCH  13  14
HETATM   14  O5  UNL     1       4.869  -1.607  -2.027  1.00  0.00    -0.293 OA
BRANCH  14  15
HETATM   15  C10 UNL     1       5.636  -1.026  -1.029  1.00  0.00     0.294 C 
HETATM   16  O6  UNL     1       5.686   0.207  -0.910  1.00  0.00    -0.263 OA
BRANCH  15  17
HETATM   17  C11 UNL     1       6.392  -1.911  -0.108  1.00  0.00     0.312 C 
BRANCH  17  18
HETATM   18  N1  UNL     1       6.186  -3.310  -0.457  1.00  0.00    -0.063 N 
ATOM     19  H13 UNL     1       5.195  -3.551  -0.486  1.00  0.00     0.275 HD
ATOM     20  H12 UNL     1       6.416  -3.494  -1.433  1.00  0.00     0.275 HD
ATOM     21  H11 UNL     1       6.706  -3.918   0.176  1.00  0.00     0.275 HD
ENDBRANCH  17  18
BRANCH  17  22
HETATM   22  C12 UNL     1       7.879  -1.630  -0.124  1.00  0.00     0.182 C 
BRANCH  22  23
HETATM   23  O7  UNL     1       8.430  -1.869  -1.368  1.00  0.00    -0.391 OA
ATOM     24  H7  UNL     1       9.363  -1.693  -1.378  1.00  0.00     0.210 HD
ENDBRANCH  22  23
BRANCH  22  25
HETATM   25  C13 UNL     1       8.510  -2.510   0.945  1.00  0.00     0.198 C 
BRANCH  25  26
HETATM   26  O8  UNL     1       7.951  -2.265   2.193  1.00  0.00    -0.398 OA
ATOM     27  H8  UNL     1       8.345  -2.814   2.860  1.00  0.00     0.209 HD
ENDBRANCH  25  26
ENDBRANCH  22  25
ENDBRANCH  17  22
ENDBRANCH  15  17
ENDBRANCH  14  15
ENDBRANCH  13  14
ENDBRANCH  12  13
ENDBRANCH  10  12
ENDBRANCH   1  10
BRANCH   1  28
HETATM   28  C14 UNL     1       0.225  -0.658  -0.032  1.00  0.00     0.165 C 
BRANCH  28  29
HETATM   29  O9  UNL     1       0.933  -1.459   0.891  1.00  0.00    -0.392 OA
ATOM     30  H9  UNL     1       0.336  -2.039   1.350  1.00  0.00     0.210 HD
ENDBRANCH  28  29
BRANCH  28  31
HETATM   31  C15 UNL     1      -0.908   0.040   0.664  1.00  0.00     0.159 C 
BRANCH  31  32
HETATM   32  O10 UNL     1      -0.413   0.846   1.691  1.00  0.00    -0.392 OA
ATOM     33  H10 UNL     1      -1.130   1.288   2.131  1.00  0.00     0.210 HD
ENDBRANCH  31  32
BRANCH  31  34
HETATM   34  C16 UNL     1      -1.819   0.713  -0.258  1.00  0.00     0.087 C 
HETATM   35  C17 UNL     1      -2.970   1.472   0.464  1.00  0.00     0.015 C 
HETATM   36  C18 UNL     1      -3.841   0.548   1.263  1.00  0.00     0.013 C 
HETATM   37  C19 UNL     1      -5.265   0.384   0.874  1.00  0.00    -0.006 A 
HETATM   38  C20 UNL     1      -6.022   1.136   2.027  1.00  0.00     0.019 C 
HETATM   39  C21 UNL     1      -6.170  -0.344   0.073  1.00  0.00     0.032 A 
HETATM   40  C28 UNL     1      -5.332  -1.182   0.942  1.00  0.00     0.071 A 
HETATM   41  C22 UNL     1      -6.467  -1.069  -1.137  1.00  0.00     0.009 C 
HETATM   42  C23 UNL     1      -5.801  -1.210  -2.415  1.00  0.00     0.005 C 
HETATM   43  C24 UNL     1      -4.301  -1.467  -2.424  1.00  0.00    -0.007 C 
HETATM   44  C25 UNL     1      -3.986  -2.936  -2.498  1.00  0.00     0.011 C 
HETATM   45  C26 UNL     1      -3.906  -0.837  -1.117  1.00  0.00     0.062 C 
HETATM   46  C27 UNL     1      -4.232  -1.710   0.015  1.00  0.00     0.051 C 
HETATM   47  C29 UNL     1      -2.520  -0.255  -1.135  1.00  0.00     0.138 C 
HETATM   48  O12 UNL     1      -1.926  -0.712  -2.080  1.00  0.00    -0.297 OA
BRANCH  40  49
HETATM   49  O11 UNL     1      -5.639  -1.775   2.098  1.00  0.00    -0.389 OA
ATOM     50  H11 UNL     1      -5.680  -2.723   2.139  1.00  0.00     0.210 HD
ENDBRANCH  40  49
ENDBRANCH  31  34
ENDBRANCH  28  31
ENDBRANCH   1  28
TORSDOF 21
