REMARK  16 active torsions:
REMARK  status: ('A' for Active; 'I' for Inactive)
REMARK    1  A    between atoms: O1_2  and  C2_3 
REMARK    2  A    between atoms: C2_3  and  C3_4 
REMARK    3  A    between atoms: C3_4  and  O2_5 
REMARK    4  A    between atoms: C3_4  and  C9_14 
REMARK    5  A    between atoms: O2_5  and  C4_6 
REMARK    6  A    between atoms: C4_6  and  C6_8 
REMARK    7  A    between atoms: C4_6  and  C8_11 
REMARK    8  A    between atoms: C11_16  and  O6_17 
REMARK    9  A    between atoms: O6_17  and  C12_18 
REMARK   10  A    between atoms: C20_26  and  O7_27 
REMARK   11  A    between atoms: C21_29  and  O8_30 
REMARK   12  A    between atoms: C22_32  and  O9_33 
REMARK   13  A    between atoms: O9_33  and  C23_34 
REMARK   14  A    between atoms: C25_37  and  O11_38 
REMARK   15  A    between atoms: C26_40  and  O12_41 
REMARK   16  A    between atoms: C27_43  and  O13_44 
ROOT
HETATM    1  C9  UNL     1      -1.417  -0.695   0.453  1.00  0.00     0.022 C 
HETATM    2  C10 UNL     1      -0.006  -1.175   0.462  1.00  0.00     0.042 C 
HETATM    3  C11 UNL     1       0.989  -0.166   0.003  1.00  0.00     0.153 C 
HETATM    4  C21 UNL     1       0.634   1.263   0.185  1.00  0.00     0.176 C 
HETATM    5  C22 UNL     1      -0.784   1.622   0.426  1.00  0.00     0.156 C 
HETATM    6  C28 UNL     1      -1.503   0.560   1.283  1.00  0.00     0.042 C 
ENDROOT
BRANCH   1   7
HETATM    7  C3  UNL     1      -2.430  -1.717   0.966  1.00  0.00     0.151 C 
BRANCH   7   8
HETATM    8  C2  UNL     1      -2.057  -2.079   2.412  1.00  0.00     0.199 C 
BRANCH   8   9
HETATM    9  O1  UNL     1      -3.061  -2.763   3.028  1.00  0.00    -0.393 OA
HETATM   10  C1  UNL     1      -4.204  -2.042   3.286  1.00  0.00     0.201 C 
ENDBRANCH   8   9
ENDBRANCH   7   8
BRANCH   7  11
HETATM   11  O2  UNL     1      -2.531  -2.788   0.242  1.00  0.00    -0.354 OA
BRANCH  11  12
HETATM   12  C4  UNL     1      -3.355  -3.529  -0.395  1.00  0.00     0.205 C 
HETATM   13  C5  UNL     1      -4.457  -4.268   0.391  1.00  0.00     0.067 C 
BRANCH  12  14
HETATM   14  C6  UNL     1      -4.114  -2.988  -1.574  1.00  0.00     0.168 C 
HETATM   15  C7  UNL     1      -3.975  -1.606  -2.012  1.00  0.00     0.095 C 
HETATM   16  O3  UNL     1      -4.881  -3.744  -2.190  1.00  0.00    -0.294 OA
ENDBRANCH  12  14
BRANCH  12  17
HETATM   17  C8  UNL     1      -2.589  -4.697  -1.009  1.00  0.00     0.216 C 
HETATM   18  O4  UNL     1      -3.240  -5.514  -1.669  1.00  0.00    -0.645 OA
HETATM   19  O5  UNL     1      -1.259  -4.785  -0.808  1.00  0.00    -0.645 OA
ENDBRANCH  12  17
ENDBRANCH  11  12
ENDBRANCH   7  11
ENDBRANCH   1   7
BRANCH   3  20
HETATM   20  O6  UNL     1       2.274  -0.444   0.522  1.00  0.00    -0.375 OA
BRANCH  20  21
HETATM   21  C12 UNL     1       3.196  -0.777  -0.500  1.00  0.00     0.152 C 
HETATM   22  C13 UNL     1       3.677  -2.166  -0.220  1.00  0.00     0.039 C 
HETATM   23  C14 UNL     1       5.085  -2.337   0.206  1.00  0.00    -0.015 C 
HETATM   24  C15 UNL     1       5.270  -2.002   1.667  1.00  0.00     0.010 C 
HETATM   25  C16 UNL     1       6.082  -1.611  -0.657  1.00  0.00     0.015 C 
HETATM   26  C17 UNL     1       5.497  -0.358  -1.255  1.00  0.00    -0.019 C 
HETATM   27  C18 UNL     1       5.101  -0.643  -2.682  1.00  0.00     0.017 C 
HETATM   28  C19 UNL     1       6.556   0.751  -1.314  1.00  0.00     0.017 C 
HETATM   29  C20 UNL     1       4.347   0.176  -0.492  1.00  0.00     0.154 C 
BRANCH  29  30
HETATM   30  O7  UNL     1       4.002   1.440  -0.975  1.00  0.00    -0.392 OA
ATOM     31  H7  UNL     1       4.734   2.046  -0.970  1.00  0.00     0.210 HD
ENDBRANCH  29  30
ENDBRANCH  20  21
ENDBRANCH   3  20
BRANCH   5  32
HETATM   32  O9  UNL     1      -0.957   2.800   1.123  1.00  0.00    -0.351 OA
BRANCH  32  33
HETATM   33  C23 UNL     1      -1.787   3.710   0.493  1.00  0.00     0.291 C 
HETATM   34  O10 UNL     1      -2.905   4.030   1.265  1.00  0.00    -0.356 OA
HETATM   35  C24 UNL     1      -3.860   4.648   0.498  1.00  0.00     0.205 C 
HETATM   36  C25 UNL     1      -3.367   5.910  -0.170  1.00  0.00     0.173 C 
HETATM   37  C26 UNL     1      -2.035   5.706  -0.853  1.00  0.00     0.182 C 
HETATM   38  C27 UNL     1      -1.107   5.022   0.163  1.00  0.00     0.204 C 
BRANCH  36  39
HETATM   39  O11 UNL     1      -4.290   6.258  -1.158  1.00  0.00    -0.391 OA
ATOM     40  H11 UNL     1      -3.980   7.052  -1.578  1.00  0.00     0.210 HD
ENDBRANCH  36  39
BRANCH  37  41
HETATM   41  O12 UNL     1      -2.196   4.804  -1.889  1.00  0.00    -0.390 OA
ATOM     42  H12 UNL     1      -1.358   4.676  -2.318  1.00  0.00     0.210 HD
ENDBRANCH  37  41
BRANCH  38  43
HETATM   43  O13 UNL     1       0.160   4.865  -0.351  1.00  0.00    -0.388 OA
ATOM     44  H13 UNL     1       0.587   5.688  -0.558  1.00  0.00     0.210 HD
ENDBRANCH  38  43
ENDBRANCH  32  33
ENDBRANCH   5  32
BRANCH   4  45
HETATM   45  O8  UNL     1       1.372   1.776   1.266  1.00  0.00    -0.390 OA
ATOM     46  H8  UNL     1       1.145   2.691   1.383  1.00  0.00     0.210 HD
ENDBRANCH   4  45
TORSDOF 16
