REMARK  15 active torsions:
REMARK  status: ('A' for Active; 'I' for Inactive)
REMARK    1  A    between atoms: C2_2  and  C3_3 
REMARK    2  A    between atoms: C5_5  and  O1_7 
REMARK    3  A    between atoms: O1_7  and  C7_8 
REMARK    4  A    between atoms: C9_10  and  O2_11 
REMARK    5  A    between atoms: O2_11  and  C10_12 
REMARK    6  A    between atoms: C10_12  and  C11_13 
REMARK    7  A    between atoms: C11_13  and  C13_15 
REMARK    8  A    between atoms: C16_20  and  O4_21 
REMARK    9  A    between atoms: C17_23  and  O5_24 
REMARK   10  A    between atoms: O5_24  and  C18_25 
REMARK   11  A    between atoms: C20_29  and  O8_30 
REMARK   12  A    between atoms: C21_32  and  O9_33 
REMARK   13  A    between atoms: C22_35  and  O10_36 
REMARK   14  A    between atoms: C23_38  and  O11_40 
REMARK   15  A    between atoms: C25_42  and  O12_43 
ROOT
HETATM    1  C3  UNL     1      -0.720  -3.275  -0.303  1.00  0.00     0.042 C 
HETATM    2  C4  UNL     1      -0.321  -2.184  -1.244  1.00  0.00     0.051 C 
HETATM    3  C5  UNL     1      -0.527  -0.754  -0.896  1.00  0.00     0.087 C 
HETATM    4  C6  UNL     1      -0.866  -0.020  -2.195  1.00  0.00     0.049 C 
HETATM    5  C17 UNL     1      -1.629  -0.450   0.071  1.00  0.00     0.195 C 
HETATM    6  C23 UNL     1      -2.478  -1.660   0.424  1.00  0.00     0.109 C 
HETATM    7  C24 UNL     1      -3.530  -1.970  -0.616  1.00  0.00     0.051 C 
HETATM    8  C25 UNL     1      -1.635  -2.855   0.765  1.00  0.00     0.162 C 
ENDROOT
BRANCH   3   9
HETATM    9  O1  UNL     1       0.648  -0.350  -0.365  1.00  0.00    -0.370 OA
BRANCH   9  10
HETATM   10  C7  UNL     1       1.003   0.831   0.080  1.00  0.00     0.158 C 
HETATM   11  C8  UNL     1       2.123   1.533  -0.654  1.00  0.00     0.095 C 
HETATM   12  C9  UNL     1       3.439   0.947  -0.115  1.00  0.00     0.262 C 
HETATM   13  O3  UNL     1       3.621   1.611   1.099  1.00  0.00    -0.354 OA
HETATM   14  C14 UNL     1       2.532   1.645   1.920  1.00  0.00     0.151 C 
HETATM   15  C15 UNL     1       2.047   3.053   2.240  1.00  0.00     0.042 C 
HETATM   16  C16 UNL     1       1.419   0.717   1.526  1.00  0.00     0.176 C 
BRANCH  12  17
HETATM   17  O2  UNL     1       4.476   1.253  -0.936  1.00  0.00    -0.361 OA
BRANCH  17  18
HETATM   18  C10 UNL     1       5.305   0.323  -1.416  1.00  0.00     0.176 C 
BRANCH  18  19
HETATM   19  C11 UNL     1       6.239  -0.415  -0.529  1.00  0.00     0.019 C 
HETATM   20  C12 UNL     1       7.207   0.562   0.178  1.00  0.00     0.013 C 
BRANCH  19  21
HETATM   21  C13 UNL     1       5.691  -1.367   0.457  1.00  0.00     0.121 C 
HETATM   22 CL1  UNL     1       7.108  -2.101   1.306  1.00  0.00    -0.130 Cl
ENDBRANCH  19  21
ENDBRANCH  18  19
ENDBRANCH  17  18
ENDBRANCH  12  17
BRANCH  16  23
HETATM   23  O4  UNL     1       1.889  -0.578   1.851  1.00  0.00    -0.390 OA
ATOM     24  H4  UNL     1       2.151  -0.650   2.761  1.00  0.00     0.210 HD
ENDBRANCH  16  23
ENDBRANCH   9  10
ENDBRANCH   3   9
BRANCH   5  25
HETATM   25  O5  UNL     1      -2.546   0.417  -0.485  1.00  0.00    -0.347 OA
BRANCH  25  26
HETATM   26  C18 UNL     1      -2.853   1.548   0.261  1.00  0.00     0.301 C 
HETATM   27  O6  UNL     1      -2.430   2.651  -0.513  1.00  0.00    -0.285 OA
HETATM   28  C19 UNL     1      -3.209   3.065  -1.565  1.00  0.00     0.292 C 
HETATM   29  O7  UNL     1      -2.761   3.416  -2.698  1.00  0.00    -0.262 OA
HETATM   30  C20 UNL     1      -4.669   3.100  -1.350  1.00  0.00     0.249 C 
HETATM   31  C21 UNL     1      -4.972   2.882   0.103  1.00  0.00     0.190 C 
HETATM   32  C22 UNL     1      -4.284   1.660   0.672  1.00  0.00     0.205 C 
BRANCH  30  33
HETATM   33  O8  UNL     1      -5.369   2.230  -2.176  1.00  0.00    -0.383 OA
ATOM     34  H8  UNL     1      -6.309   2.253  -2.038  1.00  0.00     0.210 HD
ENDBRANCH  30  33
BRANCH  31  35
HETATM   35  O9  UNL     1      -6.345   2.678   0.233  1.00  0.00    -0.390 OA
ATOM     36  H9  UNL     1      -6.537   2.540   1.153  1.00  0.00     0.210 HD
ENDBRANCH  31  35
BRANCH  32  37
HETATM   37  O10 UNL     1      -4.341   1.845   2.062  1.00  0.00    -0.388 OA
ATOM     38  H10 UNL     1      -5.252   1.916   2.324  1.00  0.00     0.210 HD
ENDBRANCH  32  37
ENDBRANCH  25  26
ENDBRANCH   5  25
BRANCH   1  39
HETATM   39  C2  UNL     1      -1.054  -4.521  -1.029  1.00  0.00    -0.030 C 
HETATM   40  C1  UNL     1      -2.107  -5.234  -0.783  1.00  0.00     0.007 C 
ENDBRANCH   1  39
BRANCH   6  41
HETATM   41  O11 UNL     1      -3.180  -1.348   1.579  1.00  0.00    -0.385 OA
ATOM     42  H11 UNL     1      -3.711  -2.104   1.800  1.00  0.00     0.210 HD
ENDBRANCH   6  41
BRANCH   8  43
HETATM   43  O12 UNL     1      -0.860  -2.441   1.885  1.00  0.00    -0.392 OA
ATOM     44  H12 UNL     1      -1.452  -2.169   2.576  1.00  0.00     0.210 HD
ENDBRANCH   8  43
TORSDOF 15
