REMARK  14 active torsions:
REMARK  status: ('A' for Active; 'I' for Inactive)
REMARK    1  A    between atoms: C2_2  and  C4_4 
REMARK    2  A    between atoms: C4_4  and  N1_6 
REMARK       I    between atoms: N1_6  and  C6_8 
REMARK    3  A    between atoms: C6_8  and  C7_10 
REMARK    4  A    between atoms: C7_10  and  C8_11 
REMARK    5  A    between atoms: C7_10  and  N2_15 
REMARK    6  A    between atoms: C8_11  and  C9_12 
REMARK    7  A    between atoms: C11_17  and  C12_18 
REMARK    8  A    between atoms: C12_18  and  N3_19 
REMARK    9  A    between atoms: N3_19  and  O4_20 
REMARK   10  A    between atoms: O4_20  and  C13_21 
REMARK   11  A    between atoms: C13_21  and  C14_23 
REMARK   12  A    between atoms: C14_23  and  O6_24 
REMARK   13  A    between atoms: C14_23  and  N4_26 
REMARK   14  A    between atoms: C14_23  and  C17_34 
REMARK       I    between atoms: N4_26  and  C15_28 
REMARK       I    between atoms: C15_28  and  N5_30 
ROOT
HETATM    1  N4  UNL     1      -6.533   0.523  -0.349  1.00  0.00    -0.298 N 
ATOM      2  H4  UNL     1      -7.162  -0.151   0.088  1.00  0.00     0.168 HD
HETATM    3  C15 UNL     1      -6.377   1.791   0.250  1.00  0.00     0.332 C 
HETATM    4  O7  UNL     1      -5.604   2.621  -0.289  1.00  0.00    -0.246 OA
HETATM    5  N5  UNL     1      -7.071   2.142   1.437  1.00  0.00    -0.245 N 
ATOM      6  H5  UNL     1      -7.693   1.449   1.853  1.00  0.00     0.183 HD
HETATM    7  C16 UNL     1      -6.952   3.375   2.065  1.00  0.00     0.185 C 
HETATM    8  N6  UNL     1      -6.849   4.426   2.576  1.00  0.00    -0.172 NA
ENDROOT
BRANCH   1   9
HETATM    9  C14 UNL     1      -5.830   0.136  -1.569  1.00  0.00     0.258 C 
BRANCH   9  10
HETATM   10  C13 UNL     1      -4.365   0.198  -1.404  1.00  0.00     0.355 C 
HETATM   11  O5  UNL     1      -3.694   0.918  -2.188  1.00  0.00    -0.256 OA
BRANCH  10  12
HETATM   12  O4  UNL     1      -3.672  -0.480  -0.442  1.00  0.00    -0.121 OA
BRANCH  12  13
HETATM   13  N3  UNL     1      -2.460  -0.570  -0.130  1.00  0.00    -0.284 NA
BRANCH  13  14
HETATM   14  C12 UNL     1      -1.306  -0.639   0.172  1.00  0.00     0.237 C 
BRANCH  14  15
HETATM   15  C11 UNL     1      -0.426   0.396   0.732  1.00  0.00     0.080 A 
HETATM   16  C10 UNL     1       0.913   0.154   1.010  1.00  0.00     0.121 A 
HETATM   17  N2  UNL     1       1.736   1.058   1.505  1.00  0.00    -0.272 N 
HETATM   18  C24 UNL     1       1.219   2.302   1.753  1.00  0.00     0.333 A 
HETATM   19  N7  UNL     1      -0.064   2.541   1.490  1.00  0.00    -0.274 N 
HETATM   20  O9  UNL     1       1.975   3.214   2.233  1.00  0.00    -0.246 OA
HETATM   21  C23 UNL     1      -0.925   1.645   0.987  1.00  0.00     0.263 A 
ATOM     22  H7  UNL     1      -0.419   3.477   1.686  1.00  0.00     0.173 HD
HETATM   23  O8  UNL     1      -2.111   1.964   0.774  1.00  0.00    -0.267 OA
BRANCH  17  24
HETATM   24  C7  UNL     1       3.132   0.863   1.822  1.00  0.00     0.098 C 
BRANCH  24  25
HETATM   25  C6  UNL     1       3.912   0.179   0.783  1.00  0.00     0.265 C 
HETATM   26  N1  UNL     1       5.324   0.069   0.805  1.00  0.00    -0.351 N 
ATOM     27  H1  UNL     1       5.828   0.488   1.587  1.00  0.00     0.163 HD
HETATM   28  O1  UNL     1       3.329  -0.343  -0.191  1.00  0.00    -0.266 OA
BRANCH  26  29
HETATM   29  C4  UNL     1       6.088  -0.601  -0.215  1.00  0.00     0.084 C 
HETATM   30  C5  UNL     1       6.703  -1.825   0.450  1.00  0.00     0.032 C 
BRANCH  29  31
HETATM   31  C2  UNL     1       7.151   0.277  -0.833  1.00  0.00    -0.000 C 
HETATM   32  C1  UNL     1       7.886  -0.572  -1.880  1.00  0.00     0.011 C 
HETATM   33  C3  UNL     1       6.527   1.427  -1.592  1.00  0.00     0.011 C 
ENDBRANCH  29  31
ENDBRANCH  26  29
ENDBRANCH  24  25
BRANCH  24  34
HETATM   34  C8  UNL     1       3.403   0.427   3.217  1.00  0.00     0.176 C 
BRANCH  34  35
HETATM   35  C9  UNL     1       3.192  -0.957   3.570  1.00  0.00     0.178 C 
HETATM   36  O2  UNL     1       2.837  -1.920   2.864  1.00  0.00    -0.648 OA
HETATM   37  O3  UNL     1       3.418  -1.289   4.924  1.00  0.00    -0.648 OA
ENDBRANCH  34  35
ENDBRANCH  24  34
ENDBRANCH  17  24
ENDBRANCH  14  15
ENDBRANCH  13  14
ENDBRANCH  12  13
ENDBRANCH  10  12
ENDBRANCH   9  10
BRANCH   9  38
HETATM   38  O6  UNL     1      -6.247   1.070  -2.556  1.00  0.00    -0.359 OA
ATOM     39  H6  UNL     1      -7.190   1.030  -2.662  1.00  0.00     0.213 HD
ENDBRANCH   9  38
BRANCH   9  40
HETATM   40  C17 UNL     1      -6.299  -1.193  -2.046  1.00  0.00     0.007 A 
HETATM   41  C18 UNL     1      -5.841  -2.347  -1.494  1.00  0.00     0.015 A 
HETATM   42  C19 UNL     1      -6.329  -3.557  -1.998  1.00  0.00     0.043 A 
HETATM   43  C20 UNL     1      -7.250  -3.597  -3.023  1.00  0.00     0.116 A 
HETATM   44  F1  UNL     1      -7.720  -4.766  -3.509  1.00  0.00    -0.206 F 
HETATM   45  C21 UNL     1      -7.711  -2.429  -3.579  1.00  0.00     0.043 A 
HETATM   46  C22 UNL     1      -7.218  -1.250  -3.069  1.00  0.00     0.015 A 
ENDBRANCH   9  40
ENDBRANCH   1   9
TORSDOF 14
