REMARK  20 active torsions:
REMARK  status: ('A' for Active; 'I' for Inactive)
REMARK    1  A    between atoms: C2_2  and  C3_4 
REMARK    2  A    between atoms: C4_5  and  O2_6 
REMARK    3  A    between atoms: C6_9  and  O3_10 
REMARK    4  A    between atoms: C7_12  and  N1_13 
REMARK       I    between atoms: N1_13  and  C8_15 
REMARK    5  A    between atoms: C8_15  and  C9_17 
REMARK    6  A    between atoms: C9_17  and  C10_18 
REMARK    7  A    between atoms: C10_18  and  O6_20 
REMARK    8  A    between atoms: O6_20  and  C11_21 
REMARK    9  A    between atoms: C11_21  and  C12_22 
REMARK   10  A    between atoms: C11_21  and  C23_43 
REMARK   11  A    between atoms: C12_22  and  O7_23 
REMARK   12  A    between atoms: O7_23  and  C13_24 
REMARK   13  A    between atoms: C13_24  and  C14_26 
REMARK   14  A    between atoms: N2_28  and  C16_29 
REMARK   15  A    between atoms: C16_29  and  C17_30 
REMARK   16  A    between atoms: C17_30  and  C18_31 
REMARK   17  A    between atoms: C18_31  and  C19_32 
REMARK   18  A    between atoms: C19_32  and  O9_35 
REMARK   19  A    between atoms: N4_40  and  O10_41 
REMARK   20  A    between atoms: C24_46  and  O13_47 
ROOT
HETATM    1  C11 UNL     1       0.488  -0.222  -2.527  1.00  0.00     0.256 C 
ENDROOT
BRANCH   1   2
HETATM    2  O6  UNL     1      -0.865   0.032  -2.872  1.00  0.00    -0.302 OA
BRANCH   2   3
HETATM    3  C10 UNL     1      -1.880   0.205  -1.949  1.00  0.00     0.268 C 
HETATM    4  O5  UNL     1      -1.576   0.129  -0.749  1.00  0.00    -0.265 OA
BRANCH   3   5
HETATM    5  C9  UNL     1      -3.263   0.470  -2.407  1.00  0.00     0.214 C 
BRANCH   5   6
HETATM    6  C8  UNL     1      -4.215   0.646  -1.296  1.00  0.00     0.231 C 
HETATM    7  N1  UNL     1      -5.568   0.943  -1.528  1.00  0.00    -0.322 N 
ATOM      8  H1  UNL     1      -5.865   1.031  -2.500  1.00  0.00     0.169 HD
HETATM    9  O4  UNL     1      -3.803   0.529  -0.121  1.00  0.00    -0.273 OA
BRANCH   7  10
HETATM   10  C7  UNL     1      -6.554   1.131  -0.534  1.00  0.00     0.102 A 
HETATM   11  C6  UNL     1      -6.777   2.390   0.008  1.00  0.00     0.098 A 
HETATM   12  C5  UNL     1      -7.749   2.547   0.970  1.00  0.00     0.076 A 
HETATM   13  C4  UNL     1      -8.527   1.491   1.429  1.00  0.00     0.085 A 
HETATM   14  C3  UNL     1      -8.314   0.239   0.898  1.00  0.00     0.078 A 
HETATM   15  C24 UNL     1      -7.327   0.098  -0.074  1.00  0.00     0.112 A 
BRANCH  11  16
HETATM   16  O3  UNL     1      -6.007   3.427  -0.448  1.00  0.00    -0.358 OA
ATOM     17  H3  UNL     1      -5.336   3.319  -1.112  1.00  0.00     0.217 HD
ENDBRANCH  11  16
BRANCH  13  18
HETATM   18  O2  UNL     1      -9.495   1.703   2.401  1.00  0.00    -0.360 OA
ATOM     19  H2  UNL     1      -9.642   2.567   2.767  1.00  0.00     0.217 HD
ENDBRANCH  13  18
BRANCH  14  20
HETATM   20  C2  UNL     1      -9.067  -0.933   1.301  1.00  0.00     0.161 C 
HETATM   21  C1  UNL     1     -10.132  -0.871   2.325  1.00  0.00     0.097 C 
HETATM   22  O1  UNL     1      -8.794  -2.049   0.748  1.00  0.00    -0.293 OA
ENDBRANCH  14  20
BRANCH  15  23
HETATM   23  O13 UNL     1      -7.096  -1.167  -0.625  1.00  0.00    -0.357 OA
ATOM     24  H13 UNL     1      -6.423  -1.263  -1.288  1.00  0.00     0.217 HD
ENDBRANCH  15  23
ENDBRANCH   7  10
ENDBRANCH   5   6
ENDBRANCH   3   5
ENDBRANCH   2   3
ENDBRANCH   1   2
BRANCH   1  25
HETATM   25  C12 UNL     1       0.980  -1.518  -3.071  1.00  0.00     0.222 C 
BRANCH  25  26
HETATM   26  O7  UNL     1       2.317  -1.751  -2.741  1.00  0.00    -0.313 OA
BRANCH  26  27
HETATM   27  C13 UNL     1       2.852  -1.888  -1.484  1.00  0.00     0.315 C 
HETATM   28  O8  UNL     1       2.083  -1.804  -0.494  1.00  0.00    -0.257 OA
BRANCH  27  29
HETATM   29  C14 UNL     1       4.289  -2.129  -1.274  1.00  0.00     0.171 A 
HETATM   30  C15 UNL     1       4.836  -2.266  -0.012  1.00  0.00     0.133 A 
HETATM   31  N2  UNL     1       6.146  -2.485   0.172  1.00  0.00    -0.338 N 
HETATM   32  C22 UNL     1       6.939  -2.573  -0.900  1.00  0.00     0.203 A 
HETATM   33  N3  UNL     1       6.429  -2.442  -2.163  1.00  0.00    -0.269 N 
HETATM   34  N4  UNL     1       5.112  -2.222  -2.328  1.00  0.00    -0.155 N 
ATOM     35  H3  UNL     1       7.043  -2.511  -2.974  1.00  0.00     0.190 HD
BRANCH  31  36
HETATM   36  C16 UNL     1       6.684  -2.621   1.493  1.00  0.00     0.223 C 
BRANCH  36  37
HETATM   37  C17 UNL     1       7.117  -1.319   2.058  1.00  0.00    -0.083 C 
BRANCH  37  38
HETATM   38  C18 UNL     1       7.484  -0.259   2.504  1.00  0.00    -0.067 C 
BRANCH  38  39
HETATM   39  C19 UNL     1       7.933   1.036   3.025  1.00  0.00     0.114 C 
HETATM   40  C20 UNL     1       8.532   1.901   1.917  1.00  0.00     0.060 C 
HETATM   41  C21 UNL     1       6.768   1.803   3.630  1.00  0.00     0.060 C 
BRANCH  39  42
HETATM   42  O9  UNL     1       8.911   0.767   3.976  1.00  0.00    -0.378 OA
ATOM     43  H9  UNL     1       9.202   1.606   4.314  1.00  0.00     0.211 HD
ENDBRANCH  39  42
ENDBRANCH  38  39
ENDBRANCH  37  38
ENDBRANCH  36  37
ENDBRANCH  31  36
BRANCH  34  44
HETATM   44  O10 UNL     1       4.647  -2.096  -3.635  1.00  0.00    -0.267 OA
ATOM     45  H10 UNL     1       5.230  -2.162  -4.382  1.00  0.00     0.247 HD
ENDBRANCH  34  44
ENDBRANCH  27  29
ENDBRANCH  26  27
ENDBRANCH  25  26
ENDBRANCH   1  25
BRANCH   1  46
HETATM   46  C23 UNL     1       1.286   0.938  -2.967  1.00  0.00     0.206 C 
HETATM   47  O11 UNL     1       0.812   1.951  -3.543  1.00  0.00    -0.646 OA
HETATM   48  O12 UNL     1       2.652   0.932  -2.738  1.00  0.00    -0.646 OA
ENDBRANCH   1  46
TORSDOF 20
