REMARK  16 active torsions:
REMARK  status: ('A' for Active; 'I' for Inactive)
REMARK    1  A    between atoms: O1_2  and  C2_3 
REMARK    2  A    between atoms: C6_7  and  O2_8 
REMARK    3  A    between atoms: O2_8  and  C7_9 
REMARK    4  A    between atoms: C7_9  and  C8_10 
REMARK    5  A    between atoms: C8_10  and  O4_12 
REMARK    6  A    between atoms: O4_12  and  C9_13 
REMARK    7  A    between atoms: C9_13  and  C10_14 
REMARK    8  A    between atoms: C11_15  and  O5_16 
REMARK    9  A    between atoms: C15_21  and  O6_22 
REMARK   10  A    between atoms: C18_27  and  C19_28 
REMARK   11  A    between atoms: C21_32  and  C22_33 
REMARK   12  A    between atoms: C22_33  and  O9_34 
REMARK   13  A    between atoms: C22_33  and  C23_36 
REMARK   14  A    between atoms: C23_36  and  O10_37 
REMARK   15  A    between atoms: C24_39  and  O11_40 
REMARK   16  A    between atoms: C25_42  and  O12_43 
ROOT
HETATM    1  C10 UNL     1       0.604  -0.161   0.913  1.00  0.00     0.033 A 
HETATM    2  C11 UNL     1       0.432   1.164   1.262  1.00  0.00     0.077 A 
HETATM    3  C12 UNL     1      -0.817   1.729   1.191  1.00  0.00     0.049 A 
HETATM    4  C13 UNL     1      -1.938   0.990   0.771  1.00  0.00    -0.020 A 
HETATM    5  C14 UNL     1      -1.775  -0.320   0.430  1.00  0.00     0.027 A 
HETATM    6  C15 UNL     1      -0.489  -0.899   0.498  1.00  0.00     0.089 A 
HETATM    7  C16 UNL     1      -2.830  -1.048   0.114  1.00  0.00     0.044 C 
HETATM    8 CL1  UNL     1      -2.554  -2.728  -0.319  1.00  0.00    -0.087 Cl
HETATM    9  C17 UNL     1      -4.196  -0.499   0.150  1.00  0.00     0.106 A 
HETATM   10  C18 UNL     1      -5.404  -1.347   0.278  1.00  0.00     0.211 C 
HETATM   11  O8  UNL     1      -6.388  -0.678  -0.460  1.00  0.00    -0.366 OA
HETATM   12  C21 UNL     1      -5.703  -0.345  -1.592  1.00  0.00     0.192 C 
HETATM   13  C24 UNL     1      -4.487   0.401  -1.092  1.00  0.00     0.141 A 
HETATM   14  C25 UNL     1      -4.345   0.932   0.267  1.00  0.00     0.130 A 
HETATM   15  C26 UNL     1      -3.104   1.568   0.685  1.00  0.00     0.027 C 
ENDROOT
BRANCH   1  16
HETATM   16  C9  UNL     1       1.938  -0.782   1.056  1.00  0.00     0.223 C 
BRANCH  16  17
HETATM   17  O4  UNL     1       2.823   0.055   0.315  1.00  0.00    -0.315 OA
BRANCH  17  18
HETATM   18  C8  UNL     1       4.177  -0.262   0.170  1.00  0.00     0.283 C 
HETATM   19  O3  UNL     1       4.547  -1.337   0.686  1.00  0.00    -0.263 OA
BRANCH  18  20
HETATM   20  C7  UNL     1       5.065   0.684  -0.564  1.00  0.00     0.286 C 
BRANCH  20  21
HETATM   21  O2  UNL     1       6.350   0.307  -0.724  1.00  0.00    -0.341 OA
BRANCH  21  22
HETATM   22  C6  UNL     1       7.380  -0.016   0.092  1.00  0.00     0.072 A 
HETATM   23  C5  UNL     1       7.292  -0.016   1.460  1.00  0.00     0.037 A 
HETATM   24  C4  UNL     1       8.411  -0.365   2.218  1.00  0.00     0.005 A 
HETATM   25  C3  UNL     1       9.580  -0.704   1.594  1.00  0.00     0.037 A 
HETATM   26  C2  UNL     1       9.702  -0.710   0.211  1.00  0.00     0.070 A 
HETATM   27  C27 UNL     1       8.600  -0.368  -0.509  1.00  0.00     0.073 A 
BRANCH  26  28
HETATM   28  O1  UNL     1      10.898  -1.052  -0.405  1.00  0.00    -0.356 OA
HETATM   29  C1  UNL     1      10.939  -1.019  -1.844  1.00  0.00     0.210 C 
ENDBRANCH  26  28
ENDBRANCH  21  22
ENDBRANCH  20  21
ENDBRANCH  18  20
ENDBRANCH  17  18
ENDBRANCH  16  17
ENDBRANCH   1  16
BRANCH   2  30
HETATM   30  O5  UNL     1       1.524   1.940   1.690  1.00  0.00    -0.360 OA
ATOM     31  H5  UNL     1       1.406   2.852   1.930  1.00  0.00     0.217 HD
ENDBRANCH   2  30
BRANCH   6  32
HETATM   32  O6  UNL     1      -0.416  -2.227   0.129  1.00  0.00    -0.359 OA
ATOM     33  H6  UNL     1      -1.167  -2.734  -0.156  1.00  0.00     0.217 HD
ENDBRANCH   6  32
BRANCH  14  34
HETATM   34  O12 UNL     1      -5.467   1.407   0.974  1.00  0.00    -0.381 OA
ATOM     35  H12 UNL     1      -5.565   2.349   1.051  1.00  0.00     0.211 HD
ENDBRANCH  14  34
BRANCH  10  36
HETATM   36  C19 UNL     1      -5.824  -1.396   1.716  1.00  0.00     0.153 C 
HETATM   37  C20 UNL     1      -7.165  -0.856   2.116  1.00  0.00     0.093 C 
HETATM   38  O7  UNL     1      -5.103  -1.869   2.575  1.00  0.00    -0.296 OA
ENDBRANCH  10  36
BRANCH  13  39
HETATM   39  O11 UNL     1      -3.452   0.592  -1.974  1.00  0.00    -0.382 OA
ATOM     40  H11 UNL     1      -3.629   1.140  -2.730  1.00  0.00     0.210 HD
ENDBRANCH  13  39
BRANCH  12  41
HETATM   41  C22 UNL     1      -6.457   0.347  -2.642  1.00  0.00     0.173 C 
BRANCH  41  42
HETATM   42  O9  UNL     1      -7.531  -0.475  -3.062  1.00  0.00    -0.391 OA
ATOM     43  H9  UNL     1      -8.020  -0.027  -3.742  1.00  0.00     0.210 HD
ENDBRANCH  41  42
BRANCH  41  44
HETATM   44  C23 UNL     1      -6.982   1.700  -2.318  1.00  0.00     0.198 C 
BRANCH  44  45
HETATM   45  O10 UNL     1      -7.936   1.670  -1.305  1.00  0.00    -0.398 OA
ATOM     46  H10 UNL     1      -8.271   2.534  -1.098  1.00  0.00     0.209 HD
ENDBRANCH  44  45
ENDBRANCH  41  44
ENDBRANCH  12  41
TORSDOF 16
