REMARK  15 active torsions:
REMARK  status: ('A' for Active; 'I' for Inactive)
REMARK    1  A    between atoms: O1_2  and  N1_3 
REMARK       I    between atoms: N1_3  and  C2_5 
REMARK    2  A    between atoms: C2_5  and  C3_7 
REMARK    3  A    between atoms: C4_8  and  N2_9 
REMARK    4  A    between atoms: N2_9  and  C5_11 
REMARK    5  A    between atoms: C5_11  and  C6_12 
REMARK    6  A    between atoms: C6_12  and  N3_13 
REMARK    7  A    between atoms: C6_12  and  C12_22 
REMARK       I    between atoms: N3_13  and  C7_15 
REMARK    8  A    between atoms: C7_15  and  O4_17 
REMARK    9  A    between atoms: O4_17  and  C8_18 
REMARK   10  A    between atoms: C12_22  and  O6_24 
REMARK   11  A    between atoms: C17_35  and  C18_36 
REMARK   12  A    between atoms: C18_36  and  O7_37 
REMARK   13  A    between atoms: C18_36  and  N7_39 
REMARK       I    between atoms: N7_39  and  C19_41 
REMARK   14  A    between atoms: C19_41  and  C20_43 
REMARK   15  A    between atoms: C20_43  and  O9_46 
ROOT
HETATM    1  C3  UNL     1       1.273  -2.845  -0.852  1.00  0.00     0.124 A 
HETATM    2  C4  UNL     1       0.333  -1.905  -0.489  1.00  0.00     0.136 A 
HETATM    3  N4  UNL     1       1.058  -0.860   0.019  1.00  0.00    -0.280 N 
ATOM      4  H4  UNL     1       0.653   0.004   0.379  1.00  0.00     0.189 HD
HETATM    5  N5  UNL     1       2.357  -1.123  -0.020  1.00  0.00    -0.263 N 
HETATM    6  C14 UNL     1       2.532  -2.345  -0.556  1.00  0.00     0.142 A 
HETATM    7  N6  UNL     1       3.832  -2.851  -0.777  1.00  0.00    -0.352 N 
ATOM      8  H6  UNL     1       3.952  -3.782  -1.175  1.00  0.00     0.166 HD
HETATM    9  C15 UNL     1       4.854  -2.154  -0.483  1.00  0.00     0.085 C 
HETATM   10  C16 UNL     1       4.777  -0.810   0.082  1.00  0.00     0.149 C 
HETATM   11 CL1  UNL     1       5.337   0.277  -1.277  1.00  0.00    -0.117 Cl
HETATM   12  C17 UNL     1       3.462  -0.326   0.473  1.00  0.00     0.182 C 
ENDROOT
BRANCH   2  13
HETATM   13  N2  UNL     1      -1.085  -1.937  -0.589  1.00  0.00    -0.372 N 
ATOM     14  H2  UNL     1      -1.564  -2.748  -0.981  1.00  0.00     0.161 HD
BRANCH  13  15
HETATM   15  C5  UNL     1      -1.826  -0.795  -0.123  1.00  0.00     0.156 C 
BRANCH  15  16
HETATM   16  C6  UNL     1      -3.326  -0.948  -0.211  1.00  0.00     0.204 C 
BRANCH  16  17
HETATM   17  N3  UNL     1      -3.905   0.320   0.284  1.00  0.00    -0.321 N 
HETATM   18  C7  UNL     1      -4.722   1.107  -0.566  1.00  0.00     0.362 C 
HETATM   19  O3  UNL     1      -4.995   0.792  -1.744  1.00  0.00    -0.238 OA
ATOM     20  H3  UNL     1      -3.716   0.628   1.238  1.00  0.00     0.165 HD
BRANCH  18  21
HETATM   21  O4  UNL     1      -5.244   2.283  -0.072  1.00  0.00    -0.294 OA
BRANCH  21  22
HETATM   22  C8  UNL     1      -6.063   3.155  -0.798  1.00  0.00     0.061 C 
HETATM   23  C9  UNL     1      -6.480   4.362   0.019  1.00  0.00     0.046 C 
HETATM   24  C10 UNL     1      -7.326   2.413  -1.182  1.00  0.00     0.046 C 
HETATM   25  C11 UNL     1      -5.432   3.677  -2.062  1.00  0.00     0.046 C 
ENDBRANCH  21  22
ENDBRANCH  18  21
ENDBRANCH  16  17
BRANCH  16  26
HETATM   26  C12 UNL     1      -3.737  -2.018   0.717  1.00  0.00     0.283 C 
HETATM   27  O5  UNL     1      -4.432  -1.739   1.714  1.00  0.00    -0.263 OA
BRANCH  26  28
HETATM   28  O6  UNL     1      -3.363  -3.318   0.495  1.00  0.00    -0.325 OA
HETATM   29  C13 UNL     1      -3.779  -4.314   1.410  1.00  0.00     0.213 C 
ENDBRANCH  26  28
ENDBRANCH  16  26
ENDBRANCH  15  16
ENDBRANCH  13  15
ENDBRANCH   2  13
BRANCH   1  30
HETATM   30  C2  UNL     1       0.969  -4.156  -1.450  1.00  0.00     0.282 C 
HETATM   31  N1  UNL     1       1.930  -5.113  -1.817  1.00  0.00    -0.231 N 
ATOM     32  H1  UNL     1       2.921  -4.921  -1.674  1.00  0.00     0.197 HD
HETATM   33  O2  UNL     1      -0.247  -4.488  -1.669  1.00  0.00    -0.265 OA
BRANCH  31  34
HETATM   34  O1  UNL     1       1.543  -6.284  -2.358  1.00  0.00    -0.282 OA
HETATM   35  C1  UNL     1       2.012  -7.292  -1.515  1.00  0.00     0.237 C 
ENDBRANCH  31  34
ENDBRANCH   1  30
BRANCH  12  36
HETATM   36  C18 UNL     1       3.197   1.155   0.230  1.00  0.00     0.247 C 
BRANCH  36  37
HETATM   37  O7  UNL     1       1.986   1.395   0.957  1.00  0.00    -0.374 OA
ATOM     38  H7  UNL     1       1.821   2.318   0.806  1.00  0.00     0.212 HD
ENDBRANCH  36  37
BRANCH  36  39
HETATM   39  N7  UNL     1       4.178   1.989   0.843  1.00  0.00    -0.330 N 
HETATM   40  C19 UNL     1       4.673   3.217   0.350  1.00  0.00     0.253 C 
HETATM   41  O8  UNL     1       4.236   3.670  -0.732  1.00  0.00    -0.270 OA
ATOM     42  H7  UNL     1       4.563   1.665   1.730  1.00  0.00     0.165 HD
BRANCH  40  43
HETATM   43  C20 UNL     1       5.699   3.988   1.078  1.00  0.00     0.131 C 
HETATM   44  C21 UNL     1       6.940   3.154   1.314  1.00  0.00     0.056 C 
HETATM   45  C22 UNL     1       5.076   4.365   2.426  1.00  0.00     0.056 C 
BRANCH  43  46
HETATM   46  O9  UNL     1       6.054   5.154   0.445  1.00  0.00    -0.381 OA
ATOM     47  H9  UNL     1       6.715   5.650   0.914  1.00  0.00     0.211 HD
ENDBRANCH  43  46
ENDBRANCH  40  43
ENDBRANCH  36  39
ENDBRANCH  12  36
TORSDOF 15
