REMARK  11 active torsions:
REMARK  status: ('A' for Active; 'I' for Inactive)
REMARK    1  A    between atoms: C4_7  and  C5_8 
REMARK       I    between atoms: C5_8  and  N3_10 
REMARK    2  A    between atoms: N3_10  and  C6_12 
REMARK    3  A    between atoms: C6_12  and  C7_13 
REMARK    4  A    between atoms: C6_12  and  C8_16 
REMARK    5  A    between atoms: C8_16  and  O4_17 
REMARK    6  A    between atoms: C8_16  and  C9_19 
REMARK    7  A    between atoms: N4_20  and  N5_22 
REMARK       I    between atoms: N5_22  and  C10_24 
REMARK    8  A    between atoms: C10_24  and  C11_26 
REMARK    9  A    between atoms: N6_28  and  C13_29 
REMARK   10  A    between atoms: C18_35  and  C19_36 
REMARK       I    between atoms: C19_36  and  N7_38 
REMARK   11  A    between atoms: N7_38  and  C20_40 
ROOT
HETATM    1  C20 UNL     1      -7.839  -2.375   0.697  1.00  0.00     0.247 C 
HETATM    2  C21 UNL     1      -6.670  -3.239   0.853  1.00  0.00     0.078 C 
HETATM    3  N8  UNL     1      -5.740  -3.937   0.958  1.00  0.00    -0.196 NA
ENDROOT
BRANCH   1   4
HETATM    4  N7  UNL     1      -7.372  -1.043   0.311  1.00  0.00    -0.344 N 
HETATM    5  C19 UNL     1      -6.642  -0.896  -0.878  1.00  0.00     0.254 C 
HETATM    6  O6  UNL     1      -6.429  -1.944  -1.585  1.00  0.00    -0.268 OA
ATOM      7  H7  UNL     1      -7.574  -0.233   0.898  1.00  0.00     0.163 HD
BRANCH   5   8
HETATM    8  C18 UNL     1      -6.139   0.384  -1.326  1.00  0.00     0.062 A 
HETATM    9  C13 UNL     1      -5.283   1.147  -0.600  1.00  0.00     0.094 A 
HETATM   10  C14 UNL     1      -4.941   2.409  -1.117  1.00  0.00     0.063 A 
HETATM   11 CL1  UNL     1      -3.839   3.431  -0.227  1.00  0.00    -0.082 Cl
HETATM   12  C15 UNL     1      -5.440   2.873  -2.308  1.00  0.00     0.026 A 
HETATM   13  C16 UNL     1      -6.316   2.063  -3.031  1.00  0.00     0.003 A 
HETATM   14  C17 UNL     1      -6.666   0.832  -2.552  1.00  0.00     0.019 A 
BRANCH   9  15
HETATM   15  N6  UNL     1      -4.675   0.687   0.597  1.00  0.00    -0.248 N 
HETATM   16  C12 UNL     1      -3.383   0.215   0.652  1.00  0.00     0.155 A 
HETATM   17  C11 UNL     1      -3.046  -0.152   1.928  1.00  0.00     0.136 A 
HETATM   18  N10 UNL     1      -4.166   0.109   2.650  1.00  0.00    -0.279 N 
HETATM   19  N9  UNL     1      -5.090   0.595   1.843  1.00  0.00    -0.235 N 
ATOM     20  H10 UNL     1      -4.275  -0.045   3.652  1.00  0.00     0.189 HD
ATOM     21  H9  UNL     1      -6.023   0.869   2.151  1.00  0.00     0.209 HD
BRANCH  17  22
HETATM   22  C10 UNL     1      -1.786  -0.685   2.403  1.00  0.00     0.289 C 
HETATM   23  N5  UNL     1      -0.711  -0.852   1.508  1.00  0.00    -0.265 N 
ATOM     24  H5  UNL     1      -0.839  -0.594   0.529  1.00  0.00     0.190 HD
HETATM   25  O5  UNL     1      -1.635  -1.001   3.603  1.00  0.00    -0.264 OA
BRANCH  23  26
HETATM   26  N4  UNL     1       0.537  -1.365   1.922  1.00  0.00    -0.310 N 
HETATM   27  C9  UNL     1       1.578  -0.588   1.958  1.00  0.00     0.114 C 
ATOM     28  H4  UNL     1       0.622  -2.345   2.193  1.00  0.00     0.185 HD
BRANCH  27  29
HETATM   29  C8  UNL     1       1.429   0.813   1.564  1.00  0.00     0.191 C 
BRANCH  29  30
HETATM   30  C6  UNL     1       2.002   1.094   0.184  1.00  0.00     0.219 C 
BRANCH  30  31
HETATM   31  N3  UNL     1       3.460   0.888   0.223  1.00  0.00    -0.338 N 
HETATM   32  C5  UNL     1       4.012  -0.153  -0.523  1.00  0.00     0.271 C 
HETATM   33  O1  UNL     1       3.216  -0.887  -1.209  1.00  0.00    -0.266 OA
ATOM     34  H3  UNL     1       4.055   1.496   0.786  1.00  0.00     0.163 HD
BRANCH  32  35
HETATM   35  C4  UNL     1       5.415  -0.497  -0.603  1.00  0.00     0.126 A 
HETATM   36  N2  UNL     1       5.931  -1.589  -1.251  1.00  0.00    -0.291 N 
HETATM   37  N1  UNL     1       7.242  -1.613  -1.152  1.00  0.00    -0.302 N 
HETATM   38  C3  UNL     1       5.141  -2.592  -1.937  1.00  0.00     0.178 C 
HETATM   39  C2  UNL     1       7.689  -0.571  -0.451  1.00  0.00     0.030 A 
ATOM     40  H1  UNL     1       7.838  -2.334  -1.558  1.00  0.00     0.186 HD
HETATM   41  C1  UNL     1       9.110  -0.273  -0.133  1.00  0.00     0.070 C 
HETATM   42  C22 UNL     1       6.537   0.144  -0.098  1.00  0.00    -0.004 A 
HETATM   43  C23 UNL     1       6.572   1.385   0.693  1.00  0.00     0.053 C 
ENDBRANCH  32  35
ENDBRANCH  30  31
BRANCH  30  44
HETATM   44  C7  UNL     1       1.775   2.516  -0.152  1.00  0.00     0.199 C 
HETATM   45  O2  UNL     1       2.701   3.329  -0.353  1.00  0.00    -0.646 OA
HETATM   46  O3  UNL     1       0.483   3.047  -0.262  1.00  0.00    -0.646 OA
ENDBRANCH  30  44
ENDBRANCH  29  30
BRANCH  29  47
HETATM   47  O4  UNL     1       2.021   1.679   2.473  1.00  0.00    -0.388 OA
ATOM     48  H4  UNL     1       1.663   1.503   3.335  1.00  0.00     0.210 HD
ENDBRANCH  29  47
ENDBRANCH  27  29
ENDBRANCH  23  26
ENDBRANCH  17  22
ENDBRANCH   9  15
ENDBRANCH   5   8
ENDBRANCH   1   4
TORSDOF 11
