REMARK  17 active torsions:
REMARK  status: ('A' for Active; 'I' for Inactive)
REMARK    1  A    between atoms: C2_2  and  C3_3 
REMARK    2  A    between atoms: C3_3  and  O1_4 
REMARK    3  A    between atoms: C3_3  and  C6_8 
REMARK    4  A    between atoms: O1_4  and  C4_5 
REMARK    5  A    between atoms: C6_8  and  N1_9 
REMARK    6  A    between atoms: C6_8  and  C11_15 
REMARK    7  A    between atoms: N1_9  and  O3_10 
REMARK    8  A    between atoms: O3_10  and  C7_11 
REMARK       I    between atoms: C11_15  and  N2_17 
REMARK    9  A    between atoms: C12_19  and  C13_20 
REMARK   10  A    between atoms: C18_27  and  C19_28 
REMARK   11  A    between atoms: C19_28  and  O7_29 
REMARK   12  A    between atoms: C19_28  and  C20_31 
REMARK   13  A    between atoms: C20_31  and  O8_32 
REMARK   14  A    between atoms: C20_31  and  C21_34 
REMARK   15  A    between atoms: C21_34  and  O9_35 
REMARK   16  A    between atoms: C21_34  and  C22_37 
REMARK   17  A    between atoms: C22_37  and  O10_38 
ROOT
HETATM    1  C13 UNL     1       0.693   0.114   0.221  1.00  0.00     0.019 C 
HETATM    2  C14 UNL     1       1.812   0.690   0.480  1.00  0.00     0.167 C 
HETATM    3  O5  UNL     1       2.620   1.074  -0.602  1.00  0.00    -0.309 OA
HETATM    4  C15 UNL     1       3.486  -0.150  -0.648  1.00  0.00     0.150 C 
HETATM    5  C16 UNL     1       3.686  -0.698   0.762  1.00  0.00     0.108 C 
HETATM    6  C17 UNL     1       3.918   0.707   1.462  1.00  0.00     0.246 C 
HETATM    7  O6  UNL     1       4.671   1.262   0.499  1.00  0.00    -0.353 OA
HETATM    8  C18 UNL     1       4.712   0.580  -0.712  1.00  0.00     0.201 C 
HETATM    9  N3  UNL     1       2.506   1.032   1.632  1.00  0.00    -0.240 N 
HETATM   10 CL1  UNL     1       1.606   1.594   2.919  1.00  0.00     0.018 Cl
HETATM   11  S1  UNL     1       2.426  -1.079  -1.545  1.00  0.00    -0.123 SA
HETATM   12  C23 UNL     1       0.680  -0.360  -1.243  1.00  0.00     0.121 C 
ENDROOT
BRANCH   1  13
HETATM   13  C12 UNL     1      -0.093  -0.222   1.332  1.00  0.00     0.103 C 
HETATM   14  N2  UNL     1      -1.219  -0.658   1.445  1.00  0.00    -0.335 N 
HETATM   15  C11 UNL     1      -2.263  -1.032   0.671  1.00  0.00     0.245 C 
ATOM     16  H2  UNL     1      -1.451  -0.781   2.431  1.00  0.00     0.168 HD
HETATM   17  O4  UNL     1      -2.226  -2.047  -0.111  1.00  0.00    -0.271 OA
BRANCH  15  18
HETATM   18  C6  UNL     1      -3.590  -0.314   0.634  1.00  0.00     0.228 C 
BRANCH  18  19
HETATM   19  C3  UNL     1      -3.484   1.134   0.313  1.00  0.00     0.162 C 
BRANCH  19  20
HETATM   20  C2  UNL     1      -3.083   1.418  -1.121  1.00  0.00     0.030 C 
HETATM   21  C1  UNL     1      -3.039   2.948  -1.241  1.00  0.00     0.007 C 
ENDBRANCH  19  20
BRANCH  19  22
HETATM   22  O1  UNL     1      -4.775   1.767   0.448  1.00  0.00    -0.314 OA
BRANCH  22  23
HETATM   23  C4  UNL     1      -4.980   2.837   1.273  1.00  0.00     0.255 C 
HETATM   24  C5  UNL     1      -6.302   3.506   1.429  1.00  0.00     0.126 C 
HETATM   25  O2  UNL     1      -4.021   3.304   1.949  1.00  0.00    -0.266 OA
ENDBRANCH  22  23
ENDBRANCH  19  22
ENDBRANCH  18  19
BRANCH  18  26
HETATM   26  N1  UNL     1      -4.498  -0.948  -0.288  1.00  0.00    -0.083 NA
BRANCH  26  27
HETATM   27  O3  UNL     1      -4.642  -2.263  -0.057  1.00  0.00    -0.276 OA
BRANCH  27  28
HETATM   28  C7  UNL     1      -5.885  -2.659  -0.534  1.00  0.00     0.073 C 
HETATM   29  C8  UNL     1      -6.028  -4.140  -0.265  1.00  0.00     0.047 C 
HETATM   30  C9  UNL     1      -7.027  -1.951   0.161  1.00  0.00     0.047 C 
HETATM   31  C10 UNL     1      -5.981  -2.374  -2.010  1.00  0.00     0.047 C 
ENDBRANCH  27  28
ENDBRANCH  26  27
ENDBRANCH  18  26
ENDBRANCH  15  18
ENDBRANCH   1  13
BRANCH   8  32
HETATM   32  C19 UNL     1       5.952   0.035  -1.246  1.00  0.00     0.182 C 
BRANCH  32  33
HETATM   33  O7  UNL     1       5.654  -0.664  -2.494  1.00  0.00    -0.390 OA
ATOM     34  H7  UNL     1       6.463  -1.020  -2.842  1.00  0.00     0.210 HD
ENDBRANCH  32  33
BRANCH  32  35
HETATM   35  C20 UNL     1       6.888  -0.791  -0.456  1.00  0.00     0.180 C 
BRANCH  35  36
HETATM   36  O8  UNL     1       8.059  -1.057  -1.297  1.00  0.00    -0.390 OA
ATOM     37  H8  UNL     1       8.661  -1.588  -0.789  1.00  0.00     0.210 HD
ENDBRANCH  35  36
BRANCH  35  38
HETATM   38  C21 UNL     1       7.538  -0.078   0.708  1.00  0.00     0.173 C 
BRANCH  38  39
HETATM   39  O9  UNL     1       8.499  -0.928   1.289  1.00  0.00    -0.391 OA
ATOM     40  H9  UNL     1       8.907  -0.480   2.020  1.00  0.00     0.210 HD
ENDBRANCH  38  39
BRANCH  38  41
HETATM   41  C22 UNL     1       8.243   1.173   0.184  1.00  0.00     0.198 C 
BRANCH  41  42
HETATM   42  O10 UNL     1       8.902   1.823   1.254  1.00  0.00    -0.398 OA
ATOM     43  H10 UNL     1       9.340   2.600   0.928  1.00  0.00     0.209 HD
ENDBRANCH  41  42
ENDBRANCH  38  41
ENDBRANCH  35  38
ENDBRANCH  32  35
ENDBRANCH   8  32
TORSDOF 17
