REMARK  12 active torsions:
REMARK  status: ('A' for Active; 'I' for Inactive)
REMARK    1  A    between atoms: O1_2  and  N1_3 
REMARK    2  A    between atoms: C2_5  and  C3_6 
REMARK    3  A    between atoms: C4_7  and  S1_8 
REMARK    4  A    between atoms: S1_8  and  C5_9 
REMARK    5  A    between atoms: C5_9  and  C6_10 
REMARK       I    between atoms: N2_16  and  C10_17 
REMARK       I    between atoms: C10_17  and  N3_19 
REMARK    6  A    between atoms: N3_19  and  N4_21 
REMARK    7  A    between atoms: N4_21  and  C11_23 
REMARK    8  A    between atoms: C12_27  and  C13_28 
REMARK    9  A    between atoms: C14_31  and  C15_32 
REMARK   10  A    between atoms: C15_32  and  S3_33 
REMARK   11  A    between atoms: S3_33  and  C16_34 
REMARK   12  A    between atoms: C17_37  and  O5_38 
ROOT
HETATM    1  C3  UNL     1      -0.866   1.375   0.663  1.00  0.00     0.024 C 
HETATM    2  C4  UNL     1      -1.894   0.736   1.262  1.00  0.00     0.090 C 
HETATM    3  N2  UNL     1      -1.845  -0.659   0.868  1.00  0.00    -0.272 N 
HETATM    4  C10 UNL     1      -2.370  -1.711   1.610  1.00  0.00     0.343 C 
HETATM    5  O2  UNL     1      -2.659  -1.512   2.861  1.00  0.00    -0.245 OA
HETATM    6  N3  UNL     1      -2.650  -3.007   1.161  1.00  0.00    -0.250 N 
ATOM      7  H3  UNL     1      -2.470  -3.245   0.185  1.00  0.00     0.192 HD
HETATM    8  C12 UNL     1      -1.043  -0.688  -0.395  1.00  0.00     0.230 C 
HETATM    9  C14 UNL     1      -0.043   0.356   0.024  1.00  0.00    -0.004 C 
ENDROOT
BRANCH   9  10
HETATM   10  C15 UNL     1       1.262   0.361  -0.067  1.00  0.00     0.064 C 
BRANCH  10  11
HETATM   11  S3  UNL     1       2.268  -0.869  -0.844  1.00  0.00    -0.064 SA
BRANCH  11  12
HETATM   12  C16 UNL     1       3.994  -0.431  -0.828  1.00  0.00     0.168 A 
HETATM   13  N6  UNL     1       4.464   0.708  -0.288  1.00  0.00    -0.301 N 
HETATM   14  C17 UNL     1       5.785   1.008  -0.291  1.00  0.00     0.239 A 
ATOM     15  H6  UNL     1       3.808   1.364   0.135  1.00  0.00     0.171 HD
HETATM   16  N7  UNL     1       6.625   0.123  -0.856  1.00  0.00    -0.155 N 
HETATM   17  C19 UNL     1       6.200  -1.027  -1.408  1.00  0.00     0.682 A 
ATOM     18  H7  UNL     1       7.623   0.332  -0.866  1.00  0.00     0.188 HD
HETATM   19  N8  UNL     1       7.035  -1.857  -1.945  1.00  0.00    -0.234 N 
HETATM   20  N9  UNL     1       4.872  -1.281  -1.380  1.00  0.00    -0.166 N 
ATOM     21  H82 UNL     1       8.037  -1.665  -1.966  1.00  0.00     0.174 HD
ATOM     22  H81 UNL     1       6.713  -2.729  -2.364  1.00  0.00     0.174 HD
HETATM   23  C20 UNL     1       4.370  -2.508  -1.962  1.00  0.00     0.177 C 
BRANCH  14  24
HETATM   24  O5  UNL     1       6.273   2.184   0.266  1.00  0.00    -0.327 OA
HETATM   25  C18 UNL     1       5.434   3.135   0.864  1.00  0.00     0.213 C 
ENDBRANCH  14  24
ENDBRANCH  11  12
ENDBRANCH  10  11
ENDBRANCH   9  10
BRANCH   1  26
HETATM   26  C2  UNL     1      -0.630   2.837   0.685  1.00  0.00     0.128 C 
HETATM   27  N1  UNL     1       0.249   3.483   0.136  1.00  0.00    -0.278 N 
ATOM     28  H1  UNL     1       0.042   4.441   0.417  1.00  0.00     0.193 HD
BRANCH  27  29
HETATM   29  O1  UNL     1       1.283   3.613  -0.596  1.00  0.00    -0.286 OA
HETATM   30  C1  UNL     1       1.403   3.743  -2.000  1.00  0.00     0.237 C 
ENDBRANCH  27  29
ENDBRANCH   1  26
BRANCH   8  31
HETATM   31  C13 UNL     1      -0.371  -1.961  -0.629  1.00  0.00     0.202 C 
HETATM   32  O3  UNL     1      -0.165  -2.308  -1.853  1.00  0.00    -0.646 OA
HETATM   33  O4  UNL     1       0.089  -2.849   0.307  1.00  0.00    -0.646 OA
ENDBRANCH   8  31
BRANCH   2  34
HETATM   34  S1  UNL     1      -3.137   1.588   2.192  1.00  0.00    -0.106 SA
BRANCH  34  35
HETATM   35  C5  UNL     1      -4.752   0.891   2.024  1.00  0.00     0.127 C 
BRANCH  35  36
HETATM   36  C6  UNL     1      -5.297   1.053   0.615  1.00  0.00    -0.005 A 
HETATM   37  C7  UNL     1      -5.189   0.196  -0.437  1.00  0.00     0.019 A 
HETATM   38  C8  UNL     1      -5.754   0.558  -1.595  1.00  0.00     0.051 A 
HETATM   39  C9  UNL     1      -6.398   1.769  -1.626  1.00  0.00     0.157 A 
HETATM   40  F1  UNL     1      -7.046   2.341  -2.700  1.00  0.00    -0.198 F 
HETATM   41  S2  UNL     1      -6.190   2.353  -0.039  1.00  0.00    -0.064 SA
ENDBRANCH  35  36
ENDBRANCH  34  35
ENDBRANCH   2  34
BRANCH   6  42
HETATM   42  N4  UNL     1      -3.177  -3.998   2.028  1.00  0.00    -0.293 N 
ATOM     43  H4  UNL     1      -2.625  -4.819   2.275  1.00  0.00     0.187 HD
BRANCH  42  44
HETATM   44  C11 UNL     1      -4.496  -3.824   2.548  1.00  0.00     0.190 C 
HETATM   45  N5  UNL     1      -4.629  -3.908   3.820  1.00  0.00    -0.394 N 
ATOM     46  H52 UNL     1      -3.823  -4.091   4.418  1.00  0.00     0.156 HD
ATOM     47  H51 UNL     1      -5.571  -3.784   4.191  1.00  0.00     0.156 HD
ENDBRANCH  42  44
ENDBRANCH   6  42
TORSDOF 12
