REMARK  20 active torsions:
REMARK  status: ('A' for Active; 'I' for Inactive)
REMARK    1  A    between atoms: O1_2  and  C2_3 
REMARK    2  A    between atoms: C3_4  and  O2_5 
REMARK    3  A    between atoms: O2_5  and  C4_6 
REMARK    4  A    between atoms: C4_6  and  C5_8 
REMARK    5  A    between atoms: C8_11  and  N1_12 
REMARK    6  A    between atoms: C14_21  and  O6_22 
REMARK    7  A    between atoms: C14_21  and  C15_24 
REMARK    8  A    between atoms: C15_24  and  O7_25 
REMARK    9  A    between atoms: N2_27  and  C16_28 
REMARK   10  A    between atoms: C16_28  and  O8_29 
REMARK   11  A    between atoms: C16_28  and  C17_31 
REMARK   12  A    between atoms: C17_31  and  O9_32 
REMARK   13  A    between atoms: C17_31  and  N3_34 
REMARK   14  A    between atoms: N3_34  and  O10_36 
REMARK   15  A    between atoms: O10_36  and  C18_37 
REMARK   16  A    between atoms: C18_37  and  C19_38 
REMARK   17  A    between atoms: C18_37  and  C23_42 
REMARK   18  A    between atoms: C19_38  and  C20_39 
REMARK   19  A    between atoms: C23_42  and  O11_43 
REMARK   20  A    between atoms: C23_42  and  O12_45 
ROOT
HETATM    1  C2  UNL     1       3.548  -3.344  -0.037  1.00  0.00     0.082 C 
HETATM    2  C3  UNL     1       2.530  -2.470   0.184  1.00  0.00     0.113 C 
HETATM    3  C11 UNL     1       1.276  -3.275   0.312  1.00  0.00     0.179 C 
HETATM    4  C12 UNL     1       1.672  -4.370  -0.649  1.00  0.00    -0.043 C 
HETATM    5  C13 UNL     1       0.760  -4.486  -1.526  1.00  0.00     0.041 C 
HETATM    6  C14 UNL     1      -0.376  -3.508  -1.303  1.00  0.00     0.177 C 
HETATM    7  N2  UNL     1       0.078  -2.716  -0.204  1.00  0.00    -0.306 N 
HETATM    8  C24 UNL     1       2.989  -4.748  -0.069  1.00  0.00     0.103 C 
ENDROOT
BRANCH   7   9
HETATM    9  C16 UNL     1      -0.593  -1.616   0.365  1.00  0.00     0.196 C 
BRANCH   9  10
HETATM   10  O8  UNL     1      -0.108  -1.254   1.523  1.00  0.00    -0.343 OA
ATOM     11  H8  UNL     1      -0.561  -0.512   1.907  1.00  0.00     0.219 HD
ENDBRANCH   9  10
BRANCH   9  12
HETATM   12  C17 UNL     1      -1.694  -0.843  -0.112  1.00  0.00     0.212 C 
BRANCH  12  13
HETATM   13  O9  UNL     1      -2.330  -1.034  -1.286  1.00  0.00    -0.342 OA
ATOM     14  H9  UNL     1      -3.063  -0.520  -1.603  1.00  0.00     0.219 HD
ENDBRANCH  12  13
BRANCH  12  15
HETATM   15  N3  UNL     1      -2.118   0.133   0.653  1.00  0.00    -0.241 N 
ATOM     16  H3  UNL     1      -1.600   0.235   1.526  1.00  0.00     0.196 HD
BRANCH  15  17
HETATM   17  O10 UNL     1      -3.080   0.995   0.500  1.00  0.00    -0.268 OA
BRANCH  17  18
HETATM   18  C18 UNL     1      -3.916   1.448  -0.477  1.00  0.00     0.207 C 
BRANCH  18  19
HETATM   19  C19 UNL     1      -3.772   2.907  -0.836  1.00  0.00     0.043 C 
BRANCH  19  20
HETATM   20  C20 UNL     1      -4.015   3.857   0.282  1.00  0.00    -0.020 C 
HETATM   21  C21 UNL     1      -3.815   5.266  -0.301  1.00  0.00     0.009 C 
HETATM   22  C22 UNL     1      -3.006   3.735   1.399  1.00  0.00     0.009 C 
ENDBRANCH  19  20
ENDBRANCH  18  19
BRANCH  18  23
HETATM   23  C23 UNL     1      -5.346   1.070  -0.149  1.00  0.00     0.285 C 
BRANCH  23  24
HETATM   24  O11 UNL     1      -5.807   1.586   1.038  1.00  0.00    -0.369 OA
ATOM     25  H11 UNL     1      -6.704   1.349   1.244  1.00  0.00     0.212 HD
ENDBRANCH  23  24
BRANCH  23  26
HETATM   26  O12 UNL     1      -5.379  -0.336  -0.012  1.00  0.00    -0.369 OA
ATOM     27  H12 UNL     1      -6.276  -0.573   0.194  1.00  0.00     0.212 HD
ENDBRANCH  23  26
ENDBRANCH  18  23
ENDBRANCH  17  18
ENDBRANCH  15  17
ENDBRANCH  12  15
ENDBRANCH   9  12
ENDBRANCH   7   9
BRANCH   6  28
HETATM   28  O6  UNL     1      -0.561  -2.737  -2.419  1.00  0.00    -0.365 OA
ATOM     29  H6  UNL     1      -1.273  -2.124  -2.279  1.00  0.00     0.213 HD
ENDBRANCH   6  28
BRANCH   6  30
HETATM   30  C15 UNL     1      -1.614  -4.331  -0.958  1.00  0.00     0.229 C 
BRANCH  30  31
HETATM   31  O7  UNL     1      -1.970  -5.032  -2.089  1.00  0.00    -0.396 OA
ATOM     32  H7  UNL     1      -2.741  -5.544  -1.874  1.00  0.00     0.209 HD
ENDBRANCH  30  31
ENDBRANCH   6  30
BRANCH   2  33
HETATM   33  O2  UNL     1       2.801  -1.125   0.246  1.00  0.00    -0.274 OA
BRANCH  33  34
HETATM   34  C4  UNL     1       3.226  -0.381   1.309  1.00  0.00     0.301 C 
HETATM   35  O3  UNL     1       3.400  -0.985   2.398  1.00  0.00    -0.259 OA
BRANCH  34  36
HETATM   36  C5  UNL     1       3.484   1.043   1.260  1.00  0.00     0.078 A 
HETATM   37  C6  UNL     1       3.365   1.800   0.117  1.00  0.00     0.023 A 
HETATM   38  C7  UNL     1       3.617   3.149   0.082  1.00  0.00     0.037 A 
HETATM   39  C8  UNL     1       4.013   3.814   1.234  1.00  0.00     0.105 A 
HETATM   40  C9  UNL     1       4.134   3.062   2.387  1.00  0.00     0.079 A 
HETATM   41  C10 UNL     1       3.875   1.701   2.401  1.00  0.00     0.135 A 
HETATM   42  F1  UNL     1       4.024   1.052   3.600  1.00  0.00    -0.205 F 
BRANCH  39  43
HETATM   43  N1  UNL     1       4.278   5.209   1.209  1.00  0.00    -0.116 N 
HETATM   44  O4  UNL     1       4.634   5.793   2.242  1.00  0.00    -0.532 OA
HETATM   45  O5  UNL     1       4.141   5.902   0.038  1.00  0.00    -0.532 OA
ENDBRANCH  39  43
ENDBRANCH  34  36
ENDBRANCH  33  34
ENDBRANCH   2  33
BRANCH   1  46
HETATM   46  O1  UNL     1       4.852  -3.009  -0.204  1.00  0.00    -0.357 OA
HETATM   47  C1  UNL     1       5.556  -3.358  -1.386  1.00  0.00     0.209 C 
ENDBRANCH   1  46
TORSDOF 20
