REMARK  15 active torsions:
REMARK  status: ('A' for Active; 'I' for Inactive)
REMARK    1  A    between atoms: C3_4  and  C4_5 
REMARK    2  A    between atoms: C4_5  and  O2_6 
REMARK    3  A    between atoms: O2_6  and  C5_7 
REMARK    4  A    between atoms: C6_8  and  O3_9 
REMARK    5  A    between atoms: O3_9  and  C7_10 
REMARK    6  A    between atoms: C10_14  and  N1_15 
REMARK    7  A    between atoms: C12_20  and  N2_21 
REMARK    8  A    between atoms: C13_26  and  C14_27 
REMARK    9  A    between atoms: C14_27  and  O6_28 
REMARK   10  A    between atoms: C15_30  and  O7_31 
REMARK   11  A    between atoms: O7_31  and  C16_32 
REMARK   12  A    between atoms: C19_36  and  O9_37 
REMARK   13  A    between atoms: O9_37  and  C20_38 
REMARK   14  A    between atoms: C25_44  and  O11_45 
REMARK   15  A    between atoms: C27_48  and  N3_49 
ROOT
HETATM    1  C5  UNL     1      -0.809   1.257   0.687  1.00  0.00     0.208 C 
HETATM    2  C6  UNL     1      -1.609  -0.024   0.364  1.00  0.00     0.295 C 
HETATM    3  O5  UNL     1      -2.417  -0.206   1.497  1.00  0.00    -0.348 OA
HETATM    4  C13 UNL     1      -1.567  -0.872   2.416  1.00  0.00     0.180 C 
HETATM    5  C15 UNL     1      -0.433  -0.001   2.826  1.00  0.00     0.187 C 
HETATM    6  C25 UNL     1      -0.420   1.339   2.119  1.00  0.00     0.183 C 
ENDROOT
BRANCH   2   7
HETATM    7  O3  UNL     1      -2.300   0.159  -0.785  1.00  0.00    -0.327 OA
BRANCH   7   8
HETATM    8  C7  UNL     1      -2.009  -0.681  -1.835  1.00  0.00     0.293 C 
HETATM    9  O4  UNL     1      -1.562  -0.072  -2.974  1.00  0.00    -0.352 OA
HETATM   10  C8  UNL     1      -0.723  -0.899  -3.709  1.00  0.00     0.151 C 
HETATM   11  C9  UNL     1      -0.586  -0.357  -5.121  1.00  0.00     0.042 C 
HETATM   12  C10 UNL     1      -1.284  -2.286  -3.659  1.00  0.00     0.214 C 
HETATM   13  C11 UNL     1      -2.797  -2.281  -3.498  1.00  0.00     0.073 C 
HETATM   14  C12 UNL     1      -3.199  -1.544  -2.234  1.00  0.00     0.240 C 
BRANCH  12  15
HETATM   15  N1  UNL     1      -0.953  -2.971  -4.876  1.00  0.00    -0.072 N 
ATOM     16  H13 UNL     1      -1.258  -2.459  -5.704  1.00  0.00     0.274 HD
ATOM     17  H12 UNL     1       0.049  -2.965  -5.064  1.00  0.00     0.274 HD
ATOM     18  H11 UNL     1      -1.335  -3.916  -4.842  1.00  0.00     0.274 HD
ENDBRANCH  12  15
BRANCH  14  19
HETATM   19  N2  UNL     1      -3.476  -2.555  -1.227  1.00  0.00    -0.070 N 
ATOM     20  H23 UNL     1      -2.652  -3.122  -1.028  1.00  0.00     0.274 HD
ATOM     21  H22 UNL     1      -3.606  -2.140  -0.305  1.00  0.00     0.274 HD
ATOM     22  H21 UNL     1      -4.273  -3.133  -1.494  1.00  0.00     0.274 HD
ENDBRANCH  14  19
ENDBRANCH   7   8
ENDBRANCH   2   7
BRANCH   1  23
HETATM   23  O2  UNL     1      -1.642   2.315   0.356  1.00  0.00    -0.376 OA
BRANCH  23  24
HETATM   24  C4  UNL     1      -1.268   3.039  -0.733  1.00  0.00     0.200 C 
BRANCH  24  25
HETATM   25  C3  UNL     1       0.055   3.749  -0.660  1.00  0.00     0.147 C 
HETATM   26  O1  UNL     1       0.270   4.362  -1.884  1.00  0.00    -0.377 OA
HETATM   27  C2  UNL     1       0.254   5.714  -1.763  1.00  0.00     0.148 C 
HETATM   28  C1  UNL     1      -0.473   6.369  -2.919  1.00  0.00     0.042 C 
HETATM   29  C27 UNL     1      -0.471   6.025  -0.469  1.00  0.00     0.214 C 
HETATM   30  C26 UNL     1       0.007   4.862   0.372  1.00  0.00     0.069 C 
BRANCH  29  31
HETATM   31  N3  UNL     1      -0.046   7.299   0.081  1.00  0.00    -0.072 N 
ATOM     32  H33 UNL     1       0.966   7.336   0.201  1.00  0.00     0.274 HD
ATOM     33  H32 UNL     1      -0.151   8.053  -0.598  1.00  0.00     0.274 HD
ATOM     34  H31 UNL     1      -0.534   7.508   0.952  1.00  0.00     0.274 HD
ENDBRANCH  29  31
ENDBRANCH  24  25
ENDBRANCH  23  24
ENDBRANCH   1  23
BRANCH   6  35
HETATM   35  O11 UNL     1       0.872   1.917   2.220  1.00  0.00    -0.390 OA
ATOM     36  H11 UNL     1       1.121   1.969   3.135  1.00  0.00     0.210 HD
ENDBRANCH   6  35
BRANCH   4  37
HETATM   37  C14 UNL     1      -2.373  -1.261   3.631  1.00  0.00     0.198 C 
BRANCH  37  38
HETATM   38  O6  UNL     1      -2.902  -0.114   4.217  1.00  0.00    -0.398 OA
ATOM     39  H6  UNL     1      -3.409  -0.359   4.982  1.00  0.00     0.209 HD
ENDBRANCH  37  38
ENDBRANCH   4  37
BRANCH   5  40
HETATM   40  O7  UNL     1       0.781  -0.653   2.622  1.00  0.00    -0.347 OA
BRANCH  40  41
HETATM   41  C16 UNL     1       1.506  -0.927   3.729  1.00  0.00     0.298 C 
HETATM   42  O8  UNL     1       2.847  -0.370   3.707  1.00  0.00    -0.330 OA
HETATM   43  C17 UNL     1       3.519  -1.123   4.701  1.00  0.00     0.137 C 
HETATM   44  C18 UNL     1       3.009  -2.330   4.751  1.00  0.00     0.034 C 
HETATM   45  C19 UNL     1       1.917  -2.397   3.722  1.00  0.00     0.204 C 
BRANCH  45  46
HETATM   46  O9  UNL     1       2.569  -2.616   2.520  1.00  0.00    -0.347 OA
BRANCH  46  47
HETATM   47  C20 UNL     1       2.118  -3.669   1.778  1.00  0.00     0.260 C 
HETATM   48  C21 UNL     1       3.282  -4.620   1.564  1.00  0.00     0.061 C 
HETATM   49  C22 UNL     1       3.807  -4.496   0.143  1.00  0.00     0.007 C 
HETATM   50  C23 UNL     1       3.994  -3.041  -0.189  1.00  0.00     0.026 C 
HETATM   51  C24 UNL     1       2.723  -2.309   0.071  1.00  0.00     0.171 C 
HETATM   52  O10 UNL     1       1.748  -3.187   0.530  1.00  0.00    -0.361 OA
ENDBRANCH  46  47
ENDBRANCH  45  46
ENDBRANCH  40  41
ENDBRANCH   5  40
TORSDOF 15
