REMARK  17 active torsions:
REMARK  status: ('A' for Active; 'I' for Inactive)
REMARK    1  A    between atoms: C2_2  and  C3_3 
REMARK    2  A    between atoms: C4_4  and  C5_5 
REMARK    3  A    between atoms: C5_5  and  C6_7 
REMARK    4  A    between atoms: C7_9  and  O3_10 
REMARK    5  A    between atoms: O3_10  and  C8_11 
REMARK    6  A    between atoms: C9_12  and  O4_13 
REMARK    7  A    between atoms: C11_16  and  O5_17 
REMARK    8  A    between atoms: C13_19  and  O6_20 
REMARK    9  A    between atoms: C14_22  and  O7_23 
REMARK   10  A    between atoms: O7_23  and  C15_24 
REMARK   11  A    between atoms: C16_25  and  O8_26 
REMARK   12  A    between atoms: C18_29  and  O9_30 
REMARK   13  A    between atoms: C20_32  and  O10_33 
REMARK   14  A    between atoms: O10_33  and  C21_34 
REMARK   15  A    between atoms: C23_37  and  O12_38 
REMARK   16  A    between atoms: C24_40  and  O13_41 
REMARK   17  A    between atoms: C27_45  and  O14_46 
ROOT
HETATM    1  C8  UNL     1       0.042   0.488  -1.525  1.00  0.00     0.185 C 
HETATM    2  C9  UNL     1      -0.443  -0.631  -2.444  1.00  0.00     0.152 C 
HETATM    3  C10 UNL     1      -0.660   0.062  -3.796  1.00  0.00     0.069 C 
HETATM    4  C11 UNL     1      -1.794   1.018  -3.623  1.00  0.00     0.154 C 
HETATM    5  C13 UNL     1      -1.352   2.113  -2.670  1.00  0.00     0.178 C 
HETATM    6  C14 UNL     1      -1.093   1.478  -1.293  1.00  0.00     0.185 C 
ENDROOT
BRANCH   1   7
HETATM    7  O3  UNL     1       0.557  -0.057  -0.384  1.00  0.00    -0.348 OA
BRANCH   7   8
HETATM    8  C7  UNL     1       1.901   0.182  -0.190  1.00  0.00     0.290 C 
HETATM    9  O2  UNL     1       2.595  -1.021  -0.134  1.00  0.00    -0.343 OA
HETATM   10  C6  UNL     1       3.972  -0.802   0.048  1.00  0.00     0.227 C 
HETATM   11  C27 UNL     1       4.068  -0.291   1.481  1.00  0.00     0.161 C 
HETATM   12  C25 UNL     1       3.527   1.123   1.447  1.00  0.00     0.047 C 
HETATM   13  C24 UNL     1       2.060   1.008   1.067  1.00  0.00     0.179 C 
HETATM   14  C26 UNL     1       3.618   1.719   2.816  1.00  0.00     0.015 C 
BRANCH  10  15
HETATM   15  C5  UNL     1       4.651  -2.094  -0.147  1.00  0.00     0.180 C 
HETATM   16  O1  UNL     1       3.979  -3.168  -0.327  1.00  0.00    -0.290 OA
BRANCH  15  17
HETATM   17  C4  UNL     1       6.094  -2.213  -0.145  1.00  0.00     0.049 C 
HETATM   18  C3  UNL     1       6.948  -1.224   0.007  1.00  0.00    -0.023 C 
BRANCH  18  19
HETATM   19  C2  UNL     1       8.419  -1.398   0.002  1.00  0.00     0.023 C 
HETATM   20  C1  UNL     1       9.026  -0.936   1.325  1.00  0.00     0.009 C 
ENDBRANCH  18  19
ENDBRANCH  15  17
ENDBRANCH  10  15
BRANCH  11  21
HETATM   21  O14 UNL     1       3.183  -1.082   2.232  1.00  0.00    -0.392 OA
ATOM     22  H14 UNL     1       3.243  -0.764   3.125  1.00  0.00     0.210 HD
ENDBRANCH  11  21
BRANCH  13  23
HETATM   23  O13 UNL     1       1.398   0.488   2.156  1.00  0.00    -0.390 OA
ATOM     24  H13 UNL     1       1.498   1.007   2.946  1.00  0.00     0.210 HD
ENDBRANCH  13  23
ENDBRANCH   7   8
ENDBRANCH   1   7
BRANCH   2  25
HETATM   25  O4  UNL     1       0.614  -1.517  -2.628  1.00  0.00    -0.393 OA
ATOM     26  H4  UNL     1       0.312  -2.213  -3.200  1.00  0.00     0.210 HD
ENDBRANCH   2  25
BRANCH   6  27
HETATM   27  O7  UNL     1      -2.269   0.899  -0.923  1.00  0.00    -0.370 OA
BRANCH  27  28
HETATM   28  C15 UNL     1      -2.825   1.312   0.255  1.00  0.00     0.186 C 
HETATM   29  C16 UNL     1      -4.177   1.957   0.100  1.00  0.00     0.175 C 
HETATM   30  C17 UNL     1      -5.295   0.993   0.018  1.00  0.00     0.042 C 
HETATM   31  C18 UNL     1      -5.292  -0.044   0.824  1.00  0.00     0.076 C 
HETATM   32  C20 UNL     1      -4.181  -0.198   1.767  1.00  0.00     0.219 C 
HETATM   33  C23 UNL     1      -2.826   0.142   1.203  1.00  0.00     0.186 C 
BRANCH  29  34
HETATM   34  O8  UNL     1      -4.365   2.819   1.185  1.00  0.00    -0.389 OA
ATOM     35  H8  UNL     1      -5.218   3.226   1.087  1.00  0.00     0.210 HD
ENDBRANCH  29  34
BRANCH  31  36
HETATM   36  O9  UNL     1      -6.318  -0.997   0.802  1.00  0.00    -0.358 OA
HETATM   37  C19 UNL     1      -7.675  -0.625   0.640  1.00  0.00     0.209 C 
ENDBRANCH  31  36
BRANCH  32  38
HETATM   38  O10 UNL     1      -4.119  -1.580   2.138  1.00  0.00    -0.307 OA
BRANCH  38  39
HETATM   39  C21 UNL     1      -4.232  -2.010   3.441  1.00  0.00     0.255 C 
HETATM   40  C22 UNL     1      -4.157  -3.460   3.739  1.00  0.00     0.126 C 
HETATM   41  O11 UNL     1      -4.397  -1.201   4.373  1.00  0.00    -0.266 OA
ENDBRANCH  38  39
ENDBRANCH  32  38
BRANCH  33  42
HETATM   42  O12 UNL     1      -1.991   0.371   2.317  1.00  0.00    -0.390 OA
ATOM     43  H12 UNL     1      -1.992  -0.367   2.915  1.00  0.00     0.210 HD
ENDBRANCH  33  42
ENDBRANCH  27  28
ENDBRANCH   6  27
BRANCH   5  44
HETATM   44  O6  UNL     1      -0.227   2.777  -3.137  1.00  0.00    -0.390 OA
ATOM     45  H6  UNL     1       0.050   3.463  -2.540  1.00  0.00     0.210 HD
ENDBRANCH   5  44
BRANCH   4  46
HETATM   46  O5  UNL     1      -2.948   0.452  -3.151  1.00  0.00    -0.388 OA
HETATM   47  C12 UNL     1      -4.032   0.593  -3.995  1.00  0.00     0.202 C 
ENDBRANCH   4  46
TORSDOF 17
