REMARK  13 active torsions:
REMARK  status: ('A' for Active; 'I' for Inactive)
REMARK    1  A    between atoms: C2_2  and  C3_3 
REMARK    2  A    between atoms: C3_3  and  N1_4 
REMARK    3  A    between atoms: N1_4  and  C4_7 
REMARK    4  A    between atoms: C6_10  and  C7_11 
REMARK    5  A    between atoms: C7_11  and  O2_12 
REMARK    6  A    between atoms: C8_14  and  O3_15 
REMARK    7  A    between atoms: C9_17  and  O4_18 
REMARK    8  A    between atoms: O4_18  and  C10_19 
REMARK    9  A    between atoms: C11_20  and  N2_21 
REMARK   10  A    between atoms: C16_30  and  O6_31 
REMARK   11  A    between atoms: C18_34  and  O8_35 
REMARK   12  A    between atoms: C25_42  and  O9_43 
REMARK   13  A    between atoms: C26_45  and  O10_46 
ROOT
HETATM    1  C10 UNL     1      -0.020   0.906   0.850  1.00  0.00     0.190 C 
HETATM    2  C11 UNL     1       0.154   2.137   1.703  1.00  0.00     0.218 C 
HETATM    3  C12 UNL     1       1.599   2.546   2.002  1.00  0.00     0.072 C 
HETATM    4  C13 UNL     1       2.336   1.616   1.131  1.00  0.00     0.180 C 
HETATM    5  O5  UNL     1       2.049   0.382   1.735  1.00  0.00    -0.363 OA
HETATM    6  C14 UNL     1       1.044  -0.137   0.892  1.00  0.00     0.130 C 
HETATM    7  C15 UNL     1       1.771  -0.501  -0.326  1.00  0.00     0.088 C 
HETATM    8  C16 UNL     1       3.048   0.135  -0.717  1.00  0.00     0.269 C 
HETATM    9  O7  UNL     1       3.995   0.477   0.182  1.00  0.00    -0.329 OA
HETATM   10  C18 UNL     1       3.772   1.649   0.916  1.00  0.00     0.291 C 
HETATM   11  C20 UNL     1       2.030  -2.018  -0.286  1.00  0.00     0.027 C 
HETATM   12  C21 UNL     1       0.665  -2.651  -0.392  1.00  0.00     0.015 C 
HETATM   13  C22 UNL     1       0.013  -2.469   0.954  1.00  0.00     0.025 C 
HETATM   14  C23 UNL     1       0.763  -3.411   1.873  1.00  0.00     0.018 C 
HETATM   15  C24 UNL     1       1.696  -2.232   2.113  1.00  0.00     0.053 C 
HETATM   16  C25 UNL     1       2.727  -2.323   0.988  1.00  0.00     0.130 C 
HETATM   17  C26 UNL     1       0.546  -1.342   1.727  1.00  0.00     0.104 C 
ENDROOT
BRANCH   1  18
HETATM   18  O4  UNL     1      -0.439   1.178  -0.425  1.00  0.00    -0.370 OA
BRANCH  18  19
HETATM   19  C9  UNL     1      -1.775   0.936  -0.733  1.00  0.00     0.186 C 
HETATM   20  C4  UNL     1      -1.978  -0.017  -1.841  1.00  0.00     0.241 C 
HETATM   21  C5  UNL     1      -2.843   0.477  -2.956  1.00  0.00     0.204 C 
HETATM   22  O1  UNL     1      -2.829   1.840  -3.161  1.00  0.00    -0.379 OA
HETATM   23  C6  UNL     1      -3.318   2.505  -2.047  1.00  0.00     0.176 C 
HETATM   24  C8  UNL     1      -2.385   2.280  -0.930  1.00  0.00     0.180 C 
BRANCH  20  25
HETATM   25  N1  UNL     1      -2.717  -1.211  -1.331  1.00  0.00    -0.063 N 
ATOM     26  H12 UNL     1      -3.632  -0.964  -0.955  1.00  0.00     0.278 HD
ATOM     27  H11 UNL     1      -2.302  -1.583  -0.477  1.00  0.00     0.278 HD
BRANCH  25  28
HETATM   28  C3  UNL     1      -2.808  -2.214  -2.377  1.00  0.00     0.259 C 
BRANCH  28  29
HETATM   29  C2  UNL     1      -3.549  -3.378  -1.818  1.00  0.00    -0.010 C 
HETATM   30  C1  UNL     1      -3.998  -3.384  -0.573  1.00  0.00     0.008 C 
ENDBRANCH  28  29
ENDBRANCH  25  28
ENDBRANCH  20  25
BRANCH  23  31
HETATM   31  C7  UNL     1      -4.751   2.185  -1.716  1.00  0.00     0.198 C 
BRANCH  31  32
HETATM   32  O2  UNL     1      -5.593   2.518  -2.774  1.00  0.00    -0.398 OA
ATOM     33  H2  UNL     1      -6.497   2.316  -2.565  1.00  0.00     0.209 HD
ENDBRANCH  31  32
ENDBRANCH  23  31
BRANCH  24  34
HETATM   34  O3  UNL     1      -2.938   2.743   0.297  1.00  0.00    -0.390 OA
ATOM     35  H3  UNL     1      -2.336   2.598   1.018  1.00  0.00     0.210 HD
ENDBRANCH  24  34
ENDBRANCH  18  19
ENDBRANCH   1  18
BRANCH   2  36
HETATM   36  N2  UNL     1      -0.630   2.146   2.914  1.00  0.00    -0.072 N 
ATOM     37  H23 UNL     1      -1.616   2.001   2.698  1.00  0.00     0.274 HD
ATOM     38  H22 UNL     1      -0.444   1.306   3.462  1.00  0.00     0.274 HD
ATOM     39  H21 UNL     1      -0.512   2.979   3.491  1.00  0.00     0.274 HD
ENDBRANCH   2  36
BRANCH  17  40
HETATM   40  O10 UNL     1      -0.177  -0.803   2.738  1.00  0.00    -0.381 OA
HETATM   41  C27 UNL     1      -0.763  -1.571   3.669  1.00  0.00     0.202 C 
ENDBRANCH  17  40
BRANCH   8  42
HETATM   42  O6  UNL     1       3.723  -0.750  -1.604  1.00  0.00    -0.365 OA
HETATM   43  C17 UNL     1       3.885  -0.223  -2.854  1.00  0.00     0.204 C 
ENDBRANCH   8  42
BRANCH  10  44
HETATM   44  O8  UNL     1       4.107   2.798   0.166  1.00  0.00    -0.363 OA
HETATM   45  C19 UNL     1       5.116   3.521   0.800  1.00  0.00     0.204 C 
ENDBRANCH  10  44
BRANCH  16  46
HETATM   46  O9  UNL     1       3.265  -3.636   0.969  1.00  0.00    -0.395 OA
ATOM     47  H9  UNL     1       3.711  -3.831   1.785  1.00  0.00     0.210 HD
ENDBRANCH  16  46
TORSDOF 13
