REMARK  14 active torsions:
REMARK  status: ('A' for Active; 'I' for Inactive)
REMARK    1  A    between atoms: O1_2  and  C2_3 
REMARK    2  A    between atoms: C2_3  and  C3_5 
REMARK    3  A    between atoms: C3_5  and  C4_6 
REMARK    4  A    between atoms: C3_5  and  C10_17 
REMARK    5  A    between atoms: C5_7  and  C6_8 
REMARK       I    between atoms: C6_8  and  N1_10 
REMARK    6  A    between atoms: N1_10  and  C7_12 
REMARK    7  A    between atoms: C7_12  and  C9_14 
REMARK    8  A    between atoms: C12_20  and  O7_21 
REMARK    9  A    between atoms: C15_26  and  O9_27 
REMARK   10  A    between atoms: O9_27  and  C16_28 
REMARK   11  A    between atoms: C17_29  and  O10_30 
REMARK   12  A    between atoms: C19_32  and  O11_33 
REMARK   13  A    between atoms: C20_35  and  C21_36 
REMARK   14  A    between atoms: C21_36  and  O12_37 
ROOT
HETATM    1  C10 UNL     1       0.520   0.668  -1.179  1.00  0.00     0.133 C 
HETATM    2  O6  UNL     1       1.110   1.661  -1.952  1.00  0.00    -0.371 OA
HETATM    3  C11 UNL     1       1.779   1.171  -3.013  1.00  0.00     0.203 C 
HETATM    4  C12 UNL     1       1.458  -0.266  -3.197  1.00  0.00     0.174 C 
HETATM    5  C13 UNL     1       0.602  -0.585  -1.979  1.00  0.00     0.190 C 
HETATM    6  O8  UNL     1      -0.667  -0.847  -2.529  1.00  0.00    -0.377 OA
HETATM    7  C14 UNL     1      -1.269   0.396  -2.655  1.00  0.00     0.203 C 
HETATM    8  C15 UNL     1      -0.987   0.904  -1.189  1.00  0.00     0.184 C 
ENDROOT
BRANCH   8   9
HETATM    9  O9  UNL     1      -1.599  -0.038  -0.368  1.00  0.00    -0.372 OA
BRANCH   9  10
HETATM   10  C16 UNL     1      -2.703   0.432   0.340  1.00  0.00     0.163 C 
HETATM   11  C17 UNL     1      -2.615  -0.013   1.760  1.00  0.00     0.182 C 
HETATM   12  C19 UNL     1      -3.130  -1.452   1.769  1.00  0.00     0.186 C 
HETATM   13  C20 UNL     1      -4.178  -1.483   0.678  1.00  0.00     0.120 C 
HETATM   14  O13 UNL     1      -5.356  -0.813   1.007  1.00  0.00    -0.364 OA
HETATM   15  C25 UNL     1      -3.874  -0.347  -0.261  1.00  0.00     0.090 C 
HETATM   16  C22 UNL     1      -5.241   0.141  -0.034  1.00  0.00     0.064 C 
HETATM   17  C23 UNL     1      -6.234  -0.278  -1.132  1.00  0.00     0.046 C 
HETATM   18  C24 UNL     1      -5.501   1.502   0.487  1.00  0.00     0.046 C 
BRANCH  11  19
HETATM   19  O10 UNL     1      -3.443   0.680   2.633  1.00  0.00    -0.385 OA
HETATM   20  C18 UNL     1      -2.855   1.126   3.781  1.00  0.00     0.202 C 
ENDBRANCH  11  19
BRANCH  12  21
HETATM   21  O11 UNL     1      -2.099  -2.343   1.549  1.00  0.00    -0.390 OA
ATOM     22  H11 UNL     1      -2.419  -3.237   1.555  1.00  0.00     0.210 HD
ENDBRANCH  12  21
BRANCH  13  23
HETATM   23  C21 UNL     1      -4.366  -2.810   0.014  1.00  0.00     0.205 C 
BRANCH  23  24
HETATM   24  O12 UNL     1      -5.072  -3.714   0.793  1.00  0.00    -0.398 OA
ATOM     25  H12 UNL     1      -5.191  -4.557   0.371  1.00  0.00     0.209 HD
ENDBRANCH  23  24
ENDBRANCH  13  23
ENDBRANCH   9  10
ENDBRANCH   8   9
BRANCH   1  26
HETATM   26  C3  UNL     1       1.047   0.642   0.201  1.00  0.00     0.148 C 
BRANCH  26  27
HETATM   27  C2  UNL     1       0.836   2.025   0.809  1.00  0.00     0.269 C 
HETATM   28  O2  UNL     1       0.080   2.297   1.729  1.00  0.00    -0.264 OA
BRANCH  27  29
HETATM   29  O1  UNL     1       1.578   3.098   0.271  1.00  0.00    -0.326 OA
HETATM   30  C1  UNL     1       1.446   4.412   0.775  1.00  0.00     0.213 C 
ENDBRANCH  27  29
ENDBRANCH  26  27
BRANCH  26  31
HETATM   31  C4  UNL     1       2.391   0.267   0.524  1.00  0.00    -0.004 C 
HETATM   32  C5  UNL     1       3.451  -0.129  -0.091  1.00  0.00     0.071 C 
BRANCH  32  33
HETATM   33  C6  UNL     1       4.701  -0.422   0.673  1.00  0.00     0.241 C 
HETATM   34  O3  UNL     1       4.668  -0.269   1.909  1.00  0.00    -0.269 OA
HETATM   35  N1  UNL     1       5.887  -0.857   0.052  1.00  0.00    -0.344 N 
ATOM     36  H1  UNL     1       5.894  -0.976  -0.961  1.00  0.00     0.163 HD
BRANCH  35  37
HETATM   37  C7  UNL     1       7.094  -1.141   0.792  1.00  0.00     0.181 C 
HETATM   38  C8  UNL     1       8.199  -0.256   0.319  1.00  0.00     0.043 C 
BRANCH  37  39
HETATM   39  C9  UNL     1       7.494  -2.563   0.673  1.00  0.00     0.196 C 
HETATM   40  O4  UNL     1       6.833  -3.389  -0.001  1.00  0.00    -0.646 OA
HETATM   41  O5  UNL     1       8.631  -3.026   1.316  1.00  0.00    -0.646 OA
ENDBRANCH  37  39
ENDBRANCH  35  37
ENDBRANCH  32  33
ENDBRANCH  26  31
ENDBRANCH   1  26
BRANCH   4  42
HETATM   42  O7  UNL     1       0.813  -0.530  -4.396  1.00  0.00    -0.391 OA
ATOM     43  H7  UNL     1       0.607  -1.450  -4.514  1.00  0.00     0.210 HD
ENDBRANCH   4  42
TORSDOF 14
