REMARK  16 active torsions:
REMARK  status: ('A' for Active; 'I' for Inactive)
REMARK    1  A    between atoms: O1_2  and  C2_3 
REMARK    2  A    between atoms: C2_3  and  C3_5 
REMARK    3  A    between atoms: C3_5  and  C4_6 
REMARK    4  A    between atoms: C4_6  and  N1_7 
REMARK    5  A    between atoms: C4_6  and  C10_16 
REMARK       I    between atoms: N1_7  and  C5_9 
REMARK    6  A    between atoms: C5_9  and  O4_11 
REMARK    7  A    between atoms: O4_11  and  C6_12 
REMARK    8  A    between atoms: C10_16  and  N2_17 
REMARK    9  A    between atoms: C10_16  and  C19_35 
REMARK   10  A    between atoms: C12_20  and  C13_21 
REMARK   11  A    between atoms: C14_24  and  O7_25 
REMARK   12  A    between atoms: C15_27  and  O8_28 
REMARK       I    between atoms: N3_31  and  C17_32 
REMARK   13  A    between atoms: C19_35  and  C20_36 
REMARK   14  A    between atoms: C19_35  and  C22_40 
REMARK   15  A    between atoms: C20_36  and  C21_37 
REMARK   16  A    between atoms: C22_40  and  O13_42 
ROOT
HETATM    1  C10 UNL     1      -0.492   0.816  -0.655  1.00  0.00     0.025 C 
ENDROOT
BRANCH   1   2
HETATM    2  C4  UNL     1       0.703   1.110   0.185  1.00  0.00     0.142 C 
BRANCH   2   3
HETATM    3  C3  UNL     1       0.504   2.202   1.201  1.00  0.00     0.142 C 
BRANCH   3   4
HETATM    4  C2  UNL     1       1.759   2.640   1.825  1.00  0.00     0.260 C 
HETATM    5  O2  UNL     1       2.520   3.426   1.205  1.00  0.00    -0.265 OA
BRANCH   4   6
HETATM    6  O1  UNL     1       2.155   2.223   3.084  1.00  0.00    -0.326 OA
HETATM    7  C1  UNL     1       3.364   2.650   3.677  1.00  0.00     0.213 C 
ENDBRANCH   4   6
ENDBRANCH   3   4
ENDBRANCH   2   3
BRANCH   2   8
HETATM    8  N1  UNL     1       1.284  -0.083   0.778  1.00  0.00    -0.327 N 
HETATM    9  C5  UNL     1       2.570  -0.589   0.465  1.00  0.00     0.361 C 
HETATM   10  O3  UNL     1       3.277   0.015  -0.378  1.00  0.00    -0.238 OA
ATOM     11  H1  UNL     1       0.728  -0.591   1.466  1.00  0.00     0.165 HD
BRANCH   9  12
HETATM   12  O4  UNL     1       3.078  -1.729   1.057  1.00  0.00    -0.294 OA
BRANCH  12  13
HETATM   13  C6  UNL     1       4.360  -2.247   0.756  1.00  0.00     0.061 C 
HETATM   14  C7  UNL     1       4.646  -3.484   1.542  1.00  0.00     0.046 C 
HETATM   15  C8  UNL     1       4.467  -2.600  -0.717  1.00  0.00     0.046 C 
HETATM   16  C9  UNL     1       5.454  -1.235   1.052  1.00  0.00     0.046 C 
ENDBRANCH  12  13
ENDBRANCH   9  12
ENDBRANCH   2   8
ENDBRANCH   1   2
BRANCH   1  17
HETATM   17  N2  UNL     1      -1.679   0.446   0.077  1.00  0.00    -0.349 N 
HETATM   18  C11 UNL     1      -2.395  -0.584  -0.060  1.00  0.00     0.103 C 
HETATM   19  C12 UNL     1      -2.183  -1.689  -1.028  1.00  0.00     0.185 C 
HETATM   20  N3  UNL     1      -3.543  -0.686   0.812  1.00  0.00    -0.304 N 
HETATM   21  C14 UNL     1      -3.500  -2.256  -1.520  1.00  0.00     0.170 C 
HETATM   22  C15 UNL     1      -4.461  -2.533  -0.401  1.00  0.00     0.166 C 
HETATM   23  C16 UNL     1      -4.797  -1.264   0.307  1.00  0.00     0.167 C 
HETATM   24  C17 UNL     1      -3.527  -0.249   2.157  1.00  0.00     0.221 C 
HETATM   25  C18 UNL     1      -4.722  -0.369   3.018  1.00  0.00     0.117 C 
HETATM   26  O9  UNL     1      -2.485   0.248   2.626  1.00  0.00    -0.273 OA
ATOM     27  H2  UNL     1      -1.978   1.102   0.799  1.00  0.00     0.166 HD
BRANCH  19  28
HETATM   28  C13 UNL     1      -1.339  -2.776  -0.486  1.00  0.00     0.187 C 
HETATM   29  O5  UNL     1      -0.295  -3.103  -1.097  1.00  0.00    -0.647 OA
HETATM   30  O6  UNL     1      -1.667  -3.457   0.690  1.00  0.00    -0.647 OA
ENDBRANCH  19  28
BRANCH  21  31
HETATM   31  O7  UNL     1      -3.243  -3.477  -2.157  1.00  0.00    -0.392 OA
ATOM     32  H7  UNL     1      -4.068  -3.832  -2.465  1.00  0.00     0.210 HD
ENDBRANCH  21  31
BRANCH  22  33
HETATM   33  O8  UNL     1      -5.650  -2.996  -1.013  1.00  0.00    -0.391 OA
ATOM     34  H8  UNL     1      -6.258  -3.171  -0.305  1.00  0.00     0.210 HD
ENDBRANCH  22  33
ENDBRANCH   1  17
BRANCH   1  35
HETATM   35  C19 UNL     1      -0.747   1.595  -1.878  1.00  0.00     0.143 C 
BRANCH  35  36
HETATM   36  C20 UNL     1       0.433   1.388  -2.859  1.00  0.00     0.133 C 
BRANCH  36  37
HETATM   37  C21 UNL     1       0.097   2.182  -4.070  1.00  0.00     0.173 C 
HETATM   38  O10 UNL     1       0.927   2.267  -5.040  1.00  0.00    -0.648 OA
HETATM   39  O11 UNL     1      -1.085   2.873  -4.262  1.00  0.00    -0.648 OA
ENDBRANCH  36  37
ENDBRANCH  35  36
BRANCH  35  40
HETATM   40  C22 UNL     1      -1.046   3.013  -1.759  1.00  0.00     0.268 C 
HETATM   41  O12 UNL     1      -2.227   3.407  -1.636  1.00  0.00    -0.264 OA
BRANCH  40  42
HETATM   42  O13 UNL     1      -0.039   3.958  -1.777  1.00  0.00    -0.326 OA
HETATM   43  C23 UNL     1      -0.216   5.339  -1.670  1.00  0.00     0.213 C 
ENDBRANCH  40  42
ENDBRANCH  35  40
ENDBRANCH   1  35
TORSDOF 16
