REMARK  16 active torsions:
REMARK  status: ('A' for Active; 'I' for Inactive)
REMARK    1  A    between atoms: O1_2  and  C2_3 
REMARK    2  A    between atoms: C5_6  and  C6_7 
REMARK    3  A    between atoms: C6_7  and  O2_8 
REMARK    4  A    between atoms: O2_8  and  C7_9 
REMARK    5  A    between atoms: C7_9  and  C8_10 
REMARK    6  A    between atoms: C9_12  and  O4_13 
REMARK    7  A    between atoms: O4_13  and  C10_14 
REMARK    8  A    between atoms: C17_21  and  O5_22 
REMARK    9  A    between atoms: C18_24  and  O6_25 
REMARK   10  A    between atoms: O6_25  and  C19_26 
REMARK   11  A    between atoms: C20_28  and  C21_29 
REMARK   12  A    between atoms: C21_29  and  O8_30 
REMARK   13  A    between atoms: C22_32  and  O9_33 
REMARK   14  A    between atoms: C23_35  and  O10_36 
REMARK   15  A    between atoms: C24_38  and  O11_39 
REMARK   16  A    between atoms: C25_41  and  O12_42 
ROOT
HETATM    1  C8  UNL     1       1.359   0.324  -0.866  1.00  0.00     0.179 C 
HETATM    2  O3  UNL     1       0.905   1.648  -0.911  1.00  0.00    -0.348 OA
HETATM    3  C9  UNL     1      -0.303   1.661  -0.214  1.00  0.00     0.292 C 
HETATM    4  C17 UNL     1      -1.308   0.980  -1.096  1.00  0.00     0.205 C 
HETATM    5  C18 UNL     1      -0.932  -0.507  -1.214  1.00  0.00     0.189 C 
HETATM    6  C25 UNL     1       0.469  -0.586  -1.726  1.00  0.00     0.181 C 
ENDROOT
BRANCH   5   7
HETATM    7  O6  UNL     1      -1.880  -1.055  -2.037  1.00  0.00    -0.348 OA
BRANCH   7   8
HETATM    8  C19 UNL     1      -2.658  -2.045  -1.498  1.00  0.00     0.292 C 
HETATM    9  O7  UNL     1      -2.417  -3.186  -2.196  1.00  0.00    -0.348 OA
HETATM   10  C20 UNL     1      -3.363  -4.145  -2.260  1.00  0.00     0.179 C 
HETATM   11  C22 UNL     1      -4.538  -4.024  -1.381  1.00  0.00     0.180 C 
HETATM   12  C23 UNL     1      -5.071  -2.648  -1.151  1.00  0.00     0.183 C 
HETATM   13  C24 UNL     1      -4.080  -1.565  -1.500  1.00  0.00     0.204 C 
BRANCH  10  14
HETATM   14  C21 UNL     1      -3.698  -4.354  -3.739  1.00  0.00     0.198 C 
BRANCH  14  15
HETATM   15  O8  UNL     1      -4.655  -5.316  -3.946  1.00  0.00    -0.398 OA
ATOM     16  H8  UNL     1      -4.863  -5.446  -4.864  1.00  0.00     0.209 HD
ENDBRANCH  14  15
ENDBRANCH  10  14
BRANCH  11  17
HETATM   17  O9  UNL     1      -5.596  -4.826  -1.820  1.00  0.00    -0.390 OA
ATOM     18  H9  UNL     1      -6.354  -4.748  -1.253  1.00  0.00     0.210 HD
ENDBRANCH  11  17
BRANCH  12  19
HETATM   19  O10 UNL     1      -5.510  -2.509   0.188  1.00  0.00    -0.390 OA
ATOM     20  H10 UNL     1      -5.849  -1.634   0.334  1.00  0.00     0.210 HD
ENDBRANCH  12  19
BRANCH  13  21
HETATM   21  O11 UNL     1      -4.417  -0.920  -2.696  1.00  0.00    -0.388 OA
ATOM     22  H11 UNL     1      -5.317  -0.616  -2.697  1.00  0.00     0.210 HD
ENDBRANCH  13  21
ENDBRANCH   7   8
ENDBRANCH   5   7
BRANCH   4  23
HETATM   23  O5  UNL     1      -1.373   1.463  -2.373  1.00  0.00    -0.388 OA
ATOM     24  H5  UNL     1      -2.009   1.032  -2.931  1.00  0.00     0.210 HD
ENDBRANCH   4  23
BRANCH   6  25
HETATM   25  O12 UNL     1       0.604  -0.130  -3.030  1.00  0.00    -0.390 OA
ATOM     26  H12 UNL     1       0.054  -0.693  -3.562  1.00  0.00     0.210 HD
ENDBRANCH   6  25
BRANCH   3  27
HETATM   27  O4  UNL     1      -0.682   2.873   0.276  1.00  0.00    -0.349 OA
BRANCH  27  28
HETATM   28  C10 UNL     1      -0.796   2.940   1.672  1.00  0.00     0.154 A 
HETATM   29  C11 UNL     1      -2.182   3.278   2.040  1.00  0.00     0.005 A 
HETATM   30  C12 UNL     1      -2.565   4.319   2.733  1.00  0.00    -0.002 A 
HETATM   31  C13 UNL     1      -1.566   5.239   3.194  1.00  0.00    -0.004 A 
HETATM   32  C14 UNL     1      -0.330   5.028   2.920  1.00  0.00    -0.020 A 
HETATM   33  C15 UNL     1       0.192   3.909   2.162  1.00  0.00     0.037 A 
HETATM   34  C16 UNL     1       1.035   4.415   0.972  1.00  0.00     0.017 C 
ENDBRANCH  27  28
ENDBRANCH   3  27
BRANCH   1  35
HETATM   35  C7  UNL     1       2.795   0.188  -1.211  1.00  0.00     0.202 C 
BRANCH  35  36
HETATM   36  O2  UNL     1       3.190  -1.125  -1.165  1.00  0.00    -0.384 OA
BRANCH  36  37
HETATM   37  C6  UNL     1       3.109  -1.720   0.062  1.00  0.00     0.206 C 
BRANCH  37  38
HETATM   38  C5  UNL     1       4.003  -1.008   0.993  1.00  0.00    -0.034 A 
HETATM   39  C4  UNL     1       3.534  -0.439   2.143  1.00  0.00     0.012 A 
HETATM   40  C3  UNL     1       4.364   0.230   3.026  1.00  0.00     0.037 A 
HETATM   41  C2  UNL     1       5.711   0.310   2.707  1.00  0.00     0.068 A 
HETATM   42  C27 UNL     1       6.208  -0.257   1.550  1.00  0.00     0.037 A 
HETATM   43  C26 UNL     1       5.342  -0.918   0.695  1.00  0.00     0.012 A 
BRANCH  41  44
HETATM   44  O1  UNL     1       6.572   0.969   3.562  1.00  0.00    -0.356 OA
HETATM   45  C1  UNL     1       7.937   1.046   3.231  1.00  0.00     0.210 C 
ENDBRANCH  41  44
ENDBRANCH  37  38
ENDBRANCH  36  37
ENDBRANCH  35  36
ENDBRANCH   1  35
TORSDOF 16
