REMARK  16 active torsions:
REMARK  status: ('A' for Active; 'I' for Inactive)
REMARK    1  A    between atoms: C2_2  and  C3_3 
REMARK    2  A    between atoms: C3_3  and  C4_4 
REMARK    3  A    between atoms: C3_3  and  N1_8 
REMARK    4  A    between atoms: C4_4  and  C5_5 
REMARK    5  A    between atoms: C5_5  and  O1_6 
REMARK    6  A    between atoms: N1_8  and  C6_10 
REMARK    7  A    between atoms: C6_10  and  C7_11 
REMARK    8  A    between atoms: C8_13  and  O3_14 
REMARK    9  A    between atoms: O3_14  and  C9_15 
REMARK   10  A    between atoms: C13_19  and  O4_20 
REMARK   11  A    between atoms: C16_23  and  O5_24 
REMARK   12  A    between atoms: C19_28  and  O7_29 
REMARK   13  A    between atoms: C20_31  and  O8_32 
REMARK   14  A    between atoms: C21_34  and  C22_35 
REMARK   15  A    between atoms: C24_38  and  C25_39 
REMARK   16  A    between atoms: C25_39  and  O10_40 
ROOT
HETATM    1  C7  UNL     1       2.968  -1.287   0.039  1.00  0.00     0.173 C 
HETATM    2  O2  UNL     1       1.747  -0.668   0.157  1.00  0.00    -0.349 OA
HETATM    3  C8  UNL     1       0.688  -1.343  -0.312  1.00  0.00     0.293 C 
HETATM    4  C21 UNL     1       0.958  -1.877  -1.721  1.00  0.00     0.199 C 
HETATM    5  O9  UNL     1       2.198  -1.460  -2.198  1.00  0.00    -0.367 OA
HETATM    6  C24 UNL     1       3.205  -1.856  -1.278  1.00  0.00     0.176 C 
ENDROOT
BRANCH   3   7
HETATM    7  O3  UNL     1      -0.400  -0.416  -0.386  1.00  0.00    -0.348 OA
BRANCH   7   8
HETATM    8  C9  UNL     1      -1.547  -0.913   0.216  1.00  0.00     0.185 C 
HETATM    9  C10 UNL     1      -2.672  -0.895  -0.772  1.00  0.00     0.154 C 
HETATM   10  C11 UNL     1      -2.665   0.248  -1.739  1.00  0.00     0.037 C 
HETATM   11  O6  UNL     1      -3.897  -1.174  -0.280  1.00  0.00    -0.373 OA
HETATM   12  C12 UNL     1      -2.980   1.590  -1.230  1.00  0.00     0.034 C 
HETATM   13  C13 UNL     1      -4.402   1.901  -0.931  1.00  0.00     0.123 C 
HETATM   14  C15 UNL     1      -4.634   1.642   0.573  1.00  0.00     0.066 C 
HETATM   15  C16 UNL     1      -5.280   0.326   0.827  1.00  0.00     0.154 C 
HETATM   16  C18 UNL     1      -4.274  -0.803   0.947  1.00  0.00     0.182 C 
HETATM   17  C19 UNL     1      -3.243  -0.577   1.981  1.00  0.00     0.180 C 
HETATM   18  C20 UNL     1      -1.868  -0.244   1.521  1.00  0.00     0.181 C 
BRANCH  13  19
HETATM   19  O4  UNL     1      -4.674   3.252  -1.142  1.00  0.00    -0.391 OA
HETATM   20  C14 UNL     1      -5.833   3.479  -1.876  1.00  0.00     0.202 C 
ENDBRANCH  13  19
BRANCH  15  21
HETATM   21  O5  UNL     1      -6.112  -0.018  -0.261  1.00  0.00    -0.388 OA
HETATM   22  C17 UNL     1      -7.428  -0.201   0.128  1.00  0.00     0.202 C 
ENDBRANCH  15  21
BRANCH  17  23
HETATM   23  O7  UNL     1      -3.197  -1.652   2.903  1.00  0.00    -0.390 OA
ATOM     24  H7  UNL     1      -2.534  -1.507   3.568  1.00  0.00     0.210 HD
ENDBRANCH  17  23
BRANCH  18  25
HETATM   25  O8  UNL     1      -0.972  -0.793   2.480  1.00  0.00    -0.390 OA
ATOM     26  H8  UNL     1      -1.175  -0.370   3.306  1.00  0.00     0.210 HD
ENDBRANCH  18  25
ENDBRANCH   7   8
ENDBRANCH   3   7
BRANCH   4  27
HETATM   27  C22 UNL     1       0.711  -3.318  -1.835  1.00  0.00    -0.001 C 
HETATM   28  C23 UNL     1       0.858  -4.238  -0.897  1.00  0.00     0.009 C 
ENDBRANCH   4  27
BRANCH   1  29
HETATM   29  C6  UNL     1       4.066  -0.472   0.687  1.00  0.00     0.149 C 
BRANCH  29  30
HETATM   30  N1  UNL     1       4.132   0.849   0.187  1.00  0.00    -0.411 N 
ATOM     31  H1  UNL     1       3.449   1.167  -0.501  1.00  0.00     0.153 HD
BRANCH  30  32
HETATM   32  C3  UNL     1       5.125   1.716   0.630  1.00  0.00     0.100 C 
BRANCH  32  33
HETATM   33  C2  UNL     1       5.023   1.759   2.162  1.00  0.00    -0.013 C 
HETATM   34  C1  UNL     1       4.541   2.708   2.757  1.00  0.00     0.009 C 
ENDBRANCH  32  33
BRANCH  32  35
HETATM   35  C4  UNL     1       6.540   1.546   0.271  1.00  0.00     0.054 C 
BRANCH  35  36
HETATM   36  C5  UNL     1       6.857   1.514  -1.201  1.00  0.00     0.166 C 
BRANCH  36  37
HETATM   37  O1  UNL     1       6.455   2.672  -1.879  1.00  0.00    -0.401 OA
ATOM     38  H1  UNL     1       6.655   2.652  -2.807  1.00  0.00     0.209 HD
ENDBRANCH  36  37
ENDBRANCH  35  36
ENDBRANCH  32  35
ENDBRANCH  30  32
ENDBRANCH  29  30
ENDBRANCH   1  29
BRANCH   6  39
HETATM   39  C25 UNL     1       4.497  -1.643  -1.977  1.00  0.00     0.198 C 
BRANCH  39  40
HETATM   40  O10 UNL     1       5.611  -2.039  -1.243  1.00  0.00    -0.398 OA
ATOM     41  H10 UNL     1       6.438  -1.903  -1.690  1.00  0.00     0.209 HD
ENDBRANCH  39  40
ENDBRANCH   6  39
TORSDOF 16
