REMARK  18 active torsions:
REMARK  status: ('A' for Active; 'I' for Inactive)
REMARK    1  A    between atoms: C2_2  and  C3_3 
REMARK    2  A    between atoms: C3_3  and  O1_4 
REMARK    3  A    between atoms: O1_4  and  C4_5 
REMARK    4  A    between atoms: C7_8  and  C8_9 
REMARK    5  A    between atoms: C9_10  and  C10_11 
REMARK    6  A    between atoms: C11_12  and  C12_13 
REMARK    7  A    between atoms: C12_13  and  C14_15 
REMARK    8  A    between atoms: C14_15  and  O2_16 
REMARK    9  A    between atoms: O2_16  and  C15_17 
REMARK   10  A    between atoms: C15_17  and  C16_19 
REMARK   11  A    between atoms: C18_21  and  O4_22 
REMARK   12  A    between atoms: C19_24  and  O5_25 
REMARK   13  A    between atoms: C20_27  and  O6_28 
REMARK   14  A    between atoms: O6_28  and  C21_29 
REMARK   15  A    between atoms: C22_31  and  O8_32 
REMARK   16  A    between atoms: C23_34  and  O9_35 
REMARK   17  A    between atoms: C24_37  and  C25_38 
REMARK   18  A    between atoms: C25_38  and  O10_39 
ROOT
HETATM    1  C4  UNL     1      -2.155  -0.969  -0.515  1.00  0.00     0.161 C 
HETATM    2  C5  UNL     1      -1.300  -0.648  -1.722  1.00  0.00     0.058 C 
HETATM    3  C6  UNL     1       0.210  -0.649  -1.440  1.00  0.00     0.021 C 
HETATM    4  C7  UNL     1       0.595   0.727  -1.815  1.00  0.00     0.040 C 
HETATM    5  C18 UNL     1      -0.543   1.503  -1.057  1.00  0.00     0.163 C 
HETATM    6  C19 UNL     1      -1.734   0.798  -1.611  1.00  0.00     0.119 C 
HETATM    7  C20 UNL     1      -2.806   0.385  -0.666  1.00  0.00     0.194 C 
ENDROOT
BRANCH   7   8
HETATM    8  O6  UNL     1      -2.949   1.122   0.491  1.00  0.00    -0.328 OA
BRANCH   8   9
HETATM    9  C21 UNL     1      -4.249   1.535   0.638  1.00  0.00     0.416 C 
HETATM   10  O7  UNL     1      -4.392   2.920   0.694  1.00  0.00    -0.306 OA
HETATM   11  C22 UNL     1      -5.696   3.227   0.401  1.00  0.00     0.293 C 
HETATM   12  C23 UNL     1      -6.689   2.163   0.694  1.00  0.00     0.204 C 
HETATM   13  C24 UNL     1      -6.235   1.120   1.658  1.00  0.00     0.184 C 
HETATM   14  O11 UNL     1      -4.858   1.025   1.781  1.00  0.00    -0.329 OA
BRANCH  11  15
HETATM   15  O8  UNL     1      -5.753   3.599  -0.958  1.00  0.00    -0.368 OA
ATOM     16  H8  UNL     1      -6.656   3.812  -1.161  1.00  0.00     0.212 HD
ENDBRANCH  11  15
BRANCH  12  17
HETATM   17  O9  UNL     1      -7.917   2.734   1.093  1.00  0.00    -0.388 OA
ATOM     18  H9  UNL     1      -8.552   2.053   1.280  1.00  0.00     0.210 HD
ENDBRANCH  12  17
BRANCH  13  19
HETATM   19  C25 UNL     1      -6.796  -0.261   1.301  1.00  0.00     0.199 C 
BRANCH  19  20
HETATM   20  O10 UNL     1      -6.450  -1.119   2.326  1.00  0.00    -0.398 OA
ATOM     21  H10 UNL     1      -6.798  -1.975   2.105  1.00  0.00     0.209 HD
ENDBRANCH  19  20
ENDBRANCH  13  19
ENDBRANCH   8   9
ENDBRANCH   7   8
BRANCH   1  22
HETATM   22  O1  UNL     1      -3.001  -2.012  -0.791  1.00  0.00    -0.379 OA
BRANCH  22  23
HETATM   23  C3  UNL     1      -2.923  -3.072   0.085  1.00  0.00     0.195 C 
BRANCH  23  24
HETATM   24  C2  UNL     1      -1.612  -3.710   0.165  1.00  0.00    -0.011 C 
HETATM   25  C1  UNL     1      -1.399  -5.003  -0.129  1.00  0.00     0.009 C 
ENDBRANCH  23  24
ENDBRANCH  22  23
ENDBRANCH   1  22
BRANCH   6  26
HETATM   26  O5  UNL     1      -2.157   1.369  -2.810  1.00  0.00    -0.384 OA
ATOM     27  H5  UNL     1      -2.429   2.276  -2.740  1.00  0.00     0.210 HD
ENDBRANCH   6  26
BRANCH   5  28
HETATM   28  O4  UNL     1      -0.374   1.378   0.301  1.00  0.00    -0.392 OA
ATOM     29  H4  UNL     1      -1.062   1.847   0.759  1.00  0.00     0.210 HD
ENDBRANCH   5  28
BRANCH   4  30
HETATM   30  C8  UNL     1       1.873   1.271  -1.493  1.00  0.00    -0.019 C 
HETATM   31  C9  UNL     1       2.943   0.801  -0.983  1.00  0.00    -0.004 C 
BRANCH  31  32
HETATM   32  C10 UNL     1       3.271  -0.511  -0.526  1.00  0.00    -0.004 C 
HETATM   33  C11 UNL     1       4.357  -0.988   0.004  1.00  0.00    -0.020 C 
BRANCH  33  34
HETATM   34  C12 UNL     1       5.650  -0.443   0.357  1.00  0.00     0.028 C 
HETATM   35  C13 UNL     1       5.867   1.012   0.403  1.00  0.00     0.016 C 
BRANCH  34  36
HETATM   36  C14 UNL     1       6.747  -1.153  -0.451  1.00  0.00     0.187 C 
BRANCH  36  37
HETATM   37  O2  UNL     1       7.987  -0.657  -0.139  1.00  0.00    -0.318 OA
BRANCH  37  38
HETATM   38  C15 UNL     1       8.659  -0.696   1.057  1.00  0.00     0.282 C 
HETATM   39  O3  UNL     1       8.113  -1.255   2.031  1.00  0.00    -0.260 OA
BRANCH  38  40
HETATM   40  C16 UNL     1       9.990  -0.089   1.169  1.00  0.00     0.072 C 
HETATM   41  C17 UNL     1      10.615  -0.137   2.321  1.00  0.00     0.017 C 
ENDBRANCH  38  40
ENDBRANCH  37  38
ENDBRANCH  36  37
ENDBRANCH  34  36
ENDBRANCH  33  34
ENDBRANCH  31  32
ENDBRANCH   4  30
TORSDOF 18
