REMARK  17 active torsions:
REMARK  status: ('A' for Active; 'I' for Inactive)
REMARK    1  A    between atoms: O1_2  and  C2_3 
REMARK    2  A    between atoms: C2_3  and  C3_4 
REMARK    3  A    between atoms: C2_3  and  C13_21 
REMARK    4  A    between atoms: C4_5  and  C5_6 
REMARK    5  A    between atoms: C5_6  and  O2_7 
REMARK    6  A    between atoms: C6_9  and  C7_10 
REMARK    7  A    between atoms: C7_10  and  C8_11 
REMARK    8  A    between atoms: C8_11  and  N1_12 
REMARK       I    between atoms: N1_12  and  C9_14 
REMARK    9  A    between atoms: C9_14  and  C10_16 
REMARK   10  A    between atoms: C10_16  and  O4_19 
REMARK   11  A    between atoms: C13_21  and  O5_22 
REMARK   12  A    between atoms: C13_21  and  C14_24 
REMARK   13  A    between atoms: C14_24  and  C16_26 
REMARK   14  A    between atoms: C17_28  and  O7_29 
REMARK   15  A    between atoms: O7_29  and  C18_30 
REMARK   16  A    between atoms: C21_33  and  O8_34 
REMARK   17  A    between atoms: C22_36  and  C23_37 
ROOT
HETATM    1  C2  UNL     1       0.431  -2.416   0.324  1.00  0.00     0.172 C 
ENDROOT
BRANCH   1   2
HETATM    2  O1  UNL     1      -0.358  -3.409   0.969  1.00  0.00    -0.384 OA
HETATM    3  C1  UNL     1       0.162  -3.798   2.176  1.00  0.00     0.202 C 
ENDBRANCH   1   2
BRANCH   1   4
HETATM    4  C3  UNL     1       0.801  -2.833  -1.016  1.00  0.00     0.010 C 
HETATM    5  C4  UNL     1       1.804  -2.665  -1.772  1.00  0.00     0.035 C 
BRANCH   5   6
HETATM    6  C5  UNL     1       3.050  -2.028  -1.766  1.00  0.00     0.065 C 
HETATM    7  C6  UNL     1       3.867  -1.224  -0.951  1.00  0.00     0.038 C 
BRANCH   6   8
HETATM    8  O2  UNL     1       3.709  -2.257  -2.957  1.00  0.00    -0.361 OA
ATOM      9  H2  UNL     1       4.555  -1.825  -2.953  1.00  0.00     0.217 HD
ENDBRANCH   6   8
BRANCH   7  10
HETATM   10  C7  UNL     1       3.757  -0.705   0.220  1.00  0.00     0.020 C 
BRANCH  10  11
HETATM   11  C8  UNL     1       4.857   0.112   0.779  1.00  0.00     0.091 C 
BRANCH  11  12
HETATM   12  N1  UNL     1       5.921   0.297   0.085  1.00  0.00    -0.335 N 
HETATM   13  C9  UNL     1       7.004   1.065   0.560  1.00  0.00     0.255 C 
HETATM   14  O3  UNL     1       7.001   1.395   1.784  1.00  0.00    -0.270 OA
ATOM     15  H1  UNL     1       5.985  -0.126  -0.841  1.00  0.00     0.168 HD
BRANCH  13  16
HETATM   16  C10 UNL     1       8.120   1.486  -0.312  1.00  0.00     0.131 C 
HETATM   17  C11 UNL     1       7.584   2.334  -1.443  1.00  0.00     0.056 C 
HETATM   18  C12 UNL     1       8.831   0.302  -0.932  1.00  0.00     0.056 C 
BRANCH  16  19
HETATM   19  O4  UNL     1       9.036   2.228   0.427  1.00  0.00    -0.381 OA
ATOM     20  H4  UNL     1       9.754   2.499  -0.134  1.00  0.00     0.211 HD
ENDBRANCH  16  19
ENDBRANCH  13  16
ENDBRANCH  11  12
ENDBRANCH  10  11
ENDBRANCH   7  10
ENDBRANCH   5   6
ENDBRANCH   1   4
BRANCH   1  21
HETATM   21  C13 UNL     1      -0.426  -1.192   0.244  1.00  0.00     0.159 C 
BRANCH  21  22
HETATM   22  O5  UNL     1       0.271  -0.135  -0.366  1.00  0.00    -0.392 OA
ATOM     23  H5  UNL     1      -0.273   0.642  -0.417  1.00  0.00     0.210 HD
ENDBRANCH  21  22
BRANCH  21  24
HETATM   24  C14 UNL     1      -1.723  -1.354  -0.497  1.00  0.00     0.069 C 
HETATM   25  C15 UNL     1      -2.580  -2.387   0.175  1.00  0.00     0.017 C 
BRANCH  24  26
HETATM   26  C16 UNL     1      -2.413   0.012  -0.432  1.00  0.00     0.270 C 
HETATM   27  O6  UNL     1      -3.622   0.004  -1.077  1.00  0.00    -0.328 OA
HETATM   28  C17 UNL     1      -4.224   1.246  -0.935  1.00  0.00     0.295 C 
HETATM   29  C21 UNL     1      -3.408   2.231  -0.135  1.00  0.00     0.212 C 
HETATM   30  C22 UNL     1      -3.009   1.582   1.157  1.00  0.00     0.258 C 
HETATM   31  O11 UNL     1      -2.583   0.298   0.906  1.00  0.00    -0.342 OA
BRANCH  28  32
HETATM   32  O7  UNL     1      -5.416   1.044  -0.233  1.00  0.00    -0.354 OA
BRANCH  32  33
HETATM   33  C18 UNL     1      -6.524   1.463  -0.966  1.00  0.00     0.116 C 
HETATM   34  C19 UNL     1      -7.287   2.464  -0.133  1.00  0.00     0.039 C 
HETATM   35  C20 UNL     1      -7.465   0.285  -1.242  1.00  0.00     0.039 C 
ENDBRANCH  32  33
ENDBRANCH  28  32
BRANCH  29  36
HETATM   36  O8  UNL     1      -4.149   3.401   0.071  1.00  0.00    -0.387 OA
ATOM     37  H8  UNL     1      -3.635   4.021   0.575  1.00  0.00     0.210 HD
ENDBRANCH  29  36
BRANCH  30  38
HETATM   38  C23 UNL     1      -4.125   1.630   2.141  1.00  0.00     0.206 C 
HETATM   39  O9  UNL     1      -4.591   2.757   2.443  1.00  0.00    -0.646 OA
HETATM   40  O10 UNL     1      -4.669   0.518   2.732  1.00  0.00    -0.646 OA
ENDBRANCH  30  38
ENDBRANCH  24  26
ENDBRANCH  21  24
ENDBRANCH   1  21
TORSDOF 17
