REMARK  6 active torsions:
REMARK  status: ('A' for Active; 'I' for Inactive)
REMARK    1  A    between atoms: O1_2  and  C2_3 
REMARK    2  A    between atoms: C2_3  and  C3_5 
REMARK    3  A    between atoms: N1_10  and  C8_12 
REMARK    4  A    between atoms: C10_14  and  O3_15 
REMARK    5  A    between atoms: C12_17  and  O4_18 
REMARK    6  A    between atoms: C14_20  and  O5_21 
ROOT
HETATM    1  C3  UNL     1       3.022  -0.292  -0.463  1.00  0.00     0.124 C 
HETATM    2  C4  UNL     1       1.884   0.572  -0.020  1.00  0.00     0.005 C 
HETATM    3  C5  UNL     1       1.547   1.658  -1.051  1.00  0.00     0.011 C 
HETATM    4  C6  UNL     1       0.625  -0.160   0.311  1.00  0.00     0.089 C 
HETATM    5  C7  UNL     1       0.411  -1.230  -0.669  1.00  0.00     0.120 C 
HETATM    6  N1  UNL     1      -0.780  -1.428  -1.129  1.00  0.00    -0.327 N 
ATOM      7  H1  UNL     1      -0.938  -2.170  -1.811  1.00  0.00     0.169 HD
HETATM    8  O6  UNL     1       1.496  -1.997  -1.074  1.00  0.00    -0.328 OA
HETATM    9  C16 UNL     1       2.735  -1.760  -0.423  1.00  0.00     0.075 C 
HETATM   10  C17 UNL     1       3.788  -2.451  -1.286  1.00  0.00     0.047 C 
HETATM   11  C18 UNL     1       2.719  -2.368   0.941  1.00  0.00     0.047 C 
ENDROOT
BRANCH   6  12
HETATM   12  C8  UNL     1      -1.873  -0.630  -0.700  1.00  0.00     0.111 A 
HETATM   13  C9  UNL     1      -2.395  -0.909   0.567  1.00  0.00     0.088 A 
HETATM   14  C10 UNL     1      -3.470  -0.133   1.000  1.00  0.00     0.109 A 
HETATM   15  C12 UNL     1      -3.992   0.866   0.210  1.00  0.00     0.153 A 
HETATM   16  C14 UNL     1      -3.449   1.108  -1.031  1.00  0.00     0.180 A 
HETATM   17  N2  UNL     1      -2.394   0.356  -1.471  1.00  0.00    -0.321 N 
ATOM     18  H2  UNL     1      -1.994   0.540  -2.391  1.00  0.00     0.169 HD
BRANCH  14  19
HETATM   19  O3  UNL     1      -4.043  -0.346   2.240  1.00  0.00    -0.353 OA
HETATM   20  C11 UNL     1      -3.501  -1.373   3.044  1.00  0.00     0.210 C 
ENDBRANCH  14  19
BRANCH  15  21
HETATM   21  O4  UNL     1      -5.039   1.602   0.665  1.00  0.00    -0.349 OA
HETATM   22  C13 UNL     1      -6.402   1.289   0.469  1.00  0.00     0.210 C 
ENDBRANCH  15  21
BRANCH  16  23
HETATM   23  O5  UNL     1      -3.993   2.121  -1.809  1.00  0.00    -0.339 OA
HETATM   24  C15 UNL     1      -3.427   2.361  -3.080  1.00  0.00     0.211 C 
ENDBRANCH  16  23
ENDBRANCH   6  12
BRANCH   1  25
HETATM   25  C2  UNL     1       4.232   0.071   0.317  1.00  0.00     0.266 C 
HETATM   26  O2  UNL     1       4.805  -0.785   1.033  1.00  0.00    -0.265 OA
BRANCH  25  27
HETATM   27  O1  UNL     1       4.766   1.348   0.284  1.00  0.00    -0.326 OA
HETATM   28  C1  UNL     1       5.929   1.697   1.034  1.00  0.00     0.213 C 
ENDBRANCH  25  27
ENDBRANCH   1  25
TORSDOF 6
