REMARK  7 active torsions:
REMARK  status: ('A' for Active; 'I' for Inactive)
REMARK    1  A    between atoms: C2_2  and  O1_3 
REMARK    2  A    between atoms: O1_3  and  C3_4 
REMARK    3  A    between atoms: C3_4  and  C4_6 
REMARK    4  A    between atoms: N1_9  and  C7_10 
REMARK    5  A    between atoms: C10_14  and  C11_15 
REMARK    6  A    between atoms: C11_15  and  O4_17 
REMARK    7  A    between atoms: C13_19  and  N2_20 
ROOT
HETATM    1  C7  UNL     1      -1.258  -0.735   0.620  1.00  0.00     0.110 A 
HETATM    2  S1  UNL     1      -1.987  -0.435   2.179  1.00  0.00    -0.074 SA
HETATM    3  C8  UNL     1      -3.534   0.035   1.682  1.00  0.00    -0.000 A 
HETATM    4  C9  UNL     1      -4.712   0.449   2.539  1.00  0.00     0.057 C 
HETATM    5  C10 UNL     1      -3.470  -0.046   0.325  1.00  0.00     0.088 A 
HETATM    6  C13 UNL     1      -2.284  -0.448  -0.220  1.00  0.00     0.154 A 
ENDROOT
BRANCH   1   7
HETATM    7  N1  UNL     1       0.082  -1.169   0.418  1.00  0.00    -0.353 N 
HETATM    8  C6  UNL     1       0.693  -1.332  -0.831  1.00  0.00     0.065 C 
HETATM    9  C5  UNL     1       2.189  -1.347  -0.844  1.00  0.00     0.059 C 
HETATM   10  C4  UNL     1       2.916  -1.511   0.419  1.00  0.00     0.092 C 
HETATM   11  C15 UNL     1       2.217  -0.778   1.534  1.00  0.00     0.035 C 
HETATM   12  C14 UNL     1       0.845  -1.462   1.648  1.00  0.00     0.129 C 
BRANCH  10  13
HETATM   13  C3  UNL     1       4.294  -0.947   0.250  1.00  0.00     0.263 C 
HETATM   14  O2  UNL     1       5.272  -1.692   0.390  1.00  0.00    -0.265 OA
BRANCH  13  15
HETATM   15  O1  UNL     1       4.473   0.385  -0.057  1.00  0.00    -0.322 OA
BRANCH  15  16
HETATM   16  C2  UNL     1       5.732   0.958  -0.224  1.00  0.00     0.174 C 
HETATM   17  C1  UNL     1       5.621   2.424  -0.549  1.00  0.00     0.034 C 
ENDBRANCH  15  16
ENDBRANCH  13  15
ENDBRANCH  10  13
ENDBRANCH   1   7
BRANCH   6  18
HETATM   18  N2  UNL     1      -2.190  -0.556  -1.681  1.00  0.00    -0.112 N 
HETATM   19  O5  UNL     1      -2.200  -1.645  -2.266  1.00  0.00    -0.532 OA
HETATM   20  O6  UNL     1      -2.110   0.589  -2.428  1.00  0.00    -0.532 OA
ENDBRANCH   6  18
BRANCH   5  21
HETATM   21  C11 UNL     1      -4.698   0.312  -0.472  1.00  0.00     0.296 C 
HETATM   22  O3  UNL     1      -5.554  -0.539  -0.774  1.00  0.00    -0.259 OA
BRANCH  21  23
HETATM   23  O4  UNL     1      -4.890   1.619  -0.885  1.00  0.00    -0.322 OA
HETATM   24  C12 UNL     1      -6.006   2.055  -1.633  1.00  0.00     0.213 C 
ENDBRANCH  21  23
ENDBRANCH   5  21
TORSDOF 7
