REMARK  4 active torsions:
REMARK  status: ('A' for Active; 'I' for Inactive)
REMARK    1  A    between atoms: C2_2  and  C10_15 
REMARK    2  A    between atoms: N1_3  and  N2_5 
REMARK       I    between atoms: N2_5  and  C3_7 
REMARK    3  A    between atoms: C3_7  and  C4_9 
REMARK    4  A    between atoms: C10_15  and  C13_18 
ROOT
HETATM    1  C1  UNL     1      -1.065  -1.658   0.300  1.00  0.00     0.066 C 
HETATM    2  C2  UNL     1      -1.264  -0.248  -0.081  1.00  0.00     0.008 C 
HETATM    3  N1  UNL     1      -0.300   0.569   0.139  1.00  0.00    -0.306 N 
ATOM      4  H1  UNL     1      -0.439   1.544  -0.125  1.00  0.00     0.186 HD
ENDROOT
BRANCH   3   5
HETATM    5  N2  UNL     1       0.912   0.228   0.707  1.00  0.00    -0.270 N 
HETATM    6  C3  UNL     1       2.013  -0.246  -0.050  1.00  0.00     0.240 C 
HETATM    7  O1  UNL     1       1.926  -0.377  -1.296  1.00  0.00    -0.271 OA
ATOM      8  H2  UNL     1       1.020   0.321   1.717  1.00  0.00     0.190 HD
BRANCH   6   9
HETATM    9  C4  UNL     1       3.301  -0.603   0.591  1.00  0.00     0.079 C 
HETATM   10  C5  UNL     1       3.886   0.593   1.298  1.00  0.00     0.014 C 
HETATM   11  C6  UNL     1       4.663   1.494   0.379  1.00  0.00     0.001 C 
HETATM   12  C7  UNL     1       5.801   0.680  -0.200  1.00  0.00     0.000 C 
HETATM   13  C8  UNL     1       5.203  -0.406  -1.040  1.00  0.00     0.001 C 
HETATM   14  C9  UNL     1       4.246  -1.290  -0.327  1.00  0.00     0.014 C 
ENDBRANCH   6   9
ENDBRANCH   3   5
BRANCH   2  15
HETATM   15  C10 UNL     1      -2.497   0.233  -0.688  1.00  0.00    -0.001 C 
HETATM   16  C11 UNL     1      -2.418   1.739  -0.989  1.00  0.00     0.022 C 
HETATM   17  C12 UNL     1      -2.652  -0.442  -2.043  1.00  0.00     0.022 C 
BRANCH  15  18
HETATM   18  C13 UNL     1      -3.750   0.028   0.096  1.00  0.00    -0.039 C 
HETATM   19  C14 UNL     1      -4.105  -1.380   0.418  1.00  0.00     0.015 C 
HETATM   20  C15 UNL     1      -3.762   0.825   1.389  1.00  0.00     0.015 C 
HETATM   21  C16 UNL     1      -4.900   0.588  -0.753  1.00  0.00     0.015 C 
ENDBRANCH  15  18
ENDBRANCH   2  15
TORSDOF 4
