REMARK  2 active torsions:
REMARK  status: ('A' for Active; 'I' for Inactive)
REMARK    1  A    between atoms: C2_2  and  C3_3 
REMARK    2  A    between atoms: C3_3  and  C4_4 
ROOT
HETATM    1  C3  UNL     1       1.340   0.361   0.180  1.00  0.00     0.005 C 
HETATM    2  C7  UNL     1       0.591   0.368   1.463  1.00  0.00     0.180 C 
HETATM    3  O1  UNL     1      -0.624  -0.212   1.302  1.00  0.00    -0.379 OA
HETATM    4  C8  UNL     1      -0.889  -0.426  -0.018  1.00  0.00     0.066 C 
HETATM    5  C9  UNL     1      -1.379  -1.847  -0.187  1.00  0.00     0.038 C 
HETATM    6  C10 UNL     1      -2.759  -2.047   0.370  1.00  0.00     0.003 C 
HETATM    7  C11 UNL     1      -3.738  -1.003  -0.040  1.00  0.00     0.005 C 
HETATM    8  C12 UNL     1      -3.211   0.129  -0.815  1.00  0.00    -0.008 C 
HETATM    9  C13 UNL     1      -3.729   1.459  -0.246  1.00  0.00     0.005 C 
HETATM   10  C14 UNL     1      -2.389   1.572   0.491  1.00  0.00     0.008 C 
HETATM   11  C15 UNL     1      -1.842   0.591  -0.522  1.00  0.00     0.024 C 
HETATM   12  C16 UNL     1       0.417  -0.323  -0.779  1.00  0.00     0.052 C 
ENDROOT
BRANCH   1  13
HETATM   13  C2  UNL     1       1.641   1.758  -0.320  1.00  0.00     0.009 C 
HETATM   14  C1  UNL     1       2.469   2.560   0.628  1.00  0.00     0.006 C 
ENDBRANCH   1  13
BRANCH   1  15
HETATM   15  C4  UNL     1       2.645  -0.345   0.380  1.00  0.00     0.110 C 
HETATM   16  C5  UNL     1       3.483  -0.477  -0.833  1.00  0.00     0.146 C 
HETATM   17  N1  UNL     1       4.143  -1.765  -0.627  1.00  0.00    -0.384 N 
HETATM   18  C6  UNL     1       3.325  -2.501   0.271  1.00  0.00     0.171 C 
ATOM     19  H1  UNL     1       5.020  -2.075  -1.046  1.00  0.00     0.160 HD
HETATM   20  N2  UNL     1       2.483  -1.708   0.839  1.00  0.00    -0.379 N 
ATOM     21  H2  UNL     1       1.789  -2.004   1.526  1.00  0.00     0.160 HD
ENDBRANCH   1  15
TORSDOF 2
