REMARK  2 active torsions:
REMARK  status: ('A' for Active; 'I' for Inactive)
REMARK    1  A    between atoms: C6_10  and  C7_11 
REMARK    2  A    between atoms: C7_11  and  C8_12 
ROOT
HETATM    1  C1  UNL     1      -2.444  -0.782   1.589  1.00  0.00     0.039 C 
HETATM    2  C2  UNL     1      -2.658   0.135   0.392  1.00  0.00     0.039 C 
HETATM    3  C3  UNL     1      -4.052   0.668   0.384  1.00  0.00     0.039 C 
HETATM    4  N1  UNL     1      -1.676   1.181   0.432  1.00  0.00    -0.377 N 
ATOM      5  H1  UNL     1      -1.970   2.154   0.346  1.00  0.00     0.160 HD
HETATM    6  C4  UNL     1      -0.296   0.873   0.591  1.00  0.00     0.078 A 
HETATM    7  C5  UNL     1       0.547   1.801   1.200  1.00  0.00     0.121 A 
HETATM    8  N2  UNL     1       1.853   1.518   1.355  1.00  0.00    -0.353 N 
ATOM      9  H2  UNL     1       2.469   2.198   1.801  1.00  0.00     0.166 HD
HETATM   10  C6  UNL     1       2.353   0.345   0.926  1.00  0.00     0.082 A 
HETATM   11  N3  UNL     1       1.549  -0.556   0.338  1.00  0.00    -0.339 N 
ATOM     12  H3  UNL     1       1.944  -1.441   0.019  1.00  0.00     0.168 HD
HETATM   13  C11 UNL     1       0.240  -0.322   0.160  1.00  0.00     0.100 A 
HETATM   14  S1  UNL     1      -0.833  -1.540  -0.633  1.00  0.00    -0.098 SA
HETATM   15  C12 UNL     1      -2.437  -0.694  -0.873  1.00  0.00     0.032 C 
HETATM   16  C13 UNL     1      -2.297   0.180  -2.087  1.00  0.00     0.030 C 
HETATM   17  C14 UNL     1      -3.567  -1.654  -1.006  1.00  0.00     0.030 C 
ENDROOT
BRANCH  10  18
HETATM   18  C7  UNL     1       3.788  -0.012   1.074  1.00  0.00     0.081 C 
BRANCH  18  19
HETATM   19  C8  UNL     1       4.547   0.442  -0.136  1.00  0.00    -0.007 A 
HETATM   20  C9  UNL     1       5.987   0.242  -0.304  1.00  0.00     0.005 A 
HETATM   21  C10 UNL     1       5.064  -0.681  -1.060  1.00  0.00     0.005 A 
ENDBRANCH  18  19
ENDBRANCH  10  18
TORSDOF 2
