REMARK  12 active torsions:
REMARK  status: ('A' for Active; 'I' for Inactive)
REMARK    1  A    between atoms: C2_2  and  C3_4 
REMARK    2  A    between atoms: C3_4  and  C4_5 
REMARK    3  A    between atoms: C5_6  and  O2_7 
REMARK    4  A    between atoms: C9_12  and  C10_13 
REMARK    5  A    between atoms: C11_14  and  C12_15 
REMARK    6  A    between atoms: C12_15  and  N1_16 
REMARK    7  A    between atoms: N1_16  and  C13_19 
REMARK    8  A    between atoms: C13_19  and  O3_20 
REMARK    9  A    between atoms: O3_20  and  C14_21 
REMARK   10  A    between atoms: C14_21  and  C15_23 
REMARK   11  A    between atoms: C16_24  and  C17_25 
REMARK   12  A    between atoms: C21_31  and  C22_32 
ROOT
HETATM    1  C4  UNL     1      -3.872  -0.899  -1.057  1.00  0.00     0.021 C 
HETATM    2  C5  UNL     1      -2.963  -1.683  -1.950  1.00  0.00     0.168 C 
HETATM    3  C6  UNL     1      -1.833  -0.795  -2.492  1.00  0.00     0.077 C 
HETATM    4  C7  UNL     1      -0.915  -0.420  -1.388  1.00  0.00    -0.046 A 
HETATM    5  C8  UNL     1       0.375  -0.762  -1.697  1.00  0.00     0.028 A 
HETATM    6  C9  UNL     1       1.425  -0.542  -0.789  1.00  0.00     0.018 A 
HETATM    7  C18 UNL     1       1.118   0.031   0.425  1.00  0.00     0.021 A 
HETATM    8  C19 UNL     1      -0.196   0.374   0.725  1.00  0.00     0.011 A 
HETATM    9  C20 UNL     1      -1.214   0.163  -0.151  1.00  0.00    -0.029 A 
HETATM   10  C21 UNL     1      -2.528   0.561   0.257  1.00  0.00     0.121 C 
HETATM   11  N2  UNL     1      -3.414  -0.582   0.240  1.00  0.00    -0.380 N 
HETATM   12  C27 UNL     1      -3.211  -1.555   1.214  1.00  0.00     0.150 C 
ENDROOT
BRANCH   6  13
HETATM   13  C10 UNL     1       2.777  -0.913  -1.143  1.00  0.00    -0.065 C 
HETATM   14  C11 UNL     1       3.900  -1.220  -1.459  1.00  0.00    -0.073 C 
BRANCH  14  15
HETATM   15  C12 UNL     1       5.261  -1.605  -1.869  1.00  0.00     0.328 C 
BRANCH  15  16
HETATM   16  N1  UNL     1       6.207  -0.696  -1.280  1.00  0.00    -0.044 N 
ATOM     17  H12 UNL     1       7.130  -0.783  -1.704  1.00  0.00     0.280 HD
ATOM     18  H11 UNL     1       6.012   0.272  -1.536  1.00  0.00     0.280 HD
BRANCH  16  19
HETATM   19  C13 UNL     1       6.257  -0.871   0.152  1.00  0.00     0.411 C 
BRANCH  19  20
HETATM   20  O3  UNL     1       7.191   0.038   0.688  1.00  0.00    -0.291 OA
BRANCH  20  21
HETATM   21  C14 UNL     1       7.053   1.409   0.544  1.00  0.00     0.284 C 
HETATM   22  O4  UNL     1       6.035   1.848  -0.102  1.00  0.00    -0.260 OA
BRANCH  21  23
HETATM   23  C15 UNL     1       7.987   2.384   1.077  1.00  0.00     0.081 C 
HETATM   24  C16 UNL     1       9.080   2.116   1.758  1.00  0.00     0.015 C 
BRANCH  24  25
HETATM   25  C17 UNL     1       9.540   0.761   2.095  1.00  0.00     0.201 C 
HETATM   26 CL1  UNL     1      11.262   0.873   2.619  1.00  0.00    -0.104 Cl
HETATM   27 CL2  UNL     1       8.608   0.059   3.437  1.00  0.00    -0.104 Cl
ENDBRANCH  24  25
ENDBRANCH  21  23
ENDBRANCH  20  21
ENDBRANCH  19  20
ENDBRANCH  16  19
ENDBRANCH  15  16
ENDBRANCH  14  15
ENDBRANCH   6  13
BRANCH   2  28
HETATM   28  O2  UNL     1      -2.422  -2.827  -1.421  1.00  0.00    -0.389 OA
ATOM     29  H2  UNL     1      -1.845  -3.325  -1.988  1.00  0.00     0.210 HD
ENDBRANCH   2  28
BRANCH  10  30
HETATM   30  C22 UNL     1      -2.740   1.428   1.418  1.00  0.00     0.013 C 
HETATM   31  C23 UNL     1      -2.184   2.791   1.248  1.00  0.00     0.007 C 
HETATM   32  C24 UNL     1      -3.009   3.597   2.261  1.00  0.00     0.000 C 
HETATM   33  C25 UNL     1      -4.392   3.132   1.953  1.00  0.00     0.000 C 
HETATM   34  C26 UNL     1      -4.251   1.733   1.463  1.00  0.00     0.007 C 
ENDBRANCH  10  30
BRANCH   1  35
HETATM   35  C3  UNL     1      -5.334  -1.245  -1.176  1.00  0.00     0.132 C 
BRANCH  35  36
HETATM   36  C2  UNL     1      -5.743  -2.598  -0.878  1.00  0.00     0.128 C 
HETATM   37  C1  UNL     1      -7.184  -2.946  -1.011  1.00  0.00     0.091 C 
HETATM   38  O1  UNL     1      -4.979  -3.458  -0.529  1.00  0.00    -0.298 OA
ENDBRANCH  35  36
ENDBRANCH   1  35
TORSDOF 12
