REMARK  9 active torsions:
REMARK  status: ('A' for Active; 'I' for Inactive)
REMARK       I    between atoms: C2_2  and  N1_4 
REMARK    1  A    between atoms: C5_7  and  O2_8 
REMARK    2  A    between atoms: C5_7  and  C6_10 
REMARK    3  A    between atoms: C6_10  and  C7_11 
REMARK    4  A    between atoms: C9_13  and  C10_14 
REMARK    5  A    between atoms: C12_16  and  N2_17 
REMARK       I    between atoms: N2_17  and  C13_19 
REMARK    6  A    between atoms: C13_19  and  C14_21 
REMARK    7  A    between atoms: C14_21  and  C15_22 
REMARK    8  A    between atoms: C15_22  and  C16_23 
REMARK    9  A    between atoms: C16_23  and  N3_24 
ROOT
HETATM    1  C10 UNL     1      -0.038  -2.063   0.995  1.00  0.00     0.015 A 
HETATM    2  C11 UNL     1       0.907  -1.093   1.262  1.00  0.00     0.044 A 
HETATM    3  C12 UNL     1       2.276  -1.383   1.364  1.00  0.00     0.038 A 
HETATM    4  C21 UNL     1       2.594  -2.705   1.176  1.00  0.00     0.073 A 
HETATM    5  C22 UNL     1       1.652  -3.681   0.908  1.00  0.00     0.141 A 
HETATM    6  F1  UNL     1       2.001  -4.985   0.727  1.00  0.00    -0.204 F 
HETATM    7  C23 UNL     1       0.300  -3.374   0.812  1.00  0.00     0.085 A 
HETATM    8 CL1  UNL     1      -0.859  -4.649   0.470  1.00  0.00    -0.080 Cl
ENDROOT
BRANCH   1   9
HETATM    9  C9  UNL     1      -1.459  -1.646   0.907  1.00  0.00     0.046 A 
HETATM   10  C8  UNL     1      -2.658  -2.433   0.638  1.00  0.00     0.094 A 
HETATM   11  C7  UNL     1      -3.818  -1.452   0.656  1.00  0.00     0.160 A 
HETATM   12  O4  UNL     1      -3.188  -0.253   0.950  1.00  0.00    -0.274 OA
HETATM   13  N4  UNL     1      -1.853  -0.404   1.074  1.00  0.00    -0.270 N 
ATOM     14  H4  UNL     1      -1.216   0.366   1.276  1.00  0.00     0.194 HD
BRANCH  11  15
HETATM   15  C6  UNL     1      -4.425  -1.369  -0.718  1.00  0.00     0.072 C 
BRANCH  15  16
HETATM   16  C5  UNL     1      -5.585  -0.420  -0.796  1.00  0.00     0.063 C 
HETATM   17  C4  UNL     1      -5.219   1.001  -0.432  1.00  0.00     0.057 C 
HETATM   18  C3  UNL     1      -6.328   1.888  -0.976  1.00  0.00     0.128 C 
HETATM   19  N1  UNL     1      -7.588   1.330  -0.502  1.00  0.00    -0.352 N 
HETATM   20  C2  UNL     1      -8.834   1.742  -1.000  1.00  0.00     0.215 C 
HETATM   21  C25 UNL     1      -7.531   0.300   0.535  1.00  0.00     0.128 C 
HETATM   22  C1  UNL     1      -8.885   2.786  -2.050  1.00  0.00     0.117 C 
HETATM   23  O1  UNL     1      -9.887   1.243  -0.573  1.00  0.00    -0.274 OA
HETATM   24  C24 UNL     1      -6.780  -0.888  -0.021  1.00  0.00     0.057 C 
BRANCH  16  25
HETATM   25  O2  UNL     1      -5.967  -0.376  -2.155  1.00  0.00    -0.390 OA
ATOM     26  H2  UNL     1      -6.197  -1.269  -2.384  1.00  0.00     0.210 HD
ENDBRANCH  16  25
ENDBRANCH  15  16
ENDBRANCH  11  15
ENDBRANCH   1   9
BRANCH   3  27
HETATM   27  N2  UNL     1       3.169  -0.339   1.630  1.00  0.00    -0.327 N 
HETATM   28  C13 UNL     1       4.550  -0.468   1.854  1.00  0.00     0.222 C 
HETATM   29  O3  UNL     1       5.215  -1.527   1.856  1.00  0.00    -0.273 OA
ATOM     30  H2  UNL     1       2.781   0.604   1.664  1.00  0.00     0.169 HD
BRANCH  28  31
HETATM   31  C14 UNL     1       5.373   0.770   2.126  1.00  0.00     0.105 C 
BRANCH  31  32
HETATM   32  C15 UNL     1       6.841   0.498   2.173  1.00  0.00     0.039 C 
BRANCH  32  33
HETATM   33  C16 UNL     1       7.409  -0.009   0.895  1.00  0.00     0.273 C 
BRANCH  33  34
HETATM   34  N3  UNL     1       7.214   0.912  -0.212  1.00  0.00     0.088 N 
HETATM   35  C17 UNL     1       7.792   0.334  -1.388  1.00  0.00     0.272 C 
HETATM   36  C18 UNL     1       8.339   1.474  -2.220  1.00  0.00     0.032 C 
HETATM   37  C19 UNL     1       8.198   2.717  -1.396  1.00  0.00     0.032 C 
HETATM   38  C20 UNL     1       7.880   2.161  -0.021  1.00  0.00     0.272 C 
ENDBRANCH  33  34
ENDBRANCH  32  33
ENDBRANCH  31  32
ENDBRANCH  28  31
ENDBRANCH   3  27
TORSDOF 9
