REMARK  8 active torsions:
REMARK  status: ('A' for Active; 'I' for Inactive)
REMARK    1  A    between atoms: O1_2  and  C2_3 
REMARK    2  A    between atoms: C4_5  and  C5_6 
REMARK    3  A    between atoms: C8_9  and  N1_10 
REMARK       I    between atoms: N1_10  and  C9_12 
REMARK    4  A    between atoms: C11_15  and  C12_16 
REMARK    5  A    between atoms: C12_16  and  C13_17 
REMARK       I    between atoms: C13_17  and  N2_19 
REMARK    6  A    between atoms: N2_19  and  C14_21 
REMARK    7  A    between atoms: C14_21  and  C15_22 
REMARK    8  A    between atoms: C24_36  and  O4_37 
ROOT
HETATM    1  C5  UNL     1       2.923  -1.436  -0.565  1.00  0.00     0.043 C 
HETATM    2  C6  UNL     1       2.177  -0.478  -1.016  1.00  0.00    -0.017 C 
HETATM    3  C7  UNL     1       2.486   0.959  -1.050  1.00  0.00     0.072 C 
HETATM    4  C8  UNL     1       1.170   1.704  -0.997  1.00  0.00     0.103 C 
HETATM    5  C11 UNL     1       0.310   1.148  -2.094  1.00  0.00     0.084 C 
HETATM    6  S1  UNL     1       0.553  -0.643  -1.733  1.00  0.00    -0.127 SA
ENDROOT
BRANCH   5   7
HETATM    7  C12 UNL     1      -1.097   1.539  -2.105  1.00  0.00     0.120 C 
BRANCH   7   8
HETATM    8  C13 UNL     1      -1.932   1.202  -0.960  1.00  0.00     0.218 C 
HETATM    9  O3  UNL     1      -1.480   0.576   0.017  1.00  0.00    -0.274 OA
HETATM   10  N2  UNL     1      -3.284   1.595  -0.962  1.00  0.00    -0.360 N 
ATOM     11  H2  UNL     1      -3.638   2.108  -1.769  1.00  0.00     0.162 HD
BRANCH  10  12
HETATM   12  C14 UNL     1      -4.186   1.311   0.113  1.00  0.00     0.135 C 
BRANCH  12  13
HETATM   13  C15 UNL     1      -4.336  -0.185   0.328  1.00  0.00     0.015 A 
HETATM   14  C16 UNL     1      -4.848  -1.007  -0.845  1.00  0.00     0.023 C 
HETATM   15  C17 UNL     1      -6.270  -1.278  -0.474  1.00  0.00    -0.044 C 
HETATM   16  C18 UNL     1      -6.862  -2.432  -1.255  1.00  0.00     0.015 C 
HETATM   17  C19 UNL     1      -7.159  -0.085  -0.637  1.00  0.00     0.015 C 
HETATM   18  C20 UNL     1      -6.175  -1.628   0.982  1.00  0.00     0.053 C 
HETATM   19  C21 UNL     1      -5.199  -0.614   1.493  1.00  0.00     0.114 A 
HETATM   20  F1  UNL     1      -5.662   0.367   2.349  1.00  0.00    -0.242 F 
HETATM   21  C22 UNL     1      -3.734  -0.856   1.476  1.00  0.00     0.059 A 
ENDBRANCH  12  13
ENDBRANCH  10  12
ENDBRANCH   7   8
ENDBRANCH   5   7
BRANCH   4  22
HETATM   22  N1  UNL     1       1.478   3.110  -1.182  1.00  0.00    -0.355 N 
HETATM   23  C9  UNL     1       1.237   4.078  -0.181  1.00  0.00     0.213 C 
HETATM   24  C10 UNL     1       1.580   5.494  -0.449  1.00  0.00     0.117 C 
HETATM   25  O2  UNL     1       0.740   3.751   0.922  1.00  0.00    -0.274 OA
ATOM     26  H1  UNL     1       1.884   3.411  -2.068  1.00  0.00     0.162 HD
ENDBRANCH   4  22
BRANCH   1  27
HETATM   27  C4  UNL     1       4.249  -1.257   0.012  1.00  0.00     0.038 A 
HETATM   28  C3  UNL     1       4.709  -1.995   1.074  1.00  0.00     0.069 A 
HETATM   29  C2  UNL     1       5.961  -1.833   1.621  1.00  0.00     0.108 A 
HETATM   30  C24 UNL     1       6.826  -0.879   1.089  1.00  0.00     0.158 A 
HETATM   31  C23 UNL     1       6.349  -0.147   0.023  1.00  0.00     0.225 A 
HETATM   32  N3  UNL     1       5.126  -0.335  -0.478  1.00  0.00    -0.331 N 
HETATM   33  F2  UNL     1       7.163   0.792  -0.522  1.00  0.00    -0.183 F 
ATOM     34  H3  UNL     1       4.833   0.240  -1.268  1.00  0.00     0.168 HD
BRANCH  29  35
HETATM   35  O1  UNL     1       6.347  -2.619   2.692  1.00  0.00    -0.353 OA
HETATM   36  C1  UNL     1       5.464  -3.574   3.215  1.00  0.00     0.210 C 
ENDBRANCH  29  35
BRANCH  30  37
HETATM   37  O4  UNL     1       8.075  -0.717   1.633  1.00  0.00    -0.349 OA
HETATM   38  C25 UNL     1       9.173  -1.468   1.144  1.00  0.00     0.210 C 
ENDBRANCH  30  37
ENDBRANCH   1  27
TORSDOF 8
