REMARK  11 active torsions:
REMARK  status: ('A' for Active; 'I' for Inactive)
REMARK       I    between atoms: N1_2  and  C2_4 
REMARK    1  A    between atoms: C2_4  and  C3_6 
REMARK    2  A    between atoms: C3_6  and  O2_7 
REMARK    3  A    between atoms: C3_6  and  C4_9 
REMARK    4  A    between atoms: C4_9  and  O3_10 
REMARK    5  A    between atoms: O3_10  and  C5_11 
REMARK    6  A    between atoms: C5_11  and  C6_12 
REMARK    7  A    between atoms: C7_14  and  N2_15 
REMARK    8  A    between atoms: C10_20  and  N4_21 
REMARK    9  A    between atoms: C11_26  and  N6_27 
REMARK   10  A    between atoms: N8_33  and  C13_34 
REMARK   11  A    between atoms: N12_39  and  N13_40 
ROOT
HETATM    1  C6  UNL     1      -0.128  -0.399  -0.655  1.00  0.00     0.273 C 
HETATM    2  O4  UNL     1      -0.619   0.455   0.360  1.00  0.00    -0.320 OA
HETATM    3  C7  UNL     1      -1.775  -0.304   0.349  1.00  0.00     0.362 C 
HETATM    4  N8  UNL     1      -1.115  -1.385  -0.345  1.00  0.00    -0.140 N 
ENDROOT
BRANCH   3   5
HETATM    5  N2  UNL     1      -2.818   0.350  -0.385  1.00  0.00    -0.281 N 
HETATM    6  C8  UNL     1      -3.122   0.289  -1.695  1.00  0.00     0.189 A 
HETATM    7  N3  UNL     1      -4.190   1.081  -1.921  1.00  0.00    -0.346 N 
HETATM    8  C9  UNL     1      -4.578   1.653  -0.763  1.00  0.00     0.123 A 
ATOM      9  H3  UNL     1      -4.635   1.225  -2.827  1.00  0.00     0.167 HD
HETATM   10  C10 UNL     1      -5.578   2.528  -0.394  1.00  0.00     0.145 A 
HETATM   11  C12 UNL     1      -3.716   1.193   0.195  1.00  0.00     0.158 A 
HETATM   12  N5  UNL     1      -5.686   2.909   0.891  1.00  0.00    -0.175 N 
HETATM   13  C11 UNL     1      -4.842   2.462   1.846  1.00  0.00     0.679 A 
ATOM     14  H5  UNL     1      -6.429   3.556   1.153  1.00  0.00     0.186 HD
HETATM   15  N7  UNL     1      -3.874   1.610   1.464  1.00  0.00    -0.174 N 
ATOM     16  H7  UNL     1      -3.227   1.263   2.172  1.00  0.00     0.186 HD
BRANCH  10  17
HETATM   17  N4  UNL     1      -6.404   2.977  -1.275  1.00  0.00    -0.383 N 
ATOM     18  H42 UNL     1      -6.322   2.688  -2.250  1.00  0.00     0.157 HD
ATOM     19  H41 UNL     1      -7.144   3.624  -1.002  1.00  0.00     0.157 HD
ENDBRANCH  10  17
BRANCH  13  20
HETATM   20  N6  UNL     1      -4.976   2.854   3.088  1.00  0.00    -0.234 N 
ATOM     21  H62 UNL     1      -5.710   3.500   3.378  1.00  0.00     0.174 HD
ATOM     22  H61 UNL     1      -4.339   2.516   3.809  1.00  0.00     0.174 HD
ENDBRANCH  13  20
ENDBRANCH   3   5
BRANCH   4  23
HETATM   23  C13 UNL     1      -1.436  -2.748  -0.536  1.00  0.00     0.733 C 
HETATM   24  N9  UNL     1      -2.496  -3.245  -1.095  1.00  0.00    -0.115 N 
HETATM   25  N10 UNL     1      -2.472  -4.621  -1.107  1.00  0.00     0.008 NA
ATOM     26  H9  UNL     1      -3.256  -2.683  -1.479  1.00  0.00     0.203 HD
HETATM   27  N11 UNL     1      -1.178  -5.038  -0.797  1.00  0.00     0.030 NA
HETATM   28  N12 UNL     1      -0.664  -3.890  -0.158  1.00  0.00    -0.012 N 
BRANCH  28  29
HETATM   29  N13 UNL     1       0.420  -3.921   0.693  1.00  0.00    -0.311 N 
ATOM     30 2H13 UNL     1       0.792  -3.091   1.155  1.00  0.00     0.179 HD
ATOM     31 1H13 UNL     1       0.971  -4.736   0.963  1.00  0.00     0.179 HD
ENDBRANCH  28  29
ENDBRANCH   4  23
BRANCH   1  32
HETATM   32  C5  UNL     1       1.302  -0.756  -0.310  1.00  0.00     0.222 C 
BRANCH  32  33
HETATM   33  O3  UNL     1       2.091   0.329  -0.690  1.00  0.00    -0.384 OA
BRANCH  33  34
HETATM   34  C4  UNL     1       3.441   0.080  -0.403  1.00  0.00     0.209 C 
BRANCH  34  35
HETATM   35  C3  UNL     1       4.235   1.311  -0.847  1.00  0.00     0.233 C 
BRANCH  35  36
HETATM   36  C2  UNL     1       5.680   1.054  -0.512  1.00  0.00     0.248 C 
HETATM   37  N1  UNL     1       6.386   1.926   0.362  1.00  0.00    -0.363 N 
HETATM   38  C1  UNL     1       7.770   1.620   0.641  1.00  0.00     0.149 C 
ATOM     39  H1  UNL     1       5.931   2.739   0.777  1.00  0.00     0.162 HD
HETATM   40  O1  UNL     1       6.194   0.049  -1.043  1.00  0.00    -0.271 OA
ENDBRANCH  35  36
BRANCH  35  41
HETATM   41  O2  UNL     1       3.827   2.443  -0.187  1.00  0.00    -0.384 OA
ATOM     42  H2  UNL     1       2.915   2.605  -0.398  1.00  0.00     0.210 HD
ENDBRANCH  35  41
ENDBRANCH  34  35
ENDBRANCH  33  34
ENDBRANCH  32  33
ENDBRANCH   1  32
TORSDOF 11
