REMARK  4 active torsions:
REMARK  status: ('A' for Active; 'I' for Inactive)
REMARK    1  A    between atoms: C2_2  and  O1_4 
REMARK    2  A    between atoms: C2_2  and  C4_6 
REMARK    3  A    between atoms: C7_9  and  N1_10 
REMARK    4  A    between atoms: C8_11  and  O2_12 
ROOT
HETATM    1  N1  UNL     1       1.782  -0.099  -0.309  1.00  0.00    -0.273 N 
HETATM    2  C8  UNL     1       2.678  -0.967   0.134  1.00  0.00     0.176 A 
HETATM    3  C9  UNL     1       3.947  -0.409   0.019  1.00  0.00     0.112 A 
HETATM    4  N2  UNL     1       3.808   0.809  -0.498  1.00  0.00    -0.290 N 
HETATM    5  C10 UNL     1       2.464   0.993  -0.698  1.00  0.00     0.332 A 
HETATM    6  O3  UNL     1       2.025   2.078  -1.189  1.00  0.00    -0.246 OA
HETATM    7  C11 UNL     1       5.106   1.417  -0.630  1.00  0.00     0.163 A 
HETATM    8  C12 UNL     1       6.045   0.407  -0.125  1.00  0.00     0.020 A 
HETATM    9  C13 UNL     1       5.361  -0.654   0.251  1.00  0.00     0.063 A 
HETATM   10 CL1  UNL     1       6.035  -2.123   0.922  1.00  0.00    -0.082 Cl
ENDROOT
BRANCH   1  11
HETATM   11  C7  UNL     1       0.347  -0.213  -0.393  1.00  0.00     0.097 C 
HETATM   12  C6  UNL     1      -0.177  -1.387   0.366  1.00  0.00     0.026 C 
HETATM   13  C5  UNL     1      -1.666  -1.433   0.416  1.00  0.00     0.009 C 
HETATM   14  C4  UNL     1      -2.298  -0.134  -0.005  1.00  0.00     0.019 C 
HETATM   15  C15 UNL     1      -1.559   0.965   0.728  1.00  0.00     0.009 C 
HETATM   16  C14 UNL     1      -0.229   1.109   0.045  1.00  0.00     0.026 C 
BRANCH  14  17
HETATM   17  C2  UNL     1      -3.750  -0.037   0.263  1.00  0.00     0.054 C 
HETATM   18  C1  UNL     1      -4.226   1.319  -0.216  1.00  0.00     0.045 C 
HETATM   19  C3  UNL     1      -4.584  -1.076  -0.426  1.00  0.00     0.045 C 
BRANCH  17  20
HETATM   20  O1  UNL     1      -3.982  -0.062   1.649  1.00  0.00    -0.390 OA
ATOM     21  H1  UNL     1      -3.683  -0.912   1.949  1.00  0.00     0.210 HD
ENDBRANCH  17  20
ENDBRANCH  14  17
ENDBRANCH   1  11
BRANCH   2  22
HETATM   22  O2  UNL     1       2.448  -2.218   0.631  1.00  0.00    -0.344 OA
ATOM     23  H2  UNL     1       3.091  -2.841   0.949  1.00  0.00     0.219 HD
ENDBRANCH   2  22
TORSDOF 4
