REMARK  4 active torsions:
REMARK  status: ('A' for Active; 'I' for Inactive)
REMARK    1  A    between atoms: N2_7  and  N3_8 
REMARK    2  A    between atoms: N3_8  and  C5_10 
REMARK    3  A    between atoms: C5_10  and  N4_12 
REMARK       I    between atoms: N4_12  and  C6_14 
REMARK    4  A    between atoms: C6_14  and  C7_16 
ROOT
HETATM    1  C5  UNL     1      -0.822   0.336  -0.363  1.00  0.00     0.193 C 
HETATM    2  S1  UNL     1      -1.345   1.080  -1.746  1.00  0.00    -0.039 SA
ENDROOT
BRANCH   1   3
HETATM    3  N3  UNL     1      -1.822  -0.201   0.503  1.00  0.00    -0.272 N 
ATOM      4  H3  UNL     1      -1.536  -0.666   1.365  1.00  0.00     0.189 HD
BRANCH   3   5
HETATM    5  N2  UNL     1      -3.173  -0.105   0.201  1.00  0.00    -0.277 N 
HETATM    6  C2  UNL     1      -4.086  -1.109  -0.185  1.00  0.00     0.090 C 
HETATM    7  C1  UNL     1      -3.817  -2.576  -0.021  1.00  0.00     0.090 C 
HETATM    8  N1  UNL     1      -5.150  -0.653  -0.680  1.00  0.00    -0.377 N 
HETATM    9  C3  UNL     1      -5.118   0.770  -0.706  1.00  0.00     0.143 C 
ATOM     10  H1  UNL     1      -5.926  -1.223  -1.015  1.00  0.00     0.160 HD
HETATM   11  C4  UNL     1      -3.965   1.134   0.224  1.00  0.00     0.170 C 
ENDBRANCH   3   5
ENDBRANCH   1   3
BRANCH   1  12
HETATM   12  N4  UNL     1       0.553   0.227  -0.037  1.00  0.00    -0.298 N 
HETATM   13  C6  UNL     1       1.555   0.742  -0.865  1.00  0.00     0.266 C 
HETATM   14  O1  UNL     1       1.136   1.319  -1.938  1.00  0.00    -0.267 OA
ATOM     15  H4  UNL     1       0.820  -0.242   0.829  1.00  0.00     0.171 HD
BRANCH  13  16
HETATM   16  C7  UNL     1       2.985   0.687  -0.629  1.00  0.00     0.095 A 
HETATM   17  S2  UNL     1       4.126   1.370  -1.743  1.00  0.00    -0.094 SA
HETATM   18  C8  UNL     1       5.575   0.993  -0.930  1.00  0.00     0.059 A 
HETATM   19  C9  UNL     1       5.124   0.345   0.188  1.00  0.00    -0.032 A 
HETATM   20  C10 UNL     1       6.157  -0.151   1.180  1.00  0.00     0.050 C 
HETATM   21  C11 UNL     1       3.800   0.194   0.332  1.00  0.00     0.063 A 
HETATM   22 CL1  UNL     1       3.099  -0.635   1.752  1.00  0.00    -0.082 Cl
ENDBRANCH  13  16
ENDBRANCH   1  12
TORSDOF 4
