REMARK  4 active torsions:
REMARK  status: ('A' for Active; 'I' for Inactive)
REMARK    1  A    between atoms: N1_7  and  C6_8 
REMARK    2  A    between atoms: C6_8  and  N2_10 
REMARK    3  A    between atoms: N2_10  and  C7_12 
REMARK    4  A    between atoms: C9_17  and  C10_18 
ROOT
HETATM    1  C1  UNL     1      -3.830   1.560  -0.582  1.00  0.00     0.052 C 
HETATM    2  C2  UNL     1      -2.967   0.593   0.229  1.00  0.00     0.102 C 
HETATM    3  F1  UNL     1      -3.844  -0.016   1.128  1.00  0.00    -0.243 F 
HETATM    4  C3  UNL     1      -2.454  -0.447  -0.700  1.00  0.00     0.045 C 
HETATM    5  C4  UNL     1      -2.290  -1.777   0.048  1.00  0.00     0.023 C 
HETATM    6  C5  UNL     1      -1.328  -1.510   1.185  1.00  0.00     0.127 C 
HETATM    7  N1  UNL     1      -0.369  -0.537   0.710  1.00  0.00    -0.341 N 
HETATM    8  C11 UNL     1      -0.517   0.886   0.712  1.00  0.00     0.197 C 
HETATM    9  C12 UNL     1       0.298   1.508   1.786  1.00  0.00     0.085 C 
HETATM   10  N4  UNL     1       0.951   1.986   2.616  1.00  0.00    -0.195 NA
HETATM   11  C13 UNL     1      -1.936   1.327   1.005  1.00  0.00     0.083 C 
ENDROOT
BRANCH   7  12
HETATM   12  C6  UNL     1       0.809  -1.086   0.205  1.00  0.00     0.177 C 
HETATM   13  S1  UNL     1       1.023  -2.692   0.181  1.00  0.00    -0.041 SA
BRANCH  12  14
HETATM   14  N2  UNL     1       1.848  -0.254  -0.300  1.00  0.00    -0.311 N 
ATOM     15  H2  UNL     1       1.727   0.759  -0.291  1.00  0.00     0.170 HD
BRANCH  14  16
HETATM   16  C7  UNL     1       3.051  -0.807  -0.816  1.00  0.00     0.185 A 
HETATM   17  O1  UNL     1       3.294  -2.119  -0.866  1.00  0.00    -0.286 OA
HETATM   18  C8  UNL     1       4.466  -2.319  -1.384  1.00  0.00     0.236 A 
HETATM   19  N3  UNL     1       5.015  -1.131  -1.685  1.00  0.00    -0.338 N 
HETATM   20  C9  UNL     1       4.123  -0.150  -1.328  1.00  0.00     0.163 A 
ATOM     21  H3  UNL     1       5.933  -0.983  -2.105  1.00  0.00     0.167 HD
BRANCH  20  22
HETATM   22  C10 UNL     1       4.351   1.258  -1.494  1.00  0.00     0.231 C 
HETATM   23  O2  UNL     1       5.448   1.672  -2.006  1.00  0.00    -0.643 OA
HETATM   24  O3  UNL     1       3.445   2.216  -1.130  1.00  0.00    -0.643 OA
ENDBRANCH  20  22
ENDBRANCH  14  16
ENDBRANCH  12  14
ENDBRANCH   7  12
TORSDOF 4
