REMARK  3 active torsions:
REMARK  status: ('A' for Active; 'I' for Inactive)
REMARK    1  A    between atoms: C3_3  and  N1_4 
REMARK       I    between atoms: N1_4  and  C4_6 
REMARK    2  A    between atoms: C4_6  and  C5_8 
REMARK    3  A    between atoms: C5_8  and  O2_9 
ROOT
HETATM    1  N1  UNL     1       0.776  -0.581   0.674  1.00  0.00    -0.321 N 
ATOM      2  H1  UNL     1       0.566  -1.565   0.839  1.00  0.00     0.169 HD
HETATM    3  C4  UNL     1      -0.254   0.287   0.264  1.00  0.00     0.267 C 
HETATM    4  O1  UNL     1       0.015   1.499   0.062  1.00  0.00    -0.269 OA
ENDROOT
BRANCH   3   5
HETATM    5  C5  UNL     1      -1.656  -0.142   0.051  1.00  0.00     0.188 C 
HETATM    6  C6  UNL     1      -2.615   0.640   0.940  1.00  0.00     0.070 C 
HETATM    7  C7  UNL     1      -3.739  -0.215   1.421  1.00  0.00     0.078 C 
HETATM    8  S1  UNL     1      -5.240  -0.043   0.440  1.00  0.00    -0.168 SA
HETATM    9  C8  UNL     1      -4.906   0.283  -1.296  1.00  0.00     0.084 C 
HETATM   10  C9  UNL     1      -3.816  -0.579  -1.865  1.00  0.00     0.087 C 
HETATM   11  S2  UNL     1      -2.173   0.165  -1.661  1.00  0.00    -0.121 SA
BRANCH   5  12
HETATM   12  O2  UNL     1      -1.824  -1.492   0.304  1.00  0.00    -0.371 OA
ATOM     13  H2  UNL     1      -2.723  -1.767   0.167  1.00  0.00     0.212 HD
ENDBRANCH   5  12
ENDBRANCH   3   5
BRANCH   1  14
HETATM   14  C3  UNL     1       2.103  -0.110   0.862  1.00  0.00     0.080 A 
HETATM   15  C2  UNL     1       3.093  -0.074  -0.115  1.00  0.00     0.035 A 
HETATM   16  C1  UNL     1       2.901  -0.534  -1.523  1.00  0.00     0.071 C 
HETATM   17  N2  UNL     1       4.230   0.425   0.384  1.00  0.00    -0.361 N 
HETATM   18  C11 UNL     1       3.989   0.715   1.675  1.00  0.00     0.116 A 
HETATM   19  C12 UNL     1       5.485   0.612  -0.354  1.00  0.00     0.155 C 
HETATM   20  C10 UNL     1       2.691   0.398   2.001  1.00  0.00     0.078 A 
HETATM   21 CL1  UNL     1       1.875   0.579   3.548  1.00  0.00    -0.080 Cl
ENDBRANCH   1  14
TORSDOF 3
