REMARK  4 active torsions:
REMARK  status: ('A' for Active; 'I' for Inactive)
REMARK    1  A    between atoms: O1_2  and  C2_3 
REMARK    2  A    between atoms: C2_3  and  C3_5 
REMARK    3  A    between atoms: C4_6  and  O3_7 
REMARK    4  A    between atoms: C5_9  and  O4_10 
ROOT
HETATM    1  C3  UNL     1       1.192  -1.762   0.162  1.00  0.00     0.083 A 
HETATM    2  C4  UNL     1       0.642  -2.958  -0.329  1.00  0.00     0.115 A 
HETATM    3  C5  UNL     1      -0.701  -3.026  -0.651  1.00  0.00     0.100 A 
HETATM    4  C6  UNL     1      -1.512  -1.923  -0.494  1.00  0.00     0.047 A 
HETATM    5  C7  UNL     1      -0.990  -0.724  -0.008  1.00  0.00    -0.041 A 
HETATM    6  C8  UNL     1       0.374  -0.673   0.312  1.00  0.00    -0.013 A 
HETATM    7  C9  UNL     1       0.693   0.715   0.791  1.00  0.00     0.133 C 
HETATM    8 CL1  UNL     1       0.286   0.815   2.499  1.00  0.00    -0.119 Cl
HETATM    9  C10 UNL     1      -0.346   1.481  -0.025  1.00  0.00     0.045 C 
HETATM   10  C11 UNL     1      -0.016   1.429  -1.486  1.00  0.00     0.026 C 
HETATM   11  C12 UNL     1      -0.652   2.813   0.476  1.00  0.00     0.137 C 
HETATM   12  O5  UNL     1       0.094   3.414   1.226  1.00  0.00    -0.297 OA
HETATM   13  C13 UNL     1      -1.956   3.420   0.013  1.00  0.00     0.079 C 
HETATM   14  C14 UNL     1      -3.071   2.423   0.035  1.00  0.00     0.008 C 
HETATM   15  C15 UNL     1      -2.666   1.064  -0.558  1.00  0.00     0.011 C 
HETATM   16  C16 UNL     1      -1.531   0.594   0.290  1.00  0.00     0.036 C 
ENDROOT
BRANCH   1  17
HETATM   17  C2  UNL     1       2.605  -1.745   0.495  1.00  0.00     0.296 C 
HETATM   18  O2  UNL     1       3.312  -2.803   0.338  1.00  0.00    -0.259 OA
BRANCH  17  19
HETATM   19  O1  UNL     1       3.270  -0.655   0.982  1.00  0.00    -0.322 OA
HETATM   20  C1  UNL     1       4.642  -0.629   1.309  1.00  0.00     0.213 C 
ENDBRANCH  17  19
ENDBRANCH   1  17
BRANCH   2  21
HETATM   21  O3  UNL     1       1.494  -4.040  -0.470  1.00  0.00    -0.357 OA
ATOM     22  H3  UNL     1       1.122  -4.849  -0.802  1.00  0.00     0.217 HD
ENDBRANCH   2  21
BRANCH   3  23
HETATM   23  O4  UNL     1      -1.233  -4.226  -1.138  1.00  0.00    -0.358 OA
ATOM     24  H4  UNL     1      -2.156  -4.273  -1.359  1.00  0.00     0.217 HD
ENDBRANCH   3  23
TORSDOF 4
