REMARK  0 active torsions:
REMARK  status: ('A' for Active; 'I' for Inactive)
ROOT
HETATM    1  C1  UNL     1       2.017  -0.890   0.543  1.00  0.00     0.013 C 
HETATM    2  C2  UNL     1       0.935  -0.627   0.077  1.00  0.00    -0.105 C 
HETATM    3  C3  UNL     1      -0.385  -0.283  -0.500  1.00  0.00     0.109 A 
HETATM    4  C4  UNL     1      -0.748   1.093  -0.637  1.00  0.00    -0.008 A 
HETATM    5  C5  UNL     1      -1.297   0.449   0.441  1.00  0.00    -0.008 A 
ENDROOT
TORSDOF 0
