REMARK  0 active torsions:
REMARK  status: ('A' for Active; 'I' for Inactive)
ROOT
HETATM    1  C1  UNL     1      -1.153   0.301  -0.054  1.00  0.00     0.085 A 
HETATM    2  N1  UNL     1      -0.641   1.468  -0.097  1.00  0.00    -0.316 N 
ATOM      3  H1  UNL     1      -1.180   2.332  -0.161  1.00  0.00     0.185 HD
HETATM    4  N2  UNL     1       0.768   1.409  -0.044  1.00  0.00    -0.316 N 
ATOM      5  H2  UNL     1       1.379   2.226  -0.065  1.00  0.00     0.185 HD
HETATM    6  C2  UNL     1       1.183   0.196   0.034  1.00  0.00     0.085 A 
HETATM    7  C3  UNL     1      -0.031  -0.650   0.035  1.00  0.00     0.092 A 
ENDROOT
TORSDOF 0
