REMARK  0 active torsions:
REMARK  status: ('A' for Active; 'I' for Inactive)
ROOT
HETATM    1  O1  UNL     1       1.761   0.062  -1.114  1.00  0.00    -0.258 OA
HETATM    2  S1  UNL     1       0.895   0.241   0.060  1.00  0.00     0.016 S 
HETATM    3  C1  UNL     1      -0.581   0.767  -0.063  1.00  0.00     0.121 A 
HETATM    4  C2  UNL     1      -0.622  -0.719   0.000  1.00  0.00     0.121 A 
ENDROOT
TORSDOF 0
