REMARK  2 active torsions:
REMARK  status: ('A' for Active; 'I' for Inactive)
REMARK    1  A    between atoms: N1_1  and  C1_4 
REMARK    2  A    between atoms: N3_9  and  C4_11 
ROOT
HETATM    1  C1  UNL     1      -3.059  -0.332   0.569  1.00  0.00     0.690 A 
HETATM    2  N2  UNL     1      -1.930  -0.842   1.090  1.00  0.00    -0.197 N 
ATOM      3  H2  UNL     1      -1.988  -1.575   1.797  1.00  0.00     0.183 HD
HETATM    4  C2  UNL     1      -0.707  -0.392   0.685  1.00  0.00     0.156 A 
HETATM    5  C3  UNL     1      -0.609   0.599  -0.269  1.00  0.00     0.138 A 
HETATM    6  N3  UNL     1       0.543   1.035  -0.662  1.00  0.00    -0.325 N 
ATOM      7  H3  UNL     1       0.565   1.768  -1.371  1.00  0.00     0.169 HD
HETATM    8  N6  UNL     1      -1.758   1.085  -0.768  1.00  0.00    -0.270 N 
ATOM      9  H6  UNL     1      -1.721   1.818  -1.476  1.00  0.00     0.189 HD
HETATM   10  N7  UNL     1      -2.945   0.635  -0.362  1.00  0.00    -0.131 N 
ATOM     11  H7  UNL     1      -3.791   1.034  -0.768  1.00  0.00     0.205 HD
ENDROOT
BRANCH   6  12
HETATM   12  C4  UNL     1       1.768   0.552  -0.164  1.00  0.00     0.122 A 
HETATM   13  C5  UNL     1       2.323  -0.678  -0.445  1.00  0.00     0.068 A 
HETATM   14  C6  UNL     1       3.507  -0.718   0.250  1.00  0.00     0.111 A 
HETATM   15  N4  UNL     1       3.643   0.443   0.914  1.00  0.00    -0.310 N 
HETATM   16  N5  UNL     1       2.600   1.203   0.665  1.00  0.00    -0.286 N 
ATOM     17  H4  UNL     1       4.429   0.694   1.514  1.00  0.00     0.186 HD
ATOM     18  H5  UNL     1       2.447   2.139   1.042  1.00  0.00     0.188 HD
ENDBRANCH   6  12
BRANCH   1  19
HETATM   19  N1  UNL     1      -4.232  -0.741   0.934  1.00  0.00    -0.233 N 
ATOM     20  H12 UNL     1      -4.318  -1.473   1.639  1.00  0.00     0.174 HD
ATOM     21  H11 UNL     1      -5.089  -0.354   0.539  1.00  0.00     0.174 HD
ENDBRANCH   1  19
TORSDOF 2
