REMARK  12 active torsions:
REMARK  status: ('A' for Active; 'I' for Inactive)
REMARK    1  A    between atoms: O1_2  and  C2_3 
REMARK    2  A    between atoms: C2_3  and  C3_5 
REMARK    3  A    between atoms: C5_12  and  O4_13 
REMARK    4  A    between atoms: C5_12  and  C6_15 
REMARK    5  A    between atoms: C8_21  and  N4_22 
REMARK    6  A    between atoms: N4_22  and  C9_24 
REMARK    7  A    between atoms: C11_26  and  S2_27 
REMARK    8  A    between atoms: S2_27  and  O8_30 
REMARK    9  A    between atoms: C14_35  and  S3_36 
REMARK   10  A    between atoms: S3_36  and  C15_37 
REMARK   11  A    between atoms: C15_37  and  C16_38 
REMARK       I    between atoms: C16_38  and  N6_40 
REMARK   12  A    between atoms: N6_40  and  N7_42 
ROOT
HETATM    1  N4  UNL     1      -0.996   0.374  -0.346  1.00  0.00    -0.341 N 
ATOM      2  H4  UNL     1      -1.598   0.835   0.336  1.00  0.00     0.167 HD
ENDROOT
BRANCH   1   3
HETATM    3  C8  UNL     1      -1.482   0.317  -1.679  1.00  0.00     0.127 A 
HETATM    4  C6  UNL     1      -2.769   0.792  -1.951  1.00  0.00     0.093 A 
HETATM    5  S1  UNL     1      -2.860   0.576  -3.644  1.00  0.00    -0.025 SA
HETATM    6  C7  UNL     1      -1.314  -0.087  -3.933  1.00  0.00     0.290 A 
HETATM    7  O5  UNL     1      -0.780  -0.467  -5.038  1.00  0.00    -0.260 OA
HETATM    8  N3  UNL     1      -0.797  -0.109  -2.707  1.00  0.00    -0.302 N 
ATOM      9  H3  UNL     1       0.149  -0.464  -2.568  1.00  0.00     0.171 HD
BRANCH   4  10
HETATM   10  C5  UNL     1      -3.840   1.333  -1.112  1.00  0.00     0.244 C 
HETATM   11  N2  UNL     1      -3.472   2.528  -0.365  1.00  0.00    -0.301 N 
HETATM   12  C4  UNL     1      -4.622   3.213   0.191  1.00  0.00     0.319 C 
ATOM     13  H2  UNL     1      -2.511   2.848  -0.246  1.00  0.00     0.167 HD
HETATM   14  N1  UNL     1      -5.862   2.553  -0.013  1.00  0.00    -0.324 N 
HETATM   15  O3  UNL     1      -4.505   4.290   0.794  1.00  0.00    -0.247 OA
HETATM   16  C3  UNL     1      -6.006   1.100  -0.038  1.00  0.00     0.264 C 
ATOM     17  H1  UNL     1      -6.696   3.124  -0.149  1.00  0.00     0.165 HD
HETATM   18  C19 UNL     1      -4.633   0.426  -0.269  1.00  0.00     0.327 C 
HETATM   19  F1  UNL     1      -4.179   0.217   1.020  1.00  0.00    -0.198 F 
HETATM   20  F2  UNL     1      -4.935  -0.777  -0.896  1.00  0.00    -0.198 F 
BRANCH  16  21
HETATM   21  C2  UNL     1      -6.503   0.751   1.332  1.00  0.00     0.287 C 
HETATM   22  O2  UNL     1      -6.716   1.582   2.243  1.00  0.00    -0.263 OA
BRANCH  21  23
HETATM   23  O1  UNL     1      -6.744  -0.590   1.621  1.00  0.00    -0.325 OA
HETATM   24  C1  UNL     1      -7.202  -1.059   2.870  1.00  0.00     0.213 C 
ENDBRANCH  21  23
ENDBRANCH  16  21
BRANCH  10  25
HETATM   25  O4  UNL     1      -4.816   1.860  -2.048  1.00  0.00    -0.361 OA
ATOM     26  H4  UNL     1      -5.056   1.081  -2.535  1.00  0.00     0.213 HD
ENDBRANCH  10  25
ENDBRANCH   4  10
ENDBRANCH   1   3
BRANCH   1  27
HETATM   27  C9  UNL     1       0.220  -0.133   0.140  1.00  0.00     0.036 A 
HETATM   28  C10 UNL     1       0.870  -1.273  -0.249  1.00  0.00     0.057 A 
HETATM   29  C11 UNL     1       2.067  -1.728   0.246  1.00  0.00     0.116 A 
HETATM   30  C13 UNL     1       2.725  -0.999   1.245  1.00  0.00     0.075 A 
HETATM   31  N5  UNL     1       3.859  -1.317   1.814  1.00  0.00    -0.343 N 
HETATM   32  C17 UNL     1       2.109   0.144   1.666  1.00  0.00     0.038 A 
HETATM   33  C14 UNL     1       4.366  -0.541   2.762  1.00  0.00     0.113 A 
ATOM     34  H5  UNL     1       4.353  -2.162   1.528  1.00  0.00     0.167 HD
HETATM   35  S4  UNL     1       3.199   0.698   2.866  1.00  0.00    -0.063 SA
HETATM   36  C18 UNL     1       0.909   0.579   1.152  1.00  0.00     0.051 A 
BRANCH  29  37
HETATM   37  S2  UNL     1       2.690  -3.232  -0.382  1.00  0.00     0.300 S 
HETATM   38  O6  UNL     1       1.744  -3.837  -1.376  1.00  0.00    -0.193 OA
HETATM   39  O7  UNL     1       2.799  -4.223   0.759  1.00  0.00    -0.193 OA
BRANCH  37  40
HETATM   40  O8  UNL     1       4.211  -3.023  -1.028  1.00  0.00    -0.277 OA
HETATM   41  C12 UNL     1       4.152  -2.023  -1.994  1.00  0.00     0.225 C 
ENDBRANCH  37  40
ENDBRANCH  29  37
BRANCH  33  42
HETATM   42  S3  UNL     1       5.921  -0.741   3.646  1.00  0.00    -0.095 SA
BRANCH  42  43
HETATM   43  C15 UNL     1       7.236   0.234   2.884  1.00  0.00     0.185 C 
BRANCH  43  44
HETATM   44  C16 UNL     1       7.534  -0.135   1.490  1.00  0.00     0.245 C 
HETATM   45  O9  UNL     1       8.205  -1.154   1.227  1.00  0.00    -0.271 OA
HETATM   46  N6  UNL     1       7.052   0.680   0.438  1.00  0.00    -0.276 N 
ATOM     47  H6  UNL     1       6.506   1.512   0.660  1.00  0.00     0.189 HD
BRANCH  46  48
HETATM   48  N7  UNL     1       7.313   0.363  -0.916  1.00  0.00    -0.343 N 
ATOM     49  H72 UNL     1       7.861  -0.473  -1.121  1.00  0.00     0.176 HD
ATOM     50  H71 UNL     1       6.966   0.950  -1.674  1.00  0.00     0.176 HD
ENDBRANCH  46  48
ENDBRANCH  43  44
ENDBRANCH  42  43
ENDBRANCH  33  42
ENDBRANCH   1  27
TORSDOF 12
