REMARK  15 active torsions:
REMARK  status: ('A' for Active; 'I' for Inactive)
REMARK    1  A    between atoms: O1_2  and  C2_3 
REMARK    2  A    between atoms: C2_3  and  C3_5 
REMARK    3  A    between atoms: C3_5  and  O3_7 
REMARK    4  A    between atoms: O3_7  and  C5_8 
REMARK    5  A    between atoms: C5_8  and  C6_9 
REMARK    6  A    between atoms: C5_8  and  C12_32 
REMARK       I    between atoms: C6_9  and  N1_11 
REMARK       I    between atoms: N1_11  and  C7_13 
REMARK    7  A    between atoms: C7_13  and  C8_15 
REMARK    8  A    between atoms: C9_18  and  N3_19 
REMARK    9  A    between atoms: N3_19  and  N4_21 
REMARK   10  A    between atoms: C10_26  and  N6_27 
REMARK   11  A    between atoms: C13_33  and  O6_34 
REMARK   12  A    between atoms: C16_38  and  O7_39 
REMARK   13  A    between atoms: O7_39  and  C17_40 
REMARK   14  A    between atoms: C19_43  and  O9_44 
REMARK   15  A    between atoms: C22_47  and  O10_48 
ROOT
HETATM    1  C5  UNL     1       0.905  -1.313  -0.448  1.00  0.00     0.251 C 
ENDROOT
BRANCH   1   2
HETATM    2  O3  UNL     1       0.942  -2.685  -0.398  1.00  0.00    -0.357 OA
BRANCH   2   3
HETATM    3  C3  UNL     1       0.967  -3.329  -1.626  1.00  0.00     0.218 C 
HETATM    4  C4  UNL     1       2.108  -4.287  -1.811  1.00  0.00     0.050 C 
BRANCH   3   5
HETATM    5  C2  UNL     1      -0.335  -4.082  -1.814  1.00  0.00     0.287 C 
HETATM    6  O2  UNL     1      -1.226  -4.062  -0.939  1.00  0.00    -0.262 OA
BRANCH   5   7
HETATM    7  O1  UNL     1      -0.544  -4.803  -2.965  1.00  0.00    -0.324 OA
HETATM    8  C1  UNL     1      -1.695  -5.537  -3.257  1.00  0.00     0.213 C 
ENDBRANCH   5   7
ENDBRANCH   3   5
ENDBRANCH   2   3
ENDBRANCH   1   2
BRANCH   1   9
HETATM    9  C6  UNL     1       2.181  -0.657   0.030  1.00  0.00     0.258 C 
HETATM   10  O4  UNL     1       2.160   0.576  -0.014  1.00  0.00    -0.270 OA
HETATM   11  N1  UNL     1       3.265  -1.410   0.471  1.00  0.00    -0.290 N 
HETATM   12  C7  UNL     1       4.509  -1.050   0.938  1.00  0.00     0.277 C 
ATOM     13  H1  UNL     1       3.109  -2.418   0.443  1.00  0.00     0.172 HD
HETATM   14  O5  UNL     1       5.261  -1.972   1.448  1.00  0.00    -0.266 OA
BRANCH  12  15
HETATM   15  C8  UNL     1       5.135   0.250   0.951  1.00  0.00     0.142 A 
HETATM   16  N2  UNL     1       5.075   1.106  -0.050  1.00  0.00    -0.183 N 
HETATM   17  C9  UNL     1       5.621   2.349  -0.014  1.00  0.00     0.698 A 
ATOM     18  H2  UNL     1       4.591   0.818  -0.900  1.00  0.00     0.184 HD
HETATM   19  N5  UNL     1       6.255   2.725   1.093  1.00  0.00    -0.174 N 
HETATM   20  C10 UNL     1       6.355   1.905   2.145  1.00  0.00     0.139 A 
ATOM     21  H5  UNL     1       6.672   3.655   1.141  1.00  0.00     0.186 HD
HETATM   22  C11 UNL     1       5.806   0.653   2.112  1.00  0.00     0.111 A 
HETATM   23 CL1  UNL     1       5.927  -0.427   3.472  1.00  0.00    -0.078 Cl
BRANCH  17  24
HETATM   24  N3  UNL     1       5.521   3.144  -1.040  1.00  0.00    -0.138 N 
ATOM     25  H3  UNL     1       5.937   4.074  -0.996  1.00  0.00     0.205 HD
BRANCH  24  26
HETATM   26  N4  UNL     1       4.854   2.745  -2.200  1.00  0.00    -0.331 N 
ATOM     27  H42 UNL     1       4.444   1.812  -2.228  1.00  0.00     0.177 HD
ATOM     28  H41 UNL     1       4.776   3.368  -3.004  1.00  0.00     0.177 HD
ENDBRANCH  24  26
ENDBRANCH  17  24
BRANCH  20  29
HETATM   29  N6  UNL     1       6.992   2.338   3.198  1.00  0.00    -0.384 N 
ATOM     30  H62 UNL     1       7.401   3.272   3.223  1.00  0.00     0.157 HD
ATOM     31  H61 UNL     1       7.068   1.713   4.000  1.00  0.00     0.157 HD
ENDBRANCH  20  29
ENDBRANCH  12  15
ENDBRANCH   1   9
BRANCH   1  32
HETATM   32  C12 UNL     1      -0.295  -0.679   0.088  1.00  0.00     0.023 C 
HETATM   33  C13 UNL     1      -1.334  -0.368  -0.796  1.00  0.00     0.076 C 
HETATM   34  C14 UNL     1      -2.634   0.085  -0.532  1.00  0.00     0.052 C 
HETATM   35  C15 UNL     1      -3.040   0.826   0.538  1.00  0.00     0.020 A 
HETATM   36  C16 UNL     1      -4.266   1.420   0.329  1.00  0.00     0.123 A 
HETATM   37  C23 UNL     1      -2.382   1.035   1.753  1.00  0.00     0.061 A 
HETATM   38  C19 UNL     1      -4.848   2.211   1.294  1.00  0.00     0.105 A 
HETATM   39  C21 UNL     1      -4.164   2.394   2.484  1.00  0.00     0.077 A 
HETATM   40  C22 UNL     1      -2.941   1.824   2.739  1.00  0.00     0.083 A 
HETATM   41  C24 UNL     1      -1.154   0.504   2.102  1.00  0.00     0.192 C 
HETATM   42  O11 UNL     1      -0.724   0.948   3.198  1.00  0.00    -0.287 OA
HETATM   43  C25 UNL     1      -0.351  -0.424   1.431  1.00  0.00     0.001 C 
HETATM   44  C26 UNL     1       0.517  -1.205   2.297  1.00  0.00     0.053 C 
BRANCH  33  45
HETATM   45  O6  UNL     1      -1.024  -0.534  -2.130  1.00  0.00    -0.360 OA
ATOM     46  H6  UNL     1      -1.729  -0.323  -2.730  1.00  0.00     0.217 HD
ENDBRANCH  33  45
BRANCH  36  47
HETATM   47  O7  UNL     1      -4.896   1.197  -0.882  1.00  0.00    -0.275 OA
BRANCH  47  48
HETATM   48  C17 UNL     1      -4.683   2.057  -1.965  1.00  0.00     0.260 C 
HETATM   49  C18 UNL     1      -5.404   1.734  -3.224  1.00  0.00     0.126 C 
HETATM   50  O8  UNL     1      -3.917   3.021  -1.811  1.00  0.00    -0.265 OA
ENDBRANCH  47  48
ENDBRANCH  36  47
BRANCH  38  51
HETATM   51  O9  UNL     1      -6.081   2.791   1.047  1.00  0.00    -0.353 OA
HETATM   52  C20 UNL     1      -6.675   3.604   2.042  1.00  0.00     0.210 C 
ENDBRANCH  38  51
BRANCH  40  53
HETATM   53  O10 UNL     1      -2.249   1.996   3.917  1.00  0.00    -0.360 OA
ATOM     54  H10 UNL     1      -1.403   1.602   4.093  1.00  0.00     0.217 HD
ENDBRANCH  40  53
ENDBRANCH   1  32
TORSDOF 15
