REMARK  4 active torsions:
REMARK  status: ('A' for Active; 'I' for Inactive)
REMARK    1  A    between atoms: O1_2  and  C2_3 
REMARK    2  A    between atoms: C2_3  and  S1_4 
REMARK    3  A    between atoms: S1_4  and  C3_5 
REMARK    4  A    between atoms: C8_16  and  C9_17 
ROOT
HETATM    1  C3  UNL     1       3.032  -0.591  -0.816  1.00  0.00     0.176 A 
HETATM    2  N1  UNL     1       2.688   0.703  -0.680  1.00  0.00    -0.167 N 
ATOM      3  H1  UNL     1       3.299   1.499  -0.860  1.00  0.00     0.186 HD
HETATM    4  C4  UNL     1       1.405   0.779  -0.268  1.00  0.00     0.703 A 
HETATM    5  N2  UNL     1       0.952  -0.458  -0.145  1.00  0.00    -0.097 N 
HETATM    6  N3  UNL     1       1.946  -1.297  -0.481  1.00  0.00    -0.261 N 
ATOM      7  H3  UNL     1       1.883  -2.315  -0.481  1.00  0.00     0.190 HD
HETATM    8  C5  UNL     1      -0.354  -0.835   0.310  1.00  0.00     0.168 C 
HETATM    9  C6  UNL     1      -0.086  -1.601   1.629  1.00  0.00     0.059 C 
HETATM   10  C7  UNL     1      -0.961  -1.819  -0.610  1.00  0.00     0.094 C 
HETATM   11  N4  UNL     1      -1.427  -2.615  -1.330  1.00  0.00    -0.194 NA
HETATM   12  C8  UNL     1      -1.282   0.273   0.489  1.00  0.00     0.105 C 
HETATM   13  C14 UNL     1      -0.724   1.603   0.351  1.00  0.00     0.012 C 
HETATM   14  C15 UNL     1      -1.527   2.854   0.603  1.00  0.00     0.064 C 
HETATM   15  N5  UNL     1       0.482   1.822   0.009  1.00  0.00    -0.197 N 
ATOM     16  H5  UNL     1       0.799   2.788  -0.070  1.00  0.00     0.183 HD
ENDROOT
BRANCH  12  17
HETATM   17  C9  UNL     1      -2.564   0.121  -0.275  1.00  0.00    -0.069 C 
HETATM   18  C10 UNL     1      -2.606   0.332  -1.759  1.00  0.00     0.044 C 
HETATM   19  C11 UNL     1      -3.721  -0.190   0.288  1.00  0.00    -0.085 C 
HETATM   20  C12 UNL     1      -4.980  -0.339  -0.475  1.00  0.00     0.043 C 
HETATM   21  C13 UNL     1      -3.758  -0.391   1.761  1.00  0.00     0.043 C 
ENDBRANCH  12  17
BRANCH   1  22
HETATM   22  S1  UNL     1       4.612  -1.267  -1.335  1.00  0.00    -0.066 SA
BRANCH  22  23
HETATM   23  C2  UNL     1       5.780   0.080  -1.681  1.00  0.00     0.249 C 
BRANCH  23  24
HETATM   24  O1  UNL     1       6.088   0.775  -0.488  1.00  0.00    -0.386 OA
HETATM   25  C1  UNL     1       6.657  -0.175   0.374  1.00  0.00     0.202 C 
ENDBRANCH  23  24
ENDBRANCH  22  23
ENDBRANCH   1  22
TORSDOF 4
