REMARK  6 active torsions:
REMARK  status: ('A' for Active; 'I' for Inactive)
REMARK    1  A    between atoms: C3_3  and  C4_4 
REMARK    2  A    between atoms: C6_8  and  O3_9 
REMARK    3  A    between atoms: C7_11  and  C8_12 
REMARK    4  A    between atoms: C8_12  and  C9_13 
REMARK    5  A    between atoms: C14_18  and  O4_19 
REMARK    6  A    between atoms: O4_19  and  C15_20 
ROOT
HETATM    1  C4  UNL     1      -3.275   0.412  -0.092  1.00  0.00     0.327 C 
HETATM    2  O1  UNL     1      -2.867   1.344  -1.069  1.00  0.00    -0.198 OA
HETATM    3  O2  UNL     1      -1.570   1.612  -0.762  1.00  0.00    -0.189 OA
HETATM    4  C5  UNL     1      -0.720   0.518  -0.760  1.00  0.00     0.176 A 
HETATM    5  C6  UNL     1       0.661   0.641  -0.919  1.00  0.00     0.111 A 
HETATM    6  C7  UNL     1       1.490  -0.454  -0.914  1.00  0.00    -0.016 A 
HETATM    7  C13 UNL     1       0.916  -1.724  -0.743  1.00  0.00     0.050 A 
HETATM    8  C14 UNL     1      -0.446  -1.838  -0.587  1.00  0.00     0.116 A 
HETATM    9  C17 UNL     1      -1.245  -0.738  -0.595  1.00  0.00     0.145 A 
HETATM   10  O6  UNL     1      -2.641  -0.812  -0.438  1.00  0.00    -0.308 OA
ENDROOT
BRANCH   6  11
HETATM   11  C8  UNL     1       2.968  -0.353  -1.081  1.00  0.00     0.069 C 
BRANCH  11  12
HETATM   12  C9  UNL     1       3.618   0.116   0.156  1.00  0.00    -0.020 C 
HETATM   13  C10 UNL     1       4.438   1.137   0.193  1.00  0.00    -0.091 C 
HETATM   14  C11 UNL     1       4.777   1.903  -1.024  1.00  0.00     0.042 C 
HETATM   15  C12 UNL     1       5.064   1.564   1.498  1.00  0.00     0.042 C 
ENDBRANCH  11  12
ENDBRANCH   6  11
BRANCH   5  16
HETATM   16  O3  UNL     1       1.158   1.910  -1.083  1.00  0.00    -0.357 OA
ATOM     17  H3  UNL     1       2.098   1.994  -1.191  1.00  0.00     0.217 HD
ENDBRANCH   5  16
BRANCH   8  18
HETATM   18  O4  UNL     1      -1.045  -3.101  -0.414  1.00  0.00    -0.276 OA
BRANCH  18  19
HETATM   19  C15 UNL     1      -1.209  -3.659   0.848  1.00  0.00     0.260 C 
HETATM   20  C16 UNL     1      -1.822  -4.967   1.095  1.00  0.00     0.126 C 
HETATM   21  O5  UNL     1      -0.797  -2.982   1.818  1.00  0.00    -0.265 OA
ENDBRANCH  18  19
ENDBRANCH   8  18
BRANCH   1  22
HETATM   22  C3  UNL     1      -4.741   0.321  -0.155  1.00  0.00     0.032 C 
HETATM   23  C2  UNL     1      -5.456   1.430  -0.137  1.00  0.00    -0.030 C 
HETATM   24  C1  UNL     1      -4.821   2.759  -0.057  1.00  0.00     0.036 C 
ENDBRANCH   1  22
TORSDOF 6
