REMARK  5 active torsions:
REMARK  status: ('A' for Active; 'I' for Inactive)
REMARK    1  A    between atoms: C2_2  and  O1_3 
REMARK    2  A    between atoms: O1_3  and  C3_4 
REMARK    3  A    between atoms: C3_4  and  C4_6 
REMARK    4  A    between atoms: C5_7  and  C6_8 
REMARK    5  A    between atoms: N2_18  and  S2_19 
ROOT
HETATM    1  C4  UNL     1       0.556  -0.007  -1.027  1.00  0.00     0.144 C 
HETATM    2  C5  UNL     1      -0.252  -1.270  -1.229  1.00  0.00     0.247 C 
HETATM    3  N1  UNL     1      -1.661  -1.039  -0.972  1.00  0.00    -0.039 N 
ATOM      4  H11 UNL     1      -2.215  -1.860  -1.216  1.00  0.00     0.281 HD
ATOM      5  H12 UNL     1      -2.049  -0.372  -1.640  1.00  0.00     0.281 HD
HETATM    6  C8  UNL     1      -1.924  -0.624   0.381  1.00  0.00     0.198 C 
HETATM    7  C9  UNL     1      -3.328  -0.077   0.431  1.00  0.00     0.071 C 
HETATM    8  C10 UNL     1      -1.930  -1.899   1.238  1.00  0.00     0.071 C 
HETATM    9  N2  UNL     1      -0.926   0.259   0.855  1.00  0.00    -0.318 N 
HETATM   10  C12 UNL     1      -0.230   0.954  -0.181  1.00  0.00     0.106 C 
HETATM   11  C13 UNL     1       0.597   2.098   0.297  1.00  0.00     0.034 C 
ENDROOT
BRANCH   1  12
HETATM   12  C3  UNL     1       1.901  -0.286  -0.543  1.00  0.00     0.267 C 
HETATM   13  O2  UNL     1       2.213  -1.503  -0.359  1.00  0.00    -0.265 OA
BRANCH  12  14
HETATM   14  O1  UNL     1       2.884   0.628  -0.259  1.00  0.00    -0.321 OA
BRANCH  14  15
HETATM   15  C2  UNL     1       4.167   0.342   0.204  1.00  0.00     0.174 C 
HETATM   16  C1  UNL     1       4.215  -0.379   1.509  1.00  0.00     0.034 C 
ENDBRANCH  14  15
ENDBRANCH  12  14
ENDBRANCH   1  12
BRANCH   2  17
HETATM   17  C6  UNL     1      -0.136  -1.779  -2.601  1.00  0.00     0.061 A 
HETATM   18  C7  UNL     1      -0.593  -1.553  -3.869  1.00  0.00     0.170 A 
HETATM   19  O3  UNL     1      -0.008  -2.476  -4.633  1.00  0.00    -0.285 OA
HETATM   20  S1  UNL     1       0.741  -3.044  -3.298  1.00  0.00     0.034 SA
ENDBRANCH   2  17
BRANCH   9  21
HETATM   21  S2  UNL     1      -1.227   1.101   2.299  1.00  0.00    -0.060 SA
HETATM   22  C11 UNL     1      -2.103   2.636   2.191  1.00  0.00     0.115 C 
ENDBRANCH   9  21
TORSDOF 5
