REMARK  2 active torsions:
REMARK  status: ('A' for Active; 'I' for Inactive)
REMARK    1  A    between atoms: C2_2  and  C3_3 
REMARK    2  A    between atoms: C4_6  and  C5_7 
ROOT
HETATM    1  C1  UNL     1      -2.046   0.019   0.606  1.00  0.00     0.029 C 
HETATM    2  C2  UNL     1      -0.699   0.137  -0.169  1.00  0.00     0.083 A 
HETATM    3  C4  UNL     1       0.455  -0.459   0.478  1.00  0.00     0.134 A 
HETATM    4  C6  UNL     1      -0.189  -1.238  -0.654  1.00  0.00     0.142 A 
HETATM    5 CL2  UNL     1      -1.170  -2.661  -0.297  1.00  0.00    -0.099 Cl
HETATM    6 CL3  UNL     1       0.676  -1.249  -2.221  1.00  0.00    -0.099 Cl
ENDROOT
BRANCH   2   7
HETATM    7  C3  UNL     1      -0.763   1.127  -1.221  1.00  0.00     0.231 C 
HETATM    8  O1  UNL     1       0.146   1.362  -1.972  1.00  0.00    -0.279 OA
HETATM    9 CL1  UNL     1      -2.227   2.065  -1.459  1.00  0.00    -0.043 Cl
ENDBRANCH   2   7
BRANCH   3  10
HETATM   10  C5  UNL     1       1.847  -0.043   0.438  1.00  0.00     0.239 C 
HETATM   11  N1  UNL     1       2.552   0.545  -0.626  1.00  0.00    -0.062 NA
HETATM   12  O2  UNL     1       2.592  -0.211   1.489  1.00  0.00    -0.276 OA
ENDBRANCH   3  10
TORSDOF 2
