REMARK  1 active torsions:
REMARK  status: ('A' for Active; 'I' for Inactive)
REMARK    1  A    between atoms: C2_2  and  C3_5 
ROOT
HETATM    1  C3  UNL     1       0.159   0.017  -0.369  1.00  0.00     0.221 C 
HETATM    2  N1  UNL     1       1.048   1.104  -0.743  1.00  0.00    -0.300 N 
ATOM      3  H1  UNL     1       0.918   2.021  -1.169  1.00  0.00     0.173 HD
HETATM    4  S1  UNL     1       2.403   0.221  -0.178  1.00  0.00     0.298 S 
HETATM    5  O1  UNL     1       2.867  -0.900  -1.013  1.00  0.00    -0.200 OA
HETATM    6  O2  UNL     1       3.397   0.959   0.620  1.00  0.00    -0.200 OA
HETATM    7  C4  UNL     1       0.994  -0.221   0.835  1.00  0.00     0.384 C 
HETATM    8  F1  UNL     1       0.725   0.657   1.838  1.00  0.00    -0.184 F 
HETATM    9  F2  UNL     1       1.130  -1.534   1.233  1.00  0.00    -0.184 F 
ENDROOT
BRANCH   1  10
HETATM   10  C2  UNL     1      -1.257   0.414  -0.120  1.00  0.00     0.137 C 
HETATM   11  C1  UNL     1      -2.137  -0.743   0.269  1.00  0.00     0.053 C 
HETATM   12 CL1  UNL     1      -1.966   1.035  -1.659  1.00  0.00    -0.100 Cl
HETATM   13 CL2  UNL     1      -1.458   1.726   1.054  1.00  0.00    -0.100 Cl
ENDBRANCH   1  10
TORSDOF 1
