REMARK  3 active torsions:
REMARK  status: ('A' for Active; 'I' for Inactive)
REMARK    1  A    between atoms: O1_2  and  C2_3 
REMARK    2  A    between atoms: C2_3  and  C3_4 
REMARK    3  A    between atoms: C3_4  and  N1_5 
ROOT
HETATM    1  N1  UNL     1      -0.430  -0.769   0.162  1.00  0.00     0.043 N 
HETATM    2  N2  UNL     1      -0.406  -1.556  -1.015  1.00  0.00    -0.214 N 
ATOM      3  H2  UNL     1      -0.364  -2.469  -1.468  1.00  0.00     0.190 HD
HETATM    4  C4  UNL     1      -0.480  -0.200  -1.098  1.00  0.00     0.365 A 
HETATM    5  C5  UNL     1      -1.813   0.550  -1.223  1.00  0.00     0.242 C 
HETATM    6  C6  UNL     1      -2.695  -0.379  -0.378  1.00  0.00     0.075 C 
HETATM    7  C7  UNL     1      -1.675  -0.423   0.770  1.00  0.00     0.245 C 
HETATM    8  C8  UNL     1      -1.603   1.096   1.001  1.00  0.00     0.268 C 
HETATM    9  N3  UNL     1      -1.734   1.675  -0.345  1.00  0.00    -0.065 N 
ATOM     10  H31 UNL     1      -2.511   2.329  -0.440  1.00  0.00     0.277 HD
ATOM     11  H32 UNL     1      -0.995   2.336  -0.585  1.00  0.00     0.277 HD
ENDROOT
BRANCH   1  12
HETATM   12  C3  UNL     1       0.697  -0.995   0.983  1.00  0.00     0.294 C 
BRANCH  12  13
HETATM   13  C2  UNL     1       1.923  -0.207   0.684  1.00  0.00     0.197 C 
BRANCH  13  14
HETATM   14  O1  UNL     1       2.444  -0.390  -0.572  1.00  0.00    -0.394 OA
HETATM   15  C1  UNL     1       3.589   0.431  -0.665  1.00  0.00     0.201 C 
ENDBRANCH  13  14
ENDBRANCH  12  13
ENDBRANCH   1  12
TORSDOF 3
