REMARK  4 active torsions:
REMARK  status: ('A' for Active; 'I' for Inactive)
REMARK    1  A    between atoms: N1_1  and  S1_4 
REMARK    2  A    between atoms: S1_4  and  C1_7 
REMARK    3  A    between atoms: C1_7  and  C2_8 
REMARK    4  A    between atoms: C2_8  and  C3_9 
ROOT
HETATM    1  C1  UNL     1       1.102  -0.254   0.213  1.00  0.00     0.165 C 
ENDROOT
BRANCH   1   2
HETATM    2  S1  UNL     1       2.433   0.327  -0.821  1.00  0.00     0.224 S 
HETATM    3  O1  UNL     1       2.283   1.796  -1.100  1.00  0.00    -0.206 OA
HETATM    4  O2  UNL     1       2.483  -0.491  -2.057  1.00  0.00    -0.206 OA
BRANCH   2   5
HETATM    5  N1  UNL     1       3.890   0.156   0.118  1.00  0.00    -0.328 N 
ATOM      6  H12 UNL     1       4.508   0.912   0.412  1.00  0.00     0.168 HD
ATOM      7  H11 UNL     1       3.992  -0.841   0.307  1.00  0.00     0.168 HD
ENDBRANCH   2   5
ENDBRANCH   1   2
BRANCH   1   8
HETATM    8  C2  UNL     1      -0.237  -0.151  -0.511  1.00  0.00     0.049 C 
BRANCH   8   9
HETATM    9  C3  UNL     1      -1.285  -0.666   0.450  1.00  0.00     0.188 C 
HETATM   10  C4  UNL     1      -2.690  -0.660  -0.051  1.00  0.00     0.060 C 
HETATM   11  C5  UNL     1      -2.675   0.786   0.389  1.00  0.00     0.235 C 
HETATM   12  N2  UNL     1      -1.662   0.402   1.379  1.00  0.00    -0.071 N 
ATOM     13  H22 UNL     1      -1.912   0.202   2.347  1.00  0.00     0.277 HD
ATOM     14  H21 UNL     1      -0.976   1.072   1.727  1.00  0.00     0.277 HD
ENDBRANCH   8   9
ENDBRANCH   1   8
TORSDOF 4
