REMARK  7 active torsions:
REMARK  status: ('A' for Active; 'I' for Inactive)
REMARK    1  A    between atoms: O1_1  and  C1_3 
REMARK    2  A    between atoms: C1_3  and  C2_4 
REMARK    3  A    between atoms: C3_5  and  C4_6 
REMARK    4  A    between atoms: C4_6  and  O2_7 
REMARK    5  A    between atoms: O2_7  and  C5_8 
REMARK    6  A    between atoms: C5_8  and  C6_9 
REMARK    7  A    between atoms: C7_10  and  C8_11 
ROOT
HETATM    1  C5  UNL     1       0.608   0.276  -2.186  1.00  0.00     0.262 C 
ENDROOT
BRANCH   1   2
HETATM    2  O2  UNL     1      -0.576  -0.114  -1.625  1.00  0.00    -0.368 OA
BRANCH   2   3
HETATM    3  C4  UNL     1      -1.040   0.671  -0.607  1.00  0.00     0.262 C 
BRANCH   3   4
HETATM    4  C3  UNL     1      -2.317   0.085  -0.143  1.00  0.00    -0.078 C 
HETATM    5  C2  UNL     1      -3.354  -0.413   0.228  1.00  0.00    -0.079 C 
BRANCH   5   6
HETATM    6  C1  UNL     1      -4.604  -1.041   0.676  1.00  0.00     0.257 C 
BRANCH   6   7
HETATM    7  O1  UNL     1      -5.661  -0.154   0.703  1.00  0.00    -0.389 OA
ATOM      8  H1  UNL     1      -6.469  -0.560   0.993  1.00  0.00     0.210 HD
ENDBRANCH   6   7
ENDBRANCH   5   6
ENDBRANCH   3   4
ENDBRANCH   2   3
ENDBRANCH   1   2
BRANCH   1   9
HETATM    9  C6  UNL     1       1.642   0.276  -1.157  1.00  0.00    -0.078 C 
HETATM   10  C7  UNL     1       2.505   0.258  -0.313  1.00  0.00    -0.069 C 
BRANCH  10  11
HETATM   11  C8  UNL     1       3.569   0.221   0.699  1.00  0.00     0.289 A 
HETATM   12  C9  UNL     1       3.535  -0.879   1.672  1.00  0.00     0.279 A 
HETATM   13  N1  UNL     1       4.501  -0.930   0.583  1.00  0.00    -0.056 N 
ATOM     14  H12 UNL     1       4.730  -1.603  -0.149  1.00  0.00     0.278 HD
ATOM     15  H11 UNL     1       5.514  -1.036   0.520  1.00  0.00     0.278 HD
ENDBRANCH  10  11
ENDBRANCH   1   9
TORSDOF 7
