REMARK  5 active torsions:
REMARK  status: ('A' for Active; 'I' for Inactive)
REMARK    1  A    between atoms: C3_3  and  N1_4 
REMARK    2  A    between atoms: N1_4  and  O1_5 
REMARK    3  A    between atoms: C4_7  and  C5_8 
REMARK    4  A    between atoms: C7_10  and  C8_11 
REMARK    5  A    between atoms: C8_11  and  O2_12 
ROOT
HETATM    1  C1  UNL     1       5.039   0.938  -0.522  1.00  0.00     0.014 C 
HETATM    2  C2  UNL     1       4.274   0.129  -0.051  1.00  0.00    -0.095 C 
HETATM    3  C3  UNL     1       3.343  -0.846   0.538  1.00  0.00     0.247 C 
ENDROOT
BRANCH   3   4
HETATM    4  N1  UNL     1       2.028  -0.747  -0.078  1.00  0.00    -0.263 N 
HETATM    5  C4  UNL     1       0.959  -0.466   0.591  1.00  0.00     0.123 C 
BRANCH   4   6
HETATM    6  O1  UNL     1       1.960  -0.973  -1.449  1.00  0.00    -0.287 OA
ATOM      7  H1  UNL     1       1.102  -0.908  -1.851  1.00  0.00     0.244 HD
ENDBRANCH   4   6
BRANCH   5   8
HETATM    8  C5  UNL     1      -0.316  -0.382  -0.077  1.00  0.00     0.228 C 
HETATM    9  C6  UNL     1      -1.028   0.969  -0.049  1.00  0.00     0.073 C 
HETATM   10  C7  UNL     1      -2.229   0.029  -0.199  1.00  0.00     0.212 C 
HETATM   11  N2  UNL     1      -1.484  -0.849   0.690  1.00  0.00    -0.060 N 
ATOM     12  H22 UNL     1      -1.709  -1.838   0.802  1.00  0.00     0.278 HD
ATOM     13  H21 UNL     1      -1.539  -0.778   1.706  1.00  0.00     0.278 HD
BRANCH  10  14
HETATM   14  C8  UNL     1      -3.514   0.555   0.351  1.00  0.00     0.197 C 
BRANCH  14  15
HETATM   15  O2  UNL     1      -4.336  -0.515   0.643  1.00  0.00    -0.399 OA
ATOM     16  H2  UNL     1      -5.153  -0.180   0.993  1.00  0.00     0.209 HD
ENDBRANCH  14  15
ENDBRANCH  10  14
ENDBRANCH   5   8
ENDBRANCH   3   4
TORSDOF 5
