REMARK  2 active torsions:
REMARK  status: ('A' for Active; 'I' for Inactive)
REMARK    1  A    between atoms: C1_2  and  N1_3 
REMARK    2  A    between atoms: N1_3  and  C2_5 
ROOT
HETATM    1  C2  UNL     1       0.442  -0.051   0.052  1.00  0.00     0.286 C 
HETATM    2  C3  UNL     1      -0.629   0.267  -0.999  1.00  0.00     0.056 C 
HETATM    3  C4  UNL     1      -1.741   0.654  -0.043  1.00  0.00     0.031 C 
HETATM    4  C5  UNL     1      -1.521  -0.248   1.127  1.00  0.00     0.235 C 
HETATM    5  N2  UNL     1      -0.303  -1.016   0.848  1.00  0.00    -0.054 N 
ATOM      6  H21 UNL     1       0.184  -1.384   1.665  1.00  0.00     0.279 HD
ATOM      7  H22 UNL     1      -0.446  -1.929   0.416  1.00  0.00     0.279 HD
ENDROOT
BRANCH   1   8
HETATM    8  N1  UNL     1       1.642  -0.538  -0.489  1.00  0.00    -0.341 N 
ATOM      9  H1  UNL     1       1.642  -1.360  -1.093  1.00  0.00     0.163 HD
BRANCH   8  10
HETATM   10  C1  UNL     1       2.853   0.129  -0.184  1.00  0.00     0.350 C 
HETATM   11  O1  UNL     1       2.901   1.146   0.556  1.00  0.00    -0.284 OA
ENDBRANCH   8  10
ENDBRANCH   1   8
TORSDOF 2
