REMARK  2 active torsions:
REMARK  status: ('A' for Active; 'I' for Inactive)
REMARK    1  A    between atoms: C5_5  and  N1_6 
REMARK       I    between atoms: N1_6  and  C6_8 
REMARK       I    between atoms: C6_8  and  N2_10 
REMARK    2  A    between atoms: N2_10  and  N3_12 
ROOT
HETATM    1  C1  UNL     1      -3.533  -0.221   0.590  1.00  0.00     0.040 C 
HETATM    2  C2  UNL     1      -2.530   0.131  -0.495  1.00  0.00     0.182 C 
HETATM    3  C3  UNL     1      -1.887   1.440  -0.179  1.00  0.00     0.034 C 
HETATM    4  C4  UNL     1      -0.398   1.443  -0.234  1.00  0.00     0.029 C 
HETATM    5  C5  UNL     1       0.259   0.233   0.359  1.00  0.00     0.112 C 
HETATM    6  C7  UNL     1      -0.644  -0.971   0.422  1.00  0.00     0.257 C 
HETATM    7  N4  UNL     1      -1.618  -0.964  -0.600  1.00  0.00    -0.069 N 
ATOM      8  H41 UNL     1      -1.180  -0.986  -1.521  1.00  0.00     0.277 HD
ATOM      9  H42 UNL     1      -2.118  -1.852  -0.632  1.00  0.00     0.277 HD
ENDROOT
BRANCH   5  10
HETATM   10  N1  UNL     1       1.402  -0.132  -0.442  1.00  0.00    -0.336 N 
HETATM   11  C6  UNL     1       2.685  -0.191   0.157  1.00  0.00     0.334 C 
HETATM   12  O1  UNL     1       2.851   0.068   1.381  1.00  0.00    -0.246 OA
HETATM   13  N2  UNL     1       3.816  -0.549  -0.622  1.00  0.00    -0.258 N 
ATOM     14  H2  UNL     1       3.710  -0.764  -1.613  1.00  0.00     0.191 HD
ATOM     15  H1  UNL     1       1.287  -0.346  -1.433  1.00  0.00     0.164 HD
BRANCH  13  16
HETATM   16  N3  UNL     1       5.058  -0.604  -0.030  1.00  0.00    -0.341 N 
ATOM     17  H32 UNL     1       5.147  -0.386   0.962  1.00  0.00     0.177 HD
ATOM     18  H31 UNL     1       5.871  -0.861  -0.590  1.00  0.00     0.177 HD
ENDBRANCH  13  16
ENDBRANCH   5  10
TORSDOF 2
