REMARK  2 active torsions:
REMARK  status: ('A' for Active; 'I' for Inactive)
REMARK    1  A    between atoms: C1_4  and  C2_6 
REMARK    2  A    between atoms: C6_13  and  C7_14 
ROOT
HETATM    1  C2  UNL     1      -0.014   0.669   0.270  1.00  0.00     0.262 C 
HETATM    2  N3  UNL     1       1.028   1.093  -0.697  1.00  0.00    -0.064 N 
ATOM      3  H31 UNL     1       0.928   2.062  -1.000  1.00  0.00     0.278 HD
ATOM      4  H32 UNL     1       0.926   0.662  -1.616  1.00  0.00     0.278 HD
HETATM    5  C3  UNL     1       2.309   0.816  -0.069  1.00  0.00     0.233 C 
HETATM    6  C4  UNL     1       2.474  -0.616   0.266  1.00  0.00     0.028 C 
HETATM    7  C5  UNL     1       1.315  -1.166   1.088  1.00  0.00     0.018 C 
HETATM    8  C6  UNL     1       0.063  -0.826   0.262  1.00  0.00     0.113 C 
ENDROOT
BRANCH   1   9
HETATM    9  C1  UNL     1      -1.298   1.270  -0.037  1.00  0.00     0.118 C 
HETATM   10  N1  UNL     1      -1.473   1.862  -1.158  1.00  0.00    -0.389 N 
ATOM     11  H12 UNL     1      -2.376   2.285  -1.374  1.00  0.00     0.157 HD
ATOM     12  H11 UNL     1      -0.703   1.904  -1.826  1.00  0.00     0.157 HD
HETATM   13  N2  UNL     1      -2.360   1.212   0.885  1.00  0.00    -0.086 NA
ENDBRANCH   1   9
BRANCH   8  14
HETATM   14  C7  UNL     1      -1.105  -1.570   0.680  1.00  0.00     0.237 C 
HETATM   15  N4  UNL     1      -2.287  -1.675  -0.101  1.00  0.00    -0.062 NA
HETATM   16  O1  UNL     1      -1.054  -2.157   1.816  1.00  0.00    -0.276 OA
ENDBRANCH   8  14
TORSDOF 2
