REMARK  3 active torsions:
REMARK  status: ('A' for Active; 'I' for Inactive)
REMARK       I    between atoms: C1_2  and  N2_4 
REMARK    1  A    between atoms: N2_4  and  N3_6 
REMARK    2  A    between atoms: N3_6  and  C2_8 
REMARK    3  A    between atoms: C2_8  and  N4_9 
ROOT
HETATM    1  C2  UNL     1      -0.134  -0.484   0.213  1.00  0.00     0.208 C 
HETATM    2  C3  UNL     1      -1.283  -1.413  -0.158  1.00  0.00     0.062 C 
HETATM    3  C4  UNL     1      -2.617  -0.770   0.063  1.00  0.00     0.004 C 
HETATM    4  C5  UNL     1      -2.703   0.633  -0.446  1.00  0.00     0.000 C 
HETATM    5  C6  UNL     1      -1.479   1.454  -0.410  1.00  0.00     0.004 C 
HETATM    6  C7  UNL     1      -0.232   0.697  -0.737  1.00  0.00     0.062 C 
ENDROOT
BRANCH   1   7
HETATM    7  N3  UNL     1       1.066  -1.211   0.067  1.00  0.00    -0.297 N 
ATOM      8  H3  UNL     1       1.021  -2.219   0.215  1.00  0.00     0.183 HD
BRANCH   7   9
HETATM    9  N2  UNL     1       2.246  -0.698  -0.245  1.00  0.00    -0.256 N 
HETATM   10  C1  UNL     1       3.013   0.216   0.488  1.00  0.00     0.346 C 
HETATM   11  N1  UNL     1       4.306   0.652  -0.060  1.00  0.00    -0.038 NA
HETATM   12  O1  UNL     1       2.633   0.664   1.581  1.00  0.00    -0.249 OA
ATOM     13  H2  UNL     1       2.647  -1.007  -1.130  1.00  0.00     0.191 HD
ENDBRANCH   7   9
ENDBRANCH   1   7
BRANCH   1  14
HETATM   14  N4  UNL     1      -0.277   0.009   1.549  1.00  0.00    -0.051 N 
ATOM     15  H43 UNL     1      -0.206  -0.741   2.236  1.00  0.00     0.277 HD
ATOM     16  H42 UNL     1       0.533   0.559   1.835  1.00  0.00     0.277 HD
ATOM     17  H41 UNL     1      -1.145   0.535   1.655  1.00  0.00     0.277 HD
ENDBRANCH   1  14
TORSDOF 3
