REMARK  2 active torsions:
REMARK  status: ('A' for Active; 'I' for Inactive)
REMARK    1  A    between atoms: C6_9  and  C7_10 
REMARK    2  A    between atoms: C9_12  and  O1_14 
ROOT
HETATM    1  C1  UNL     1       1.265   0.427  -2.409  1.00  0.00     0.068 C 
HETATM    2  C2  UNL     1       1.870   0.113  -1.077  1.00  0.00     0.013 A 
HETATM    3  N1  UNL     1       3.155  -0.239  -0.996  1.00  0.00    -0.369 N 
ATOM      4  H1  UNL     1       3.695  -0.297  -1.859  1.00  0.00     0.165 HD
HETATM    5  C3  UNL     1       3.774  -0.521   0.161  1.00  0.00     0.090 A 
HETATM    6  C4  UNL     1       3.069  -0.450   1.333  1.00  0.00     0.041 A 
HETATM    7  C5  UNL     1       1.705  -0.085   1.328  1.00  0.00     0.044 A 
HETATM    8 CL1  UNL     1       0.935  -0.031   2.906  1.00  0.00    -0.084 Cl
HETATM    9  C6  UNL     1       1.122   0.191   0.130  1.00  0.00    -0.007 A 
ENDROOT
BRANCH   9  10
HETATM   10  C7  UNL     1      -0.255   0.561  -0.058  1.00  0.00     0.067 C 
HETATM   11  C8  UNL     1      -1.161   0.849   1.043  1.00  0.00     0.053 C 
HETATM   12  C9  UNL     1      -2.094  -0.275   0.611  1.00  0.00     0.091 C 
HETATM   13  C10 UNL     1      -3.517   0.180   0.357  1.00  0.00     0.049 C 
HETATM   14  C11 UNL     1      -1.231  -0.447  -0.566  1.00  0.00     0.151 C 
HETATM   15 CL2  UNL     1      -2.112   0.151  -2.020  1.00  0.00    -0.098 Cl
HETATM   16 CL3  UNL     1      -0.748  -2.109  -0.769  1.00  0.00    -0.098 Cl
BRANCH  12  17
HETATM   17  O1  UNL     1      -2.070  -1.382   1.462  1.00  0.00    -0.387 OA
ATOM     18  H1  UNL     1      -2.652  -2.083   1.193  1.00  0.00     0.210 HD
ENDBRANCH  12  17
ENDBRANCH   9  10
TORSDOF 2
