REMARK  2 active torsions:
REMARK  status: ('A' for Active; 'I' for Inactive)
REMARK    1  A    between atoms: C2_2  and  C4_4 
REMARK    2  A    between atoms: C4_4  and  N1_5 
ROOT
HETATM    1  N1  UNL     1       2.186  -0.541  -0.086  1.00  0.00    -0.374 N 
ATOM      2  H1  UNL     1       2.836  -0.663   0.691  1.00  0.00     0.164 HD
HETATM    3  C5  UNL     1       1.206  -1.280   0.021  1.00  0.00     0.013 C 
HETATM    4  C6  UNL     1       1.173  -2.181   1.240  1.00  0.00     0.132 C 
HETATM    5  C7  UNL     1      -0.117  -1.854   1.898  1.00  0.00     0.134 C 
HETATM    6  O1  UNL     1      -0.129  -1.655   3.091  1.00  0.00    -0.298 OA
HETATM    7  C8  UNL     1      -1.347  -1.782   1.080  1.00  0.00     0.119 C 
HETATM    8  C9  UNL     1      -1.192  -0.869  -0.144  1.00  0.00     0.153 C 
HETATM    9  C10 UNL     1      -2.407  -1.050  -0.989  1.00  0.00     0.041 C 
HETATM   10  C11 UNL     1      -3.020   0.236  -1.465  1.00  0.00     0.008 C 
HETATM   11  C12 UNL     1      -3.156   1.260  -0.376  1.00  0.00     0.007 C 
HETATM   12  C13 UNL     1      -4.595   1.317   0.151  1.00  0.00     0.011 C 
HETATM   13  C14 UNL     1      -2.198   1.067   0.756  1.00  0.00     0.237 C 
HETATM   14  N2  UNL     1      -0.977   0.459   0.333  1.00  0.00    -0.064 N 
ATOM     15  H21 UNL     1      -0.496   1.031  -0.361  1.00  0.00     0.278 HD
ATOM     16  H22 UNL     1      -0.274   0.481   1.071  1.00  0.00     0.278 HD
HETATM   17  C15 UNL     1       0.045  -1.417  -0.868  1.00  0.00     0.175 C 
HETATM   18  C16 UNL     1       0.154  -0.816  -2.165  1.00  0.00     0.072 C 
HETATM   19  N3  UNL     1       0.220  -0.351  -3.210  1.00  0.00    -0.196 NA
ENDROOT
BRANCH   1  20
HETATM   20  C4  UNL     1       2.637   0.412  -0.985  1.00  0.00     0.064 C 
BRANCH  20  21
HETATM   21  C2  UNL     1       3.818   1.225  -0.478  1.00  0.00     0.016 C 
HETATM   22  C1  UNL     1       5.011   0.376  -0.166  1.00  0.00     0.015 C 
HETATM   23  C3  UNL     1       3.440   2.040   0.732  1.00  0.00     0.015 C 
ENDBRANCH  20  21
ENDBRANCH   1  20
TORSDOF 2
