REMARK  8 active torsions:
REMARK  status: ('A' for Active; 'I' for Inactive)
REMARK    1  A    between atoms: N2_5  and  C3_6 
REMARK    2  A    between atoms: C3_6  and  C4_7 
REMARK    3  A    between atoms: C4_7  and  C5_8 
REMARK    4  A    between atoms: C10_16  and  N4_17 
REMARK    5  A    between atoms: C12_20  and  C13_21 
REMARK    6  A    between atoms: C13_21  and  C14_22 
REMARK    7  A    between atoms: C17_25  and  O1_26 
REMARK    8  A    between atoms: C20_29  and  O2_30 
ROOT
HETATM    1  C1  UNL     1       1.077   0.923  -2.240  1.00  0.00     0.045 C 
HETATM    2  C2  UNL     1       0.075   0.222  -1.767  1.00  0.00     0.053 A 
HETATM    3  N1  UNL     1      -1.091  -0.019  -2.461  1.00  0.00    -0.297 N 
ATOM      4  H1  UNL     1      -1.276   0.326  -3.403  1.00  0.00     0.187 HD
HETATM    5  N2  UNL     1      -1.915  -0.728  -1.783  1.00  0.00    -0.275 N 
HETATM    6  C10 UNL     1      -1.381  -1.040  -0.554  1.00  0.00     0.134 A 
HETATM    7  C12 UNL     1      -0.115  -0.426  -0.562  1.00  0.00     0.038 A 
ENDROOT
BRANCH   7   8
HETATM    8  C13 UNL     1       0.710  -0.490   0.438  1.00  0.00     0.032 C 
BRANCH   8   9
HETATM    9  C14 UNL     1       2.027   0.050   0.642  1.00  0.00    -0.002 A 
HETATM   10  C15 UNL     1       2.283   1.288   1.212  1.00  0.00     0.017 A 
HETATM   11  C16 UNL     1       3.554   1.768   1.431  1.00  0.00     0.038 A 
HETATM   12  C17 UNL     1       4.641   0.998   1.075  1.00  0.00     0.070 A 
HETATM   13  C19 UNL     1       4.433  -0.244   0.504  1.00  0.00     0.074 A 
HETATM   14  C20 UNL     1       3.163  -0.697   0.297  1.00  0.00     0.081 A 
BRANCH  12  15
HETATM   15  O1  UNL     1       5.942   1.461   1.287  1.00  0.00    -0.356 OA
HETATM   16  C18 UNL     1       6.115   2.731   1.871  1.00  0.00     0.210 C 
ENDBRANCH  12  15
BRANCH  14  17
HETATM   17  O2  UNL     1       2.935  -1.923  -0.268  1.00  0.00    -0.355 OA
HETATM   18  C21 UNL     1       4.009  -2.735  -0.643  1.00  0.00     0.210 C 
ENDBRANCH  14  17
ENDBRANCH   8   9
ENDBRANCH   7   8
BRANCH   6  19
HETATM   19  N4  UNL     1      -1.953  -1.735   0.313  1.00  0.00    -0.360 N 
HETATM   20  C11 UNL     1      -1.823  -2.260   1.565  1.00  0.00     0.120 C 
ATOM     21  H4  UNL     1      -2.862  -2.016  -0.055  1.00  0.00     0.165 HD
ENDBRANCH   6  19
BRANCH   5  22
HETATM   22  C3  UNL     1      -3.226  -1.132  -2.224  1.00  0.00     0.155 C 
BRANCH  22  23
HETATM   23  C4  UNL     1      -4.319  -0.156  -2.005  1.00  0.00     0.062 C 
BRANCH  23  24
HETATM   24  C5  UNL     1      -4.598   0.258  -0.633  1.00  0.00    -0.040 A 
HETATM   25  C6  UNL     1      -5.492  -0.465   0.128  1.00  0.00     0.094 A 
HETATM   26  N3  UNL     1      -5.737  -0.046   1.378  1.00  0.00    -0.373 N 
HETATM   27  C7  UNL     1      -5.161   1.035   1.929  1.00  0.00     0.106 A 
ATOM     28  H3  UNL     1      -6.399  -0.579   1.943  1.00  0.00     0.164 HD
HETATM   29  C8  UNL     1      -4.277   1.761   1.195  1.00  0.00     0.026 A 
HETATM   30 BR1  UNL     1      -3.472   3.297   2.009  1.00  0.00    -0.050 Br
HETATM   31  C9  UNL     1      -3.994   1.370  -0.090  1.00  0.00     0.029 A 
ENDBRANCH  23  24
ENDBRANCH  22  23
ENDBRANCH   5  22
TORSDOF 8
