REMARK  6 active torsions:
REMARK  status: ('A' for Active; 'I' for Inactive)
REMARK       I    between atoms: N1_8  and  C8_9 
REMARK    1  A    between atoms: C8_9  and  C9_11 
REMARK    2  A    between atoms: C9_11  and  N2_12 
REMARK    3  A    between atoms: N2_12  and  C10_13 
REMARK    4  A    between atoms: N2_12  and  C16_25 
REMARK    5  A    between atoms: C10_13  and  C11_14 
REMARK       I    between atoms: C11_14  and  N3_16 
REMARK    6  A    between atoms: N3_16  and  C12_18 
ROOT
HETATM    1  N2  UNL     1      -0.148   1.675  -0.452  1.00  0.00    -0.348 N 
ENDROOT
BRANCH   1   2
HETATM    2  C9  UNL     1      -0.609   0.853   0.514  1.00  0.00     0.165 C 
BRANCH   2   3
HETATM    3  C8  UNL     1      -1.990   0.561   0.844  1.00  0.00     0.259 C 
HETATM    4  N1  UNL     1      -2.323  -0.363   1.926  1.00  0.00    -0.339 N 
HETATM    5  C2  UNL     1      -3.704  -0.660   2.247  1.00  0.00     0.084 C 
HETATM    6  C6  UNL     1      -1.293  -0.996   2.703  1.00  0.00     0.084 C 
HETATM    7  C1  UNL     1      -4.198  -1.921   1.569  1.00  0.00     0.032 C 
HETATM    8  C3  UNL     1      -4.009  -0.623   3.713  1.00  0.00     0.025 C 
HETATM    9  C4  UNL     1      -3.074  -1.614   4.381  1.00  0.00     0.004 C 
HETATM   10  C5  UNL     1      -1.641  -1.236   4.137  1.00  0.00     0.025 C 
HETATM   11  C7  UNL     1      -0.823  -2.313   2.119  1.00  0.00     0.032 C 
HETATM   12  O1  UNL     1      -2.992   1.026   0.289  1.00  0.00    -0.267 OA
ENDBRANCH   2   3
ENDBRANCH   1   2
BRANCH   1  13
HETATM   13  C10 UNL     1       1.328   1.705  -0.441  1.00  0.00     0.230 C 
BRANCH  13  14
HETATM   14  C11 UNL     1       1.963   0.474  -0.896  1.00  0.00     0.236 C 
HETATM   15  O2  UNL     1       1.264  -0.497  -1.268  1.00  0.00    -0.272 OA
HETATM   16  N3  UNL     1       3.372   0.296  -0.949  1.00  0.00    -0.354 N 
ATOM     17  H3  UNL     1       3.990   1.054  -0.661  1.00  0.00     0.162 HD
BRANCH  16  18
HETATM   18  C12 UNL     1       3.934  -0.955  -1.409  1.00  0.00     0.099 C 
HETATM   19  C13 UNL     1       4.745  -1.622  -0.385  1.00  0.00     0.041 C 
HETATM   20  C14 UNL     1       6.160  -1.858  -0.795  1.00  0.00     0.142 C 
HETATM   21  S1  UNL     1       5.961  -2.032  -2.579  1.00  0.00     0.146 S 
HETATM   22  O3  UNL     1       7.167  -1.633  -3.328  1.00  0.00    -0.228 OA
HETATM   23  O4  UNL     1       5.478  -3.408  -2.824  1.00  0.00    -0.228 OA
HETATM   24  C15 UNL     1       4.630  -0.822  -2.724  1.00  0.00     0.165 C 
ENDBRANCH  16  18
ENDBRANCH  13  14
ENDBRANCH   1  13
BRANCH   1  25
HETATM   25  C16 UNL     1      -0.665   2.397  -1.473  1.00  0.00     0.008 C 
HETATM   26  C17 UNL     1      -1.657   3.513  -1.218  1.00  0.00     0.054 C 
HETATM   27  C18 UNL     1      -2.685   3.462  -2.335  1.00  0.00     0.007 C 
HETATM   28  C19 UNL     1      -1.887   2.934  -3.480  1.00  0.00     0.026 C 
HETATM   29  C20 UNL     1      -1.013   1.855  -2.805  1.00  0.00     0.128 C 
HETATM   30 CL1  UNL     1      -1.828   0.347  -2.967  1.00  0.00    -0.119 Cl
ENDBRANCH   1  25
TORSDOF 6
