REMARK  9 active torsions:
REMARK  status: ('A' for Active; 'I' for Inactive)
REMARK    1  A    between atoms: C2_2  and  O1_3 
REMARK    2  A    between atoms: O1_3  and  C3_4 
REMARK    3  A    between atoms: C3_4  and  C4_6 
REMARK       I    between atoms: N1_8  and  C6_9 
REMARK    4  A    between atoms: C11_15  and  C12_16 
REMARK    5  A    between atoms: C12_16  and  O4_17 
REMARK    6  A    between atoms: C12_16  and  N2_19 
REMARK    7  A    between atoms: N2_19  and  C13_21 
REMARK    8  A    between atoms: C13_21  and  C14_22 
REMARK    9  A    between atoms: C14_22  and  N3_23 
ROOT
HETATM    1  C4  UNL     1       3.572   0.300  -1.428  1.00  0.00     0.137 C 
HETATM    2  C5  UNL     1       4.277  -0.981  -1.655  1.00  0.00     0.145 C 
HETATM    3  N1  UNL     1       3.680  -2.168  -1.174  1.00  0.00    -0.347 N 
HETATM    4  C6  UNL     1       4.419  -3.389  -1.357  1.00  0.00     0.216 C 
HETATM    5  C7  UNL     1       3.836  -4.651  -0.847  1.00  0.00     0.117 C 
HETATM    6  O3  UNL     1       5.530  -3.358  -1.937  1.00  0.00    -0.274 OA
HETATM    7  C8  UNL     1       2.427  -2.253  -0.533  1.00  0.00     0.165 C 
HETATM    8  C9  UNL     1       1.576  -1.069  -0.759  1.00  0.00    -0.032 A 
HETATM    9  C10 UNL     1       0.211  -1.169  -0.544  1.00  0.00     0.026 A 
HETATM   10  C11 UNL     1      -0.686  -0.092  -0.713  1.00  0.00     0.032 A 
HETATM   11  C17 UNL     1      -0.106   1.081  -1.112  1.00  0.00     0.026 A 
HETATM   12 BR1  UNL     1      -1.208   2.609  -1.434  1.00  0.00    -0.050 Br
HETATM   13  C18 UNL     1       1.278   1.180  -1.328  1.00  0.00     0.028 A 
HETATM   14  C19 UNL     1       2.125   0.116  -1.157  1.00  0.00    -0.034 A 
ENDROOT
BRANCH  10  15
HETATM   15  C12 UNL     1      -2.092  -0.306  -0.415  1.00  0.00     0.147 C 
BRANCH  15  16
HETATM   16  O4  UNL     1      -2.460  -1.549  -0.617  1.00  0.00    -0.346 OA
ATOM     17  H4  UNL     1      -3.379  -1.689  -0.422  1.00  0.00     0.219 HD
ENDBRANCH  15  16
BRANCH  15  18
HETATM   18  N2  UNL     1      -3.053   0.592   0.041  1.00  0.00    -0.369 N 
ATOM     19  H2  UNL     1      -2.817   1.567   0.223  1.00  0.00     0.161 HD
BRANCH  18  20
HETATM   20  C13 UNL     1      -4.399   0.099   0.249  1.00  0.00     0.152 C 
BRANCH  20  21
HETATM   21  C14 UNL     1      -5.356   1.145   0.749  1.00  0.00     0.290 C 
BRANCH  21  22
HETATM   22  N3  UNL     1      -6.676   0.571   0.929  1.00  0.00     0.081 N 
HETATM   23  C15 UNL     1      -6.767  -0.378   1.994  1.00  0.00     0.309 C 
HETATM   24  C16 UNL     1      -7.719   1.568   0.954  1.00  0.00     0.309 C 
ENDBRANCH  21  22
ENDBRANCH  20  21
ENDBRANCH  18  20
ENDBRANCH  15  18
ENDBRANCH  10  15
BRANCH   1  25
HETATM   25  C3  UNL     1       4.276   1.101  -0.407  1.00  0.00     0.269 C 
HETATM   26  O2  UNL     1       5.231   0.632   0.264  1.00  0.00    -0.264 OA
BRANCH  25  27
HETATM   27  O1  UNL     1       3.892   2.399  -0.170  1.00  0.00    -0.321 OA
BRANCH  27  28
HETATM   28  C2  UNL     1       4.432   3.301   0.747  1.00  0.00     0.174 C 
HETATM   29  C1  UNL     1       4.282   2.821   2.147  1.00  0.00     0.034 C 
ENDBRANCH  27  28
ENDBRANCH  25  27
ENDBRANCH   1  25
TORSDOF 9
