REMARK  4 active torsions:
REMARK  status: ('A' for Active; 'I' for Inactive)
REMARK    1  A    between atoms: O1_2  and  C2_3 
REMARK    2  A    between atoms: C4_5  and  O2_6 
REMARK    3  A    between atoms: C6_9  and  O3_10 
REMARK    4  A    between atoms: C12_17  and  O4_18 
ROOT
HETATM    1  C2  UNL     1       2.542  -0.101  -0.066  1.00  0.00     0.080 A 
HETATM    2  C3  UNL     1       2.424  -1.224  -0.832  1.00  0.00     0.076 A 
HETATM    3  C4  UNL     1       1.438  -2.089  -0.431  1.00  0.00     0.104 A 
HETATM    4  C5  UNL     1       0.627  -1.859   0.663  1.00  0.00     0.136 A 
HETATM    5  C6  UNL     1       0.757  -0.714   1.494  1.00  0.00     0.111 A 
HETATM    6  C7  UNL     1       1.726   0.156   1.064  1.00  0.00     0.012 A 
HETATM    7  C8  UNL     1       1.822   1.671   1.315  1.00  0.00     0.049 C 
HETATM    8  C9  UNL     1       0.811   2.331   0.360  1.00  0.00    -0.012 C 
HETATM    9  C10 UNL     1       0.907   3.814   0.672  1.00  0.00     0.010 C 
HETATM   10  C11 UNL     1      -0.611   1.910   0.511  1.00  0.00     0.036 C 
HETATM   11  C12 UNL     1      -1.137   0.917  -0.505  1.00  0.00     0.122 C 
HETATM   12  C13 UNL     1      -2.177  -0.052   0.056  1.00  0.00     0.013 C 
HETATM   13  C14 UNL     1      -3.551   0.500  -0.426  1.00  0.00     0.012 C 
HETATM   14  C15 UNL     1      -1.968  -1.427  -0.438  1.00  0.00     0.039 C 
HETATM   15  C16 UNL     1      -1.797  -2.562   0.527  1.00  0.00     0.125 C 
HETATM   16  C17 UNL     1      -2.337  -3.816  -0.112  1.00  0.00     0.040 C 
HETATM   17  O5  UNL     1      -0.366  -2.872   0.804  1.00  0.00    -0.341 OA
ENDROOT
BRANCH   1  18
HETATM   18  O1  UNL     1       3.538   0.823  -0.450  1.00  0.00    -0.355 OA
HETATM   19  C1  UNL     1       4.334   0.554  -1.567  1.00  0.00     0.210 C 
ENDBRANCH   1  18
BRANCH   3  20
HETATM   20  O2  UNL     1       1.359  -3.236  -1.265  1.00  0.00    -0.358 OA
ATOM     21  H2  UNL     1       0.676  -3.835  -0.987  1.00  0.00     0.217 HD
ENDBRANCH   3  20
BRANCH   5  22
HETATM   22  O3  UNL     1      -0.050  -0.618   2.640  1.00  0.00    -0.357 OA
ATOM     23  H3  UNL     1       0.037   0.148   3.196  1.00  0.00     0.217 HD
ENDBRANCH   5  22
BRANCH  11  24
HETATM   24  O4  UNL     1      -1.789   1.722  -1.508  1.00  0.00    -0.395 OA
ATOM     25  H4  UNL     1      -2.119   1.099  -2.145  1.00  0.00     0.210 HD
ENDBRANCH  11  24
TORSDOF 4
