REMARK  6 active torsions:
REMARK  status: ('A' for Active; 'I' for Inactive)
REMARK    1  A    between atoms: C3_3  and  C4_4 
REMARK    2  A    between atoms: C5_5  and  O1_6 
REMARK    3  A    between atoms: C6_8  and  C7_9 
REMARK    4  A    between atoms: C9_12  and  O3_13 
REMARK    5  A    between atoms: C17_23  and  C18_24 
REMARK    6  A    between atoms: C18_24  and  O5_25 
ROOT
HETATM    1  C4  UNL     1       1.568   0.140  -0.089  1.00  0.00     0.032 A 
HETATM    2  C5  UNL     1       2.077  -1.171  -0.132  1.00  0.00     0.095 A 
HETATM    3  C6  UNL     1       1.210  -2.286  -0.319  1.00  0.00     0.077 A 
HETATM    4  C9  UNL     1      -0.131  -2.034  -0.455  1.00  0.00     0.091 A 
HETATM    5  C10 UNL     1      -0.626  -0.699  -0.408  1.00  0.00     0.017 A 
HETATM    6  C11 UNL     1       0.212   0.355  -0.229  1.00  0.00     0.092 A 
HETATM    7  O4  UNL     1      -0.354   1.661  -0.190  1.00  0.00    -0.339 OA
HETATM    8  C12 UNL     1      -1.620   1.727   0.494  1.00  0.00     0.064 C 
HETATM    9  C13 UNL     1      -1.412   1.592   1.988  1.00  0.00     0.046 C 
HETATM   10  C14 UNL     1      -2.131   3.138   0.233  1.00  0.00     0.046 C 
HETATM   11  C15 UNL     1      -2.613   0.749  -0.020  1.00  0.00     0.026 C 
HETATM   12  C16 UNL     1      -3.585   0.466   1.128  1.00  0.00     0.014 C 
HETATM   13  C17 UNL     1      -2.065  -0.509  -0.579  1.00  0.00     0.054 C 
ENDROOT
BRANCH   1  14
HETATM   14  C3  UNL     1       2.428   1.287   0.095  1.00  0.00     0.013 C 
HETATM   15  C2  UNL     1       3.705   1.373   0.240  1.00  0.00    -0.030 C 
HETATM   16  C1  UNL     1       4.277   2.777   0.413  1.00  0.00     0.036 C 
ENDBRANCH   1  14
BRANCH   2  17
HETATM   17  O1  UNL     1       3.355  -1.447  -0.006  1.00  0.00    -0.359 OA
ATOM     18  H1  UNL     1       3.699  -2.332  -0.035  1.00  0.00     0.217 HD
ENDBRANCH   2  17
BRANCH   3  19
HETATM   19  C7  UNL     1       1.754  -3.632  -0.362  1.00  0.00     0.161 C 
HETATM   20  C8  UNL     1       3.182  -3.978  -0.226  1.00  0.00     0.097 C 
HETATM   21  O2  UNL     1       0.980  -4.605  -0.527  1.00  0.00    -0.293 OA
ENDBRANCH   3  19
BRANCH   4  22
HETATM   22  O3  UNL     1      -1.059  -3.017  -0.638  1.00  0.00    -0.359 OA
ATOM     23  H3  UNL     1      -1.988  -2.842  -0.732  1.00  0.00     0.217 HD
ENDBRANCH   4  22
BRANCH  13  24
HETATM   24  C18 UNL     1      -2.498  -0.687  -2.024  1.00  0.00     0.174 C 
BRANCH  24  25
HETATM   25  O5  UNL     1      -3.847  -0.511  -2.195  1.00  0.00    -0.400 OA
ATOM     26  H5  UNL     1      -4.118  -0.622  -3.099  1.00  0.00     0.209 HD
ENDBRANCH  24  25
ENDBRANCH  13  24
TORSDOF 6
