REMARK  10 active torsions:
REMARK  status: ('A' for Active; 'I' for Inactive)
REMARK    1  A    between atoms: C2_2  and  C4_4 
REMARK    2  A    between atoms: C4_4  and  C9_13 
REMARK    3  A    between atoms: N1_5  and  O1_7 
REMARK    4  A    between atoms: O1_7  and  C5_8 
REMARK    5  A    between atoms: C5_8  and  C6_9 
REMARK    6  A    between atoms: C13_20  and  O3_21 
REMARK    7  A    between atoms: O3_21  and  C14_22 
REMARK    8  A    between atoms: C17_26  and  C18_27 
REMARK    9  A    between atoms: C20_29  and  O4_30 
REMARK   10  A    between atoms: C24_35  and  O5_36 
ROOT
HETATM    1  C9  UNL     1       2.435  -0.883   0.473  1.00  0.00    -0.005 A 
HETATM    2  C10 UNL     1       2.125  -2.118  -0.040  1.00  0.00     0.035 A 
HETATM    3  C11 UNL     1       0.899  -2.447  -0.588  1.00  0.00     0.039 A 
HETATM    4 BR1  UNL     1       0.485  -4.162  -1.309  1.00  0.00    -0.049 Br
HETATM    5  C12 UNL     1      -0.079  -1.444  -0.614  1.00  0.00     0.066 A 
HETATM    6  N2  UNL     1      -1.299  -1.736  -1.087  1.00  0.00    -0.334 N 
ATOM      7  H2  UNL     1      -1.484  -2.663  -1.470  1.00  0.00     0.168 HD
HETATM    8  C13 UNL     1      -2.268  -0.830  -1.062  1.00  0.00     0.158 A 
HETATM    9  C17 UNL     1      -2.118   0.482  -0.562  1.00  0.00     0.079 A 
HETATM   10  C25 UNL     1      -0.850   0.786  -0.080  1.00  0.00     0.199 A 
HETATM   11  O6  UNL     1      -0.631   1.914   0.376  1.00  0.00    -0.286 OA
HETATM   12  C26 UNL     1       0.163  -0.189  -0.114  1.00  0.00     0.044 A 
HETATM   13  C27 UNL     1       1.432   0.096   0.430  1.00  0.00     0.031 A 
ENDROOT
BRANCH   1  14
HETATM   14  C4  UNL     1       3.638  -0.576   1.204  1.00  0.00     0.070 C 
HETATM   15  N1  UNL     1       4.459   0.363   0.983  1.00  0.00    -0.266 N 
ATOM     16  H1  UNL     1       5.180   0.488   1.694  1.00  0.00     0.194 HD
BRANCH  14  17
HETATM   17  C2  UNL     1       3.895  -1.340   2.449  1.00  0.00    -0.042 C 
HETATM   18  C1  UNL     1       4.897  -1.064   3.191  1.00  0.00     0.021 C 
HETATM   19  C3  UNL     1       2.909  -2.406   2.804  1.00  0.00     0.050 C 
ENDBRANCH  14  17
BRANCH  15  20
HETATM   20  O1  UNL     1       4.519   1.223  -0.056  1.00  0.00    -0.277 OA
BRANCH  20  21
HETATM   21  C5  UNL     1       5.517   2.316   0.070  1.00  0.00     0.233 C 
BRANCH  21  22
HETATM   22  C6  UNL     1       6.746   1.663  -0.401  1.00  0.00     0.149 C 
HETATM   23  C7  UNL     1       6.967   1.099  -1.753  1.00  0.00     0.060 C 
HETATM   24  C8  UNL     1       8.399   1.042  -1.086  1.00  0.00     0.171 C 
HETATM   25  O2  UNL     1       7.967   2.295  -0.490  1.00  0.00    -0.384 OA
ENDBRANCH  21  22
ENDBRANCH  20  21
ENDBRANCH  15  20
ENDBRANCH   1  14
BRANCH   9  26
HETATM   26  C18 UNL     1      -3.248   1.381  -0.565  1.00  0.00     0.018 A 
HETATM   27  C19 UNL     1      -4.217   1.220   0.454  1.00  0.00     0.054 A 
HETATM   28  C20 UNL     1      -5.362   1.959   0.498  1.00  0.00     0.093 A 
HETATM   29  C22 UNL     1      -5.569   2.906  -0.507  1.00  0.00     0.082 A 
HETATM   30  N3  UNL     1      -6.781   3.682  -0.426  1.00  0.00    -0.099 NA
HETATM   31  C23 UNL     1      -4.670   3.088  -1.495  1.00  0.00     0.066 A 
HETATM   32  C24 UNL     1      -3.528   2.330  -1.513  1.00  0.00     0.079 A 
BRANCH  28  33
HETATM   33  O4  UNL     1      -6.340   1.813   1.501  1.00  0.00    -0.354 OA
HETATM   34  C21 UNL     1      -6.177   0.832   2.504  1.00  0.00     0.210 C 
ENDBRANCH  28  33
BRANCH  32  35
HETATM   35  O5  UNL     1      -2.599   2.516  -2.526  1.00  0.00    -0.360 OA
ATOM     36  H5  UNL     1      -2.793   3.174  -3.183  1.00  0.00     0.217 HD
ENDBRANCH  32  35
ENDBRANCH   9  26
BRANCH   8  37
HETATM   37  O3  UNL     1      -3.564  -1.122  -1.546  1.00  0.00    -0.328 OA
BRANCH  37  38
HETATM   38  C14 UNL     1      -3.806  -2.461  -2.052  1.00  0.00     0.150 A 
HETATM   39  C15 UNL     1      -4.058  -3.435  -0.877  1.00  0.00     0.057 A 
HETATM   40  C16 UNL     1      -5.122  -3.064  -1.912  1.00  0.00     0.114 A 
HETATM   41 CL1  UNL     1      -5.668  -4.411  -2.974  1.00  0.00    -0.122 Cl
ENDBRANCH  37  38
ENDBRANCH   8  37
TORSDOF 10
