REMARK  13 active torsions:
REMARK  status: ('A' for Active; 'I' for Inactive)
REMARK    1  A    between atoms: C6_6  and  O1_7 
REMARK    2  A    between atoms: O1_7  and  C7_8 
REMARK    3  A    between atoms: C7_8  and  C8_9 
REMARK    4  A    between atoms: C8_9  and  C9_10 
REMARK    5  A    between atoms: C9_10  and  N1_11 
REMARK    6  A    between atoms: N1_11  and  C10_13 
REMARK    7  A    between atoms: C12_18  and  N4_19 
REMARK    8  A    between atoms: C13_22  and  N5_23 
REMARK    9  A    between atoms: N5_23  and  N6_24 
REMARK   10  A    between atoms: C14_26  and  C15_27 
REMARK   11  A    between atoms: C18_31  and  N7_32 
REMARK   12  A    between atoms: N7_32  and  N8_34 
REMARK   13  A    between atoms: N8_34  and  N9_35 
ROOT
HETATM    1  C10 UNL     1       0.466   2.167  -0.854  1.00  0.00     0.685 A 
HETATM    2  N2  UNL     1       0.398   3.124   0.077  1.00  0.00    -0.176 N 
ATOM      3  H2  UNL     1      -0.329   3.836   0.007  1.00  0.00     0.185 HD
HETATM    4  C11 UNL     1       1.276   3.170   1.116  1.00  0.00     0.170 A 
HETATM    5  N3  UNL     1       1.121   4.223   2.055  1.00  0.00    -0.079 NA
HETATM    6  C12 UNL     1       2.255   2.223   1.222  1.00  0.00     0.204 A 
HETATM    7  C13 UNL     1       2.320   1.222   0.241  1.00  0.00     0.254 A 
HETATM    8  N10 UNL     1       1.427   1.226  -0.760  1.00  0.00    -0.160 N 
ATOM      9  H10 UNL     1       1.476   0.496  -1.471  1.00  0.00     0.187 HD
ENDROOT
BRANCH   7  10
HETATM   10  N5  UNL     1       3.173   0.384   0.301  1.00  0.00    -0.304 NA
BRANCH  10  11
HETATM   11  N6  UNL     1       4.087  -0.514   0.365  1.00  0.00    -0.244 N 
HETATM   12  C14 UNL     1       5.211  -0.559  -0.289  1.00  0.00     0.134 C 
ATOM     13  H6  UNL     1       3.911  -1.287   1.007  1.00  0.00     0.201 HD
BRANCH  12  14
HETATM   14  C15 UNL     1       6.193  -1.612  -0.160  1.00  0.00     0.005 A 
HETATM   15  C16 UNL     1       7.375  -1.577  -0.912  1.00  0.00     0.036 A 
HETATM   16  C17 UNL     1       8.328  -2.565  -0.817  1.00  0.00     0.041 A 
HETATM   17 BR1  UNL     1       9.892  -2.391  -1.905  1.00  0.00    -0.049 Br
HETATM   18  C18 UNL     1       8.136  -3.630   0.036  1.00  0.00     0.081 A 
HETATM   19  C19 UNL     1       6.974  -3.670   0.779  1.00  0.00     0.058 A 
HETATM   20  C20 UNL     1       6.004  -2.670   0.687  1.00  0.00     0.048 A 
HETATM   21 CL1  UNL     1       4.529  -2.771   1.663  1.00  0.00    -0.083 Cl
BRANCH  18  22
HETATM   22  N7  UNL     1       9.151  -4.621   0.090  1.00  0.00    -0.215 N 
ATOM     23  H7  UNL     1       9.250  -5.292  -0.672  1.00  0.00     0.204 HD
BRANCH  22  24
HETATM   24  N8  UNL     1       9.910  -4.669   1.056  1.00  0.00    -0.243 NA
BRANCH  24  25
HETATM   25  N9  UNL     1      10.687  -4.586   2.035  1.00  0.00    -0.260 N 
ATOM     26  H92 UNL     1      10.599  -3.587   1.848  1.00  0.00     0.193 HD
ATOM     27  H91 UNL     1      11.317  -4.626   2.836  1.00  0.00     0.193 HD
ENDBRANCH  24  25
ENDBRANCH  22  24
ENDBRANCH  18  22
ENDBRANCH  12  14
ENDBRANCH  10  11
ENDBRANCH   7  10
BRANCH   6  28
HETATM   28  N4  UNL     1       3.189   2.240   2.291  1.00  0.00    -0.107 N 
HETATM   29  O2  UNL     1       2.885   1.917   3.453  1.00  0.00    -0.531 OA
HETATM   30  O3  UNL     1       4.477   2.627   2.019  1.00  0.00    -0.531 OA
ENDBRANCH   6  28
BRANCH   1  31
HETATM   31  N1  UNL     1      -0.319   2.074  -1.834  1.00  0.00    -0.205 N 
ATOM     32  H1  UNL     1      -0.097   1.273  -2.426  1.00  0.00     0.183 HD
BRANCH  31  33
HETATM   33  C9  UNL     1      -1.411   2.786  -2.313  1.00  0.00     0.081 C 
BRANCH  33  34
HETATM   34  C8  UNL     1      -2.685   2.723  -1.500  1.00  0.00     0.072 C 
BRANCH  34  35
HETATM   35  C7  UNL     1      -3.168   1.301  -1.303  1.00  0.00     0.181 C 
BRANCH  35  36
HETATM   36  O1  UNL     1      -4.367   1.316  -0.568  1.00  0.00    -0.350 OA
BRANCH  36  37
HETATM   37  C6  UNL     1      -5.055   0.177  -0.182  1.00  0.00     0.080 A 
HETATM   38  C4  UNL     1      -4.779  -0.415   1.060  1.00  0.00    -0.028 A 
HETATM   39  C3  UNL     1      -5.427  -1.538   1.487  1.00  0.00     0.016 A 
HETATM   40  C5  UNL     1      -3.752   0.215   1.922  1.00  0.00     0.051 C 
HETATM   41  C2  UNL     1      -6.391  -2.150   0.715  1.00  0.00    -0.061 A 
HETATM   42  C1  UNL     1      -7.102  -3.384   1.185  1.00  0.00     0.048 C 
HETATM   43  C23 UNL     1      -6.679  -1.588  -0.507  1.00  0.00     0.016 A 
HETATM   44  C21 UNL     1      -6.018  -0.438  -0.950  1.00  0.00    -0.028 A 
HETATM   45  C22 UNL     1      -6.371   0.123  -2.271  1.00  0.00     0.051 C 
ENDBRANCH  36  37
ENDBRANCH  35  36
ENDBRANCH  34  35
ENDBRANCH  33  34
ENDBRANCH  31  33
ENDBRANCH   1  31
TORSDOF 13
