REMARK  12 active torsions:
REMARK  status: ('A' for Active; 'I' for Inactive)
REMARK    1  A    between atoms: C2_2  and  C3_3 
REMARK    2  A    between atoms: C3_3  and  C4_4 
REMARK    3  A    between atoms: C4_4  and  N1_5 
REMARK    4  A    between atoms: C5_6  and  C6_7 
REMARK    5  A    between atoms: C9_10  and  N2_11 
REMARK    6  A    between atoms: N2_11  and  C10_13 
REMARK    7  A    between atoms: C10_13  and  C11_16 
REMARK    8  A    between atoms: C15_20  and  O1_21 
REMARK    9  A    between atoms: C19_27  and  O3_28 
REMARK   10  A    between atoms: O3_28  and  C20_29 
REMARK   11  A    between atoms: C20_29  and  C21_30 
REMARK   12  A    between atoms: C27_37  and  O4_38 
ROOT
HETATM    1  N1  UNL     1      -1.346   2.615  -0.040  1.00  0.00    -0.253 N 
HETATM    2  C5  UNL     1      -1.036   1.227  -0.173  1.00  0.00     0.279 C 
HETATM    3  O2  UNL     1       0.178   0.889   0.415  1.00  0.00    -0.319 OA
HETATM    4  C17 UNL     1       1.400   1.505   0.163  1.00  0.00     0.098 A 
HETATM    5  C18 UNL     1       2.577   0.878  -0.099  1.00  0.00     0.078 A 
HETATM    6  C19 UNL     1       3.733   1.609  -0.337  1.00  0.00     0.104 A 
HETATM    7  C27 UNL     1       3.723   3.001  -0.315  1.00  0.00     0.100 A 
HETATM    8  C28 UNL     1       2.521   3.620  -0.048  1.00  0.00     0.067 A 
HETATM    9  C29 UNL     1       1.392   2.883   0.185  1.00  0.00     0.116 A 
HETATM   10  S1  UNL     1      -0.172   3.612   0.548  1.00  0.00     0.269 S 
HETATM   11  O5  UNL     1      -0.251   3.573   2.088  1.00  0.00    -0.200 OA
HETATM   12  O6  UNL     1      -0.160   5.032   0.177  1.00  0.00    -0.200 OA
ENDROOT
BRANCH   2  13
HETATM   13  C6  UNL     1      -2.103   0.375   0.425  1.00  0.00    -0.006 A 
HETATM   14  C7  UNL     1      -2.568  -0.715  -0.256  1.00  0.00     0.014 A 
HETATM   15  C8  UNL     1      -3.566  -1.538   0.239  1.00  0.00     0.033 A 
HETATM   16  C9  UNL     1      -4.126  -1.270   1.455  1.00  0.00     0.066 A 
HETATM   17  C15 UNL     1      -3.647  -0.148   2.156  1.00  0.00     0.092 A 
HETATM   18  C16 UNL     1      -2.665   0.639   1.642  1.00  0.00     0.050 A 
BRANCH  16  19
HETATM   19  N2  UNL     1      -5.121  -2.088   2.019  1.00  0.00    -0.325 N 
ATOM     20  H2  UNL     1      -5.350  -1.877   2.990  1.00  0.00     0.165 HD
BRANCH  19  21
HETATM   21  C10 UNL     1      -5.857  -3.160   1.452  1.00  0.00     0.329 C 
HETATM   22  F1  UNL     1      -6.393  -3.936   2.548  1.00  0.00    -0.182 F 
HETATM   23  F2  UNL     1      -5.114  -4.069   0.761  1.00  0.00    -0.182 F 
BRANCH  21  24
HETATM   24  C11 UNL     1      -7.084  -2.756   0.662  1.00  0.00     0.035 C 
HETATM   25  C12 UNL     1      -8.015  -2.004   1.622  1.00  0.00     0.022 C 
HETATM   26  C13 UNL     1      -7.878  -3.996   0.245  1.00  0.00     0.022 C 
HETATM   27  C14 UNL     1      -6.884  -1.919  -0.528  1.00  0.00     0.022 C 
ENDBRANCH  21  24
ENDBRANCH  19  21
ENDBRANCH  16  19
BRANCH  17  28
HETATM   28  O1  UNL     1      -4.236   0.102   3.397  1.00  0.00    -0.358 OA
ATOM     29  H1  UNL     1      -3.913   0.860   3.870  1.00  0.00     0.217 HD
ENDBRANCH  17  28
ENDBRANCH   2  13
BRANCH   1  30
HETATM   30  C4  UNL     1      -2.472   3.064  -0.728  1.00  0.00     0.079 C 
BRANCH  30  31
HETATM   31  C3  UNL     1      -2.552   2.893  -2.190  1.00  0.00     0.045 C 
BRANCH  31  32
HETATM   32  C2  UNL     1      -1.579   3.548  -3.073  1.00  0.00     0.001 C 
HETATM   33  C1  UNL     1      -1.548   5.034  -3.075  1.00  0.00     0.005 C 
ENDBRANCH  31  32
ENDBRANCH  30  31
ENDBRANCH   1  30
BRANCH   6  34
HETATM   34  O3  UNL     1       4.943   0.998  -0.605  1.00  0.00    -0.348 OA
BRANCH  34  35
HETATM   35  C20 UNL     1       4.992  -0.414  -0.630  1.00  0.00     0.180 C 
BRANCH  35  36
HETATM   36  C21 UNL     1       6.432  -0.796  -0.943  1.00  0.00     0.013 C 
HETATM   37  C22 UNL     1       7.323  -0.229   0.144  1.00  0.00     0.037 C 
HETATM   38  C23 UNL     1       7.426  -1.315   1.223  1.00  0.00     0.272 C 
HETATM   39  N3  UNL     1       8.358  -2.299   0.695  1.00  0.00     0.084 N 
HETATM   40  C24 UNL     1       8.544  -3.337   1.667  1.00  0.00     0.309 C 
HETATM   41  C25 UNL     1       7.925  -2.779  -0.601  1.00  0.00     0.272 C 
HETATM   42  C26 UNL     1       6.536  -2.284  -0.943  1.00  0.00     0.037 C 
ENDBRANCH  35  36
ENDBRANCH  34  35
ENDBRANCH   6  34
BRANCH   7  43
HETATM   43  O4  UNL     1       4.889   3.737  -0.556  1.00  0.00    -0.358 OA
ATOM     44  H4  UNL     1       4.882   4.687  -0.541  1.00  0.00     0.217 HD
ENDBRANCH   7  43
TORSDOF 12
