REMARK  15 active torsions:
REMARK  status: ('A' for Active; 'I' for Inactive)
REMARK    1  A    between atoms: C2_2  and  C3_3 
REMARK    2  A    between atoms: C2_2  and  O1_9 
REMARK    3  A    between atoms: C4_4  and  C6_6 
REMARK    4  A    between atoms: O1_9  and  C9_10 
REMARK    5  A    between atoms: C10_11  and  O2_12 
REMARK    6  A    between atoms: O2_12  and  C11_13 
REMARK    7  A    between atoms: C11_13  and  C12_15 
REMARK    8  A    between atoms: C13_16  and  C15_18 
REMARK    9  A    between atoms: C17_22  and  O6_23 
REMARK   10  A    between atoms: C20_27  and  O7_28 
REMARK   11  A    between atoms: C20_27  and  C21_30 
REMARK   12  A    between atoms: C21_30  and  O8_31 
REMARK   13  A    between atoms: C23_34  and  O9_35 
REMARK   14  A    between atoms: O9_35  and  C24_36 
REMARK   15  A    between atoms: C24_36  and  C25_38 
ROOT
HETATM    1  C9  UNL     1      -0.033  -0.755  -1.542  1.00  0.00     0.165 C 
HETATM    2  C10 UNL     1       0.647   0.339  -2.330  1.00  0.00     0.164 C 
HETATM    3  C16 UNL     1      -0.085   0.552  -3.660  1.00  0.00     0.067 C 
HETATM    4  C17 UNL     1      -1.484   1.036  -3.315  1.00  0.00     0.125 C 
HETATM    5  C18 UNL     1      -2.166   0.105  -2.342  1.00  0.00     0.026 C 
HETATM    6  C19 UNL     1      -2.538  -1.135  -3.083  1.00  0.00     0.048 C 
HETATM    7  C20 UNL     1      -3.032  -2.255  -2.227  1.00  0.00     0.082 C 
HETATM    8  C22 UNL     1      -2.271  -2.424  -0.937  1.00  0.00     0.073 C 
HETATM    9  C23 UNL     1      -2.178  -1.102  -0.243  1.00  0.00     0.141 C 
HETATM   10  C28 UNL     1      -1.356  -0.166  -1.096  1.00  0.00     0.054 C 
ENDROOT
BRANCH   1  11
HETATM   11  O1  UNL     1       0.779  -1.147  -0.497  1.00  0.00    -0.344 OA
BRANCH  11  12
HETATM   12  C2  UNL     1       2.037  -1.656  -0.701  1.00  0.00     0.060 C 
HETATM   13  C1  UNL     1       2.291  -2.292  -1.837  1.00  0.00     0.051 C 
BRANCH  12  14
HETATM   14  C3  UNL     1       3.131  -1.547   0.255  1.00  0.00     0.038 C 
HETATM   15  C4  UNL     1       2.983  -0.947   1.404  1.00  0.00    -0.078 C 
HETATM   16  C5  UNL     1       1.714  -0.338   1.833  1.00  0.00     0.044 C 
BRANCH  15  17
HETATM   17  C6  UNL     1       4.135  -0.854   2.351  1.00  0.00     0.006 C 
HETATM   18  C7  UNL     1       3.866  -1.599   3.636  1.00  0.00     0.014 C 
HETATM   19  C8  UNL     1       4.483   0.584   2.654  1.00  0.00     0.014 C 
ENDBRANCH  15  17
ENDBRANCH  12  14
ENDBRANCH  11  12
ENDBRANCH   1  11
BRANCH   2  20
HETATM   20  O2  UNL     1       0.433   1.560  -1.614  1.00  0.00    -0.310 OA
BRANCH  20  21
HETATM   21  C11 UNL     1       1.529   2.394  -1.255  1.00  0.00     0.284 C 
HETATM   22  O3  UNL     1       2.616   1.945  -1.623  1.00  0.00    -0.260 OA
BRANCH  21  23
HETATM   23  C12 UNL     1       1.212   3.598  -0.540  1.00  0.00     0.095 C 
HETATM   24  C13 UNL     1       1.975   4.529  -0.090  1.00  0.00     0.020 C 
HETATM   25  C14 UNL     1       1.230   5.665   0.631  1.00  0.00     0.056 C 
BRANCH  24  26
HETATM   26  C15 UNL     1       3.393   4.632  -0.176  1.00  0.00     0.205 C 
HETATM   27  O4  UNL     1       4.166   3.826  -0.709  1.00  0.00    -0.644 OA
HETATM   28  O5  UNL     1       3.989   5.783   0.415  1.00  0.00    -0.644 OA
ENDBRANCH  24  26
ENDBRANCH  21  23
ENDBRANCH  20  21
ENDBRANCH   2  20
BRANCH   9  29
HETATM   29  O9  UNL     1      -1.815  -1.142   1.087  1.00  0.00    -0.315 OA
BRANCH  29  30
HETATM   30  C24 UNL     1      -2.585  -0.737   2.139  1.00  0.00     0.262 C 
HETATM   31  O10 UNL     1      -3.723  -0.291   1.838  1.00  0.00    -0.265 OA
BRANCH  30  32
HETATM   32  C25 UNL     1      -2.147  -0.802   3.559  1.00  0.00     0.077 C 
HETATM   33  C26 UNL     1      -3.194  -0.295   4.501  1.00  0.00     0.020 C 
HETATM   34  C27 UNL     1      -1.863  -2.282   3.840  1.00  0.00     0.020 C 
ENDBRANCH  30  32
ENDBRANCH  29  30
ENDBRANCH   9  29
BRANCH   4  35
HETATM   35  O6  UNL     1      -2.223   1.006  -4.498  1.00  0.00    -0.395 OA
ATOM     36  H6  UNL     1      -3.097   1.308  -4.282  1.00  0.00     0.210 HD
ENDBRANCH   4  35
BRANCH   7  37
HETATM   37  O7  UNL     1      -2.876  -3.443  -2.950  1.00  0.00    -0.388 OA
ATOM     38  H7  UNL     1      -3.190  -4.155  -2.406  1.00  0.00     0.210 HD
ENDBRANCH   7  37
BRANCH   7  39
HETATM   39  C21 UNL     1      -4.526  -2.096  -1.997  1.00  0.00     0.201 C 
BRANCH  39  40
HETATM   40  O8  UNL     1      -5.109  -2.036  -3.280  1.00  0.00    -0.398 OA
ATOM     41  H8  UNL     1      -6.043  -1.937  -3.136  1.00  0.00     0.209 HD
ENDBRANCH  39  40
ENDBRANCH   7  39
TORSDOF 15
