REMARK  4 active torsions:
REMARK  status: ('A' for Active; 'I' for Inactive)
REMARK    1  A    between atoms: C5_5  and  C6_6 
REMARK    2  A    between atoms: C6_6  and  N1_7 
REMARK    3  A    between atoms: C6_6  and  C8_13 
REMARK    4  A    between atoms: C8_13  and  N3_14 
ROOT
HETATM    1  C6  UNL     1      -1.664   0.592   0.183  1.00  0.00     0.264 C 
HETATM    2  C7  UNL     1      -2.158   1.434  -0.875  1.00  0.00     0.102 C 
HETATM    3  N2  UNL     1      -2.573   2.105  -1.717  1.00  0.00    -0.194 NA
ENDROOT
BRANCH   1   4
HETATM    4  C5  UNL     1      -0.285   0.124   0.030  1.00  0.00     0.274 C 
HETATM    5  C4  UNL     1       0.131  -0.549  -1.217  1.00  0.00     0.040 C 
HETATM    6  C3  UNL     1       1.257  -1.539  -0.843  1.00  0.00     0.008 C 
HETATM    7  C2  UNL     1       2.314  -0.753  -0.116  1.00  0.00     0.010 C 
HETATM    8  C1  UNL     1       2.678  -1.393   1.226  1.00  0.00     0.011 C 
HETATM    9  C10 UNL     1       2.047   0.689   0.024  1.00  0.00     0.276 C 
HETATM   10  N4  UNL     1       0.734   1.094   0.372  1.00  0.00     0.092 N 
HETATM   11  C9  UNL     1       0.512   2.389  -0.224  1.00  0.00     0.310 C 
ENDBRANCH   1   4
BRANCH   1  12
HETATM   12  N1  UNL     1      -1.743   1.265   1.506  1.00  0.00    -0.053 N 
ATOM     13  H13 UNL     1      -1.430   0.675   2.277  1.00  0.00     0.276 HD
ATOM     14  H12 UNL     1      -1.051   2.006   1.623  1.00  0.00     0.276 HD
ATOM     15  H11 UNL     1      -2.704   1.591   1.613  1.00  0.00     0.276 HD
ENDBRANCH   1  12
BRANCH   1  16
HETATM   16  C8  UNL     1      -2.631  -0.561   0.351  1.00  0.00     0.286 C 
BRANCH  16  17
HETATM   17  N3  UNL     1      -2.695  -1.489  -0.733  1.00  0.00    -0.076 N 
ATOM     18  H33 UNL     1      -2.896  -0.993  -1.601  1.00  0.00     0.274 HD
ATOM     19  H32 UNL     1      -1.762  -1.847  -0.937  1.00  0.00     0.274 HD
ATOM     20  H31 UNL     1      -3.346  -2.266  -0.620  1.00  0.00     0.274 HD
ENDBRANCH  16  17
ENDBRANCH   1  16
TORSDOF 4
