REMARK  3 active torsions:
REMARK  status: ('A' for Active; 'I' for Inactive)
REMARK    1  A    between atoms: C2_2  and  C3_3 
REMARK    2  A    between atoms: C3_3  and  C4_4 
REMARK    3  A    between atoms: C5_5  and  O1_6 
ROOT
HETATM    1  C4  UNL     1       0.107  -0.317  -0.172  1.00  0.00     0.038 C 
HETATM    2  C5  UNL     1       0.401   1.074  -0.598  1.00  0.00     0.156 C 
HETATM    3  C6  UNL     1      -0.612   1.795  -1.391  1.00  0.00     0.191 A 
HETATM    4  O2  UNL     1      -1.025   3.059  -0.675  1.00  0.00    -0.362 OA
HETATM    5  C7  UNL     1      -1.913   2.039  -0.893  1.00  0.00     0.215 A 
HETATM    6  S1  UNL     1      -2.332   0.852   0.400  1.00  0.00    -0.125 SA
HETATM    7  C8  UNL     1      -1.278  -0.620   0.256  1.00  0.00     0.010 C 
HETATM    8  C9  UNL     1      -1.982  -1.558  -0.703  1.00  0.00     0.027 C 
HETATM    9  C10 UNL     1      -1.342  -1.283   1.637  1.00  0.00     0.027 C 
ENDROOT
BRANCH   1  10
HETATM   10  C3  UNL     1       1.140  -0.701   0.885  1.00  0.00     0.035 C 
BRANCH  10  11
HETATM   11  C2  UNL     1       2.526  -0.638   0.371  1.00  0.00    -0.036 C 
HETATM   12  C1  UNL     1       3.392   0.165   0.944  1.00  0.00     0.007 C 
ENDBRANCH  10  11
ENDBRANCH   1  10
BRANCH   2  13
HETATM   13  O1  UNL     1       1.567   1.003  -1.407  1.00  0.00    -0.392 OA
ATOM     14  H1  UNL     1       1.755   1.893  -1.680  1.00  0.00     0.210 HD
ENDBRANCH   2  13
TORSDOF 3
