REMARK  4 active torsions:
REMARK  status: ('A' for Active; 'I' for Inactive)
REMARK    1  A    between atoms: N1_2  and  C2_3 
REMARK    2  A    between atoms: N1_2  and  C3_8 
REMARK    3  A    between atoms: C2_3  and  O1_4 
REMARK    4  A    between atoms: O1_4  and  N2_5 
ROOT
HETATM    1  C3  UNL     1       0.184  -0.443  -0.184  1.00  0.00     0.030 C 
HETATM    2  C4  UNL     1      -0.727  -0.828  -1.347  1.00  0.00     0.035 C 
HETATM    3  C5  UNL     1      -2.059  -0.159  -1.219  1.00  0.00    -0.012 C 
HETATM    4  C6  UNL     1      -2.792  -0.709  -0.005  1.00  0.00     0.009 C 
HETATM    5  C7  UNL     1      -1.924  -0.439   1.194  1.00  0.00    -0.012 C 
HETATM    6  C8  UNL     1      -1.709   1.038   1.452  1.00  0.00     0.009 C 
HETATM    7  C9  UNL     1      -1.101   1.636   0.221  1.00  0.00    -0.012 C 
HETATM    8  C10 UNL     1      -1.968   1.344  -1.005  1.00  0.00     0.009 C 
HETATM    9  C11 UNL     1       0.251   1.060  -0.118  1.00  0.00     0.035 C 
HETATM   10  C12 UNL     1      -0.540  -1.034   1.043  1.00  0.00     0.035 C 
ENDROOT
BRANCH   1  11
HETATM   11  N1  UNL     1       1.444  -1.052  -0.224  1.00  0.00    -0.386 N 
HETATM   12  C1  UNL     1       1.895  -1.663   1.000  1.00  0.00     0.146 C 
BRANCH  11  13
HETATM   13  C2  UNL     1       2.539  -0.389  -0.842  1.00  0.00     0.321 C 
BRANCH  13  14
HETATM   14  O1  UNL     1       3.169   0.370   0.141  1.00  0.00    -0.268 OA
BRANCH  14  15
HETATM   15  N2  UNL     1       4.228   1.060  -0.257  1.00  0.00    -0.309 N 
ATOM     16  H22 UNL     1       4.548   1.027  -1.225  1.00  0.00     0.184 HD
ATOM     17  H21 UNL     1       4.689   1.616   0.463  1.00  0.00     0.184 HD
ENDBRANCH  14  15
ENDBRANCH  13  14
ENDBRANCH  11  13
ENDBRANCH   1  11
TORSDOF 4
