REMARK  4 active torsions:
REMARK  status: ('A' for Active; 'I' for Inactive)
REMARK    1  A    between atoms: C2_2  and  C4_4 
REMARK    2  A    between atoms: C4_4  and  N1_5 
REMARK    3  A    between atoms: N2_10  and  C6_11 
REMARK    4  A    between atoms: C11_16  and  O1_17 
ROOT
HETATM    1  C4  UNL     1      -1.300  -0.548   0.013  1.00  0.00     0.179 C 
HETATM    2  C5  UNL     1      -0.033  -0.246   0.781  1.00  0.00     0.314 C 
HETATM    3  N2  UNL     1       0.948   0.004  -0.241  1.00  0.00     0.098 N 
HETATM    4  C10 UNL     1       0.654  -1.061  -1.183  1.00  0.00     0.307 C 
HETATM    5  C11 UNL     1      -0.833  -0.823  -1.412  1.00  0.00     0.184 C 
ENDROOT
BRANCH   1   6
HETATM    6  C2  UNL     1      -2.274   0.602   0.059  1.00  0.00     0.018 C 
HETATM    7  C1  UNL     1      -2.714   0.775   1.497  1.00  0.00     0.012 C 
HETATM    8  C3  UNL     1      -3.485   0.377  -0.791  1.00  0.00     0.012 C 
ENDBRANCH   1   6
BRANCH   1   9
HETATM    9  N1  UNL     1      -1.950  -1.737   0.486  1.00  0.00    -0.066 N 
ATOM     10  H13 UNL     1      -2.358  -1.612   1.412  1.00  0.00     0.275 HD
ATOM     11  H12 UNL     1      -2.810  -1.937  -0.025  1.00  0.00     0.275 HD
ATOM     12  H11 UNL     1      -1.291  -2.515   0.455  1.00  0.00     0.275 HD
ENDBRANCH   1   9
BRANCH   5  13
HETATM   13  O1  UNL     1      -0.924   0.315  -2.212  1.00  0.00    -0.391 OA
ATOM     14  H1  UNL     1      -0.633   0.144  -3.100  1.00  0.00     0.210 HD
ENDBRANCH   5  13
BRANCH   3  15
HETATM   15  C6  UNL     1       2.304  -0.155   0.201  1.00  0.00     0.223 C 
HETATM   16  C7  UNL     1       2.752   0.790   1.294  1.00  0.00     0.036 C 
HETATM   17  C8  UNL     1       4.106   0.829   0.590  1.00  0.00     0.004 C 
HETATM   18  C9  UNL     1       3.340   0.495  -0.693  1.00  0.00     0.036 C 
ENDBRANCH   3  15
TORSDOF 4
