REMARK  6 active torsions:
REMARK  status: ('A' for Active; 'I' for Inactive)
REMARK    1  A    between atoms: N1_2  and  C2_3 
REMARK    2  A    between atoms: C2_3  and  C3_4 
REMARK    3  A    between atoms: C4_5  and  C5_6 
REMARK    4  A    between atoms: C4_5  and  C6_9 
REMARK       I    between atoms: C6_9  and  N2_11 
REMARK    5  A    between atoms: N2_11  and  C7_13 
REMARK    6  A    between atoms: C13_19  and  C14_20 
ROOT
HETATM    1  C6  UNL     1      -0.730  -0.065  -0.757  1.00  0.00     0.258 C 
HETATM    2  O3  UNL     1      -0.741  -1.331  -0.492  1.00  0.00    -0.267 OA
HETATM    3  N2  UNL     1      -1.957   0.566  -0.741  1.00  0.00    -0.351 N 
ATOM      4  H2  UNL     1      -2.003   1.565  -0.943  1.00  0.00     0.163 HD
ENDROOT
BRANCH   1   5
HETATM    5  C4  UNL     1       0.606   0.487  -1.032  1.00  0.00     0.106 C 
HETATM    6  C3  UNL     1       1.613  -0.373  -0.974  1.00  0.00     0.025 C 
BRANCH   6   7
HETATM    7  C2  UNL     1       3.032  -0.167  -1.187  1.00  0.00     0.265 C 
BRANCH   7   8
HETATM    8  N1  UNL     1       3.826  -0.505   0.005  1.00  0.00    -0.068 N 
HETATM    9  C1  UNL     1       3.138  -1.481   0.827  1.00  0.00     0.272 C 
HETATM   10  C15 UNL     1       5.108  -1.104  -0.371  1.00  0.00     0.237 C 
HETATM   11  C16 UNL     1       6.099  -0.006  -0.687  1.00  0.00     0.028 C 
HETATM   12  C17 UNL     1       6.575   0.576   0.628  1.00  0.00     0.003 C 
HETATM   13  C18 UNL     1       5.349   0.648   1.532  1.00  0.00     0.028 C 
HETATM   14  C19 UNL     1       4.085   0.720   0.706  1.00  0.00     0.237 C 
ENDBRANCH   7   8
ENDBRANCH   6   7
BRANCH   5  15
HETATM   15  C5  UNL     1       0.772   1.896  -1.345  1.00  0.00     0.214 C 
HETATM   16  O1  UNL     1       1.878   2.458  -1.594  1.00  0.00    -0.644 OA
HETATM   17  O2  UNL     1      -0.312   2.789  -1.402  1.00  0.00    -0.644 OA
ENDBRANCH   5  15
ENDBRANCH   1   5
BRANCH   3  18
HETATM   18  C7  UNL     1      -3.207  -0.164  -0.439  1.00  0.00     0.097 C 
HETATM   19  C8  UNL     1      -4.100  -0.049  -1.622  1.00  0.00     0.026 C 
HETATM   20  C9  UNL     1      -4.816  -1.399  -1.758  1.00  0.00     0.002 C 
HETATM   21  C10 UNL     1      -5.799  -1.481  -0.612  1.00  0.00     0.000 C 
HETATM   22  C11 UNL     1      -5.060  -1.861   0.628  1.00  0.00     0.001 C 
HETATM   23  C12 UNL     1      -4.662  -0.733   1.517  1.00  0.00     0.015 C 
HETATM   24  C13 UNL     1      -3.772   0.294   0.858  1.00  0.00     0.097 C 
BRANCH  24  25
HETATM   25  C14 UNL     1      -4.417   1.628   0.824  1.00  0.00     0.237 C 
HETATM   26  N3  UNL     1      -3.766   2.842   0.497  1.00  0.00    -0.062 NA
HETATM   27  O4  UNL     1      -5.641   1.701   1.106  1.00  0.00    -0.276 OA
ENDBRANCH  24  25
ENDBRANCH   3  18
TORSDOF 6
