REMARK  4 active torsions:
REMARK  status: ('A' for Active; 'I' for Inactive)
REMARK    1  A    between atoms: S1_2  and  C2_3 
REMARK    2  A    between atoms: C6_9  and  O3_10 
REMARK    3  A    between atoms: C6_9  and  C7_12 
REMARK    4  A    between atoms: C7_12  and  O4_13 
ROOT
HETATM    1  C2  UNL     1       1.287   0.223   0.214  1.00  0.00     0.213 C 
HETATM    2  C3  UNL     1       2.012   1.374   0.850  1.00  0.00     0.092 C 
HETATM    3  O1  UNL     1       1.160   0.503  -1.142  1.00  0.00    -0.336 OA
HETATM    4  C4  UNL     1      -0.119   0.166  -1.526  1.00  0.00     0.184 C 
HETATM    5  C5  UNL     1      -1.101   1.314  -1.426  1.00  0.00     0.206 C 
HETATM    6  O2  UNL     1      -2.304   0.776  -1.021  1.00  0.00    -0.348 OA
HETATM    7  C6  UNL     1      -2.069  -0.438  -0.412  1.00  0.00     0.213 C 
HETATM    8  C8  UNL     1      -0.591  -0.654  -0.329  1.00  0.00     0.221 C 
HETATM    9  O5  UNL     1      -0.020   0.077   0.708  1.00  0.00    -0.333 OA
ENDROOT
BRANCH   7  10
HETATM   10  O3  UNL     1      -2.610  -1.474  -1.186  1.00  0.00    -0.362 OA
ATOM     11  H3  UNL     1      -2.448  -2.311  -0.766  1.00  0.00     0.213 HD
ENDBRANCH   7  10
BRANCH   7  12
HETATM   12  C7  UNL     1      -2.707  -0.548   0.959  1.00  0.00     0.235 C 
BRANCH  12  13
HETATM   13  O4  UNL     1      -4.007  -0.061   0.864  1.00  0.00    -0.395 OA
ATOM     14  H4  UNL     1      -4.407  -0.130   1.723  1.00  0.00     0.209 HD
ENDBRANCH  12  13
ENDBRANCH   7  12
BRANCH   1  15
HETATM   15  S1  UNL     1       2.101  -1.369   0.514  1.00  0.00    -0.107 SA
HETATM   16  C1  UNL     1       3.873  -1.217   0.251  1.00  0.00     0.095 C 
ENDBRANCH   1  15
TORSDOF 4
