REMARK  4 active torsions:
REMARK  status: ('A' for Active; 'I' for Inactive)
REMARK    1  A    between atoms: O1_1  and  C1_3 
REMARK    2  A    between atoms: C1_3  and  C2_4 
REMARK    3  A    between atoms: C2_4  and  O2_5 
REMARK    4  A    between atoms: C2_4  and  C3_7 
ROOT
HETATM    1  C3  UNL     1      -1.254  -0.683  -0.706  1.00  0.00     0.295 C 
HETATM    2  O3  UNL     1      -0.515  -1.587   0.049  1.00  0.00    -0.352 OA
HETATM    3  C4  UNL     1       0.359  -0.815   0.812  1.00  0.00     0.252 C 
HETATM    4  C5  UNL     1       0.669   0.259  -0.214  1.00  0.00     0.241 C 
HETATM    5  O4  UNL     1       1.323   1.339   0.339  1.00  0.00    -0.345 OA
HETATM    6  C6  UNL     1       2.569   1.564  -0.191  1.00  0.00     0.173 C 
HETATM    7  C7  UNL     1       3.577   0.495   0.136  1.00  0.00     0.037 C 
HETATM    8  C8  UNL     1       3.327  -0.779  -0.665  1.00  0.00     0.081 C 
HETATM    9  S1  UNL     1       1.709  -0.516  -1.487  1.00  0.00    -0.100 SA
HETATM   10  O5  UNL     1      -0.605   0.537  -0.671  1.00  0.00    -0.311 OA
ENDROOT
BRANCH   1  11
HETATM   11  C2  UNL     1      -2.631  -0.617  -0.079  1.00  0.00     0.197 C 
BRANCH  11  12
HETATM   12  C1  UNL     1      -3.542   0.337  -0.853  1.00  0.00     0.200 C 
BRANCH  12  13
HETATM   13  O1  UNL     1      -4.796   0.282  -0.269  1.00  0.00    -0.398 OA
ATOM     14  H1  UNL     1      -5.362   0.875  -0.750  1.00  0.00     0.209 HD
ENDBRANCH  12  13
ENDBRANCH  11  12
BRANCH  11  15
HETATM   15  O2  UNL     1      -2.586  -0.196   1.231  1.00  0.00    -0.389 OA
ATOM     16  H2  UNL     1      -2.020  -0.789   1.712  1.00  0.00     0.210 HD
ENDBRANCH  11  15
ENDBRANCH   1  11
TORSDOF 4
