REMARK  11 active torsions:
REMARK  status: ('A' for Active; 'I' for Inactive)
REMARK       I    between atoms: C2_2  and  N1_4 
REMARK    1  A    between atoms: N1_4  and  C3_6 
REMARK    2  A    between atoms: C3_6  and  C4_7 
REMARK    3  A    between atoms: C3_6  and  C20_34 
REMARK       I    between atoms: C4_7  and  N2_9 
REMARK    4  A    between atoms: N2_9  and  C5_11 
REMARK    5  A    between atoms: C5_11  and  C6_12 
REMARK    6  A    between atoms: C5_11  and  C16_30 
REMARK       I    between atoms: C6_12  and  N3_14 
REMARK    7  A    between atoms: N3_14  and  C7_16 
REMARK    8  A    between atoms: C7_16  and  C8_17 
REMARK    9  A    between atoms: C7_16  and  S1_26 
REMARK   10  A    between atoms: C8_17  and  C9_18 
REMARK   11  A    between atoms: C9_18  and  O4_19 
ROOT
HETATM    1  C5  UNL     1      -1.127  -0.822  -1.232  1.00  0.00     0.184 C 
ENDROOT
BRANCH   1   2
HETATM    2  N2  UNL     1      -2.134   0.134  -0.998  1.00  0.00    -0.345 N 
HETATM    3  C4  UNL     1      -3.019   0.419   0.028  1.00  0.00     0.241 C 
HETATM    4  O2  UNL     1      -3.035  -0.266   1.063  1.00  0.00    -0.271 OA
ATOM      5  H2  UNL     1      -2.238   0.779  -1.781  1.00  0.00     0.163 HD
BRANCH   3   6
HETATM    6  C3  UNL     1      -3.994   1.530  -0.007  1.00  0.00     0.179 C 
BRANCH   6   7
HETATM    7  N1  UNL     1      -4.712   1.645   1.254  1.00  0.00    -0.348 N 
HETATM    8  C2  UNL     1      -4.548   2.773   2.098  1.00  0.00     0.214 C 
HETATM    9  C1  UNL     1      -5.275   2.926   3.390  1.00  0.00     0.117 C 
HETATM   10  O1  UNL     1      -3.744   3.684   1.717  1.00  0.00    -0.274 OA
ATOM     11  H1  UNL     1      -5.347   0.898   1.537  1.00  0.00     0.163 HD
ENDBRANCH   6   7
BRANCH   6  12
HETATM   12  C20 UNL     1      -5.035   1.477  -1.072  1.00  0.00     0.009 C 
HETATM   13  C21 UNL     1      -5.995   0.336  -0.996  1.00  0.00     0.012 C 
HETATM   14  C22 UNL     1      -4.576   1.720  -2.475  1.00  0.00     0.012 C 
ENDBRANCH   6  12
ENDBRANCH   3   6
ENDBRANCH   1   2
BRANCH   1  15
HETATM   15  C6  UNL     1      -0.062  -0.645  -0.182  1.00  0.00     0.242 C 
HETATM   16  O3  UNL     1      -0.277   0.003   0.894  1.00  0.00    -0.271 OA
HETATM   17  N3  UNL     1       1.246  -1.163  -0.292  1.00  0.00    -0.341 N 
ATOM     18  H3  UNL     1       1.501  -1.681  -1.133  1.00  0.00     0.163 HD
BRANCH  17  19
HETATM   19  C7  UNL     1       2.265  -0.980   0.774  1.00  0.00     0.209 C 
BRANCH  19  20
HETATM   20  C8  UNL     1       2.999   0.238   0.349  1.00  0.00     0.078 C 
BRANCH  20  21
HETATM   21  C9  UNL     1       4.095   0.796   1.150  1.00  0.00     0.060 C 
HETATM   22  C10 UNL     1       5.399   0.124   1.001  1.00  0.00     0.038 C 
HETATM   23  C11 UNL     1       6.502   1.024   0.418  1.00  0.00     0.003 C 
HETATM   24  C12 UNL     1       6.122   1.615  -0.908  1.00  0.00     0.000 C 
HETATM   25  C13 UNL     1       4.769   2.270  -0.779  1.00  0.00     0.003 C 
HETATM   26  C14 UNL     1       4.348   2.269   0.639  1.00  0.00     0.038 C 
BRANCH  21  27
HETATM   27  O4  UNL     1       3.703   1.077   2.480  1.00  0.00    -0.390 OA
ATOM     28  H4  UNL     1       4.412   1.438   2.998  1.00  0.00     0.210 HD
ENDBRANCH  21  27
ENDBRANCH  20  21
ENDBRANCH  19  20
BRANCH  19  29
HETATM   29  S1  UNL     1       3.087  -2.488   0.990  1.00  0.00     0.162 S 
HETATM   30  C15 UNL     1       4.105  -2.641   2.405  1.00  0.00     0.163 C 
HETATM   31  O5  UNL     1       3.779  -2.965  -0.288  1.00  0.00    -0.226 OA
HETATM   32  O6  UNL     1       1.979  -3.558   1.174  1.00  0.00    -0.226 OA
ENDBRANCH  19  29
ENDBRANCH  17  19
ENDBRANCH   1  15
BRANCH   1  33
HETATM   33  C16 UNL     1      -1.541  -2.240  -1.375  1.00  0.00    -0.022 C 
HETATM   34  C17 UNL     1      -2.213  -2.923  -0.255  1.00  0.00     0.017 C 
HETATM   35  C18 UNL     1      -2.605  -2.308  -2.522  1.00  0.00     0.017 C 
HETATM   36  C19 UNL     1      -0.449  -3.119  -1.907  1.00  0.00     0.017 C 
ENDBRANCH   1  33
TORSDOF 11
