REMARK  10 active torsions:
REMARK  status: ('A' for Active; 'I' for Inactive)
REMARK    1  A    between atoms: C2_2  and  C3_3 
REMARK    2  A    between atoms: C3_3  and  C5_5 
REMARK    3  A    between atoms: C5_5  and  N1_6 
REMARK    4  A    between atoms: C5_5  and  C14_21 
REMARK       I    between atoms: N1_6  and  C6_8 
REMARK    5  A    between atoms: C6_8  and  C7_10 
REMARK    6  A    between atoms: C7_10  and  C8_11 
REMARK    7  A    between atoms: C7_10  and  N2_13 
REMARK       I    between atoms: N2_13  and  C9_15 
REMARK    8  A    between atoms: C9_15  and  C10_17 
REMARK       I    between atoms: C14_21  and  N3_23 
REMARK    9  A    between atoms: C18_27  and  C19_28 
REMARK       I    between atoms: C19_28  and  N4_30 
REMARK   10  A    between atoms: N4_30  and  C20_32 
ROOT
HETATM    1  C5  UNL     1       0.313  -2.809  -0.783  1.00  0.00     0.180 C 
ENDROOT
BRANCH   1   2
HETATM    2  C3  UNL     1       0.469  -4.245  -0.446  1.00  0.00     0.013 C 
HETATM    3  C4  UNL     1      -0.407  -4.618   0.764  1.00  0.00     0.012 C 
BRANCH   2   4
HETATM    4  C2  UNL     1       1.829  -4.725  -0.152  1.00  0.00     0.002 C 
HETATM    5  C1  UNL     1       2.831  -4.517  -1.236  1.00  0.00     0.005 C 
ENDBRANCH   2   4
ENDBRANCH   1   2
BRANCH   1   6
HETATM    6  N1  UNL     1      -1.114  -2.542  -1.052  1.00  0.00    -0.346 N 
HETATM    7  C6  UNL     1      -1.651  -1.315  -1.420  1.00  0.00     0.242 C 
HETATM    8  O1  UNL     1      -0.877  -0.324  -1.503  1.00  0.00    -0.271 OA
ATOM      9  H1  UNL     1      -1.761  -3.325  -0.960  1.00  0.00     0.163 HD
BRANCH   7  10
HETATM   10  C7  UNL     1      -3.062  -1.103  -1.720  1.00  0.00     0.186 C 
BRANCH  10  11
HETATM   11  C8  UNL     1      -3.999  -2.237  -1.561  1.00  0.00     0.120 C 
HETATM   12  S1  UNL     1      -4.147  -2.930   0.079  1.00  0.00    -0.095 SA
ENDBRANCH  10  11
BRANCH  10  13
HETATM   13  N2  UNL     1      -3.653   0.083  -1.123  1.00  0.00    -0.346 N 
HETATM   14  C9  UNL     1      -3.896   1.275  -1.786  1.00  0.00     0.226 C 
HETATM   15  O2  UNL     1      -3.569   1.377  -2.991  1.00  0.00    -0.273 OA
ATOM     16  H2  UNL     1      -3.909   0.034  -0.137  1.00  0.00     0.163 HD
BRANCH  14  17
HETATM   17  C10 UNL     1      -4.533   2.417  -1.103  1.00  0.00     0.030 C 
HETATM   18  C11 UNL     1      -4.316   3.655  -1.948  1.00  0.00     0.024 C 
HETATM   19  C12 UNL     1      -6.055   2.141  -1.026  1.00  0.00     0.024 C 
HETATM   20  C13 UNL     1      -4.072   2.605   0.288  1.00  0.00     0.024 C 
ENDBRANCH  14  17
ENDBRANCH  10  13
ENDBRANCH   7  10
ENDBRANCH   1   6
BRANCH   1  21
HETATM   21  C14 UNL     1       0.655  -1.854   0.320  1.00  0.00     0.243 C 
HETATM   22  O3  UNL     1      -0.141  -1.786   1.285  1.00  0.00    -0.271 OA
HETATM   23  N3  UNL     1       1.802  -1.029   0.346  1.00  0.00    -0.337 N 
HETATM   24  C15 UNL     1       2.858  -0.781  -0.609  1.00  0.00     0.127 C 
HETATM   25  C18 UNL     1       2.212  -0.208   1.480  1.00  0.00     0.179 C 
HETATM   26  C16 UNL     1       4.127  -0.674   0.255  1.00  0.00     0.022 C 
HETATM   27  C17 UNL     1       3.603  -0.768   1.682  1.00  0.00     0.037 C 
BRANCH  25  28
HETATM   28  C19 UNL     1       2.284   1.231   1.194  1.00  0.00     0.241 C 
HETATM   29  O4  UNL     1       1.579   1.765   0.300  1.00  0.00    -0.271 OA
HETATM   30  N4  UNL     1       3.155   2.101   1.902  1.00  0.00    -0.351 N 
ATOM     31  H4  UNL     1       3.744   1.706   2.635  1.00  0.00     0.163 HD
BRANCH  30  32
HETATM   32  C20 UNL     1       3.248   3.502   1.639  1.00  0.00     0.022 C 
HETATM   33  C21 UNL     1       3.640   3.802   0.191  1.00  0.00     0.037 C 
HETATM   34  C22 UNL     1       1.915   4.173   1.884  1.00  0.00     0.037 C 
HETATM   35  C23 UNL     1       4.322   4.133   2.501  1.00  0.00     0.037 C 
ENDBRANCH  30  32
ENDBRANCH  25  28
ENDBRANCH   1  21
TORSDOF 10
