REMARK  10 active torsions:
REMARK  status: ('A' for Active; 'I' for Inactive)
REMARK    1  A    between atoms: C3_3  and  N1_4 
REMARK    2  A    between atoms: N1_4  and  C4_6 
REMARK    3  A    between atoms: C4_6  and  O1_7 
REMARK    4  A    between atoms: C4_6  and  C5_9 
REMARK    5  A    between atoms: C5_9  and  C6_10 
REMARK    6  A    between atoms: C5_9  and  C17_29 
REMARK       I    between atoms: C6_10  and  N2_12 
REMARK    7  A    between atoms: N2_12  and  C7_14 
REMARK    8  A    between atoms: C7_14  and  C9_16 
REMARK    9  A    between atoms: C9_16  and  C10_18 
REMARK       I    between atoms: C10_18  and  N3_20 
REMARK   10  A    between atoms: N3_20  and  C11_22 
ROOT
HETATM    1  C1  UNL     1      -3.067   1.458  -2.948  1.00  0.00     0.099 C 
HETATM    2  C2  UNL     1      -3.598   0.801  -2.067  1.00  0.00    -0.157 C 
HETATM    3  C3  UNL     1      -4.220  -0.029  -0.999  1.00  0.00     0.080 C 
HETATM    4  C20 UNL     1      -5.509  -0.692  -1.578  1.00  0.00     0.043 C 
HETATM    5  C21 UNL     1      -6.275   0.153  -2.499  1.00  0.00     0.003 C 
HETATM    6  C22 UNL     1      -7.631   0.566  -2.009  1.00  0.00     0.000 C 
HETATM    7  C23 UNL     1      -7.598   1.083  -0.581  1.00  0.00     0.000 C 
HETATM    8  C24 UNL     1      -6.740   2.297  -0.509  1.00  0.00     0.000 C 
HETATM    9  C25 UNL     1      -5.303   2.158  -0.299  1.00  0.00     0.003 C 
HETATM   10  C26 UNL     1      -4.725   0.842   0.106  1.00  0.00     0.043 C 
ENDROOT
BRANCH   3  11
HETATM   11  N1  UNL     1      -3.354  -1.071  -0.703  1.00  0.00    -0.378 N 
ATOM     12  H1  UNL     1      -3.747  -1.983  -0.936  1.00  0.00     0.157 HD
BRANCH  11  13
HETATM   13  C4  UNL     1      -2.115  -1.162  -0.180  1.00  0.00     0.228 C 
BRANCH  13  14
HETATM   14  O1  UNL     1      -1.151  -0.312  -0.815  1.00  0.00    -0.376 OA
ATOM     15  H1  UNL     1      -0.278  -0.376  -0.446  1.00  0.00     0.212 HD
ENDBRANCH  13  14
BRANCH  13  16
HETATM   16  C5  UNL     1      -1.942  -0.891   1.281  1.00  0.00     0.129 C 
BRANCH  16  17
HETATM   17  C6  UNL     1      -0.515  -1.017   1.743  1.00  0.00     0.227 C 
HETATM   18  O2  UNL     1      -0.160  -2.008   2.417  1.00  0.00    -0.273 OA
HETATM   19  N2  UNL     1       0.445  -0.029   1.428  1.00  0.00    -0.349 N 
ATOM     20  H2  UNL     1       0.117   0.767   0.881  1.00  0.00     0.163 HD
BRANCH  19  21
HETATM   21  C7  UNL     1       1.834  -0.026   1.796  1.00  0.00     0.160 C 
HETATM   22  C8  UNL     1       2.196   1.251   2.559  1.00  0.00     0.041 C 
BRANCH  21  23
HETATM   23  C9  UNL     1       2.720  -0.033   0.603  1.00  0.00     0.238 C 
HETATM   24  O3  UNL     1       2.226  -0.072  -0.562  1.00  0.00    -0.285 OA
BRANCH  23  25
HETATM   25  C10 UNL     1       4.158   0.008   0.747  1.00  0.00     0.289 C 
HETATM   26  O4  UNL     1       4.656   0.028   1.891  1.00  0.00    -0.264 OA
HETATM   27  N3  UNL     1       5.029   0.026  -0.385  1.00  0.00    -0.350 N 
ATOM     28  H3  UNL     1       4.610   0.008  -1.315  1.00  0.00     0.163 HD
BRANCH  27  29
HETATM   29  C11 UNL     1       6.467   0.068  -0.287  1.00  0.00     0.088 C 
HETATM   30  C12 UNL     1       7.041   1.305  -0.929  1.00  0.00     0.055 C 
HETATM   31  C13 UNL     1       7.900   0.964  -2.107  1.00  0.00     0.274 C 
HETATM   32  N4  UNL     1       9.047   0.216  -1.586  1.00  0.00     0.084 N 
HETATM   33  C14 UNL     1       9.856   1.071  -0.728  1.00  0.00     0.309 C 
HETATM   34  C15 UNL     1       8.601  -0.964  -0.890  1.00  0.00     0.274 C 
HETATM   35  C16 UNL     1       7.120  -1.151  -0.869  1.00  0.00     0.055 C 
ENDBRANCH  27  29
ENDBRANCH  23  25
ENDBRANCH  21  23
ENDBRANCH  19  21
ENDBRANCH  16  17
BRANCH  16  36
HETATM   36  C17 UNL     1      -2.834  -1.856   2.036  1.00  0.00    -0.006 C 
HETATM   37  C18 UNL     1      -2.504  -3.291   1.747  1.00  0.00     0.010 C 
HETATM   38  C19 UNL     1      -2.693  -1.646   3.541  1.00  0.00     0.010 C 
ENDBRANCH  16  36
ENDBRANCH  13  16
ENDBRANCH  11  13
ENDBRANCH   3  11
TORSDOF 10
