REMARK  10 active torsions:
REMARK  status: ('A' for Active; 'I' for Inactive)
REMARK    1  A    between atoms: N1_2  and  C2_4 
REMARK    2  A    between atoms: C2_4  and  C4_6 
REMARK       I    between atoms: C4_6  and  N2_8 
REMARK    3  A    between atoms: N2_8  and  C5_10 
REMARK    4  A    between atoms: C6_11  and  N3_12 
REMARK       I    between atoms: N3_12  and  C7_14 
REMARK    5  A    between atoms: C7_14  and  C8_16 
REMARK    6  A    between atoms: C8_16  and  N4_17 
REMARK    7  A    between atoms: C8_16  and  C9_21 
REMARK    8  A    between atoms: C9_21  and  C10_22 
REMARK    9  A    between atoms: C19_31  and  C20_32 
REMARK   10  A    between atoms: C20_32  and  N5_33 
ROOT
HETATM    1  C5  UNL     1      -2.217  -0.130   1.792  1.00  0.00     0.137 C 
HETATM    2  C6  UNL     1      -2.115   0.720   0.565  1.00  0.00     0.119 C 
HETATM    3  C19 UNL     1      -2.701   2.084   1.017  1.00  0.00     0.055 C 
HETATM    4  C23 UNL     1      -3.735   1.665   1.965  1.00  0.00     0.030 C 
HETATM    5  C24 UNL     1      -4.878   0.834   1.438  1.00  0.00     0.034 C 
HETATM    6  C25 UNL     1      -5.266   0.116   2.738  1.00  0.00     0.168 C 
HETATM    7  O3  UNL     1      -4.072  -0.181   3.319  1.00  0.00    -0.383 OA
HETATM    8  C26 UNL     1      -3.041   0.554   2.805  1.00  0.00     0.151 C 
ENDROOT
BRANCH   2   9
HETATM    9  N3  UNL     1      -0.713   1.030   0.238  1.00  0.00    -0.352 N 
HETATM   10  C7  UNL     1      -0.168   0.830  -1.027  1.00  0.00     0.248 C 
HETATM   11  O2  UNL     1      -0.881   0.359  -1.940  1.00  0.00    -0.271 OA
ATOM     12  H3  UNL     1      -0.114   1.408   0.972  1.00  0.00     0.163 HD
BRANCH  10  13
HETATM   13  C8  UNL     1       1.276   1.187  -1.283  1.00  0.00     0.275 C 
BRANCH  13  14
HETATM   14  N4  UNL     1       1.857   1.750  -0.098  1.00  0.00    -0.066 N 
ATOM     15  H43 UNL     1       1.322   2.545   0.250  1.00  0.00     0.275 HD
ATOM     16  H42 UNL     1       1.752   1.136   0.709  1.00  0.00     0.275 HD
ATOM     17  H41 UNL     1       2.833   1.991  -0.271  1.00  0.00     0.275 HD
ENDBRANCH  13  14
BRANCH  13  18
HETATM   18  C9  UNL     1       1.964  -0.057  -1.729  1.00  0.00     0.047 C 
BRANCH  18  19
HETATM   19  C10 UNL     1       3.418   0.052  -2.069  1.00  0.00    -0.012 C 
HETATM   20  C11 UNL     1       3.850  -1.343  -2.511  1.00  0.00     0.005 C 
HETATM   21  C12 UNL     1       5.286  -1.441  -2.869  1.00  0.00     0.005 C 
HETATM   22  C13 UNL     1       6.168  -0.437  -2.222  1.00  0.00    -0.010 C 
HETATM   23  C14 UNL     1       7.496  -1.033  -1.771  1.00  0.00     0.005 C 
HETATM   24  C17 UNL     1       5.666   0.139  -0.955  1.00  0.00    -0.010 C 
HETATM   25  C15 UNL     1       7.243  -1.521  -0.356  1.00  0.00     0.001 C 
HETATM   26  C16 UNL     1       6.022  -0.838   0.152  1.00  0.00     0.005 C 
HETATM   27  C18 UNL     1       4.222   0.559  -0.938  1.00  0.00     0.010 C 
ENDBRANCH  18  19
ENDBRANCH  13  18
ENDBRANCH  10  13
ENDBRANCH   2   9
BRANCH   1  28
HETATM   28  N2  UNL     1      -2.643  -1.477   1.493  1.00  0.00    -0.350 N 
HETATM   29  C4  UNL     1      -1.960  -2.512   0.873  1.00  0.00     0.240 C 
HETATM   30  O1  UNL     1      -0.792  -2.363   0.471  1.00  0.00    -0.271 OA
ATOM     31  H2  UNL     1      -3.595  -1.702   1.783  1.00  0.00     0.163 HD
BRANCH  29  32
HETATM   32  C2  UNL     1      -2.668  -3.810   0.696  1.00  0.00     0.165 C 
HETATM   33  C3  UNL     1      -4.175  -3.637   0.658  1.00  0.00     0.042 C 
BRANCH  32  34
HETATM   34  N1  UNL     1      -2.175  -4.650  -0.330  1.00  0.00    -0.414 N 
HETATM   35  C1  UNL     1      -0.768  -4.813  -0.415  1.00  0.00     0.140 C 
ATOM     36  H1  UNL     1      -2.805  -5.119  -0.981  1.00  0.00     0.153 HD
ENDBRANCH  32  34
ENDBRANCH  29  32
ENDBRANCH   1  28
BRANCH   3  37
HETATM   37  C20 UNL     1      -3.038   2.909  -0.162  1.00  0.00     0.064 C 
BRANCH  37  38
HETATM   38  N5  UNL     1      -3.523   4.181   0.092  1.00  0.00    -0.401 N 
HETATM   39  C21 UNL     1      -4.805   4.380   0.643  1.00  0.00     0.148 C 
HETATM   40  C22 UNL     1      -2.979   5.272  -0.658  1.00  0.00     0.148 C 
ENDBRANCH  37  38
ENDBRANCH   3  37
TORSDOF 10
