REMARK  11 active torsions:
REMARK  status: ('A' for Active; 'I' for Inactive)
REMARK    1  A    between atoms: C2_2  and  C3_3 
REMARK    2  A    between atoms: C3_3  and  S1_4 
REMARK    3  A    between atoms: S1_4  and  C4_5 
REMARK    4  A    between atoms: C5_6  and  C6_7 
REMARK    5  A    between atoms: C6_7  and  C7_8 
REMARK       I    between atoms: C7_8  and  N1_10 
REMARK    6  A    between atoms: N1_10  and  C8_12 
REMARK    7  A    between atoms: C8_12  and  C9_13 
REMARK    8  A    between atoms: C8_12  and  C10_16 
REMARK    9  A    between atoms: C9_13  and  O2_14 
REMARK   10  A    between atoms: C10_16  and  O3_17 
REMARK   11  A    between atoms: C12_23  and  C13_24 
ROOT
HETATM    1  C4  UNL     1      -0.358   2.230   0.388  1.00  0.00     0.084 C 
HETATM    2  C5  UNL     1       0.674   1.213   0.676  1.00  0.00     0.102 C 
HETATM    3  C11 UNL     1       0.095   0.023   1.378  1.00  0.00     0.224 C 
HETATM    4  O4  UNL     1       0.214   0.015   2.634  1.00  0.00    -0.273 OA
HETATM    5  N2  UNL     1      -0.581  -1.140   0.949  1.00  0.00    -0.347 N 
ATOM      6  H2  UNL     1      -0.312  -1.953   1.503  1.00  0.00     0.163 HD
HETATM    7  C12 UNL     1      -1.544  -1.486  -0.056  1.00  0.00     0.180 C 
HETATM    8  C19 UNL     1      -1.673  -0.522  -1.140  1.00  0.00     0.243 C 
HETATM    9  O5  UNL     1      -1.838  -1.102  -2.239  1.00  0.00    -0.271 OA
HETATM   10  N3  UNL     1      -1.665   0.889  -1.304  1.00  0.00    -0.344 N 
HETATM   11  C20 UNL     1      -2.301   1.276  -2.584  1.00  0.00     0.126 C 
HETATM   12  C21 UNL     1      -1.791   2.630  -2.939  1.00  0.00     0.022 C 
HETATM   13  C22 UNL     1      -0.779   2.947  -1.889  1.00  0.00     0.028 C 
HETATM   14  C23 UNL     1      -1.290   2.087  -0.719  1.00  0.00     0.102 C 
ENDROOT
BRANCH   2  15
HETATM   15  C6  UNL     1       1.589   0.873  -0.458  1.00  0.00     0.118 C 
BRANCH  15  16
HETATM   16  C7  UNL     1       2.566  -0.148  -0.038  1.00  0.00     0.218 C 
HETATM   17  O1  UNL     1       2.556  -0.584   1.130  1.00  0.00    -0.274 OA
HETATM   18  N1  UNL     1       3.528  -0.652  -0.942  1.00  0.00    -0.352 N 
ATOM     19  H1  UNL     1       3.527  -0.287  -1.895  1.00  0.00     0.163 HD
BRANCH  18  20
HETATM   20  C8  UNL     1       4.509  -1.648  -0.602  1.00  0.00     0.131 C 
BRANCH  20  21
HETATM   21  C9  UNL     1       5.922  -1.132  -0.724  1.00  0.00     0.191 C 
BRANCH  21  22
HETATM   22  O2  UNL     1       6.833  -2.131  -0.385  1.00  0.00    -0.399 OA
ATOM     23  H2  UNL     1       7.722  -1.806  -0.462  1.00  0.00     0.209 HD
ENDBRANCH  21  22
ENDBRANCH  20  21
BRANCH  20  24
HETATM   24  C10 UNL     1       4.398  -2.877  -1.492  1.00  0.00     0.191 C 
BRANCH  24  25
HETATM   25  O3  UNL     1       5.346  -3.818  -1.147  1.00  0.00    -0.399 OA
ATOM     26  H3  UNL     1       5.277  -4.585  -1.703  1.00  0.00     0.209 HD
ENDBRANCH  24  25
ENDBRANCH  20  24
ENDBRANCH  18  20
ENDBRANCH  15  16
ENDBRANCH   2  15
BRANCH   1  27
HETATM   27  S1  UNL     1       0.339   3.873   0.322  1.00  0.00    -0.158 SA
BRANCH  27  28
HETATM   28  C3  UNL     1       0.827   4.682   1.788  1.00  0.00     0.100 C 
BRANCH  28  29
HETATM   29  C2  UNL     1       1.987   4.104   2.475  1.00  0.00    -0.027 C 
HETATM   30  C1  UNL     1       3.122   4.799   2.634  1.00  0.00     0.007 C 
ENDBRANCH  28  29
ENDBRANCH  27  28
ENDBRANCH   1  27
BRANCH   7  31
HETATM   31  C13 UNL     1      -2.914  -1.713   0.557  1.00  0.00     0.018 C 
HETATM   32  C14 UNL     1      -3.849  -2.070  -0.581  1.00  0.00     0.007 C 
HETATM   33  C15 UNL     1      -5.159  -2.648  -0.051  1.00  0.00     0.000 C 
HETATM   34  C16 UNL     1      -5.322  -2.215   1.387  1.00  0.00     0.000 C 
HETATM   35  C17 UNL     1      -4.260  -2.929   2.192  1.00  0.00     0.000 C 
HETATM   36  C18 UNL     1      -2.910  -2.880   1.517  1.00  0.00     0.007 C 
ENDBRANCH   7  31
TORSDOF 11
