REMARK  8 active torsions:
REMARK  status: ('A' for Active; 'I' for Inactive)
REMARK    1  A    between atoms: C2_2  and  O1_3 
REMARK    2  A    between atoms: C2_2  and  C5_16 
REMARK    3  A    between atoms: O1_3  and  C3_4 
REMARK    4  A    between atoms: C4_8  and  N3_9 
REMARK    5  A    between atoms: N3_9  and  N4_11 
REMARK    6  A    between atoms: C7_23  and  N8_24 
REMARK    7  A    between atoms: N8_24  and  N9_26 
REMARK       I    between atoms: N9_26  and  C8_28 
REMARK    8  A    between atoms: C8_28  and  C9_30 
ROOT
HETATM    1  C5  UNL     1       0.859  -0.872  -1.464  1.00  0.00     0.128 A 
HETATM    2  N6  UNL     1       0.266  -0.409  -2.584  1.00  0.00    -0.320 N 
ATOM      3  H6  UNL     1       0.733  -0.512  -3.485  1.00  0.00     0.169 HD
HETATM    4  C6  UNL     1      -0.947   0.192  -2.519  1.00  0.00     0.192 A 
HETATM    5  S1  UNL     1      -1.621   0.737  -3.919  1.00  0.00    -0.040 SA
HETATM    6  N7  UNL     1      -1.603   0.351  -1.359  1.00  0.00    -0.165 N 
ATOM      7  H7  UNL     1      -2.515   0.806  -1.333  1.00  0.00     0.186 HD
HETATM    8  C7  UNL     1      -1.030  -0.103  -0.234  1.00  0.00     0.700 A 
HETATM    9  N11 UNL     1       0.171  -0.694  -0.325  1.00  0.00    -0.176 N 
ATOM     10  H11 UNL     1       0.594  -1.035   0.538  1.00  0.00     0.185 HD
ENDROOT
BRANCH   1  11
HETATM   11  C2  UNL     1       2.195  -1.545  -1.482  1.00  0.00     0.189 C 
HETATM   12  C1  UNL     1       1.932  -3.028  -1.282  1.00  0.00     0.048 C 
BRANCH  11  13
HETATM   13  O1  UNL     1       2.968  -1.028  -0.470  1.00  0.00    -0.338 OA
BRANCH  13  14
HETATM   14  C3  UNL     1       4.139  -0.449  -0.951  1.00  0.00     0.343 A 
HETATM   15  N1  UNL     1       5.317  -1.119  -0.427  1.00  0.00    -0.085 NA
HETATM   16  N2  UNL     1       6.057  -0.202   0.325  1.00  0.00    -0.270 N 
HETATM   17  C4  UNL     1       5.490   0.963   0.308  1.00  0.00     0.214 A 
ATOM     18  H2  UNL     1       6.923  -0.420   0.818  1.00  0.00     0.185 HD
HETATM   19  N5  UNL     1       4.311   0.890  -0.476  1.00  0.00    -0.319 N 
ATOM     20  H5  UNL     1       3.683   1.670  -0.671  1.00  0.00     0.166 HD
BRANCH  17  21
HETATM   21  N3  UNL     1       6.010   2.097   0.983  1.00  0.00    -0.210 N 
ATOM     22  H3  UNL     1       5.467   2.961   0.988  1.00  0.00     0.196 HD
BRANCH  21  23
HETATM   23  N4  UNL     1       7.238   2.069   1.639  1.00  0.00    -0.036 N 
HETATM   24  O2  UNL     1       7.572   2.865   2.523  1.00  0.00    -0.516 OA
HETATM   25  O3  UNL     1       8.145   1.078   1.271  1.00  0.00    -0.516 OA
ENDBRANCH  21  23
ENDBRANCH  17  21
ENDBRANCH  13  14
ENDBRANCH  11  13
ENDBRANCH   1  11
BRANCH   8  26
HETATM   26  N8  UNL     1      -1.559  -0.013   0.939  1.00  0.00    -0.129 N 
ATOM     27  H8  UNL     1      -1.017  -0.398   1.713  1.00  0.00     0.205 HD
BRANCH  26  28
HETATM   28  N9  UNL     1      -2.770   0.543   1.259  1.00  0.00    -0.251 N 
HETATM   29  C8  UNL     1      -4.010  -0.037   0.903  1.00  0.00     0.271 C 
HETATM   30  O4  UNL     1      -3.989  -1.116   0.260  1.00  0.00    -0.266 OA
ATOM     31  H9  UNL     1      -2.778   1.420   1.780  1.00  0.00     0.191 HD
BRANCH  29  32
HETATM   32  C9  UNL     1      -5.301   0.539   1.233  1.00  0.00     0.049 A 
HETATM   33  C10 UNL     1      -6.485   0.010   0.705  1.00  0.00     0.020 A 
HETATM   34  C11 UNL     1      -7.710   0.531   1.005  1.00  0.00     0.018 A 
HETATM   35  C12 UNL     1      -7.753   1.629   1.870  1.00  0.00     0.087 A 
HETATM   36  N10 UNL     1      -6.611   2.143   2.382  1.00  0.00    -0.374 N 
HETATM   37  C13 UNL     1      -5.403   1.619   2.079  1.00  0.00     0.104 A 
ATOM     38  H10 UNL     1      -6.663   2.944   3.011  1.00  0.00     0.164 HD
ENDBRANCH  29  32
ENDBRANCH  26  28
ENDBRANCH   8  26
TORSDOF 8
