REMARK  11 active torsions:
REMARK  status: ('A' for Active; 'I' for Inactive)
REMARK    1  A    between atoms: C2_2  and  C4_14 
REMARK    2  A    between atoms: N1_3  and  N2_5 
REMARK    3  A    between atoms: N2_5  and  C3_7 
REMARK    4  A    between atoms: C3_7  and  N3_9 
REMARK    5  A    between atoms: N3_9  and  N4_11 
REMARK    6  A    between atoms: C4_14  and  C11_32 
REMARK    7  A    between atoms: N5_15  and  N6_17 
REMARK       I    between atoms: N6_17  and  C5_19 
REMARK    8  A    between atoms: C5_19  and  C6_21 
REMARK    9  A    between atoms: C10_28  and  N8_29 
REMARK   10  A    between atoms: C11_32  and  O7_33 
REMARK   11  A    between atoms: N9_35  and  O8_37 
ROOT
HETATM    1  C4  UNL     1       0.118   1.424  -2.018  1.00  0.00     0.124 C 
HETATM    2  N5  UNL     1      -0.950   1.610  -1.328  1.00  0.00    -0.292 N 
ATOM      3  H5  UNL     1      -1.700   2.105  -1.811  1.00  0.00     0.187 HD
ENDROOT
BRANCH   1   4
HETATM    4  C2  UNL     1       1.263   0.732  -1.451  1.00  0.00     0.054 C 
HETATM    5  C1  UNL     1       2.510   0.517  -2.212  1.00  0.00     0.072 C 
HETATM    6  N1  UNL     1       1.209   0.282  -0.214  1.00  0.00    -0.301 N 
ATOM      7  H1  UNL     1       0.364   0.411   0.342  1.00  0.00     0.186 HD
BRANCH   6   8
HETATM    8  N2  UNL     1       2.313  -0.371   0.330  1.00  0.00    -0.275 N 
ATOM      9  H2  UNL     1       3.128   0.180   0.600  1.00  0.00     0.189 HD
BRANCH   8  10
HETATM   10  C3  UNL     1       2.341  -1.779   0.521  1.00  0.00     0.210 C 
HETATM   11  S1  UNL     1       1.027  -2.670   0.084  1.00  0.00    -0.038 SA
BRANCH  10  12
HETATM   12  N3  UNL     1       3.491  -2.382   1.081  1.00  0.00    -0.214 N 
ATOM     13  H3  UNL     1       3.524  -3.392   1.221  1.00  0.00     0.195 HD
BRANCH  12  14
HETATM   14  N4  UNL     1       4.576  -1.591   1.440  1.00  0.00    -0.037 N 
HETATM   15  O1  UNL     1       4.580  -0.925   2.498  1.00  0.00    -0.516 OA
HETATM   16  O2  UNL     1       5.710  -1.494   0.650  1.00  0.00    -0.516 OA
ENDBRANCH  12  14
ENDBRANCH  10  12
ENDBRANCH   8  10
ENDBRANCH   6   8
ENDBRANCH   1   4
BRANCH   1  17
HETATM   17  C11 UNL     1       0.182   1.909  -3.392  1.00  0.00     0.190 C 
HETATM   18  N9  UNL     1       1.188   1.786  -4.170  1.00  0.00    -0.245 N 
ATOM     19  H9  UNL     1       2.029   1.317  -3.835  1.00  0.00     0.196 HD
BRANCH  17  20
HETATM   20  O7  UNL     1      -0.982   2.565  -3.869  1.00  0.00    -0.343 OA
ATOM     21  H7  UNL     1      -0.940   2.881  -4.764  1.00  0.00     0.219 HD
ENDBRANCH  17  20
BRANCH  18  22
HETATM   22  O8  UNL     1       1.151   2.271  -5.434  1.00  0.00    -0.288 OA
ATOM     23  H8  UNL     1       1.899   2.180  -6.012  1.00  0.00     0.244 HD
ENDBRANCH  18  22
ENDBRANCH   1  17
BRANCH   2  24
HETATM   24  N6  UNL     1      -1.227   1.241  -0.040  1.00  0.00    -0.264 N 
HETATM   25  C5  UNL     1      -2.287   0.308   0.303  1.00  0.00     0.289 C 
HETATM   26  O3  UNL     1      -2.902  -0.108  -0.710  1.00  0.00    -0.264 OA
ATOM     27  H6  UNL     1      -0.665   1.638   0.713  1.00  0.00     0.190 HD
BRANCH  25  28
HETATM   28  C6  UNL     1      -2.557  -0.068   1.669  1.00  0.00     0.138 A 
HETATM   29  N7  UNL     1      -2.170   0.839   2.616  1.00  0.00    -0.317 N 
HETATM   30  C7  UNL     1      -2.384   0.603   3.912  1.00  0.00     0.245 A 
ATOM     31  H7  UNL     1      -1.713   1.705   2.329  1.00  0.00     0.169 HD
HETATM   32  O4  UNL     1      -1.998   1.492   4.750  1.00  0.00    -0.268 OA
HETATM   33  C8  UNL     1      -2.993  -0.544   4.344  1.00  0.00     0.077 A 
HETATM   34  C9  UNL     1      -3.395  -1.477   3.442  1.00  0.00     0.044 A 
HETATM   35  C10 UNL     1      -3.163  -1.223   2.048  1.00  0.00     0.135 A 
BRANCH  35  36
HETATM   36  N8  UNL     1      -3.575  -2.226   1.158  1.00  0.00    -0.113 N 
HETATM   37  O5  UNL     1      -4.586  -2.899   1.483  1.00  0.00    -0.532 OA
HETATM   38  O6  UNL     1      -2.989  -2.527  -0.011  1.00  0.00    -0.532 OA
ENDBRANCH  35  36
ENDBRANCH  25  28
ENDBRANCH   2  24
TORSDOF 11
