REMARK  2 active torsions:
REMARK  status: ('A' for Active; 'I' for Inactive)
REMARK    1  A    between atoms: O1_1  and  C1_3 
REMARK    2  A    between atoms: C6_8  and  O2_9 
ROOT
HETATM    1  C1  UNL     1      -1.994  -0.284   0.189  1.00  0.00     0.118 C 
HETATM    2  C2  UNL     1      -1.928   1.100  -0.278  1.00  0.00     0.032 C 
HETATM    3  C3  UNL     1      -0.688   1.916   0.141  1.00  0.00     0.007 C 
HETATM    4  C4  UNL     1       0.329   0.895   0.251  1.00  0.00    -0.012 C 
HETATM    5  C5  UNL     1       1.723   1.072   0.644  1.00  0.00     0.036 C 
HETATM    6  C6  UNL     1       2.278  -0.362   0.548  1.00  0.00     0.118 C 
HETATM    7  C7  UNL     1       1.234  -1.430   0.407  1.00  0.00     0.036 C 
HETATM    8  C8  UNL     1       0.232  -1.241  -0.710  1.00  0.00    -0.009 C 
HETATM    9  C9  UNL     1      -1.197  -1.376  -0.287  1.00  0.00     0.036 C 
HETATM   10  C10 UNL     1       0.387   0.202  -1.110  1.00  0.00     0.009 C 
ENDROOT
BRANCH   1  11
HETATM   11  O1  UNL     1      -3.367  -0.635  -0.045  1.00  0.00    -0.396 OA
ATOM     12  H1  UNL     1      -3.410  -1.534   0.258  1.00  0.00     0.210 HD
ENDBRANCH   1  11
BRANCH   6  13
HETATM   13  O2  UNL     1       3.310  -0.455  -0.366  1.00  0.00    -0.396 OA
ATOM     14  H2  UNL     1       3.652  -1.339  -0.425  1.00  0.00     0.210 HD
ENDBRANCH   6  13
TORSDOF 2
