REMARK  0 active torsions:
REMARK  status: ('A' for Active; 'I' for Inactive)
ROOT
HETATM    1  N1  UNL     1      -4.329   0.615  -0.559  1.00  0.00    -0.366 N 
ATOM      2  H11 UNL     1      -5.073   0.559   0.136  1.00  0.00     0.159 HD
ATOM      3  H12 UNL     1      -4.398   1.003  -1.500  1.00  0.00     0.159 HD
HETATM    4  C1  UNL     1      -3.151   0.146  -0.233  1.00  0.00     0.212 C 
HETATM    5  N2  UNL     1      -2.120   0.224  -1.196  1.00  0.00    -0.356 N 
ATOM      6  H2  UNL     1      -2.350   0.729  -2.052  1.00  0.00     0.163 HD
HETATM    7  C2  UNL     1      -0.788  -0.316  -1.128  1.00  0.00     0.132 C 
HETATM    8  C3  UNL     1      -0.022  -0.003   0.101  1.00  0.00    -0.022 C 
HETATM    9  C4  UNL     1       0.887  -1.203   0.397  1.00  0.00     0.011 C 
HETATM   10  C5  UNL     1       2.143  -1.145  -0.469  1.00  0.00     0.001 C 
HETATM   11  C6  UNL     1       3.064  -0.033  -0.016  1.00  0.00     0.000 C 
HETATM   12  C7  UNL     1       2.154   1.021   0.634  1.00  0.00     0.001 C 
HETATM   13  C8  UNL     1       0.951   1.137  -0.250  1.00  0.00     0.011 C 
HETATM   14  C9  UNL     1      -0.784   0.436   1.288  1.00  0.00     0.038 C 
HETATM   15  C10 UNL     1      -1.842  -0.467   1.793  1.00  0.00     0.179 C 
HETATM   16  O1  UNL     1      -3.056  -0.391   1.070  1.00  0.00    -0.323 OA
ENDROOT
TORSDOF 0
