REMARK  2 active torsions:
REMARK  status: ('A' for Active; 'I' for Inactive)
REMARK    1  A    between atoms: C2_2  and  N1_3 
REMARK    2  A    between atoms: C10_14  and  N2_15 
ROOT
HETATM    1  C1  UNL     1       3.017  -0.526   0.113  1.00  0.00     0.046 C 
HETATM    2  C2  UNL     1       1.614   0.113   0.247  1.00  0.00     0.121 C 
HETATM    3  C3  UNL     1       1.187   0.464  -1.093  1.00  0.00     0.043 C 
HETATM    4  C4  UNL     1      -0.249   0.643  -1.401  1.00  0.00    -0.010 C 
HETATM    5  C5  UNL     1      -0.929   1.751  -0.664  1.00  0.00     0.005 C 
HETATM    6  C6  UNL     1      -1.990   1.225   0.266  1.00  0.00     0.001 C 
HETATM    7  C7  UNL     1      -1.283   0.544   1.405  1.00  0.00     0.007 C 
HETATM    8  C8  UNL     1      -0.639  -0.742   1.058  1.00  0.00     0.018 C 
HETATM    9  C9  UNL     1       0.841  -0.772   1.091  1.00  0.00     0.044 C 
HETATM   10  C10 UNL     1      -1.127  -1.404  -0.196  1.00  0.00     0.188 C 
HETATM   11  C11 UNL     1      -1.039  -0.637  -1.440  1.00  0.00     0.037 C 
ENDROOT
BRANCH   2  12
HETATM   12  N1  UNL     1       1.889   1.357   0.992  1.00  0.00    -0.071 N 
ATOM     13  H13 UNL     1       2.384   1.225   1.874  1.00  0.00     0.275 HD
ATOM     14  H12 UNL     1       2.594   1.961   0.569  1.00  0.00     0.275 HD
ATOM     15  H11 UNL     1       0.964   1.778   1.080  1.00  0.00     0.275 HD
ENDBRANCH   2  12
BRANCH  10  16
HETATM   16  N2  UNL     1      -2.467  -1.958   0.010  1.00  0.00    -0.075 N 
ATOM     17  H23 UNL     1      -2.499  -2.589   0.811  1.00  0.00     0.274 HD
ATOM     18  H22 UNL     1      -3.122  -1.253   0.348  1.00  0.00     0.274 HD
ATOM     19  H21 UNL     1      -2.799  -2.408  -0.843  1.00  0.00     0.274 HD
ENDBRANCH  10  16
TORSDOF 2
