REMARK  1 active torsions:
REMARK  status: ('A' for Active; 'I' for Inactive)
REMARK    1  A    between atoms: N2_4  and  N3_6 
ROOT
HETATM    1  N1  UNL     1       1.981   0.344   0.536  1.00  0.00    -0.331 N 
ATOM      2  H11 UNL     1       2.733   0.950   0.208  1.00  0.00     0.178 HD
ATOM      3  H12 UNL     1       1.677   0.331   1.510  1.00  0.00     0.178 HD
HETATM    4  N2  UNL     1       1.424  -0.408  -0.322  1.00  0.00    -0.248 N 
ATOM      5  H2  UNL     1       1.717  -0.406  -1.299  1.00  0.00     0.207 HD
ENDROOT
BRANCH   4   6
HETATM    6  N3  UNL     1       0.393  -1.239   0.127  1.00  0.00    -0.268 N 
HETATM    7  C1  UNL     1      -0.796  -0.747   0.222  1.00  0.00     0.159 A 
HETATM    8  C2  UNL     1      -1.761   0.400   0.080  1.00  0.00     0.262 A 
HETATM    9  O1  UNL     1      -2.163  -0.854   0.528  1.00  0.00    -0.328 OA
ATOM     10  H3  UNL     1       0.577  -2.212   0.374  1.00  0.00     0.190 HD
ENDBRANCH   4   6
TORSDOF 1
