REMARK  1 active torsions:
REMARK  status: ('A' for Active; 'I' for Inactive)
REMARK    1  A    between atoms: N2_4  and  N3_6 
ROOT
HETATM    1  N3  UNL     1       0.427  -0.590  -1.001  1.00  0.00    -0.274 N 
ATOM      2  H3  UNL     1       0.406  -0.994  -1.937  1.00  0.00     0.190 HD
HETATM    3  C1  UNL     1      -0.680  -0.244  -0.434  1.00  0.00     0.111 A 
HETATM    4  C2  UNL     1      -1.371   0.342   0.771  1.00  0.00     0.198 A 
HETATM    5  N4  UNL     1      -2.118  -0.097  -0.395  1.00  0.00    -0.370 N 
ATOM      6  H4  UNL     1      -3.019  -0.217  -0.858  1.00  0.00     0.161 HD
ENDROOT
BRANCH   1   7
HETATM    7  N2  UNL     1       1.643  -0.421  -0.358  1.00  0.00    -0.248 N 
HETATM    8  N1  UNL     1       2.366   0.591  -0.523  1.00  0.00    -0.331 N 
ATOM      9  H12 UNL     1       2.029   1.312  -1.162  1.00  0.00     0.178 HD
ATOM     10  H11 UNL     1       3.261   0.715  -0.050  1.00  0.00     0.178 HD
ATOM     11  H2  UNL     1       1.964  -1.151   0.277  1.00  0.00     0.207 HD
ENDBRANCH   1   7
TORSDOF 1
