REMARK  2 active torsions:
REMARK  status: ('A' for Active; 'I' for Inactive)
REMARK    1  A    between atoms: N2_4  and  N3_6 
REMARK    2  A    between atoms: N3_6  and  C1_8 
ROOT
HETATM    1  C1  UNL     1      -0.309  -0.287   0.590  1.00  0.00     0.702 A 
HETATM    2  N4  UNL     1       0.590  -0.414  -0.310  1.00  0.00    -0.161 N 
ATOM      3  H4  UNL     1       0.597  -0.776  -1.263  1.00  0.00     0.187 HD
HETATM    4  C2  UNL     1       1.570   0.147   0.540  1.00  0.00     0.221 A 
HETATM    5  N5  UNL     1       2.956   0.467   0.503  1.00  0.00    -0.062 NA
HETATM    6  N6  UNL     1       0.661   0.278   1.456  1.00  0.00    -0.161 N 
ATOM      7  H6  UNL     1       0.649   0.640   2.410  1.00  0.00     0.187 HD
ENDROOT
BRANCH   1   8
HETATM    8  N3  UNL     1      -1.708  -0.566   0.743  1.00  0.00    -0.118 N 
ATOM      9  H3  UNL     1      -2.002  -1.207   1.480  1.00  0.00     0.207 HD
BRANCH   8  10
HETATM   10  N2  UNL     1      -2.680   0.004  -0.076  1.00  0.00    -0.235 N 
HETATM   11  N1  UNL     1      -2.385   0.169  -1.306  1.00  0.00    -0.330 N 
ATOM     12  H12 UNL     1      -1.470  -0.110  -1.660  1.00  0.00     0.178 HD
ATOM     13  H11 UNL     1      -3.097   0.586  -1.906  1.00  0.00     0.178 HD
ATOM     14  H2  UNL     1      -3.591   0.278   0.293  1.00  0.00     0.208 HD
ENDBRANCH   8  10
ENDBRANCH   1   8
TORSDOF 2
