REMARK  7 active torsions:
REMARK  status: ('A' for Active; 'I' for Inactive)
REMARK    1  A    between atoms: C2_2  and  N1_5 
REMARK       I    between atoms: N1_5  and  C5_7 
REMARK    2  A    between atoms: C5_7  and  C6_9 
REMARK    3  A    between atoms: C11_15  and  N3_16 
REMARK    4  A    between atoms: N3_16  and  C12_18 
REMARK    5  A    between atoms: C12_18  and  C13_19 
REMARK    6  A    between atoms: C13_19  and  C14_20 
REMARK    7  A    between atoms: C14_20  and  N4_21 
ROOT
HETATM    1  C6  UNL     1      -0.297  -1.241   0.533  1.00  0.00     0.133 C 
HETATM    2  C7  UNL     1      -0.481  -2.761   0.329  1.00  0.00     0.253 C 
HETATM    3  N2  UNL     1       0.800  -3.242  -0.149  1.00  0.00    -0.068 N 
HETATM    4  C8  UNL     1       1.150  -4.537   0.306  1.00  0.00     0.272 C 
HETATM    5  C9  UNL     1       0.841  -3.061  -1.572  1.00  0.00     0.239 C 
HETATM    6  C10 UNL     1       0.770  -1.545  -1.705  1.00  0.00     0.061 C 
HETATM    7  C11 UNL     1       0.923  -1.026  -0.289  1.00  0.00     0.065 C 
HETATM    8  C15 UNL     1       1.757  -2.205   0.282  1.00  0.00     0.268 C 
ENDROOT
BRANCH   7   9
HETATM    9  N3  UNL     1       1.601   0.200  -0.183  1.00  0.00    -0.410 N 
ATOM     10  H3  UNL     1       1.679   0.832  -0.980  1.00  0.00     0.154 HD
BRANCH   9  11
HETATM   11  C12 UNL     1       2.174   0.527   1.074  1.00  0.00     0.116 C 
BRANCH  11  12
HETATM   12  C13 UNL     1       2.876   1.864   0.956  1.00  0.00     0.046 C 
BRANCH  12  13
HETATM   13  C14 UNL     1       1.914   2.943   0.560  1.00  0.00     0.231 C 
BRANCH  13  14
HETATM   14  N4  UNL     1       2.557   4.216   0.444  1.00  0.00    -0.079 N 
ATOM     15  H43 UNL     1       3.055   4.459   1.301  1.00  0.00     0.274 HD
ATOM     16  H42 UNL     1       3.350   4.174  -0.196  1.00  0.00     0.274 HD
ATOM     17  H41 UNL     1       1.902   4.950   0.175  1.00  0.00     0.274 HD
ENDBRANCH  13  14
ENDBRANCH  12  13
ENDBRANCH  11  12
ENDBRANCH   9  11
ENDBRANCH   7   9
BRANCH   1  18
HETATM   18  C5  UNL     1      -1.490  -0.514   0.082  1.00  0.00     0.226 C 
HETATM   19  N1  UNL     1      -1.579   0.881   0.274  1.00  0.00    -0.353 N 
ATOM     20  H1  UNL     1      -0.804   1.364   0.729  1.00  0.00     0.163 HD
HETATM   21  O1  UNL     1      -2.450  -1.092  -0.477  1.00  0.00    -0.273 OA
BRANCH  19  22
HETATM   22  C2  UNL     1      -2.730   1.656  -0.150  1.00  0.00     0.022 C 
HETATM   23  C1  UNL     1      -2.509   3.098   0.201  1.00  0.00     0.037 C 
HETATM   24  C3  UNL     1      -4.010   1.196   0.524  1.00  0.00     0.037 C 
HETATM   25  C4  UNL     1      -2.942   1.545  -1.644  1.00  0.00     0.037 C 
ENDBRANCH  19  22
ENDBRANCH   1  18
TORSDOF 7
