REMARK  10 active torsions:
REMARK  status: ('A' for Active; 'I' for Inactive)
REMARK    1  A    between atoms: O1_2  and  C2_3 
REMARK    2  A    between atoms: C3_6  and  N2_7 
REMARK    3  A    between atoms: C4_12  and  N4_13 
REMARK    4  A    between atoms: N4_13  and  C5_15 
REMARK    5  A    between atoms: C5_15  and  C6_16 
REMARK    6  A    between atoms: C7_18  and  C8_19 
REMARK    7  A    between atoms: C8_19  and  C9_20 
REMARK    8  A    between atoms: C9_20  and  N5_21 
REMARK    9  A    between atoms: N5_21  and  C10_23 
REMARK   10  A    between atoms: C11_26  and  C12_27 
ROOT
HETATM    1  C12 UNL     1       5.915  -1.218  -0.397  1.00  0.00     0.170 C 
HETATM    2  N7  UNL     1       6.122  -2.168  -1.478  1.00  0.00    -0.078 NA
HETATM    3  N8  UNL     1       6.871  -1.019   0.337  1.00  0.00    -0.279 N 
ATOM      4  H8  UNL     1       7.641  -1.598   0.003  1.00  0.00     0.179 HD
HETATM    5  C13 UNL     1       7.305  -0.349   1.396  1.00  0.00     0.183 C 
HETATM    6  N9  UNL     1       7.707   0.222   2.313  1.00  0.00    -0.172 NA
ENDROOT
BRANCH   1   7
HETATM    7  C11 UNL     1       4.555  -0.589  -0.302  1.00  0.00     0.156 A 
HETATM    8  N6  UNL     1       3.609  -0.878  -1.144  1.00  0.00    -0.319 N 
HETATM    9  C10 UNL     1       2.425  -0.306  -1.028  1.00  0.00     0.162 A 
ATOM     10  H6  UNL     1       3.781  -1.547  -1.895  1.00  0.00     0.169 HD
HETATM   11  S1  UNL     1       2.660   0.688   0.334  1.00  0.00     0.024 SA
HETATM   12  N10 UNL     1       4.281   0.292   0.661  1.00  0.00    -0.307 N 
ATOM     13  H10 UNL     1       4.888   0.639   1.403  1.00  0.00     0.176 HD
BRANCH   9  14
HETATM   14  N5  UNL     1       1.366  -0.479  -1.782  1.00  0.00    -0.369 N 
ATOM     15  H5  UNL     1       1.397  -1.123  -2.572  1.00  0.00     0.161 HD
BRANCH  14  16
HETATM   16  C9  UNL     1       0.159   0.248  -1.485  1.00  0.00     0.126 C 
BRANCH  16  17
HETATM   17  C8  UNL     1      -0.529  -0.388  -0.321  1.00  0.00     0.066 C 
BRANCH  17  18
HETATM   18  C7  UNL     1      -1.810   0.264   0.054  1.00  0.00     0.039 A 
HETATM   19  C2  UNL     1      -1.841   1.465   0.725  1.00  0.00     0.167 A 
HETATM   20  N1  UNL     1      -3.041   2.019   1.050  1.00  0.00    -0.170 N 
HETATM   21  C3  UNL     1      -4.194   1.416   0.728  1.00  0.00     0.679 A 
ATOM     22  H1  UNL     1      -3.063   2.909   1.548  1.00  0.00     0.186 HD
HETATM   23  N3  UNL     1      -4.162   0.245   0.073  1.00  0.00    -0.176 N 
HETATM   24  C4  UNL     1      -3.020  -0.359  -0.279  1.00  0.00     0.128 A 
ATOM     25  H3  UNL     1      -5.046  -0.204  -0.167  1.00  0.00     0.186 HD
BRANCH  19  26
HETATM   26  O1  UNL     1      -0.651   2.070   1.048  1.00  0.00    -0.340 OA
HETATM   27  C1  UNL     1      -0.466   3.275   1.717  1.00  0.00     0.211 C 
ENDBRANCH  19  26
BRANCH  21  28
HETATM   28  N2  UNL     1      -5.345   1.943   1.037  1.00  0.00    -0.234 N 
ATOM     29  H22 UNL     1      -5.369   2.833   1.535  1.00  0.00     0.174 HD
ATOM     30  H21 UNL     1      -6.222   1.484   0.792  1.00  0.00     0.174 HD
ENDBRANCH  21  28
BRANCH  24  31
HETATM   31  N4  UNL     1      -2.971  -1.468  -0.898  1.00  0.00    -0.369 N 
ATOM     32  H4  UNL     1      -2.047  -1.839  -1.119  1.00  0.00     0.161 HD
BRANCH  31  33
HETATM   33  C5  UNL     1      -4.104  -2.240  -1.311  1.00  0.00     0.190 C 
BRANCH  33  34
HETATM   34  C6  UNL     1      -4.629  -3.023  -0.177  1.00  0.00     0.250 C 
HETATM   35  O2  UNL     1      -5.604  -3.738  -0.352  1.00  0.00    -0.305 OA
ENDBRANCH  33  34
ENDBRANCH  31  33
ENDBRANCH  24  31
ENDBRANCH  17  18
ENDBRANCH  16  17
ENDBRANCH  14  16
ENDBRANCH   9  14
ENDBRANCH   1   7
TORSDOF 10
