REMARK  8 active torsions:
REMARK  status: ('A' for Active; 'I' for Inactive)
REMARK    1  A    between atoms: C2_2  and  C3_4 
REMARK    2  A    between atoms: C3_4  and  C4_5 
REMARK    3  A    between atoms: C5_6  and  O2_7 
REMARK    4  A    between atoms: C6_9  and  N1_10 
REMARK    5  A    between atoms: C9_13  and  O3_14 
REMARK    6  A    between atoms: N2_16  and  C10_17 
REMARK    7  A    between atoms: C10_17  and  C11_18 
REMARK       I    between atoms: C11_18  and  N3_20 
REMARK    8  A    between atoms: N3_20  and  N4_22 
ROOT
HETATM    1  C4  UNL     1      -1.996  -1.021   0.650  1.00  0.00     0.052 A 
HETATM    2  C5  UNL     1      -2.568   0.130   0.160  1.00  0.00     0.108 A 
HETATM    3  C6  UNL     1      -1.825   1.297   0.220  1.00  0.00     0.115 A 
HETATM    4  C9  UNL     1      -0.558   1.334   0.743  1.00  0.00     0.175 A 
HETATM    5  N2  UNL     1      -0.010   0.201   1.218  1.00  0.00    -0.283 N 
HETATM    6  C14 UNL     1      -0.724  -0.930   1.163  1.00  0.00     0.259 A 
HETATM    7  O7  UNL     1      -0.197  -1.983   1.612  1.00  0.00    -0.267 OA
ENDROOT
BRANCH   5   8
HETATM    8  C10 UNL     1       1.315   0.271   1.759  1.00  0.00     0.239 C 
BRANCH   8   9
HETATM    9  C11 UNL     1       2.315   0.010   0.632  1.00  0.00     0.256 C 
HETATM   10  O4  UNL     1       1.782  -0.205  -0.472  1.00  0.00    -0.270 OA
HETATM   11  N3  UNL     1       3.684   0.036   0.936  1.00  0.00    -0.243 N 
ATOM     12  H3  UNL     1       3.931   0.232   1.906  1.00  0.00     0.192 HD
BRANCH  11  13
HETATM   13  N4  UNL     1       4.729  -0.174   0.067  1.00  0.00    -0.135 N 
HETATM   14  N5  UNL     1       6.035  -0.130   0.435  1.00  0.00    -0.225 N 
HETATM   15  C12 UNL     1       6.825  -0.366  -0.591  1.00  0.00     0.344 A 
ATOM     16  H5  UNL     1       6.361   0.061   1.382  1.00  0.00     0.194 HD
HETATM   17  O5  UNL     1       8.109  -0.398  -0.582  1.00  0.00    -0.245 OA
HETATM   18  N6  UNL     1       6.073  -0.574  -1.670  1.00  0.00    -0.257 N 
HETATM   19  C13 UNL     1       4.779  -0.451  -1.244  1.00  0.00     0.365 A 
ATOM     20  H6  UNL     1       6.394  -0.781  -2.616  1.00  0.00     0.175 HD
HETATM   21  O6  UNL     1       3.816  -0.598  -2.058  1.00  0.00    -0.243 OA
ENDBRANCH  11  13
ENDBRANCH   8   9
ENDBRANCH   5   8
BRANCH   4  22
HETATM   22  O3  UNL     1       0.162   2.527   0.787  1.00  0.00    -0.344 OA
ATOM     23  H3  UNL     1       1.040   2.553   1.149  1.00  0.00     0.219 HD
ENDBRANCH   4  22
BRANCH   3  24
HETATM   24  N1  UNL     1      -2.435   2.495  -0.294  1.00  0.00    -0.384 N 
HETATM   25  C7  UNL     1      -3.200   3.296   0.626  1.00  0.00     0.149 C 
HETATM   26  C8  UNL     1      -2.304   2.904  -1.673  1.00  0.00     0.149 C 
ENDBRANCH   3  24
BRANCH   1  27
HETATM   27  C3  UNL     1      -2.767  -2.268   0.595  1.00  0.00     0.125 C 
BRANCH  27  28
HETATM   28  C2  UNL     1      -2.834  -2.873  -0.736  1.00  0.00     0.127 C 
HETATM   29  C1  UNL     1      -3.567  -4.139  -0.994  1.00  0.00     0.091 C 
HETATM   30  O1  UNL     1      -2.274  -2.328  -1.667  1.00  0.00    -0.298 OA
ENDBRANCH  27  28
ENDBRANCH   1  27
BRANCH   2  31
HETATM   31  O2  UNL     1      -3.865   0.152  -0.388  1.00  0.00    -0.358 OA
ATOM     32  H2  UNL     1      -4.260   0.947  -0.726  1.00  0.00     0.217 HD
ENDBRANCH   2  31
TORSDOF 8
