REMARK  5 active torsions:
REMARK  status: ('A' for Active; 'I' for Inactive)
REMARK    1  A    between atoms: C2_2  and  C3_3 
REMARK    2  A    between atoms: C3_3  and  C6_6 
REMARK    3  A    between atoms: C6_6  and  C7_8 
REMARK    4  A    between atoms: C7_8  and  N1_9 
REMARK    5  A    between atoms: N1_9  and  C8_11 
ROOT
HETATM    1  C7  UNL     1       0.717   0.478  -0.640  1.00  0.00     0.257 C 
HETATM    2  C9  UNL     1       1.101  -0.959  -0.709  1.00  0.00     0.271 C 
HETATM    3  O2  UNL     1       1.086  -1.467  -1.882  1.00  0.00    -0.269 OA
HETATM    4  N3  UNL     1       1.460  -1.738   0.398  1.00  0.00    -0.276 N 
ATOM      5  H3  UNL     1       1.562  -2.748   0.299  1.00  0.00     0.173 HD
HETATM    6  C10 UNL     1       1.682  -1.124   1.658  1.00  0.00     0.329 C 
HETATM    7  O3  UNL     1       2.000  -1.868   2.611  1.00  0.00    -0.247 OA
HETATM    8  N4  UNL     1       1.532   0.278   1.761  1.00  0.00    -0.276 N 
ATOM      9  H4  UNL     1       1.691   0.727   2.663  1.00  0.00     0.173 HD
HETATM   10  C11 UNL     1       1.165   1.087   0.641  1.00  0.00     0.271 C 
HETATM   11  O4  UNL     1       1.247   2.330   0.809  1.00  0.00    -0.269 OA
ENDROOT
BRANCH   1  12
HETATM   12  C6  UNL     1      -0.730   0.569  -0.885  1.00  0.00     0.185 C 
HETATM   13  O1  UNL     1      -1.049   1.166  -1.936  1.00  0.00    -0.293 OA
BRANCH  12  14
HETATM   14  C3  UNL     1      -1.835   0.066  -0.081  1.00  0.00     0.034 C 
HETATM   15  C4  UNL     1      -1.989   0.783   1.253  1.00  0.00     0.027 C 
HETATM   16  C5  UNL     1      -3.171   0.345  -0.798  1.00  0.00     0.027 C 
BRANCH  14  17
HETATM   17  C2  UNL     1      -1.835  -1.413   0.106  1.00  0.00    -0.020 C 
HETATM   18  C1  UNL     1      -2.267  -1.976   1.219  1.00  0.00     0.008 C 
ENDBRANCH  14  17
ENDBRANCH  12  14
ENDBRANCH   1  12
BRANCH   1  19
HETATM   19  N1  UNL     1       1.450   1.120  -1.747  1.00  0.00    -0.338 N 
ATOM     20  H1  UNL     1       0.900   1.516  -2.509  1.00  0.00     0.163 HD
BRANCH  19  21
HETATM   21  C8  UNL     1       2.838   1.227  -1.832  1.00  0.00     0.182 C 
HETATM   22  N2  UNL     1       3.749   0.734  -0.868  1.00  0.00    -0.070 NA
HETATM   23  S1  UNL     1       3.476   1.983  -3.155  1.00  0.00    -0.044 SA
ENDBRANCH  19  21
ENDBRANCH   1  19
TORSDOF 5
