REMARK  6 active torsions:
REMARK  status: ('A' for Active; 'I' for Inactive)
REMARK    1  A    between atoms: C2_2  and  C3_3 
REMARK    2  A    between atoms: C3_3  and  N1_4 
REMARK    3  A    between atoms: C7_8  and  C8_9 
REMARK       I    between atoms: C8_9  and  N2_11 
REMARK    4  A    between atoms: N2_11  and  N3_13 
REMARK       I    between atoms: N3_13  and  C9_15 
REMARK    5  A    between atoms: C9_15  and  C10_17 
REMARK       I    between atoms: C10_17  and  N4_19 
REMARK    6  A    between atoms: N4_19  and  N5_21 
ROOT
HETATM    1  C8  UNL     1       1.084  -0.968  -0.388  1.00  0.00     0.269 C 
HETATM    2  O1  UNL     1       1.417  -0.372   0.657  1.00  0.00    -0.269 OA
HETATM    3  N2  UNL     1       2.107  -1.487  -1.219  1.00  0.00    -0.265 N 
ATOM      4  H2  UNL     1       1.845  -1.975  -2.076  1.00  0.00     0.190 HD
ENDROOT
BRANCH   1   5
HETATM    5  C7  UNL     1      -0.331  -1.158  -0.800  1.00  0.00     0.315 C 
HETATM    6  N1  UNL     1      -1.243  -0.543   0.143  1.00  0.00     0.102 N 
HETATM    7  C4  UNL     1      -1.631  -1.533   1.072  1.00  0.00     0.273 C 
HETATM    8  C5  UNL     1      -1.735  -2.816   0.222  1.00  0.00     0.033 C 
HETATM    9  C6  UNL     1      -0.604  -2.637  -0.743  1.00  0.00     0.047 C 
BRANCH   6  10
HETATM   10  C3  UNL     1      -2.221   0.277  -0.440  1.00  0.00     0.282 C 
BRANCH  10  11
HETATM   11  C2  UNL     1      -2.812   1.239   0.525  1.00  0.00    -0.018 C 
HETATM   12  C1  UNL     1      -1.768   2.152   1.127  1.00  0.00     0.017 C 
HETATM   13  C11 UNL     1      -3.903   2.140  -0.124  1.00  0.00     0.011 C 
HETATM   14  C12 UNL     1      -4.572   2.130   1.234  1.00  0.00     0.002 C 
HETATM   15  C13 UNL     1      -3.903   0.778   1.437  1.00  0.00     0.011 C 
ENDBRANCH  10  11
ENDBRANCH   6  10
ENDBRANCH   1   5
BRANCH   3  16
HETATM   16  N3  UNL     1       3.460  -1.355  -0.908  1.00  0.00    -0.259 N 
HETATM   17  C9  UNL     1       4.100  -0.102  -0.740  1.00  0.00     0.329 C 
HETATM   18  O2  UNL     1       3.467   0.957  -0.864  1.00  0.00    -0.261 OA
ATOM     19  H3  UNL     1       4.017  -2.202  -0.796  1.00  0.00     0.190 HD
BRANCH  17  20
HETATM   20  C10 UNL     1       5.516  -0.034  -0.419  1.00  0.00     0.329 C 
HETATM   21  O3  UNL     1       6.166  -1.116  -0.302  1.00  0.00    -0.261 OA
HETATM   22  N4  UNL     1       6.204   1.182  -0.229  1.00  0.00    -0.268 N 
ATOM     23  H4  UNL     1       5.700   2.064  -0.317  1.00  0.00     0.190 HD
BRANCH  22  24
HETATM   24  N5  UNL     1       7.563   1.194   0.078  1.00  0.00    -0.342 N 
ATOM     25  H52 UNL     1       8.052   0.303   0.163  1.00  0.00     0.176 HD
ATOM     26  H51 UNL     1       8.061   2.074   0.215  1.00  0.00     0.176 HD
ENDBRANCH  22  24
ENDBRANCH  17  20
ENDBRANCH   3  16
TORSDOF 6
