REMARK  9 active torsions:
REMARK  status: ('A' for Active; 'I' for Inactive)
REMARK       I    between atoms: N1_2  and  C2_4 
REMARK    1  A    between atoms: C2_4  and  C3_6 
REMARK    2  A    between atoms: C6_9  and  N2_10 
REMARK    3  A    between atoms: C6_9  and  C7_16 
REMARK    4  A    between atoms: N2_10  and  N3_12 
REMARK    5  A    between atoms: N3_12  and  N4_13 
REMARK    6  A    between atoms: C7_16  and  O2_17 
REMARK    7  A    between atoms: C7_16  and  C8_19 
REMARK    8  A    between atoms: C8_19  and  O3_20 
REMARK    9  A    between atoms: C9_22  and  O4_24 
ROOT
HETATM    1  C3  UNL     1       1.137   0.026   0.271  1.00  0.00     0.264 C 
HETATM    2  C4  UNL     1       1.489   0.459   1.701  1.00  0.00     0.067 C 
HETATM    3  C5  UNL     1      -0.140   0.756  -0.155  1.00  0.00     0.101 C 
HETATM    4  C6  UNL     1      -1.229  -0.246   0.144  1.00  0.00     0.156 C 
HETATM    5  C9  UNL     1      -0.526  -1.558  -0.114  1.00  0.00     0.311 C 
HETATM    6  C10 UNL     1      -1.150  -2.661   0.717  1.00  0.00     0.092 C 
HETATM    7  N5  UNL     1       0.878  -1.367   0.184  1.00  0.00     0.063 N 
HETATM    8  C11 UNL     1       1.249  -2.079   1.419  1.00  0.00     0.362 C 
HETATM    9  O5  UNL     1       1.568  -2.015  -0.792  1.00  0.00    -0.060 OA
ENDROOT
BRANCH   4  10
HETATM   10  N2  UNL     1      -1.646  -0.181   1.535  1.00  0.00    -0.234 N 
ATOM     11  H2  UNL     1      -1.792  -1.051   2.046  1.00  0.00     0.198 HD
BRANCH  10  12
HETATM   12  N3  UNL     1      -1.827   0.876   2.111  1.00  0.00    -0.247 NA
BRANCH  12  13
HETATM   13  N4  UNL     1      -1.887   1.930   2.705  1.00  0.00    -0.261 N 
ATOM     14  H42 UNL     1      -0.881   1.777   2.781  1.00  0.00     0.193 HD
ATOM     15  H41 UNL     1      -2.039   2.816   3.188  1.00  0.00     0.193 HD
ENDBRANCH  12  13
ENDBRANCH  10  12
ENDBRANCH   4  10
BRANCH   4  16
HETATM   16  C7  UNL     1      -2.384  -0.127  -0.795  1.00  0.00     0.178 C 
BRANCH  16  17
HETATM   17  O2  UNL     1      -2.036  -0.165  -2.130  1.00  0.00    -0.391 OA
ATOM     18  H2  UNL     1      -2.771  -0.089  -2.727  1.00  0.00     0.210 HD
ENDBRANCH  16  17
BRANCH  16  19
HETATM   19  C8  UNL     1      -3.219   1.111  -0.579  1.00  0.00     0.198 C 
BRANCH  19  20
HETATM   20  O3  UNL     1      -2.506   2.266  -0.908  1.00  0.00    -0.398 OA
ATOM     21  H3  UNL     1      -3.032   3.045  -0.772  1.00  0.00     0.209 HD
ENDBRANCH  19  20
ENDBRANCH  16  19
ENDBRANCH   4  16
BRANCH   5  22
HETATM   22  O4  UNL     1      -0.691  -1.927  -1.443  1.00  0.00    -0.356 OA
ATOM     23  H4  UNL     1      -0.249  -2.752  -1.605  1.00  0.00     0.213 HD
ENDBRANCH   5  22
BRANCH   1  24
HETATM   24  C2  UNL     1       2.285   0.501  -0.559  1.00  0.00     0.262 C 
HETATM   25  N1  UNL     1       2.602   1.908  -0.524  1.00  0.00    -0.363 N 
HETATM   26  C1  UNL     1       3.684   2.467  -1.283  1.00  0.00     0.149 C 
ATOM     27  H1  UNL     1       2.038   2.526   0.060  1.00  0.00     0.162 HD
HETATM   28  O1  UNL     1       2.996  -0.210  -1.280  1.00  0.00    -0.270 OA
ENDBRANCH   1  24
TORSDOF 9
