REMARK  10 active torsions:
REMARK  status: ('A' for Active; 'I' for Inactive)
REMARK    1  A    between atoms: C4_5  and  O1_6 
REMARK    2  A    between atoms: O1_6  and  C5_7 
REMARK    3  A    between atoms: C8_10  and  N2_11 
REMARK       I    between atoms: N2_11  and  C9_12 
REMARK    4  A    between atoms: N2_11  and  C21_33 
REMARK    5  A    between atoms: C9_12  and  C10_14 
REMARK    6  A    between atoms: C10_14  and  C11_15 
REMARK    7  A    between atoms: C10_14  and  N4_19 
REMARK    8  A    between atoms: C11_15  and  C12_16 
REMARK       I    between atoms: N4_19  and  C13_21 
REMARK    9  A    between atoms: C13_21  and  C14_23 
REMARK   10  A    between atoms: C14_23  and  C15_24 
ROOT
HETATM    1  N1  UNL     1       9.873   0.379  -3.758  1.00  0.00    -0.191 NA
HETATM    2  C1  UNL     1       8.761   0.625  -3.837  1.00  0.00     0.101 C 
HETATM    3  C2  UNL     1       7.364   0.940  -3.912  1.00  0.00     0.069 A 
HETATM    4  C3  UNL     1       6.705   1.310  -2.745  1.00  0.00     0.065 A 
HETATM    5  C4  UNL     1       5.371   1.624  -2.758  1.00  0.00     0.116 A 
HETATM    6  C26 UNL     1       4.695   1.566  -3.957  1.00  0.00     0.151 A 
HETATM    7  F5  UNL     1       3.365   1.887  -4.054  1.00  0.00    -0.203 F 
HETATM    8  C27 UNL     1       5.341   1.200  -5.118  1.00  0.00     0.070 A 
HETATM    9  C28 UNL     1       6.690   0.880  -5.114  1.00  0.00     0.057 A 
HETATM   10 CL1  UNL     1       7.535   0.406  -6.585  1.00  0.00    -0.083 Cl
ENDROOT
BRANCH   5  11
HETATM   11  O1  UNL     1       4.758   1.983  -1.597  1.00  0.00    -0.304 OA
BRANCH  11  12
HETATM   12  C5  UNL     1       3.745   1.315  -0.966  1.00  0.00     0.114 A 
HETATM   13  C6  UNL     1       3.244   0.114  -1.409  1.00  0.00     0.043 A 
HETATM   14  C7  UNL     1       2.216  -0.512  -0.731  1.00  0.00     0.032 A 
HETATM   15  C8  UNL     1       1.635   0.010   0.408  1.00  0.00     0.040 A 
HETATM   16  C24 UNL     1       2.142   1.213   0.848  1.00  0.00     0.075 A 
HETATM   17  C25 UNL     1       3.167   1.851   0.184  1.00  0.00     0.152 A 
HETATM   18  F4  UNL     1       3.662   3.050   0.640  1.00  0.00    -0.203 F 
BRANCH  15  19
HETATM   19  N2  UNL     1       0.569  -0.677   1.064  1.00  0.00    -0.311 N 
HETATM   20  C9  UNL     1      -0.755  -0.626   0.569  1.00  0.00     0.248 C 
HETATM   21  O2  UNL     1      -0.935   0.185  -0.414  1.00  0.00    -0.271 OA
BRANCH  20  22
HETATM   22  C10 UNL     1      -1.906  -1.394   1.066  1.00  0.00     0.185 C 
BRANCH  22  23
HETATM   23  C11 UNL     1      -1.842  -2.866   0.849  1.00  0.00     0.134 C 
BRANCH  23  24
HETATM   24  C12 UNL     1      -1.720  -3.287  -0.567  1.00  0.00     0.233 C 
HETATM   25  N3  UNL     1      -1.734  -4.671  -0.882  1.00  0.00    -0.062 NA
HETATM   26  O3  UNL     1      -1.606  -2.469  -1.492  1.00  0.00    -0.277 OA
ENDBRANCH  23  24
ENDBRANCH  22  23
BRANCH  22  27
HETATM   27  N4  UNL     1      -3.118  -0.883   0.439  1.00  0.00    -0.347 N 
HETATM   28  C13 UNL     1      -4.022  -0.063   1.128  1.00  0.00     0.222 C 
HETATM   29  O4  UNL     1      -3.777   0.238   2.322  1.00  0.00    -0.273 OA
ATOM     30  H4  UNL     1      -3.315  -1.130  -0.531  1.00  0.00     0.163 HD
BRANCH  28  31
HETATM   31  C14 UNL     1      -5.241   0.452   0.490  1.00  0.00     0.144 C 
BRANCH  31  32
HETATM   32  C15 UNL     1      -5.979   1.351   1.433  1.00  0.00    -0.008 A 
HETATM   33  C16 UNL     1      -7.115   0.967   2.105  1.00  0.00     0.056 A 
HETATM   34  C17 UNL     1      -7.751   1.853   2.981  1.00  0.00     0.155 A 
HETATM   35  F1  UNL     1      -8.871   1.435   3.627  1.00  0.00    -0.203 F 
HETATM   36  C18 UNL     1      -7.250   3.114   3.179  1.00  0.00     0.157 A 
HETATM   37  F2  UNL     1      -7.901   3.937   4.035  1.00  0.00    -0.203 F 
HETATM   38  C19 UNL     1      -6.107   3.504   2.505  1.00  0.00     0.088 A 
HETATM   39  C20 UNL     1      -5.485   2.629   1.644  1.00  0.00     0.126 A 
HETATM   40  F3  UNL     1      -4.369   3.035   1.000  1.00  0.00    -0.205 F 
ENDBRANCH  31  32
ENDBRANCH  28  31
ENDBRANCH  22  27
ENDBRANCH  20  22
BRANCH  19  41
HETATM   41  C21 UNL     1       0.820  -1.398   2.285  1.00  0.00     0.093 A 
HETATM   42  C22 UNL     1       2.081  -2.288   2.219  1.00  0.00     0.028 A 
HETATM   43  C23 UNL     1       1.991  -1.093   3.138  1.00  0.00     0.028 A 
ENDBRANCH  19  41
ENDBRANCH  15  19
ENDBRANCH  11  12
ENDBRANCH   5  11
TORSDOF 10
