REMARK  8 active torsions:
REMARK  status: ('A' for Active; 'I' for Inactive)
REMARK    1  A    between atoms: C5_5  and  S1_6 
REMARK    2  A    between atoms: S1_6  and  C6_9 
REMARK    3  A    between atoms: C6_9  and  C9_12 
REMARK       I    between atoms: C9_12  and  N1_14 
REMARK    4  A    between atoms: N1_14  and  C10_16 
REMARK    5  A    between atoms: C10_16  and  C11_17 
REMARK    6  A    between atoms: C10_16  and  C12_20 
REMARK    7  A    between atoms: C12_20  and  N4_22 
REMARK    8  A    between atoms: N4_22  and  O5_24 
ROOT
HETATM    1  C9  UNL     1      -0.267  -0.323   0.569  1.00  0.00     0.242 C 
HETATM    2  O3  UNL     1       0.066   0.719   1.155  1.00  0.00    -0.272 OA
HETATM    3  N1  UNL     1      -1.555  -0.363  -0.038  1.00  0.00    -0.341 N 
ATOM      4  H1  UNL     1      -1.848  -1.210  -0.525  1.00  0.00     0.163 HD
ENDROOT
BRANCH   1   5
HETATM    5  C6  UNL     1       0.575  -1.547   0.448  1.00  0.00     0.142 C 
HETATM    6  C7  UNL     1      -0.171  -2.611   1.277  1.00  0.00     0.042 C 
HETATM    7  C8  UNL     1       0.572  -2.004  -0.975  1.00  0.00     0.042 C 
BRANCH   5   8
HETATM    8  S1  UNL     1       2.159  -1.399   1.167  1.00  0.00     0.198 S 
HETATM    9  O1  UNL     1       2.842  -2.728   1.086  1.00  0.00    -0.221 OA
HETATM   10  O2  UNL     1       2.009  -1.053   2.612  1.00  0.00    -0.221 OA
BRANCH   8  11
HETATM   11  C5  UNL     1       3.155  -0.226   0.322  1.00  0.00     0.101 A 
HETATM   12  C4  UNL     1       4.354  -0.438  -0.304  1.00  0.00     0.032 A 
HETATM   13  C3  UNL     1       4.943   0.611  -0.888  1.00  0.00     0.016 A 
HETATM   14  C2  UNL     1       4.305   1.816  -0.817  1.00  0.00    -0.020 A 
HETATM   15  C1  UNL     1       4.762   3.135  -1.392  1.00  0.00     0.056 C 
HETATM   16  S2  UNL     1       2.896   1.450   0.066  1.00  0.00    -0.083 SA
ENDBRANCH   8  11
ENDBRANCH   5   8
ENDBRANCH   1   5
BRANCH   3  17
HETATM   17  C10 UNL     1      -2.464   0.771   0.017  1.00  0.00     0.240 C 
BRANCH  17  18
HETATM   18  C11 UNL     1      -2.730   1.210  -1.369  1.00  0.00     0.261 C 
HETATM   19  N2  UNL     1      -3.599   2.315  -1.582  1.00  0.00    -0.060 NA
HETATM   20  O4  UNL     1      -2.208   0.631  -2.355  1.00  0.00    -0.274 OA
ENDBRANCH  17  18
BRANCH  17  21
HETATM   21  C12 UNL     1      -3.760   0.374   0.622  1.00  0.00     0.144 C 
HETATM   22  N3  UNL     1      -4.520  -0.645  -0.007  1.00  0.00    -0.083 NA
BRANCH  21  23
HETATM   23  N4  UNL     1      -4.219   0.914   1.690  1.00  0.00    -0.257 N 
ATOM     24  H4  UNL     1      -3.683   1.648   2.154  1.00  0.00     0.195 HD
BRANCH  23  25
HETATM   25  O5  UNL     1      -5.404   0.524   2.210  1.00  0.00    -0.289 OA
ATOM     26  H5  UNL     1      -5.744   0.924   3.002  1.00  0.00     0.244 HD
ENDBRANCH  23  25
ENDBRANCH  21  23
ENDBRANCH  17  21
ENDBRANCH   3  17
TORSDOF 8
