REMARK  9 active torsions:
REMARK  status: ('A' for Active; 'I' for Inactive)
REMARK    1  A    between atoms: C4_4  and  C5_5 
REMARK    2  A    between atoms: C5_5  and  O1_6 
REMARK    3  A    between atoms: C5_5  and  C6_8 
REMARK    4  A    between atoms: C8_11  and  O3_12 
REMARK    5  A    between atoms: C9_14  and  O4_15 
REMARK    6  A    between atoms: C10_17  and  O5_18 
REMARK    7  A    between atoms: O5_18  and  C11_19 
REMARK    8  A    between atoms: C14_23  and  C15_24 
REMARK    9  A    between atoms: C16_25  and  C17_26 
ROOT
HETATM    1  C1  UNL     1      -0.002   2.196   1.839  1.00  0.00     0.010 C 
HETATM    2  C2  UNL     1       0.444   1.968   0.409  1.00  0.00    -0.010 C 
HETATM    3  C3  UNL     1      -0.610   2.280  -0.585  1.00  0.00     0.013 C 
HETATM    4  C4  UNL     1      -1.017   1.051  -1.415  1.00  0.00     0.029 C 
HETATM    5  C7  UNL     1      -1.171  -0.010  -0.409  1.00  0.00     0.035 C 
HETATM    6  C8  UNL     1      -1.801  -1.279  -0.782  1.00  0.00     0.154 C 
HETATM    7  C9  UNL     1      -1.318  -2.195   0.324  1.00  0.00     0.177 C 
HETATM    8  C10 UNL     1      -0.103  -1.480   0.974  1.00  0.00     0.171 C 
HETATM    9  C12 UNL     1       0.229  -0.494  -0.070  1.00  0.00    -0.001 C 
HETATM   10  C13 UNL     1       0.775  -1.303  -1.262  1.00  0.00     0.019 C 
HETATM   11  C14 UNL     1       1.145   0.632   0.249  1.00  0.00     0.023 C 
ENDROOT
BRANCH   4  12
HETATM   12  C5  UNL     1      -2.238   1.445  -2.192  1.00  0.00     0.183 C 
BRANCH  12  13
HETATM   13  O1  UNL     1      -3.320   1.820  -1.439  1.00  0.00    -0.388 OA
ATOM     14  H1  UNL     1      -4.093   2.070  -1.931  1.00  0.00     0.210 HD
ENDBRANCH  12  13
BRANCH  12  15
HETATM   15  C6  UNL     1      -2.562   0.465  -3.251  1.00  0.00     0.263 C 
HETATM   16  O2  UNL     1      -1.721   0.049  -4.010  1.00  0.00    -0.304 OA
ENDBRANCH  12  15
ENDBRANCH   4  12
BRANCH   6  17
HETATM   17  O3  UNL     1      -3.197  -1.294  -0.786  1.00  0.00    -0.392 OA
ATOM     18  H3  UNL     1      -3.606  -2.117  -1.028  1.00  0.00     0.210 HD
ENDBRANCH   6  17
BRANCH  11  19
HETATM   19  C15 UNL     1       1.963   0.464   1.462  1.00  0.00    -0.014 C 
HETATM   20  C16 UNL     1       3.250   0.430   1.589  1.00  0.00     0.081 C 
BRANCH  20  21
HETATM   21  C17 UNL     1       4.237   0.552   0.553  1.00  0.00     0.198 C 
HETATM   22  O7  UNL     1       4.059   0.714  -0.674  1.00  0.00    -0.645 OA
HETATM   23  O8  UNL     1       5.625   0.490   0.890  1.00  0.00    -0.645 OA
ENDBRANCH  20  21
ENDBRANCH  11  19
BRANCH   7  24
HETATM   24  O4  UNL     1      -2.321  -2.359   1.249  1.00  0.00    -0.390 OA
ATOM     25  H4  UNL     1      -2.018  -2.933   1.942  1.00  0.00     0.210 HD
ENDBRANCH   7  24
BRANCH   8  26
HETATM   26  O5  UNL     1       0.887  -2.447   1.258  1.00  0.00    -0.319 OA
BRANCH  26  27
HETATM   27  C11 UNL     1       1.167  -2.731   2.581  1.00  0.00     0.398 C 
HETATM   28  O6  UNL     1       0.587  -2.178   3.547  1.00  0.00    -0.276 OA
ENDBRANCH  26  27
ENDBRANCH   8  26
TORSDOF 9
