REMARK  9 active torsions:
REMARK  status: ('A' for Active; 'I' for Inactive)
REMARK    1  A    between atoms: O1_2  and  C2_3 
REMARK    2  A    between atoms: C2_3  and  C3_5 
REMARK    3  A    between atoms: C3_5  and  C4_6 
REMARK    4  A    between atoms: C4_6  and  C5_7 
REMARK    5  A    between atoms: C5_7  and  N1_8 
REMARK    6  A    between atoms: N3_17  and  N4_19 
REMARK    7  A    between atoms: N4_19  and  C11_21 
REMARK    8  A    between atoms: C11_21  and  N5_23 
REMARK    9  A    between atoms: N5_23  and  N6_25 
REMARK       I    between atoms: N6_25  and  C12_27 
ROOT
HETATM    1  C3  UNL     1       0.430   1.327  -0.327  1.00  0.00     0.102 C 
HETATM    2  N3  UNL     1       1.520   0.770  -0.549  1.00  0.00    -0.297 N 
ATOM      3  H3  UNL     1       1.521  -0.242  -0.419  1.00  0.00     0.187 HD
ENDROOT
BRANCH   1   4
HETATM    4  C2  UNL     1       0.230   2.750  -0.456  1.00  0.00     0.306 C 
HETATM    5  O2  UNL     1      -0.922   3.214  -0.199  1.00  0.00    -0.258 OA
BRANCH   4   6
HETATM    6  O1  UNL     1       1.214   3.661  -0.843  1.00  0.00    -0.322 OA
HETATM    7  C1  UNL     1       0.863   5.032  -0.922  1.00  0.00     0.213 C 
ENDBRANCH   4   6
ENDBRANCH   1   4
BRANCH   1   8
HETATM    8  C4  UNL     1      -0.738   0.452   0.059  1.00  0.00     0.087 C 
BRANCH   8   9
HETATM    9  C5  UNL     1      -1.777   0.394  -1.030  1.00  0.00     0.158 C 
BRANCH   9  10
HETATM   10  N1  UNL     1      -2.893  -0.446  -0.671  1.00  0.00    -0.257 N 
HETATM   11  N2  UNL     1      -3.992  -0.045  -0.078  1.00  0.00    -0.300 N 
HETATM   12  C6  UNL     1      -4.821  -1.097   0.093  1.00  0.00     0.033 A 
ATOM     13  H2  UNL     1      -4.190   0.913   0.210  1.00  0.00     0.187 HD
HETATM   14  C7  UNL     1      -6.160  -1.013   0.729  1.00  0.00     0.070 C 
HETATM   15  C8  UNL     1      -4.202  -2.208  -0.421  1.00  0.00     0.031 A 
HETATM   16  C9  UNL     1      -4.748  -3.568  -0.443  1.00  0.00     0.056 C 
HETATM   17  C10 UNL     1      -2.976  -1.753  -0.899  1.00  0.00     0.269 A 
HETATM   18  O3  UNL     1      -2.151  -2.531  -1.442  1.00  0.00    -0.266 OA
ENDBRANCH   9  10
ENDBRANCH   8   9
ENDBRANCH   1   8
BRANCH   2  19
HETATM   19  N4  UNL     1       2.719   1.304  -0.941  1.00  0.00    -0.275 N 
ATOM     20  H4  UNL     1       2.755   2.040  -1.646  1.00  0.00     0.189 HD
BRANCH  19  21
HETATM   21  C11 UNL     1       3.906   0.815  -0.349  1.00  0.00     0.205 C 
HETATM   22  S1  UNL     1       5.332   1.436  -0.813  1.00  0.00    -0.038 SA
BRANCH  21  23
HETATM   23  N5  UNL     1       3.831  -0.203   0.632  1.00  0.00    -0.273 N 
ATOM     24  H5  UNL     1       2.912  -0.559   0.894  1.00  0.00     0.189 HD
BRANCH  23  25
HETATM   25  N6  UNL     1       4.951  -0.740   1.255  1.00  0.00    -0.268 N 
HETATM   26  C12 UNL     1       5.815  -1.571   0.509  1.00  0.00     0.232 C 
HETATM   27  C13 UNL     1       7.022  -2.170   1.122  1.00  0.00     0.119 C 
HETATM   28  O4  UNL     1       5.548  -1.801  -0.694  1.00  0.00    -0.272 OA
ATOM     29  H6  UNL     1       5.146  -0.537   2.235  1.00  0.00     0.190 HD
ENDBRANCH  23  25
ENDBRANCH  21  23
ENDBRANCH  19  21
ENDBRANCH   2  19
TORSDOF 9
