REMARK  9 active torsions:
REMARK  status: ('A' for Active; 'I' for Inactive)
REMARK    1  A    between atoms: N1_2  and  C2_5 
REMARK    2  A    between atoms: C2_5  and  C3_6 
REMARK    3  A    between atoms: C2_5  and  C13_23 
REMARK    4  A    between atoms: C3_6  and  N2_7 
REMARK    5  A    between atoms: N2_7  and  C4_10 
REMARK    6  A    between atoms: C4_10  and  C5_11 
REMARK    7  A    between atoms: C4_10  and  C12_20 
REMARK    8  A    between atoms: C5_11  and  N3_12 
REMARK    9  A    between atoms: N3_12  and  C6_14 
ROOT
HETATM    1  C4  UNL     1       0.185  -1.245  -0.701  1.00  0.00     0.302 C 
ENDROOT
BRANCH   1   2
HETATM    2  N2  UNL     1       1.136  -0.138  -0.569  1.00  0.00    -0.058 N 
ATOM      3  H22 UNL     1       0.845   0.554   0.122  1.00  0.00     0.278 HD
ATOM      4  H21 UNL     1       1.142   0.478  -1.382  1.00  0.00     0.278 HD
BRANCH   2   5
HETATM    5  C3  UNL     1       2.457  -0.715  -0.279  1.00  0.00     0.266 C 
BRANCH   5   6
HETATM    6  C2  UNL     1       3.447   0.351   0.038  1.00  0.00     0.215 C 
BRANCH   6   7
HETATM    7  N1  UNL     1       3.688   1.287  -1.016  1.00  0.00    -0.073 N 
HETATM    8  C1  UNL     1       3.938   2.583  -0.418  1.00  0.00     0.267 C 
ATOM      9  H12 UNL     1       2.935   1.309  -1.703  1.00  0.00     0.277 HD
ATOM     10  H11 UNL     1       4.437   0.991  -1.642  1.00  0.00     0.277 HD
ENDBRANCH   6   7
BRANCH   6  11
HETATM   11  C13 UNL     1       4.711  -0.167   0.668  1.00  0.00     0.018 A 
HETATM   12  C14 UNL     1       5.717  -0.886  -0.146  1.00  0.00     0.007 A 
HETATM   13  C15 UNL     1       4.950  -1.605   0.911  1.00  0.00     0.007 A 
ENDBRANCH   6  11
ENDBRANCH   5   6
ENDBRANCH   2   5
ENDBRANCH   1   2
BRANCH   1  14
HETATM   14  C5  UNL     1      -1.202  -0.720  -1.004  1.00  0.00     0.158 C 
BRANCH  14  15
HETATM   15  N3  UNL     1      -1.618   0.164   0.036  1.00  0.00    -0.415 N 
ATOM     16  H3  UNL     1      -0.972   0.468   0.765  1.00  0.00     0.153 HD
BRANCH  15  17
HETATM   17  C6  UNL     1      -2.966   0.603   0.015  1.00  0.00     0.076 C 
HETATM   18  C7  UNL     1      -3.557   0.310   1.413  1.00  0.00     0.024 C 
HETATM   19  C8  UNL     1      -4.654   1.340   1.583  1.00  0.00     0.002 C 
HETATM   20  C9  UNL     1      -5.360   1.465   0.270  1.00  0.00     0.000 C 
HETATM   21  C10 UNL     1      -5.304   0.204  -0.547  1.00  0.00     0.002 C 
HETATM   22  C11 UNL     1      -3.864  -0.161  -0.934  1.00  0.00     0.024 C 
ENDBRANCH  15  17
ENDBRANCH  14  15
ENDBRANCH   1  14
BRANCH   1  23
HETATM   23  C12 UNL     1       0.126  -1.909   0.625  1.00  0.00     0.206 C 
HETATM   24  O1  UNL     1       0.484  -1.259   1.638  1.00  0.00    -0.646 OA
HETATM   25  O2  UNL     1      -0.297  -3.220   0.826  1.00  0.00    -0.646 OA
ENDBRANCH   1  23
TORSDOF 9
