REMARK  8 active torsions:
REMARK  status: ('A' for Active; 'I' for Inactive)
REMARK    1  A    between atoms: O1_2  and  C2_3 
REMARK    2  A    between atoms: C7_8  and  O2_9 
REMARK    3  A    between atoms: C8_12  and  N1_13 
REMARK    4  A    between atoms: C17_22  and  C18_23 
REMARK    5  A    between atoms: C18_23  and  C19_24 
REMARK    6  A    between atoms: C21_26  and  O4_27 
REMARK    7  A    between atoms: C23_29  and  O5_30 
REMARK    8  A    between atoms: C25_32  and  O6_33 
ROOT
HETATM    1  C2  UNL     1       1.147   2.965  -1.395  1.00  0.00     0.102 A 
HETATM    2  C3  UNL     1       1.168   1.603  -1.086  1.00  0.00     0.050 A 
HETATM    3  C4  UNL     1       0.074   1.008  -0.470  1.00  0.00    -0.014 A 
HETATM    4  C5  UNL     1      -0.996   1.859  -0.210  1.00  0.00     0.081 A 
HETATM    5  C6  UNL     1      -1.017   3.196  -0.513  1.00  0.00     0.076 A 
HETATM    6  C7  UNL     1       0.081   3.782  -1.124  1.00  0.00     0.101 A 
HETATM    7  O3  UNL     1      -2.117   1.259   0.397  1.00  0.00    -0.325 OA
HETATM    8  C8  UNL     1      -2.372  -0.105  -0.024  1.00  0.00     0.229 C 
HETATM    9  C16 UNL     1      -1.232  -0.897   0.464  1.00  0.00     0.067 C 
HETATM   10  C17 UNL     1       0.109  -0.417  -0.112  1.00  0.00     0.049 C 
ENDROOT
BRANCH  10  11
HETATM   11  C18 UNL     1       1.095  -0.775   0.937  1.00  0.00    -0.006 C 
BRANCH  11  12
HETATM   12  C19 UNL     1       2.501  -0.531   0.808  1.00  0.00    -0.034 A 
HETATM   13  C20 UNL     1       3.073   0.569   1.419  1.00  0.00     0.051 A 
HETATM   14  C21 UNL     1       4.419   0.891   1.366  1.00  0.00     0.105 A 
HETATM   15  C23 UNL     1       5.251   0.029   0.636  1.00  0.00     0.135 A 
HETATM   16  C25 UNL     1       4.723  -1.067   0.018  1.00  0.00     0.105 A 
HETATM   17  C27 UNL     1       3.395  -1.340   0.099  1.00  0.00     0.051 A 
BRANCH  14  18
HETATM   18  O4  UNL     1       4.988   1.991   1.979  1.00  0.00    -0.353 OA
HETATM   19  C22 UNL     1       4.286   2.937   2.742  1.00  0.00     0.210 C 
ENDBRANCH  14  18
BRANCH  15  20
HETATM   20  O5  UNL     1       6.612   0.347   0.582  1.00  0.00    -0.351 OA
HETATM   21  C24 UNL     1       7.064   1.178  -0.461  1.00  0.00     0.210 C 
ENDBRANCH  15  20
BRANCH  16  22
HETATM   22  O6  UNL     1       5.551  -1.912  -0.702  1.00  0.00    -0.353 OA
HETATM   23  C26 UNL     1       5.061  -3.063  -1.372  1.00  0.00     0.210 C 
ENDBRANCH  16  22
ENDBRANCH  11  12
ENDBRANCH  10  11
BRANCH   8  24
HETATM   24  N1  UNL     1      -3.664  -0.432   0.458  1.00  0.00    -0.367 N 
HETATM   25  C9  UNL     1      -4.728  -0.217  -0.471  1.00  0.00     0.125 C 
HETATM   26  C10 UNL     1      -5.325  -1.457  -1.038  1.00  0.00     0.029 C 
HETATM   27  C11 UNL     1      -5.913  -2.219   0.158  1.00  0.00    -0.042 C 
HETATM   28  C12 UNL     1      -6.544  -3.511  -0.359  1.00  0.00     0.015 C 
HETATM   29  C13 UNL     1      -6.919  -1.318   0.794  1.00  0.00     0.015 C 
HETATM   30  C14 UNL     1      -4.754  -2.588   1.019  1.00  0.00     0.053 C 
HETATM   31  C15 UNL     1      -3.820  -1.483   1.369  1.00  0.00     0.061 C 
ENDBRANCH   8  24
BRANCH   1  32
HETATM   32  O1  UNL     1       2.262   3.544  -2.016  1.00  0.00    -0.353 OA
HETATM   33  C1  UNL     1       3.403   2.739  -2.325  1.00  0.00     0.210 C 
ENDBRANCH   1  32
BRANCH   6  34
HETATM   34  O2  UNL     1       0.088   5.134  -1.441  1.00  0.00    -0.358 OA
ATOM     35  H2  UNL     1      -0.651   5.700  -1.253  1.00  0.00     0.217 HD
ENDBRANCH   6  34
TORSDOF 8
