REMARK  9 active torsions:
REMARK  status: ('A' for Active; 'I' for Inactive)
REMARK    1  A    between atoms: C2_2  and  C3_3 
REMARK    2  A    between atoms: C3_3  and  C4_4 
REMARK    3  A    between atoms: C4_4  and  O2_6 
REMARK    4  A    between atoms: O2_6  and  C5_7 
REMARK    5  A    between atoms: C5_7  and  C6_8 
REMARK    6  A    between atoms: C6_8  and  C7_9 
REMARK    7  A    between atoms: C7_9  and  O3_10 
REMARK    8  A    between atoms: C20_24  and  C21_25 
REMARK    9  A    between atoms: C23_27  and  C24_28 
ROOT
HETATM    1  C6  UNL     1       1.072  -1.009   0.357  1.00  0.00     0.004 C 
HETATM    2  C8  UNL     1       0.739  -2.405  -0.093  1.00  0.00     0.021 C 
HETATM    3  C9  UNL     1      -0.290  -3.113   0.683  1.00  0.00     0.017 C 
HETATM    4  C10 UNL     1       0.078  -4.604   0.727  1.00  0.00     0.013 C 
HETATM    5  C11 UNL     1      -1.723  -2.914   0.247  1.00  0.00     0.061 C 
HETATM    6  C12 UNL     1      -2.416  -4.257   0.574  1.00  0.00     0.046 C 
HETATM    7  C13 UNL     1      -1.903  -2.708  -1.214  1.00  0.00     0.038 C 
HETATM    8  C14 UNL     1      -1.838  -1.267  -1.672  1.00  0.00     0.011 C 
HETATM    9  C15 UNL     1      -2.117  -0.272  -0.607  1.00  0.00     0.029 C 
HETATM   10  C16 UNL     1      -2.957  -0.939   0.456  1.00  0.00     0.063 C 
HETATM   11  C17 UNL     1      -4.301  -1.234  -0.191  1.00  0.00     0.046 C 
HETATM   12  C18 UNL     1      -3.283   0.065   1.571  1.00  0.00     0.039 C 
HETATM   13  C19 UNL     1      -3.078   1.432   1.027  1.00  0.00     0.014 C 
HETATM   14  C20 UNL     1      -1.616   1.626   0.788  1.00  0.00     0.046 C 
HETATM   15  C25 UNL     1      -0.977   0.554  -0.104  1.00  0.00    -0.028 C 
HETATM   16  C26 UNL     1      -0.471   1.318  -1.314  1.00  0.00     0.016 C 
HETATM   17  C27 UNL     1       0.042  -0.082   0.706  1.00  0.00     0.024 C 
HETATM   18  O6  UNL     1      -2.382  -2.010   1.053  1.00  0.00    -0.369 OA
ENDROOT
BRANCH   1  19
HETATM   19  C5  UNL     1       2.234  -0.543  -0.485  1.00  0.00     0.190 C 
BRANCH  19  20
HETATM   20  O2  UNL     1       2.804   0.642   0.054  1.00  0.00    -0.321 OA
BRANCH  20  21
HETATM   21  C4  UNL     1       3.880   1.282  -0.518  1.00  0.00     0.258 C 
HETATM   22  O1  UNL     1       4.390   0.797  -1.575  1.00  0.00    -0.265 OA
BRANCH  21  23
HETATM   23  C3  UNL     1       4.438   2.520   0.089  1.00  0.00     0.111 C 
BRANCH  23  24
HETATM   24  C2  UNL     1       5.612   2.996  -0.758  1.00  0.00     0.005 C 
HETATM   25  C1  UNL     1       6.687   1.960  -0.822  1.00  0.00     0.005 C 
ENDBRANCH  23  24
ENDBRANCH  21  23
ENDBRANCH  20  21
ENDBRANCH  19  20
ENDBRANCH   1  19
BRANCH   1  26
HETATM   26  C7  UNL     1       1.793  -1.243   1.732  1.00  0.00     0.175 C 
BRANCH  26  27
HETATM   27  O3  UNL     1       2.778  -2.183   1.586  1.00  0.00    -0.400 OA
ATOM     28  H3  UNL     1       3.214  -2.325   2.418  1.00  0.00     0.209 HD
ENDBRANCH  26  27
ENDBRANCH   1  26
BRANCH  14  29
HETATM   29  C21 UNL     1      -1.282   3.018   0.394  1.00  0.00     0.040 A 
HETATM   30  C22 UNL     1      -1.951   3.728  -0.579  1.00  0.00     0.070 A 
HETATM   31  C23 UNL     1      -1.329   4.952  -0.623  1.00  0.00     0.138 A 
HETATM   32  O5  UNL     1      -0.375   4.938   0.262  1.00  0.00    -0.235 OA
HETATM   33  N1  UNL     1      -0.323   3.812   0.877  1.00  0.00    -0.264 N 
ATOM     34  H1  UNL     1       0.340   3.565   1.612  1.00  0.00     0.194 HD
BRANCH  31  35
HETATM   35  C24 UNL     1      -1.680   6.074  -1.511  1.00  0.00     0.297 C 
HETATM   36  O4  UNL     1      -2.625   5.977  -2.331  1.00  0.00    -0.299 OA
ENDBRANCH  31  35
ENDBRANCH  14  29
TORSDOF 9
