REMARK  0 active torsions:
REMARK  status: ('A' for Active; 'I' for Inactive)
ROOT
HETATM    1  N1  UNL     1      -3.475   0.696   1.855  1.00  0.00    -0.196 NA
HETATM    2  C1  UNL     1      -2.489   0.469   1.302  1.00  0.00     0.071 C 
HETATM    3  C2  UNL     1      -1.253   0.208   0.608  1.00  0.00     0.076 C 
HETATM    4  C3  UNL     1      -1.032   1.068  -0.599  1.00  0.00     0.031 C 
HETATM    5  C4  UNL     1       0.078   0.301  -1.322  1.00  0.00    -0.005 C 
HETATM    6  C5  UNL     1       1.363   0.954  -1.010  1.00  0.00     0.035 C 
HETATM    7  C6  UNL     1       1.944   0.632   0.329  1.00  0.00     0.273 C 
HETATM    8  N2  UNL     1       1.116  -0.336   1.017  1.00  0.00     0.090 N 
HETATM    9  C7  UNL     1       1.009  -1.475   0.149  1.00  0.00     0.277 C 
HETATM   10  C8  UNL     1      -0.067  -1.115  -0.883  1.00  0.00     0.020 C 
HETATM   11  C9  UNL     1      -1.357  -1.174  -0.049  1.00  0.00     0.033 C 
HETATM   12  C10 UNL     1      -0.087   0.166   1.539  1.00  0.00     0.296 C 
ENDROOT
TORSDOF 0
