REMARK  11 active torsions:
REMARK  status: ('A' for Active; 'I' for Inactive)
REMARK    1  A    between atoms: C2_2  and  N1_3 
REMARK    2  A    between atoms: C4_5  and  C5_6 
REMARK    3  A    between atoms: C5_6  and  O1_7 
REMARK    4  A    between atoms: C6_9  and  O2_10 
REMARK    5  A    between atoms: C6_9  and  O3_12 
REMARK    6  A    between atoms: O3_12  and  C7_13 
REMARK    7  A    between atoms: C7_13  and  C8_14 
REMARK    8  A    between atoms: C8_14  and  C9_15 
REMARK    9  A    between atoms: C9_15  and  C10_16 
REMARK   10  A    between atoms: C10_16  and  C11_17 
REMARK   11  A    between atoms: N3_22  and  N4_24 
REMARK       I    between atoms: N4_24  and  C13_26 
ROOT
HETATM    1  N1  UNL     1      -2.066  -1.470  -0.227  1.00  0.00    -0.341 N 
HETATM    2  C3  UNL     1      -1.093  -2.474   0.025  1.00  0.00     0.103 A 
HETATM    3  C4  UNL     1      -0.002  -1.971   0.559  1.00  0.00     0.028 A 
HETATM    4  C6  UNL     1      -0.178  -0.537   0.719  1.00  0.00     0.253 A 
HETATM    5  C12 UNL     1      -1.501  -0.240   0.197  1.00  0.00     0.167 A 
HETATM    6  N3  UNL     1      -2.137   0.882   0.091  1.00  0.00    -0.282 N 
ATOM      7  H3  UNL     1      -3.074   0.868  -0.311  1.00  0.00     0.188 HD
ENDROOT
BRANCH   4   8
HETATM    8  O2  UNL     1      -0.241  -0.306   2.120  1.00  0.00    -0.356 OA
ATOM      9  H2  UNL     1      -0.356   0.631   2.225  1.00  0.00     0.214 HD
ENDBRANCH   4   8
BRANCH   4  10
HETATM   10  O3  UNL     1       0.846   0.244   0.268  1.00  0.00    -0.345 OA
BRANCH  10  11
HETATM   11  C7  UNL     1       1.139   0.224  -1.059  1.00  0.00     0.172 C 
BRANCH  11  12
HETATM   12  C8  UNL     1       2.315   1.192  -1.263  1.00  0.00     0.027 C 
BRANCH  12  13
HETATM   13  C9  UNL     1       3.473   0.704  -0.437  1.00  0.00     0.007 C 
BRANCH  13  14
HETATM   14  C10 UNL     1       4.677   1.598  -0.573  1.00  0.00     0.044 C 
BRANCH  14  15
HETATM   15  C11 UNL     1       5.759   1.006   0.293  1.00  0.00     0.052 C 
HETATM   16  N2  UNL     1       6.372  -0.062  -0.035  1.00  0.00    -0.411 N 
ATOM     17  H22 UNL     1       6.111  -0.516  -0.910  1.00  0.00     0.155 HD
ATOM     18  H21 UNL     1       7.104  -0.463   0.551  1.00  0.00     0.155 HD
ENDBRANCH  14  15
ENDBRANCH  13  14
ENDBRANCH  12  13
ENDBRANCH  11  12
ENDBRANCH  10  11
ENDBRANCH   4  10
BRANCH   3  19
HETATM   19  C5  UNL     1       1.186  -2.808   0.925  1.00  0.00     0.206 C 
BRANCH  19  20
HETATM   20  O1  UNL     1       0.992  -4.131   0.639  1.00  0.00    -0.396 OA
ATOM     21  H1  UNL     1       1.745  -4.662   0.871  1.00  0.00     0.209 HD
ENDBRANCH  19  20
ENDBRANCH   3  19
BRANCH   1  22
HETATM   22  C2  UNL     1      -3.396  -1.718  -0.816  1.00  0.00     0.125 C 
HETATM   23  C1  UNL     1      -4.212  -2.493   0.162  1.00  0.00     0.027 C 
ENDBRANCH   1  22
BRANCH   6  24
HETATM   24  N4  UNL     1      -1.620   2.095   0.491  1.00  0.00    -0.272 N 
HETATM   25  C13 UNL     1      -2.390   3.284   0.532  1.00  0.00     0.200 C 
HETATM   26  N5  UNL     1      -1.879   4.394   0.139  1.00  0.00    -0.372 N 
HETATM   27  N6  UNL     1      -3.733   3.283   1.001  1.00  0.00    -0.062 NA
ATOM     28  H52 UNL     1      -0.916   4.395  -0.197  1.00  0.00     0.158 HD
ATOM     29  H51 UNL     1      -2.433   5.250   0.169  1.00  0.00     0.158 HD
ATOM     30  H4  UNL     1      -0.640   2.139   0.770  1.00  0.00     0.189 HD
ENDBRANCH   6  24
TORSDOF 11
