REMARK  3 active torsions:
REMARK  status: ('A' for Active; 'I' for Inactive)
REMARK    1  A    between atoms: C9_14  and  C10_15 
REMARK    2  A    between atoms: C10_15  and  C11_16 
REMARK    3  A    between atoms: C11_16  and  N2_17 
ROOT
HETATM    1  C1  UNL     1      -1.296   2.391  -1.862  1.00  0.00     0.068 C 
HETATM    2  C2  UNL     1      -1.971   1.357  -1.012  1.00  0.00     0.013 A 
HETATM    3  N1  UNL     1      -3.231   0.955  -1.045  1.00  0.00    -0.359 N 
ATOM      4  H1  UNL     1      -3.939   1.313  -1.686  1.00  0.00     0.166 HD
HETATM    5  C3  UNL     1      -3.451  -0.001  -0.106  1.00  0.00     0.046 A 
HETATM    6  C4  UNL     1      -4.584  -0.702   0.223  1.00  0.00     0.056 A 
HETATM    7  C5  UNL     1      -4.586  -1.645   1.220  1.00  0.00     0.059 A 
HETATM    8 CL1  UNL     1      -6.047  -2.544   1.644  1.00  0.00    -0.082 Cl
HETATM    9  C6  UNL     1      -3.395  -1.849   1.872  1.00  0.00     0.078 A 
HETATM   10 CL2  UNL     1      -3.318  -3.038   3.166  1.00  0.00    -0.081 Cl
HETATM   11  C7  UNL     1      -2.227  -1.175   1.584  1.00  0.00     0.070 A 
HETATM   12 CL3  UNL     1      -0.746  -1.483   2.427  1.00  0.00    -0.081 Cl
HETATM   13  C8  UNL     1      -2.243  -0.219   0.568  1.00  0.00     0.022 A 
HETATM   14  C9  UNL     1      -1.325   0.626   0.003  1.00  0.00    -0.020 A 
ENDROOT
BRANCH  14  15
HETATM   15  C10 UNL     1       0.087   0.781   0.348  1.00  0.00     0.072 C 
BRANCH  15  16
HETATM   16  C11 UNL     1       0.997   0.046  -0.639  1.00  0.00     0.277 C 
BRANCH  16  17
HETATM   17  N2  UNL     1       2.355   0.250  -0.236  1.00  0.00     0.088 N 
HETATM   18  C12 UNL     1       2.736  -0.383   0.986  1.00  0.00     0.272 C 
HETATM   19  C13 UNL     1       4.243  -0.203   0.979  1.00  0.00     0.032 C 
HETATM   20  C14 UNL     1       4.565  -0.479  -0.476  1.00  0.00     0.032 C 
HETATM   21  C15 UNL     1       3.313  -0.105  -1.245  1.00  0.00     0.272 C 
ENDBRANCH  16  17
ENDBRANCH  15  16
ENDBRANCH  14  15
TORSDOF 3
