REMARK  3 active torsions:
REMARK  status: ('A' for Active; 'I' for Inactive)
REMARK       I    between atoms: C1_2  and  N1_3 
REMARK    1  A    between atoms: C1_2  and  C7_10 
REMARK    2  A    between atoms: N1_3  and  C2_5 
REMARK    3  A    between atoms: C7_10  and  C8_11 
ROOT
HETATM    1  C7  UNL     1       1.340   0.478  -1.453  1.00  0.00     0.068 A 
HETATM    2  C14 UNL     1       1.922   1.397  -2.482  1.00  0.00     0.026 A 
HETATM    3  C15 UNL     1       2.164  -0.080  -2.619  1.00  0.00     0.026 A 
ENDROOT
BRANCH   1   4
HETATM    4  C1  UNL     1      -0.103   0.144  -1.539  1.00  0.00     0.231 C 
HETATM    5  O1  UNL     1      -0.595   0.199  -2.720  1.00  0.00    -0.272 OA
HETATM    6  N1  UNL     1      -0.921  -0.214  -0.466  1.00  0.00    -0.355 N 
ATOM      7  H1  UNL     1      -0.529  -0.264   0.474  1.00  0.00     0.162 HD
BRANCH   6   8
HETATM    8  C2  UNL     1      -2.323  -0.516  -0.677  1.00  0.00     0.084 C 
HETATM    9  C3  UNL     1      -2.603  -1.890  -0.120  1.00  0.00     0.025 C 
HETATM   10  C4  UNL     1      -3.204  -1.713   1.234  1.00  0.00     0.002 C 
HETATM   11  C5  UNL     1      -3.038  -0.239   1.534  1.00  0.00     0.002 C 
HETATM   12  C6  UNL     1      -3.211   0.373   0.161  1.00  0.00     0.025 C 
ENDBRANCH   6   8
ENDBRANCH   1   4
BRANCH   1  13
HETATM   13  C8  UNL     1       1.973   0.525  -0.110  1.00  0.00    -0.037 A 
HETATM   14  C9  UNL     1       3.132  -0.137   0.231  1.00  0.00     0.034 A 
HETATM   15  C10 UNL     1       3.721  -0.041   1.491  1.00  0.00     0.058 A 
HETATM   16 CL1  UNL     1       5.192  -0.903   1.871  1.00  0.00    -0.082 Cl
HETATM   17  C11 UNL     1       3.154   0.739   2.465  1.00  0.00     0.077 A 
HETATM   18 CL2  UNL     1       3.847   0.901   4.070  1.00  0.00    -0.081 Cl
HETATM   19  C12 UNL     1       1.995   1.409   2.144  1.00  0.00     0.058 A 
HETATM   20 CL3  UNL     1       1.266   2.414   3.407  1.00  0.00    -0.082 Cl
HETATM   21  C13 UNL     1       1.417   1.312   0.903  1.00  0.00     0.034 A 
ENDBRANCH   1  13
TORSDOF 3
