REMARK  4 active torsions:
REMARK  status: ('A' for Active; 'I' for Inactive)
REMARK    1  A    between atoms: C2_2  and  C3_3 
REMARK    2  A    between atoms: C4_4  and  C5_5 
REMARK    3  A    between atoms: C6_6  and  C7_7 
REMARK    4  A    between atoms: N1_15  and  O1_17 
ROOT
HETATM    1  C5  UNL     1      -0.591  -0.383   0.095  1.00  0.00    -0.029 A 
HETATM    2  C6  UNL     1      -1.635   0.257   0.572  1.00  0.00    -0.032 A 
HETATM    3  C8  UNL     1      -2.820  -0.578   0.299  1.00  0.00     0.077 A 
HETATM    4  C9  UNL     1      -3.858   0.163  -0.518  1.00  0.00     0.039 C 
HETATM    5 BR1  UNL     1      -3.633  -1.199   1.948  1.00  0.00    -0.074 Br
HETATM    6  C10 UNL     1      -2.300  -1.763  -0.390  1.00  0.00     0.036 A 
HETATM    7 CL2  UNL     1      -3.260  -3.148  -0.982  1.00  0.00    -0.087 Cl
HETATM    8  C11 UNL     1      -0.997  -1.642  -0.506  1.00  0.00     0.033 A 
ENDROOT
BRANCH   1   9
HETATM    9  C4  UNL     1       0.806   0.102   0.157  1.00  0.00     0.014 C 
HETATM   10  C3  UNL     1       1.788  -0.636  -0.363  1.00  0.00     0.027 C 
BRANCH  10  11
HETATM   11  C2  UNL     1       3.176  -0.195  -0.323  1.00  0.00     0.028 C 
HETATM   12  C1  UNL     1       3.601   1.081   0.284  1.00  0.00     0.070 C 
HETATM   13  N1  UNL     1       4.067  -0.954  -0.841  1.00  0.00    -0.274 N 
ATOM     14  H1  UNL     1       3.754  -1.832  -1.256  1.00  0.00     0.193 HD
BRANCH  13  15
HETATM   15  O1  UNL     1       5.392  -0.683  -0.881  1.00  0.00    -0.290 OA
ATOM     16  H1  UNL     1       6.053  -1.246  -1.265  1.00  0.00     0.244 HD
ENDBRANCH  13  15
ENDBRANCH  10  11
ENDBRANCH   1   9
BRANCH   2  17
HETATM   17  C7  UNL     1      -1.592   1.584   1.259  1.00  0.00     0.151 C 
HETATM   18 CL1  UNL     1      -2.557   2.802   0.414  1.00  0.00    -0.126 Cl
ENDBRANCH   2  17
TORSDOF 4
