REMARK  10 active torsions:
REMARK  status: ('A' for Active; 'I' for Inactive)
REMARK    1  A    between atoms: O1_2  and  C2_3 
REMARK    2  A    between atoms: C2_3  and  C3_5 
REMARK    3  A    between atoms: C5_7  and  C6_8 
REMARK    4  A    between atoms: C6_8  and  C7_9 
REMARK    5  A    between atoms: C7_9  and  C8_10 
REMARK    6  A    between atoms: C8_10  and  O3_11 
REMARK    7  A    between atoms: N1_13  and  O4_15 
REMARK    8  A    between atoms: C9_18  and  N2_19 
REMARK       I    between atoms: N2_19  and  C10_21 
REMARK    9  A    between atoms: C10_21  and  O6_23 
REMARK   10  A    between atoms: O6_23  and  C11_24 
ROOT
HETATM    1  C3  UNL     1      -1.171   0.459   0.380  1.00  0.00     0.074 A 
HETATM    2  C4  UNL     1      -2.480   0.150   0.285  1.00  0.00     0.041 A 
HETATM    3  C5  UNL     1      -2.887  -1.104   0.626  1.00  0.00     0.032 A 
HETATM    4  S1  UNL     1      -1.425  -1.841   1.077  1.00  0.00    -0.069 SA
HETATM    5  C9  UNL     1      -0.311  -0.496   0.804  1.00  0.00     0.095 A 
ENDROOT
BRANCH   3   6
HETATM    6  C6  UNL     1      -4.239  -1.705   0.588  1.00  0.00     0.051 C 
HETATM    7  N1  UNL     1      -4.366  -2.899   1.117  1.00  0.00    -0.272 N 
ATOM      8  H1  UNL     1      -5.273  -3.365   1.120  1.00  0.00     0.194 HD
BRANCH   6   9
HETATM    9  C7  UNL     1      -5.430  -1.169  -0.025  1.00  0.00     0.086 C 
BRANCH   9  10
HETATM   10  C8  UNL     1      -5.523  -1.112  -1.497  1.00  0.00     0.170 C 
BRANCH  10  11
HETATM   11  O3  UNL     1      -4.558  -0.366  -2.136  1.00  0.00    -0.400 OA
ATOM     12  H3  UNL     1      -4.618  -0.329  -3.083  1.00  0.00     0.209 HD
ENDBRANCH  10  11
ENDBRANCH   9  10
ENDBRANCH   6   9
BRANCH   7  13
HETATM   13  O4  UNL     1      -3.279  -3.513   1.662  1.00  0.00    -0.290 OA
ATOM     14  H4  UNL     1      -3.371  -4.377   2.045  1.00  0.00     0.244 HD
ENDBRANCH   7  13
ENDBRANCH   3   6
BRANCH   1  15
HETATM   15  C2  UNL     1      -0.734   1.874   0.242  1.00  0.00     0.295 C 
HETATM   16  O2  UNL     1       0.360   2.332   0.529  1.00  0.00    -0.259 OA
BRANCH  15  17
HETATM   17  O1  UNL     1      -1.652   2.795  -0.267  1.00  0.00    -0.322 OA
HETATM   18  C1  UNL     1      -1.315   4.171  -0.434  1.00  0.00     0.213 C 
ENDBRANCH  15  17
ENDBRANCH   1  15
BRANCH   5  19
HETATM   19  N2  UNL     1       1.069  -0.724   0.864  1.00  0.00    -0.296 N 
HETATM   20  C10 UNL     1       2.185  -0.242   0.193  1.00  0.00     0.366 C 
HETATM   21  O5  UNL     1       2.279   0.576  -0.750  1.00  0.00    -0.238 OA
ATOM     22  H2  UNL     1       1.315  -1.413   1.575  1.00  0.00     0.171 HD
BRANCH  20  23
HETATM   23  O6  UNL     1       3.497  -0.702   0.575  1.00  0.00    -0.294 OA
BRANCH  23  24
HETATM   24  C11 UNL     1       4.654  -0.257  -0.058  1.00  0.00     0.061 C 
HETATM   25  C12 UNL     1       4.835   1.254   0.057  1.00  0.00     0.046 C 
HETATM   26  C13 UNL     1       5.828  -0.883   0.664  1.00  0.00     0.046 C 
HETATM   27  C14 UNL     1       4.745  -0.665  -1.506  1.00  0.00     0.046 C 
ENDBRANCH  23  24
ENDBRANCH  20  23
ENDBRANCH   5  19
TORSDOF 10
