REMARK  7 active torsions:
REMARK  status: ('A' for Active; 'I' for Inactive)
REMARK    1  A    between atoms: C2_2  and  C3_3 
REMARK    2  A    between atoms: C4_7  and  N2_8 
REMARK    3  A    between atoms: N2_8  and  N3_9 
REMARK    4  A    between atoms: C5_11  and  C6_12 
REMARK    5  A    between atoms: C7_14  and  O1_15 
REMARK    6  A    between atoms: C8_17  and  N4_18 
REMARK    7  A    between atoms: C11_25  and  N6_26 
ROOT
HETATM    1  N3  UNL     1      -0.808   0.492   0.930  1.00  0.00    -0.245 N 
ATOM      2  H3  UNL     1      -0.909   0.231  -0.051  1.00  0.00     0.201 HD
HETATM    3  C5  UNL     1      -1.953   0.376   1.356  1.00  0.00     0.140 C 
ENDROOT
BRANCH   1   4
HETATM    4  N2  UNL     1       0.416   0.750   1.018  1.00  0.00    -0.315 NA
BRANCH   4   5
HETATM    5  C4  UNL     1       1.638   0.914   1.024  1.00  0.00     0.216 A 
HETATM    6  S1  UNL     1       2.532   2.132   1.924  1.00  0.00     0.023 SA
HETATM    7  N1  UNL     1       4.075   1.833   1.326  1.00  0.00    -0.325 N 
HETATM    8  C3  UNL     1       3.864   0.823   0.457  1.00  0.00     0.046 A 
ATOM      9  H1  UNL     1       4.951   2.299   1.561  1.00  0.00     0.174 HD
HETATM   10  C11 UNL     1       2.662   0.339   0.289  1.00  0.00     0.104 A 
BRANCH   8  11
HETATM   11  C2  UNL     1       5.138   0.357  -0.275  1.00  0.00     0.055 C 
HETATM   12  C1  UNL     1       6.064  -0.379   0.604  1.00  0.00     0.011 C 
ENDBRANCH   8  11
BRANCH  10  13
HETATM   13  N6  UNL     1       2.174  -0.725  -0.580  1.00  0.00    -0.385 N 
HETATM   14  C12 UNL     1       2.021  -2.072  -0.184  1.00  0.00     0.149 C 
HETATM   15  C13 UNL     1       1.811  -0.364  -1.951  1.00  0.00     0.149 C 
ENDBRANCH  10  13
ENDBRANCH   4   5
ENDBRANCH   1   4
BRANCH   3  16
HETATM   16  C6  UNL     1      -3.017  -0.067   0.390  1.00  0.00     0.033 A 
HETATM   17  S2  UNL     1      -3.001  -0.765  -1.138  1.00  0.00    -0.061 SA
HETATM   18  C7  UNL     1      -4.720  -0.871  -1.388  1.00  0.00     0.137 A 
HETATM   19  C8  UNL     1      -5.249  -0.338  -0.255  1.00  0.00     0.095 A 
HETATM   20  C9  UNL     1      -4.402   0.080   0.683  1.00  0.00    -0.012 A 
HETATM   21  C10 UNL     1      -4.839   0.730   1.971  1.00  0.00     0.052 C 
BRANCH  18  22
HETATM   22  O1  UNL     1      -5.338  -1.392  -2.556  1.00  0.00    -0.352 OA
ATOM     23  H1  UNL     1      -6.276  -1.450  -2.692  1.00  0.00     0.218 HD
ENDBRANCH  18  22
BRANCH  19  24
HETATM   24  N4  UNL     1      -6.719  -0.120  -0.367  1.00  0.00    -0.303 N 
HETATM   25  N5  UNL     1      -7.327   0.873  -0.129  1.00  0.00    -0.345 N 
ATOM     26  H52 UNL     1      -6.760   1.660   0.188  1.00  0.00     0.176 HD
ATOM     27  H51 UNL     1      -8.333   1.022  -0.206  1.00  0.00     0.176 HD
ATOM     28  H4  UNL     1      -7.269  -0.918  -0.686  1.00  0.00     0.186 HD
ENDBRANCH  19  24
ENDBRANCH   3  16
TORSDOF 7
