REMARK  11 active torsions:
REMARK  status: ('A' for Active; 'I' for Inactive)
REMARK    1  A    between atoms: O1_2  and  C2_3 
REMARK    2  A    between atoms: C2_3  and  C3_5 
REMARK    3  A    between atoms: C3_5  and  N1_6 
REMARK    4  A    between atoms: N1_6  and  C4_8 
REMARK    5  A    between atoms: C5_11  and  C6_12 
REMARK    6  A    between atoms: C6_12  and  N3_13 
REMARK    7  A    between atoms: N3_13  and  C7_15 
REMARK    8  A    between atoms: C11_19  and  C12_20 
REMARK    9  A    between atoms: C15_24  and  O4_25 
REMARK   10  A    between atoms: O4_25  and  N4_26 
REMARK   11  A    between atoms: C16_31  and  N6_32 
ROOT
HETATM    1  C4  UNL     1       2.750  -0.038   0.977  1.00  0.00     0.146 A 
HETATM    2  N2  UNL     1       1.635  -0.569   0.476  1.00  0.00    -0.338 N 
ATOM      3  H2  UNL     1       1.448  -1.554   0.662  1.00  0.00     0.167 HD
HETATM    4  C5  UNL     1       0.745   0.114  -0.257  1.00  0.00     0.082 A 
HETATM    5  C15 UNL     1       1.069   1.492  -0.499  1.00  0.00     0.195 A 
HETATM    6  N5  UNL     1       2.167   2.043  -0.003  1.00  0.00    -0.317 N 
ATOM      7  H5  UNL     1       2.359   3.027  -0.191  1.00  0.00     0.169 HD
HETATM    8  C16 UNL     1       3.029   1.339   0.738  1.00  0.00     0.145 A 
ENDROOT
BRANCH   4   9
HETATM    9  C6  UNL     1      -0.449  -0.361  -0.964  1.00  0.00     0.181 C 
BRANCH   9  10
HETATM   10  N3  UNL     1      -1.430  -1.090  -0.218  1.00  0.00    -0.384 N 
ATOM     11  H3  UNL     1      -1.202  -1.901   0.358  1.00  0.00     0.160 HD
BRANCH  10  12
HETATM   12  C7  UNL     1      -2.820  -0.554  -0.360  1.00  0.00     0.029 A 
HETATM   13  C8  UNL     1      -3.058   0.218  -1.466  1.00  0.00     0.029 A 
HETATM   14  C9  UNL     1      -4.309   0.784  -1.671  1.00  0.00     0.003 A 
HETATM   15  C10 UNL     1      -5.291   0.551  -0.737  1.00  0.00     0.015 A 
HETATM   16  C11 UNL     1      -5.064  -0.228   0.375  1.00  0.00     0.011 A 
HETATM   17  C14 UNL     1      -3.791  -0.771   0.539  1.00  0.00     0.044 A 
BRANCH  16  18
HETATM   18  C12 UNL     1      -6.199  -0.497   1.260  1.00  0.00     0.155 C 
HETATM   19  C13 UNL     1      -7.567  -0.193   0.778  1.00  0.00     0.096 C 
HETATM   20  O3  UNL     1      -6.007  -0.998   2.387  1.00  0.00    -0.293 OA
ENDBRANCH  16  18
ENDBRANCH  10  12
ENDBRANCH   9  10
ENDBRANCH   4   9
BRANCH   5  21
HETATM   21  O4  UNL     1       0.150   2.173  -1.282  1.00  0.00    -0.225 OA
BRANCH  21  22
HETATM   22  N4  UNL     1       0.106   3.432  -1.655  1.00  0.00    -0.303 N 
ATOM     23  H42 UNL     1       0.885   3.986  -1.301  1.00  0.00     0.184 HD
ATOM     24  H41 UNL     1      -0.570   3.933  -2.231  1.00  0.00     0.184 HD
ENDBRANCH  21  22
ENDBRANCH   5  21
BRANCH   1  25
HETATM   25  N1  UNL     1       3.822  -0.659   1.315  1.00  0.00    -0.364 N 
ATOM     26  H1  UNL     1       4.574  -0.090   1.705  1.00  0.00     0.161 HD
BRANCH  25  27
HETATM   27  C3  UNL     1       4.075  -2.062   1.204  1.00  0.00     0.232 C 
BRANCH  27  28
HETATM   28  C2  UNL     1       5.372  -2.149   0.327  1.00  0.00     0.276 C 
HETATM   29  O2  UNL     1       5.674  -2.998  -0.436  1.00  0.00    -0.263 OA
BRANCH  28  30
HETATM   30  O1  UNL     1       6.209  -0.995   0.573  1.00  0.00    -0.325 OA
HETATM   31  C1  UNL     1       7.437  -0.945  -0.178  1.00  0.00     0.213 C 
ENDBRANCH  28  30
ENDBRANCH  27  28
ENDBRANCH  25  27
ENDBRANCH   1  25
BRANCH   8  32
HETATM   32  N6  UNL     1       4.062   1.868   1.249  1.00  0.00    -0.382 N 
ATOM     33  H62 UNL     1       4.720   1.331   1.814  1.00  0.00     0.157 HD
ATOM     34  H61 UNL     1       4.262   2.854   1.078  1.00  0.00     0.157 HD
ENDBRANCH   8  32
TORSDOF 11
