REMARK  2 active torsions:
REMARK  status: ('A' for Active; 'I' for Inactive)
REMARK    1  A    between atoms: C2_2  and  C3_3 
REMARK    2  A    between atoms: C3_3  and  O1_4 
ROOT
HETATM    1  C3  UNL     1       0.889   0.092  -0.557  1.00  0.00     0.105 C 
HETATM    2  C4  UNL     1       0.033   1.224  -1.081  1.00  0.00     0.314 C 
HETATM    3  N1  UNL     1      -1.284   1.084  -0.519  1.00  0.00     0.091 N 
HETATM    4  C5  UNL     1      -1.139   1.054   0.937  1.00  0.00     0.273 C 
HETATM    5  C6  UNL     1      -0.651  -0.310   1.379  1.00  0.00     0.038 C 
HETATM    6  C7  UNL     1       0.065  -0.920   0.191  1.00  0.00     0.029 C 
HETATM    7  C8  UNL     1      -1.057  -1.348  -0.760  1.00  0.00     0.038 C 
HETATM    8  C9  UNL     1      -1.924  -0.131  -0.965  1.00  0.00     0.273 C 
ENDROOT
BRANCH   1   9
HETATM    9  C2  UNL     1       2.002   0.648   0.256  1.00  0.00     0.003 C 
HETATM   10  C1  UNL     1       2.527   0.032   1.295  1.00  0.00     0.010 C 
ENDBRANCH   1   9
BRANCH   1  11
HETATM   11  O1  UNL     1       1.444  -0.554  -1.660  1.00  0.00    -0.384 OA
ATOM     12  H1  UNL     1       0.733  -0.909  -2.180  1.00  0.00     0.211 HD
ENDBRANCH   1  11
TORSDOF 2
