REMARK  2 active torsions:
REMARK  status: ('A' for Active; 'I' for Inactive)
REMARK    1  A    between atoms: C3_5  and  O2_6 
REMARK    2  A    between atoms: C3_5  and  C4_8 
ROOT
HETATM    1  O1  UNL     1      -1.870  -0.982   2.070  1.00  0.00    -0.255 OA
HETATM    2  S1  UNL     1      -2.051   0.489   1.242  1.00  0.00     0.050 S 
HETATM    3  C1  UNL     1      -3.139   0.215  -0.162  1.00  0.00     0.116 C 
HETATM    4  C2  UNL     1      -1.999  -0.480  -0.847  1.00  0.00     0.065 C 
HETATM    5  C3  UNL     1      -1.030   0.492  -0.196  1.00  0.00     0.139 C 
ENDROOT
BRANCH   5   6
HETATM    6  O2  UNL     1      -1.004   1.748  -0.789  1.00  0.00    -0.377 OA
ATOM      7  H2  UNL     1      -0.454   1.750  -1.564  1.00  0.00     0.211 HD
ENDBRANCH   5   6
BRANCH   5   8
HETATM    8  C4  UNL     1       0.275  -0.155   0.042  1.00  0.00     0.033 C 
HETATM    9  C5  UNL     1       1.114   0.487   1.122  1.00  0.00     0.009 C 
HETATM   10  C6  UNL     1       2.339  -0.415   1.021  1.00  0.00     0.001 C 
HETATM   11  C7  UNL     1       2.537  -0.507  -0.466  1.00  0.00     0.001 C 
HETATM   12  C8  UNL     1       1.224  -0.131  -1.117  1.00  0.00     0.009 C 
ENDBRANCH   5   8
TORSDOF 2
