REMARK  3 active torsions:
REMARK  status: ('A' for Active; 'I' for Inactive)
REMARK    1  A    between atoms: C2_2  and  C4_4 
REMARK    2  A    between atoms: C4_4  and  C5_5 
REMARK    3  A    between atoms: C4_4  and  N2_10 
REMARK       I    between atoms: C5_5  and  N1_7 
ROOT
HETATM    1  C4  UNL     1      -0.600   0.587  -0.564  1.00  0.00     0.200 C 
ENDROOT
BRANCH   1   2
HETATM    2  C2  UNL     1      -1.141   1.485   0.494  1.00  0.00    -0.062 C 
HETATM    3  C1  UNL     1      -2.351   1.363   0.966  1.00  0.00     0.016 C 
HETATM    4  C3  UNL     1      -0.269   2.558   1.064  1.00  0.00     0.045 C 
ENDBRANCH   1   2
BRANCH   1   5
HETATM    5  C5  UNL     1      -1.636  -0.253  -1.110  1.00  0.00     0.244 C 
HETATM    6  O1  UNL     1      -2.613   0.385  -1.662  1.00  0.00    -0.271 OA
HETATM    7  N1  UNL     1      -1.769  -1.648  -1.149  1.00  0.00    -0.363 N 
HETATM    8  C6  UNL     1      -2.895  -2.335  -1.748  1.00  0.00     0.149 C 
ATOM      9  H1  UNL     1      -1.029  -2.213  -0.731  1.00  0.00     0.161 HD
ENDBRANCH   1   5
BRANCH   1  10
HETATM   10  N2  UNL     1       0.615   0.016  -0.142  1.00  0.00    -0.394 N 
HETATM   11  C7  UNL     1       0.713  -0.805   0.980  1.00  0.00     0.145 C 
HETATM   12  C8  UNL     1       2.107  -0.540   1.594  1.00  0.00     0.251 C 
HETATM   13  N3  UNL     1       3.120  -0.972   0.661  1.00  0.00    -0.072 N 
HETATM   14  C9  UNL     1       3.024  -0.233  -0.572  1.00  0.00     0.251 C 
ATOM     15  H32 UNL     1       4.055  -0.915   1.065  1.00  0.00     0.277 HD
ATOM     16  H31 UNL     1       3.083  -1.979   0.502  1.00  0.00     0.277 HD
HETATM   17  C10 UNL     1       1.786   0.621  -0.655  1.00  0.00     0.145 C 
ENDBRANCH   1  10
TORSDOF 3
