REMARK  3 active torsions:
REMARK  status: ('A' for Active; 'I' for Inactive)
REMARK       I    between atoms: C1_2  and  N1_3 
REMARK    1  A    between atoms: C1_2  and  C5_8 
REMARK    2  A    between atoms: N1_3  and  C2_5 
REMARK    3  A    between atoms: C7_10  and  C8_11 
ROOT
HETATM    1  C5  UNL     1      -0.252  -1.601   0.322  1.00  0.00     0.084 A 
HETATM    2  C6  UNL     1       0.555  -2.178  -0.768  1.00  0.00     0.022 A 
HETATM    3  C7  UNL     1       1.179  -1.502   0.461  1.00  0.00     0.032 A 
ENDROOT
BRANCH   3   4
HETATM    4  C8  UNL     1       2.137  -0.447   0.098  1.00  0.00     0.214 C 
HETATM    5  C9  UNL     1       2.352  -0.169  -1.363  1.00  0.00     0.201 C 
HETATM    6  O2  UNL     1       3.663   0.353  -1.462  1.00  0.00    -0.387 OA
HETATM    7  C10 UNL     1       3.902   1.313  -0.522  1.00  0.00     0.195 C 
HETATM    8  C11 UNL     1       2.707   1.840   0.182  1.00  0.00     0.259 C 
HETATM    9  N2  UNL     1       1.808   0.856   0.688  1.00  0.00    -0.067 N 
ATOM     10  H22 UNL     1       0.832   1.112   0.542  1.00  0.00     0.277 HD
ATOM     11  H21 UNL     1       1.798   0.828   1.708  1.00  0.00     0.277 HD
ENDBRANCH   3   4
BRANCH   1  12
HETATM   12  C1  UNL     1      -1.207  -0.534   0.042  1.00  0.00     0.222 C 
HETATM   13  O1  UNL     1      -0.858   0.448  -0.635  1.00  0.00    -0.273 OA
HETATM   14  N1  UNL     1      -2.565  -0.538   0.509  1.00  0.00    -0.356 N 
ATOM     15  H1  UNL     1      -2.888  -1.327   1.069  1.00  0.00     0.162 HD
BRANCH  14  16
HETATM   16  C2  UNL     1      -3.492   0.532   0.217  1.00  0.00     0.084 A 
HETATM   17  C3  UNL     1      -4.904   0.157  -0.001  1.00  0.00     0.027 A 
HETATM   18  C4  UNL     1      -4.506   0.930   1.232  1.00  0.00     0.027 A 
ENDBRANCH  14  16
ENDBRANCH   1  12
TORSDOF 3
