REMARK  3 active torsions:
REMARK  status: ('A' for Active; 'I' for Inactive)
REMARK       I    between atoms: C2_2  and  N1_4 
REMARK    1  A    between atoms: N1_4  and  C3_6 
REMARK    2  A    between atoms: C3_6  and  C5_8 
REMARK       I    between atoms: C5_8  and  N2_10 
REMARK    3  A    between atoms: N2_10  and  C6_12 
ROOT
HETATM    1  C5  UNL     1      -0.368   0.017  -0.124  1.00  0.00     0.242 C 
HETATM    2  O2  UNL     1      -0.299   1.027  -0.872  1.00  0.00    -0.271 OA
HETATM    3  N2  UNL     1       0.824  -0.664   0.227  1.00  0.00    -0.333 N 
ATOM      4  H2  UNL     1       0.777  -1.483   0.834  1.00  0.00     0.165 HD
ENDROOT
BRANCH   1   5
HETATM    5  C3  UNL     1      -1.682  -0.463   0.392  1.00  0.00     0.172 C 
HETATM    6  C4  UNL     1      -1.918  -1.871  -0.071  1.00  0.00     0.042 C 
BRANCH   5   7
HETATM    7  N1  UNL     1      -2.762   0.360  -0.076  1.00  0.00    -0.348 N 
HETATM    8  C2  UNL     1      -3.609   1.102   0.780  1.00  0.00     0.214 C 
HETATM    9  C1  UNL     1      -4.695   1.921   0.203  1.00  0.00     0.117 C 
HETATM   10  O1  UNL     1      -3.404   1.037   2.020  1.00  0.00    -0.274 OA
ATOM     11  H1  UNL     1      -2.927   0.412  -1.081  1.00  0.00     0.163 HD
ENDBRANCH   5   7
ENDBRANCH   1   5
BRANCH   3  12
HETATM   12  C6  UNL     1       2.087  -0.218  -0.258  1.00  0.00     0.223 C 
HETATM   13  C7  UNL     1       3.096   0.057   0.838  1.00  0.00     0.056 C 
HETATM   14  C8  UNL     1       4.368   0.189  -0.012  1.00  0.00     0.031 C 
HETATM   15  C9  UNL     1       3.954  -0.492  -1.301  1.00  0.00     0.170 C 
HETATM   16  O3  UNL     1       2.775  -1.207  -0.988  1.00  0.00    -0.367 OA
ENDBRANCH   3  12
TORSDOF 3
