REMARK  5 active torsions:
REMARK  status: ('A' for Active; 'I' for Inactive)
REMARK    1  A    between atoms: N1_1  and  C1_4 
REMARK    2  A    between atoms: N3_9  and  O1_10 
REMARK    3  A    between atoms: C6_19  and  C7_20 
REMARK    4  A    between atoms: N6_21  and  N7_23 
REMARK    5  A    between atoms: N7_23  and  C8_25 
ROOT
HETATM    1  C1  UNL     1       2.940  -2.726   0.518  1.00  0.00     0.115 A 
HETATM    2  C2  UNL     1       3.973  -1.960  -0.019  1.00  0.00     0.082 A 
HETATM    3  C3  UNL     1       3.728  -0.619  -0.225  1.00  0.00     0.083 A 
HETATM    4  N2  UNL     1       4.695   0.156  -0.741  1.00  0.00    -0.271 N 
ATOM      5  H2  UNL     1       5.597  -0.261  -0.972  1.00  0.00     0.189 HD
HETATM    6  N3  UNL     1       4.505   1.459  -0.959  1.00  0.00    -0.144 N 
HETATM    7  C4  UNL     1       3.344   2.049  -0.673  1.00  0.00     0.180 A 
HETATM    8  N4  UNL     1       3.107   3.354  -0.875  1.00  0.00    -0.279 N 
ATOM      9  H4  UNL     1       3.847   3.937  -1.268  1.00  0.00     0.189 HD
HETATM   10  N5  UNL     1       1.947   3.905  -0.581  1.00  0.00    -0.264 N 
ATOM     11  H5  UNL     1       1.831   4.903  -0.758  1.00  0.00     0.190 HD
HETATM   12  C5  UNL     1       0.919   3.236  -0.067  1.00  0.00     0.272 A 
HETATM   13  O2  UNL     1      -0.169   3.837   0.191  1.00  0.00    -0.266 OA
HETATM   14  C6  UNL     1       1.070   1.854   0.183  1.00  0.00     0.067 A 
HETATM   15  C12 UNL     1       2.252   1.229  -0.103  1.00  0.00     0.061 A 
HETATM   16  C13 UNL     1       2.482  -0.109   0.108  1.00  0.00     0.091 A 
HETATM   17  N10 UNL     1       1.554  -0.913   0.616  1.00  0.00    -0.296 N 
ATOM     18  H10 UNL     1       0.647  -0.510   0.852  1.00  0.00     0.187 HD
HETATM   19  N11 UNL     1       1.736  -2.199   0.833  1.00  0.00    -0.285 N 
ATOM     20  H11 UNL     1       0.993  -2.778   1.226  1.00  0.00     0.188 HD
ENDROOT
BRANCH  14  21
HETATM   21  C7  UNL     1      -0.051   1.152   0.737  1.00  0.00     0.126 C 
HETATM   22  N6  UNL     1      -1.140   1.857   0.972  1.00  0.00    -0.297 N 
ATOM     23  H6  UNL     1      -1.144   2.854   0.755  1.00  0.00     0.186 HD
BRANCH  22  24
HETATM   24  N7  UNL     1      -2.280   1.276   1.507  1.00  0.00    -0.133 N 
ATOM     25  H7  UNL     1      -2.587   1.494   2.455  1.00  0.00     0.205 HD
BRANCH  24  26
HETATM   26  C8  UNL     1      -3.006   0.368   0.693  1.00  0.00     0.688 C 
HETATM   27  N8  UNL     1      -3.654  -0.584   1.268  1.00  0.00    -0.225 N 
HETATM   28  C9  UNL     1      -4.393  -1.509   0.443  1.00  0.00     0.139 C 
ATOM     29  H8  UNL     1      -3.645  -0.682   2.283  1.00  0.00     0.177 HD
HETATM   30  C10 UNL     1      -5.161  -0.707  -0.582  1.00  0.00     0.040 C 
HETATM   31  C11 UNL     1      -4.159  -0.034  -1.506  1.00  0.00     0.139 C 
HETATM   32  N9  UNL     1      -3.042   0.474  -0.726  1.00  0.00    -0.225 N 
ATOM     33  H9  UNL     1      -2.262   0.919  -1.209  1.00  0.00     0.177 HD
ENDBRANCH  24  26
ENDBRANCH  22  24
ENDBRANCH  14  21
BRANCH   6  34
HETATM   34  O1  UNL     1       5.520   2.245  -1.494  1.00  0.00    -0.266 OA
ATOM     35  H1  UNL     1       5.385   3.172  -1.649  1.00  0.00     0.247 HD
ENDBRANCH   6  34
BRANCH   1  36
HETATM   36  N1  UNL     1       3.185  -3.976   0.704  1.00  0.00    -0.384 N 
ATOM     37  H12 UNL     1       4.094  -4.374   0.466  1.00  0.00     0.157 HD
ATOM     38  H11 UNL     1       2.429  -4.537   1.097  1.00  0.00     0.157 HD
ENDBRANCH   1  36
TORSDOF 5
