REMARK  2 active torsions:
REMARK  status: ('A' for Active; 'I' for Inactive)
REMARK    1  A    between atoms: N6_16  and  C7_18 
REMARK    2  A    between atoms: C10_26  and  N10_27 
ROOT
HETATM    1  C7  UNL     1      -1.194   0.187   0.737  1.00  0.00     0.138 A 
HETATM    2  N7  UNL     1      -1.544   1.424   1.108  1.00  0.00    -0.281 N 
ATOM      3  H7  UNL     1      -0.921   2.077   1.582  1.00  0.00     0.189 HD
HETATM    4  N8  UNL     1      -2.788   1.694   0.787  1.00  0.00    -0.278 N 
HETATM    5  C8  UNL     1      -3.551   2.919   1.011  1.00  0.00     0.179 C 
HETATM    6  C9  UNL     1      -3.283   0.602   0.184  1.00  0.00     0.155 A 
HETATM    7  N9  UNL     1      -4.479   0.276  -0.356  1.00  0.00    -0.174 N 
ATOM      8  H9  UNL     1      -5.228   0.968  -0.338  1.00  0.00     0.186 HD
HETATM    9  C10 UNL     1      -4.721  -0.921  -0.915  1.00  0.00     0.679 A 
HETATM   10  N11 UNL     1      -3.775  -1.877  -0.969  1.00  0.00    -0.176 N 
ATOM     11  H11 UNL     1      -3.965  -2.784  -1.395  1.00  0.00     0.186 HD
HETATM   12  C11 UNL     1      -2.570  -1.594  -0.442  1.00  0.00     0.132 A 
HETATM   13  N12 UNL     1      -1.603  -2.459  -0.453  1.00  0.00    -0.384 N 
ATOM     14 1H12 UNL     1      -0.689  -2.244  -0.053  1.00  0.00     0.157 HD
ATOM     15 2H12 UNL     1      -1.801  -3.364  -0.880  1.00  0.00     0.157 HD
HETATM   16  C12 UNL     1      -2.302  -0.367   0.137  1.00  0.00     0.099 A 
ENDROOT
BRANCH   1  17
HETATM   17  N6  UNL     1       0.033  -0.502   0.886  1.00  0.00    -0.341 N 
HETATM   18  C6  UNL     1       1.093  -0.252   0.203  1.00  0.00     0.061 C 
HETATM   19  C2  UNL     1       2.225  -1.104   0.548  1.00  0.00     0.126 A 
HETATM   20  C5  UNL     1       1.085   0.809  -0.811  1.00  0.00     0.182 C 
HETATM   21  N3  UNL     1       2.148  -2.294   1.187  1.00  0.00    -0.280 N 
HETATM   22  C3  UNL     1       3.562  -0.842   0.281  1.00  0.00     0.199 A 
HETATM   23  N2  UNL     1       3.397  -2.743   1.307  1.00  0.00    -0.238 N 
ATOM     24  H3  UNL     1       1.300  -2.757   1.513  1.00  0.00     0.188 HD
HETATM   25  N1  UNL     1       4.250  -1.904   0.780  1.00  0.00    -0.259 N 
ATOM     26  H2  UNL     1       3.654  -3.625   1.751  1.00  0.00     0.208 HD
HETATM   27  C1  UNL     1       5.700  -1.979   0.682  1.00  0.00     0.181 C 
HETATM   28  O1  UNL     1       4.124   0.257  -0.356  1.00  0.00    -0.261 OA
HETATM   29  C4  UNL     1       3.490   1.496  -0.526  1.00  0.00     0.234 C 
HETATM   30  N4  UNL     1       4.322   2.651  -0.490  1.00  0.00    -0.056 NA
HETATM   31  N5  UNL     1       2.235   1.657  -0.710  1.00  0.00    -0.353 N 
ATOM     32  H5  UNL     1       1.990   2.642  -0.811  1.00  0.00     0.163 HD
ATOM     33  H6  UNL     1       0.079  -1.247   1.582  1.00  0.00     0.167 HD
ENDBRANCH   1  17
BRANCH   9  34
HETATM   34  N10 UNL     1      -5.905  -1.162  -1.417  1.00  0.00    -0.234 N 
ATOM     35 2H10 UNL     1      -6.622  -0.438  -1.376  1.00  0.00     0.174 HD
ATOM     36 1H10 UNL     1      -6.089  -2.071  -1.842  1.00  0.00     0.174 HD
ENDBRANCH   9  34
TORSDOF 2
