REMARK  6 active torsions:
REMARK  status: ('A' for Active; 'I' for Inactive)
REMARK    1  A    between atoms: C6_7  and  C7_8 
REMARK    2  A    between atoms: C9_12  and  O4_13 
REMARK    3  A    between atoms: O4_13  and  C10_14 
REMARK    4  A    between atoms: C17_21  and  C19_23 
REMARK    5  A    between atoms: C19_23  and  O5_24 
REMARK    6  A    between atoms: N1_26  and  O6_28 
ROOT
HETATM    1  C10 UNL     1      -0.882   0.148   0.280  1.00  0.00     0.126 C 
HETATM    2  C11 UNL     1      -1.870   1.167   0.743  1.00  0.00     0.033 C 
HETATM    3  C12 UNL     1      -3.078   0.653   1.402  1.00  0.00     0.008 C 
HETATM    4  C13 UNL     1      -3.403  -0.779   1.229  1.00  0.00     0.002 C 
HETATM    5  C14 UNL     1      -2.184  -1.678   1.125  1.00  0.00     0.013 C 
HETATM    6  C15 UNL     1      -1.586  -1.123  -0.173  1.00  0.00     0.016 C 
HETATM    7  C16 UNL     1      -2.783  -0.743  -1.025  1.00  0.00     0.025 C 
HETATM    8  C17 UNL     1      -3.979  -0.993  -0.170  1.00  0.00     0.027 C 
HETATM    9  C18 UNL     1      -4.384  -2.449  -0.358  1.00  0.00     0.024 C 
ENDROOT
BRANCH   1  10
HETATM   10  O4  UNL     1      -0.040   0.569  -0.699  1.00  0.00    -0.380 OA
BRANCH  10  11
HETATM   11  C9  UNL     1       1.345   0.517  -0.341  1.00  0.00     0.128 C 
HETATM   12  C8  UNL     1       1.795   1.896  -0.523  1.00  0.00     0.084 C 
HETATM   13  C6  UNL     1       3.132   2.410  -0.257  1.00  0.00     0.177 A 
HETATM   14  C5  UNL     1       4.353   1.856  -0.419  1.00  0.00     0.169 A 
HETATM   15  O1  UNL     1       3.802   2.256   0.930  1.00  0.00    -0.357 OA
HETATM   16  C4  UNL     1       4.835   0.470  -0.271  1.00  0.00     0.038 C 
HETATM   17  C3  UNL     1       4.209  -0.357   0.820  1.00  0.00     0.043 C 
HETATM   18  C2  UNL     1       3.626  -1.583   0.252  1.00  0.00     0.084 A 
HETATM   19  C1  UNL     1       4.534  -2.826   0.390  1.00  0.00     0.049 C 
HETATM   20  C21 UNL     1       2.614  -1.630  -0.668  1.00  0.00     0.159 A 
HETATM   21  O7  UNL     1       2.285  -1.824   0.771  1.00  0.00    -0.369 OA
HETATM   22  C20 UNL     1       1.955  -0.485  -1.315  1.00  0.00     0.067 C 
BRANCH  13  23
HETATM   23  C7  UNL     1       3.061   3.907  -0.557  1.00  0.00     0.212 C 
HETATM   24  O2  UNL     1       2.497   4.298  -1.630  1.00  0.00    -0.646 OA
HETATM   25  O3  UNL     1       3.585   4.856   0.293  1.00  0.00    -0.646 OA
ENDBRANCH  13  23
ENDBRANCH  10  11
ENDBRANCH   1  10
BRANCH   8  26
HETATM   26  C19 UNL     1      -5.119  -0.130  -0.443  1.00  0.00     0.144 C 
HETATM   27  N1  UNL     1      -5.132   0.719  -1.401  1.00  0.00    -0.250 N 
ATOM     28  H1  UNL     1      -4.308   0.792  -1.997  1.00  0.00     0.196 HD
BRANCH  26  29
HETATM   29  O5  UNL     1      -6.238  -0.230   0.367  1.00  0.00    -0.348 OA
ATOM     30  H5  UNL     1      -6.982   0.333   0.189  1.00  0.00     0.219 HD
ENDBRANCH  26  29
BRANCH  27  31
HETATM   31  O6  UNL     1      -6.205   1.537  -1.664  1.00  0.00    -0.288 OA
ATOM     32  H6  UNL     1      -6.215   2.167  -2.375  1.00  0.00     0.244 HD
ENDBRANCH  27  31
ENDBRANCH   8  26
TORSDOF 6
