REMARK  6 active torsions:
REMARK  status: ('A' for Active; 'I' for Inactive)
REMARK    1  A    between atoms: C2_2  and  C5_5 
REMARK    2  A    between atoms: C10_10  and  C11_11 
REMARK    3  A    between atoms: N1_13  and  C12_14 
REMARK    4  A    between atoms: C13_15  and  C14_16 
REMARK       I    between atoms: C14_16  and  N2_18 
REMARK    5  A    between atoms: N2_18  and  S2_20 
REMARK    6  A    between atoms: C16_24  and  N3_25 
ROOT
HETATM    1  C11 UNL     1      -0.804  -0.833  -0.559  1.00  0.00     0.029 A 
HETATM    2  S1  UNL     1       0.491  -0.175   0.307  1.00  0.00    -0.009 SA
HETATM    3  N1  UNL     1       1.790  -0.771  -0.635  1.00  0.00    -0.277 N 
HETATM    4  C16 UNL     1       1.185  -1.466  -1.596  1.00  0.00     0.133 A 
HETATM    5  C17 UNL     1      -0.196  -1.502  -1.560  1.00  0.00     0.103 A 
HETATM    6  C18 UNL     1      -0.992  -2.229  -2.568  1.00  0.00     0.104 C 
HETATM    7  N4  UNL     1      -1.640  -2.819  -3.353  1.00  0.00    -0.191 NA
ENDROOT
BRANCH   1   8
HETATM    8  C10 UNL     1      -2.288  -0.722  -0.262  1.00  0.00     0.033 C 
HETATM    9  C5  UNL     1      -2.539   0.473   0.607  1.00  0.00     0.002 C 
HETATM   10  C6  UNL     1      -3.020   0.191   1.980  1.00  0.00     0.006 C 
HETATM   11  C7  UNL     1      -4.012  -0.883   2.142  1.00  0.00     0.000 C 
HETATM   12  C8  UNL     1      -3.856  -2.045   1.213  1.00  0.00     0.001 C 
HETATM   13  C9  UNL     1      -2.623  -2.025   0.391  1.00  0.00     0.010 C 
BRANCH   9  14
HETATM   14  C2  UNL     1      -3.392   1.506  -0.122  1.00  0.00    -0.047 C 
HETATM   15  C1  UNL     1      -3.396   2.793   0.618  1.00  0.00     0.015 C 
HETATM   16  C3  UNL     1      -4.763   1.055  -0.460  1.00  0.00     0.015 C 
HETATM   17  C4  UNL     1      -2.669   1.757  -1.458  1.00  0.00     0.015 C 
ENDBRANCH   9  14
ENDBRANCH   1   8
BRANCH   4  18
HETATM   18  N3  UNL     1       1.829  -2.079  -2.496  1.00  0.00    -0.383 N 
ATOM     19  H32 UNL     1       2.848  -2.052  -2.523  1.00  0.00     0.157 HD
ATOM     20  H31 UNL     1       1.365  -2.611  -3.232  1.00  0.00     0.157 HD
ENDBRANCH   4  18
BRANCH   3  21
HETATM   21  C12 UNL     1       3.164  -0.539  -0.296  1.00  0.00     0.112 C 
HETATM   22  C13 UNL     1       4.160  -0.744  -1.079  1.00  0.00     0.093 C 
BRANCH  22  23
HETATM   23  C14 UNL     1       5.541  -0.484  -0.634  1.00  0.00     0.255 C 
HETATM   24  O1  UNL     1       6.508  -0.696  -1.436  1.00  0.00    -0.268 OA
HETATM   25  N2  UNL     1       5.860  -0.002   0.653  1.00  0.00    -0.251 N 
ATOM     26  H2  UNL     1       5.118   0.171   1.332  1.00  0.00     0.181 HD
BRANCH  25  27
HETATM   27  S2  UNL     1       7.529   0.299   1.084  1.00  0.00     0.229 S 
HETATM   28  C15 UNL     1       8.024   1.817   0.303  1.00  0.00     0.186 C 
HETATM   29  O2  UNL     1       8.409  -0.792   0.588  1.00  0.00    -0.206 OA
HETATM   30  O3  UNL     1       7.593   0.488   2.559  1.00  0.00    -0.206 OA
ENDBRANCH  25  27
ENDBRANCH  22  23
ENDBRANCH   3  21
TORSDOF 6
