REMARK  6 active torsions:
REMARK  status: ('A' for Active; 'I' for Inactive)
REMARK    1  A    between atoms: C8_8  and  O1_9 
REMARK    2  A    between atoms: O1_9  and  C9_10 
REMARK    3  A    between atoms: C9_10  and  C10_12 
REMARK    4  A    between atoms: C17_21  and  O5_22 
REMARK    5  A    between atoms: O5_22  and  C18_23 
REMARK    6  A    between atoms: C19_26  and  O7_28 
ROOT
HETATM    1  C1  UNL     1      -3.066  -3.859  -0.275  1.00  0.00     0.017 C 
HETATM    2  C2  UNL     1      -2.000  -3.137  -0.484  1.00  0.00    -0.059 C 
HETATM    3  C3  UNL     1      -0.603  -3.592  -0.531  1.00  0.00     0.049 C 
HETATM    4  C4  UNL     1       0.227  -2.335  -0.315  1.00  0.00    -0.016 C 
HETATM    5  C5  UNL     1       1.221  -2.578   0.768  1.00  0.00     0.020 C 
HETATM    6  C6  UNL     1       0.820  -1.988  -1.631  1.00  0.00    -0.018 C 
HETATM    7  C7  UNL     1       1.159  -0.744  -1.886  1.00  0.00     0.003 C 
HETATM    8  C8  UNL     1       0.941   0.289  -0.853  1.00  0.00     0.162 C 
HETATM    9  C13 UNL     1      -0.284   0.084  -0.007  1.00  0.00     0.064 C 
HETATM   10  C14 UNL     1      -0.785  -1.289   0.117  1.00  0.00     0.041 C 
HETATM   11  C15 UNL     1      -1.970  -1.679  -0.724  1.00  0.00     0.166 C 
HETATM   12  O3  UNL     1      -3.185  -1.098  -0.307  1.00  0.00    -0.309 OA
HETATM   13  C16 UNL     1      -3.485   0.158   0.151  1.00  0.00     0.292 C 
HETATM   14  O4  UNL     1      -4.708   0.407   0.234  1.00  0.00    -0.262 OA
HETATM   15  C17 UNL     1      -2.487   1.189   0.534  1.00  0.00     0.267 C 
HETATM   16  C19 UNL     1      -1.289   1.135  -0.393  1.00  0.00     0.097 C 
HETATM   17  C20 UNL     1      -1.714   1.121  -1.819  1.00  0.00     0.049 C 
ENDROOT
BRANCH   8  18
HETATM   18  O1  UNL     1       2.129   0.314  -0.068  1.00  0.00    -0.311 OA
BRANCH  18  19
HETATM   19  C9  UNL     1       2.988   1.377  -0.074  1.00  0.00     0.263 C 
HETATM   20  O2  UNL     1       2.680   2.353  -0.820  1.00  0.00    -0.265 OA
BRANCH  19  21
HETATM   21  C10 UNL     1       4.223   1.474   0.706  1.00  0.00     0.077 C 
HETATM   22  C11 UNL     1       3.993   1.390   2.196  1.00  0.00     0.020 C 
HETATM   23  C12 UNL     1       5.135   0.312   0.308  1.00  0.00     0.020 C 
ENDBRANCH  19  21
ENDBRANCH  18  19
ENDBRANCH   8  18
BRANCH  16  24
HETATM   24  O7  UNL     1      -0.638   2.376  -0.180  1.00  0.00    -0.387 OA
ATOM     25  H7  UNL     1      -1.273   3.040  -0.424  1.00  0.00     0.210 HD
ENDBRANCH  16  24
BRANCH  15  26
HETATM   26  O5  UNL     1      -3.087   2.467   0.348  1.00  0.00    -0.288 OA
BRANCH  26  27
HETATM   27  C18 UNL     1      -3.243   3.362   1.396  1.00  0.00     0.373 C 
HETATM   28  N1  UNL     1      -3.844   4.624   1.178  1.00  0.00    -0.032 NA
HETATM   29  O6  UNL     1      -2.834   3.016   2.541  1.00  0.00    -0.242 OA
ENDBRANCH  26  27
ENDBRANCH  15  26
TORSDOF 6
