REMARK  4 active torsions:
REMARK  status: ('A' for Active; 'I' for Inactive)
REMARK    1  A    between atoms: C2_2  and  N1_4 
REMARK    2  A    between atoms: N3_12  and  C10_13 
REMARK    3  A    between atoms: C10_13  and  N4_15 
REMARK    4  A    between atoms: N4_15  and  C11_17 
ROOT
HETATM    1  N1  UNL     1      -2.867   0.082   0.444  1.00  0.00    -0.405 N 
HETATM    2  C4  UNL     1      -3.061  -1.236  -0.005  1.00  0.00     0.147 C 
HETATM    3  C5  UNL     1      -1.669  -1.876  -0.120  1.00  0.00     0.292 C 
HETATM    4  N2  UNL     1      -0.787  -1.057  -0.922  1.00  0.00     0.097 N 
HETATM    5  C6  UNL     1      -1.150  -1.231  -2.293  1.00  0.00     0.311 C 
HETATM    6  C7  UNL     1      -0.717   0.309  -0.495  1.00  0.00     0.177 C 
HETATM    7  C8  UNL     1      -0.213   0.389   0.925  1.00  0.00     0.063 C 
HETATM    8  C9  UNL     1       1.131   1.086   1.002  1.00  0.00     0.128 C 
HETATM    9  N3  UNL     1       2.049   0.589   0.010  1.00  0.00    -0.358 N 
HETATM   10  C14 UNL     1       1.564   0.440  -1.346  1.00  0.00     0.128 C 
HETATM   11  C15 UNL     1       0.179   1.081  -1.402  1.00  0.00     0.063 C 
HETATM   12  C16 UNL     1      -2.133   0.905  -0.459  1.00  0.00     0.159 C 
ENDROOT
BRANCH   1  13
HETATM   13  C2  UNL     1      -3.881   0.700   1.192  1.00  0.00     0.071 C 
HETATM   14  C1  UNL     1      -4.104  -0.047   2.479  1.00  0.00     0.031 C 
HETATM   15  C3  UNL     1      -5.204   0.860   0.492  1.00  0.00     0.031 C 
ENDBRANCH   1  13
BRANCH   9  16
HETATM   16  C10 UNL     1       3.410   0.240   0.301  1.00  0.00     0.170 C 
HETATM   17  S1  UNL     1       3.892   0.457   1.837  1.00  0.00    -0.041 SA
BRANCH  16  18
HETATM   18  N4  UNL     1       4.263  -0.243  -0.704  1.00  0.00    -0.362 N 
ATOM     19  H4  UNL     1       3.856  -0.321  -1.636  1.00  0.00     0.162 HD
BRANCH  18  20
HETATM   20  C11 UNL     1       5.628  -0.638  -0.583  1.00  0.00     0.084 A 
HETATM   21  C12 UNL     1       6.627   0.303   0.036  1.00  0.00     0.027 A 
HETATM   22  C13 UNL     1       6.304  -1.094   0.619  1.00  0.00     0.027 A 
ENDBRANCH  18  20
ENDBRANCH  16  18
ENDBRANCH   9  16
TORSDOF 4
