REMARK  4 active torsions:
REMARK  status: ('A' for Active; 'I' for Inactive)
REMARK    1  A    between atoms: C1_2  and  N1_3 
REMARK    2  A    between atoms: C1_2  and  N2_11 
REMARK    3  A    between atoms: N1_3  and  C2_5 
REMARK    4  A    between atoms: C10_14  and  N3_15 
ROOT
HETATM    1  N2  UNL     1       0.044   0.375  -0.636  1.00  0.00    -0.358 N 
HETATM    2  C8  UNL     1       0.389  -0.136   0.674  1.00  0.00     0.127 C 
HETATM    3  C9  UNL     1       1.823  -0.629   0.633  1.00  0.00     0.055 C 
HETATM    4  C10 UNL     1       2.751   0.557   0.332  1.00  0.00     0.226 C 
HETATM    5  C15 UNL     1       2.203   1.369  -0.784  1.00  0.00     0.055 C 
HETATM    6  C16 UNL     1       1.145   0.573  -1.554  1.00  0.00     0.127 C 
ENDROOT
BRANCH   1   7
HETATM    7  C1  UNL     1      -1.310   0.640  -0.918  1.00  0.00     0.170 C 
HETATM    8  S1  UNL     1      -1.714   1.216  -2.381  1.00  0.00    -0.041 SA
BRANCH   7   9
HETATM    9  N1  UNL     1      -2.314   0.420   0.045  1.00  0.00    -0.363 N 
ATOM     10  H1  UNL     1      -2.044   0.065   0.962  1.00  0.00     0.162 HD
BRANCH   9  11
HETATM   11  C2  UNL     1      -3.710   0.678  -0.217  1.00  0.00     0.083 C 
HETATM   12  C3  UNL     1      -4.190  -0.230  -1.296  1.00  0.00     0.025 C 
HETATM   13  C4  UNL     1      -5.103  -1.269  -0.667  1.00  0.00     0.002 C 
HETATM   14  C5  UNL     1      -6.334  -0.550  -0.155  1.00  0.00     0.000 C 
HETATM   15  C6  UNL     1      -6.015   0.679   0.639  1.00  0.00     0.002 C 
HETATM   16  C7  UNL     1      -4.542   0.566   1.048  1.00  0.00     0.025 C 
ENDBRANCH   9  11
ENDBRANCH   7   9
ENDBRANCH   1   7
BRANCH   4  17
HETATM   17  N3  UNL     1       4.103   0.161   0.225  1.00  0.00     0.097 N 
HETATM   18  C11 UNL     1       4.483  -0.727  -0.797  1.00  0.00     0.299 C 
HETATM   19  C12 UNL     1       5.471  -1.768  -0.301  1.00  0.00     0.198 C 
HETATM   20  O1  UNL     1       6.496  -1.241   0.454  1.00  0.00    -0.388 OA
HETATM   21  C13 UNL     1       6.116  -0.377   1.448  1.00  0.00     0.198 C 
HETATM   22  C14 UNL     1       4.614  -0.203   1.536  1.00  0.00     0.299 C 
ENDBRANCH   4  17
TORSDOF 4
