REMARK  2 active torsions:
REMARK  status: ('A' for Active; 'I' for Inactive)
REMARK    1  A    between atoms: C5_5  and  C6_6 
REMARK    2  A    between atoms: C6_6  and  N1_7 
ROOT
HETATM    1  N1  UNL     1      -0.456  -0.331   0.222  1.00  0.00    -0.412 N 
HETATM    2  C7  UNL     1       0.096  -0.154  -1.073  1.00  0.00     0.117 C 
HETATM    3  C8  UNL     1       1.514  -0.693  -1.079  1.00  0.00     0.029 C 
HETATM    4  C9  UNL     1       2.419  -0.010  -0.094  1.00  0.00    -0.032 C 
HETATM    5  C10 UNL     1       1.647   0.460   1.116  1.00  0.00     0.029 C 
HETATM    6  C11 UNL     1       0.472  -0.485   1.284  1.00  0.00     0.117 C 
HETATM    7  C12 UNL     1       3.410  -1.048   0.383  1.00  0.00     0.040 C 
HETATM    8  C13 UNL     1       4.604  -1.091  -0.541  1.00  0.00     0.276 C 
HETATM    9  N2  UNL     1       5.337   0.148  -0.553  1.00  0.00     0.120 N 
HETATM   10  C14 UNL     1       6.391   0.186   0.414  1.00  0.00     0.377 C 
HETATM   11  C15 UNL     1       6.065   1.334   1.303  1.00  0.00     0.247 C 
HETATM   12  O1  UNL     1       6.815   1.823   2.209  1.00  0.00    -0.272 OA
HETATM   13  N3  UNL     1       4.760   1.756   0.928  1.00  0.00    -0.330 N 
ATOM     14  H3  UNL     1       4.102   2.275   1.509  1.00  0.00     0.164 HD
HETATM   15  C16 UNL     1       4.543   1.318  -0.412  1.00  0.00     0.325 C 
HETATM   16  C17 UNL     1       3.097   1.133  -0.773  1.00  0.00     0.067 C 
ENDROOT
BRANCH   1  17
HETATM   17  C6  UNL     1      -1.665  -1.062   0.302  1.00  0.00     0.121 C 
BRANCH  17  18
HETATM   18  C5  UNL     1      -2.871  -0.415  -0.276  1.00  0.00     0.003 C 
HETATM   19  C4  UNL     1      -3.246   0.896   0.349  1.00  0.00     0.006 C 
HETATM   20  C3  UNL     1      -4.667   0.891   0.878  1.00  0.00     0.005 C 
HETATM   21  C2  UNL     1      -5.681   0.521  -0.186  1.00  0.00    -0.019 C 
HETATM   22  C1  UNL     1      -7.039   0.414   0.474  1.00  0.00     0.010 C 
HETATM   23  C19 UNL     1      -5.287  -0.817  -0.754  1.00  0.00     0.005 C 
HETATM   24  C18 UNL     1      -4.049  -1.362  -0.071  1.00  0.00     0.006 C 
ENDBRANCH  17  18
ENDBRANCH   1  17
TORSDOF 2
