REMARK  5 active torsions:
REMARK  status: ('A' for Active; 'I' for Inactive)
REMARK    1  A    between atoms: N1_2  and  C2_3 
REMARK    2  A    between atoms: N1_2  and  C11_17 
REMARK    3  A    between atoms: C2_3  and  N2_5 
REMARK    4  A    between atoms: C5_8  and  O1_9 
REMARK    5  A    between atoms: C6_11  and  N3_12 
ROOT
HETATM    1  N2  UNL     1      -0.754  -0.677  -0.262  1.00  0.00    -0.334 N 
HETATM    2  C3  UNL     1      -0.499  -0.321  -1.613  1.00  0.00     0.130 C 
HETATM    3  C4  UNL     1      -1.694  -0.617  -2.474  1.00  0.00     0.055 C 
HETATM    4  C5  UNL     1      -2.672  -1.244  -1.559  1.00  0.00     0.162 C 
HETATM    5  C6  UNL     1      -2.190  -0.989  -0.161  1.00  0.00     0.216 C 
ENDROOT
BRANCH   1   6
HETATM    6  C2  UNL     1       0.149  -0.728   0.837  1.00  0.00     0.173 C 
HETATM    7  S1  UNL     1      -0.533  -1.226   2.306  1.00  0.00    -0.041 SA
BRANCH   6   8
HETATM    8  N1  UNL     1       1.501  -0.438   0.909  1.00  0.00    -0.358 N 
HETATM    9  C1  UNL     1       2.094  -0.641   2.289  1.00  0.00     0.152 C 
BRANCH   8  10
HETATM   10  C11 UNL     1       2.415   0.024  -0.093  1.00  0.00     0.086 C 
HETATM   11  C12 UNL     1       3.522  -0.993  -0.357  1.00  0.00     0.025 C 
HETATM   12  C13 UNL     1       4.458  -0.462  -1.446  1.00  0.00     0.002 C 
HETATM   13  C14 UNL     1       5.161   0.771  -0.953  1.00  0.00     0.000 C 
HETATM   14  C15 UNL     1       4.558   1.273   0.344  1.00  0.00     0.002 C 
HETATM   15  C16 UNL     1       3.065   1.344   0.326  1.00  0.00     0.025 C 
ENDBRANCH   8  10
ENDBRANCH   6   8
ENDBRANCH   1   6
BRANCH   5  16
HETATM   16  N3  UNL     1      -2.953  -0.041   0.480  1.00  0.00    -0.370 N 
HETATM   17  C7  UNL     1      -3.086   1.278   0.113  1.00  0.00     0.060 C 
HETATM   18  C8  UNL     1      -4.529   1.636   0.393  1.00  0.00     0.046 C 
HETATM   19  C9  UNL     1      -5.045   0.462   1.196  1.00  0.00     0.025 C 
HETATM   20  C10 UNL     1      -3.778  -0.328   1.568  1.00  0.00     0.124 C 
ENDBRANCH   5  16
BRANCH   4  21
HETATM   21  O1  UNL     1      -3.931  -0.652  -1.818  1.00  0.00    -0.392 OA
ATOM     22  H1  UNL     1      -4.559  -1.055  -1.230  1.00  0.00     0.210 HD
ENDBRANCH   4  21
TORSDOF 5
