REMARK  2 active torsions:
REMARK  status: ('A' for Active; 'I' for Inactive)
REMARK    1  A    between atoms: N2_7  and  C3_8 
REMARK    2  A    between atoms: C8_14  and  C9_15 
ROOT
HETATM    1  O1  UNL     1      -0.421   3.502  -1.273  1.00  0.00    -0.271 OA
HETATM    2  C1  UNL     1       0.033   2.335  -1.344  1.00  0.00     0.249 C 
HETATM    3  N1  UNL     1       0.548   1.678  -2.518  1.00  0.00    -0.277 N 
ATOM      4  H1  UNL     1       0.348   1.916  -3.489  1.00  0.00     0.173 HD
HETATM    5  C2  UNL     1       1.404   0.615  -2.046  1.00  0.00     0.326 C 
HETATM    6  O2  UNL     1       2.029  -0.175  -2.785  1.00  0.00    -0.247 OA
HETATM    7  N2  UNL     1       1.400   0.636  -0.600  1.00  0.00    -0.315 N 
HETATM    8  C8  UNL     1       0.179   1.294  -0.272  1.00  0.00     0.190 C 
ENDROOT
BRANCH   8   9
HETATM    9  C9  UNL     1      -1.046   0.480  -0.143  1.00  0.00    -0.010 C 
HETATM   10  C10 UNL     1      -1.461  -0.281  -1.382  1.00  0.00     0.016 C 
HETATM   11  C11 UNL     1      -2.779  -0.979  -1.118  1.00  0.00    -0.013 C 
HETATM   12  C12 UNL     1      -3.817   0.070  -0.841  1.00  0.00     0.009 C 
HETATM   13  C16 UNL     1      -2.747  -1.949   0.013  1.00  0.00     0.009 C 
HETATM   14  C13 UNL     1      -3.474   0.753   0.452  1.00  0.00    -0.013 C 
HETATM   15  C14 UNL     1      -3.325  -0.194   1.611  1.00  0.00     0.009 C 
HETATM   16  C18 UNL     1      -2.158   1.460   0.270  1.00  0.00     0.016 C 
HETATM   17  C15 UNL     1      -2.271  -1.199   1.244  1.00  0.00    -0.013 C 
HETATM   18  C17 UNL     1      -0.922  -0.581   0.955  1.00  0.00     0.016 C 
ENDBRANCH   8   9
BRANCH   7  19
HETATM   19  C3  UNL     1       2.450   0.116   0.252  1.00  0.00     0.093 C 
HETATM   20  C4  UNL     1       2.711  -1.332   0.086  1.00  0.00     0.051 C 
HETATM   21  C5  UNL     1       4.099  -1.772   0.436  1.00  0.00     0.169 C 
HETATM   22  O3  UNL     1       4.663  -0.839   1.330  1.00  0.00    -0.391 OA
HETATM   23  C6  UNL     1       4.949   0.282   0.573  1.00  0.00     0.169 C 
HETATM   24  C7  UNL     1       3.702   0.971   0.163  1.00  0.00     0.051 C 
ENDBRANCH   7  19
TORSDOF 2
