REMARK  4 active torsions:
REMARK  status: ('A' for Active; 'I' for Inactive)
REMARK    1  A    between atoms: C2_2  and  O1_3 
REMARK    2  A    between atoms: O1_3  and  C3_4 
REMARK       I    between atoms: C3_4  and  N1_6 
REMARK    3  A    between atoms: C6_9  and  C7_10 
REMARK       I    between atoms: C7_10  and  N2_12 
REMARK    4  A    between atoms: N2_12  and  C8_14 
ROOT
HETATM    1  C3  UNL     1       4.677   0.140  -0.470  1.00  0.00     0.362 C 
HETATM    2  O2  UNL     1       5.501  -0.374   0.328  1.00  0.00    -0.238 OA
HETATM    3  N1  UNL     1       3.387  -0.417  -0.649  1.00  0.00    -0.328 N 
HETATM    4  C4  UNL     1       2.430   0.166  -1.565  1.00  0.00     0.129 C 
HETATM    5  C5  UNL     1       1.119   0.390  -0.890  1.00  0.00     0.039 C 
HETATM    6  C6  UNL     1       0.620  -0.775  -0.072  1.00  0.00     0.047 C 
HETATM    7  C14 UNL     1       0.192  -1.913  -0.947  1.00  0.00     0.020 C 
HETATM    8  C15 UNL     1       0.175  -3.249  -0.306  1.00  0.00     0.001 C 
HETATM    9  C16 UNL     1       0.297  -3.271   1.177  1.00  0.00     0.001 C 
HETATM   10  C17 UNL     1       1.332  -2.365   1.750  1.00  0.00     0.007 C 
HETATM   11  C18 UNL     1       1.710  -1.220   0.849  1.00  0.00     0.021 C 
HETATM   12  C19 UNL     1       2.946  -1.596   0.067  1.00  0.00     0.134 C 
ENDROOT
BRANCH   6  13
HETATM   13  C7  UNL     1      -0.558  -0.267   0.690  1.00  0.00     0.227 C 
HETATM   14  O3  UNL     1      -0.533  -0.267   1.926  1.00  0.00    -0.273 OA
HETATM   15  N2  UNL     1      -1.720   0.222   0.044  1.00  0.00    -0.356 N 
ATOM     16  H2  UNL     1      -1.740   0.222  -0.976  1.00  0.00     0.162 HD
BRANCH  15  17
HETATM   17  C8  UNL     1      -2.873   0.719   0.745  1.00  0.00     0.087 C 
HETATM   18  C9  UNL     1      -3.195   2.152   0.371  1.00  0.00     0.055 C 
HETATM   19  C10 UNL     1      -4.656   2.478   0.576  1.00  0.00     0.274 C 
HETATM   20  N3  UNL     1      -5.530   1.689  -0.248  1.00  0.00     0.084 N 
HETATM   21  C11 UNL     1      -6.770   1.486   0.461  1.00  0.00     0.309 C 
HETATM   22  C12 UNL     1      -4.897   0.474  -0.660  1.00  0.00     0.274 C 
HETATM   23  C13 UNL     1      -4.104  -0.120   0.502  1.00  0.00     0.055 C 
ENDBRANCH  15  17
ENDBRANCH   6  13
BRANCH   1  24
HETATM   24  O1  UNL     1       5.066   1.266  -1.168  1.00  0.00    -0.304 OA
BRANCH  24  25
HETATM   25  C2  UNL     1       6.353   1.812  -0.982  1.00  0.00     0.176 C 
HETATM   26  C1  UNL     1       6.488   2.194   0.465  1.00  0.00     0.034 C 
ENDBRANCH  24  25
ENDBRANCH   1  24
TORSDOF 4
