REMARK  3 active torsions:
REMARK  status: ('A' for Active; 'I' for Inactive)
REMARK       I    between atoms: N2_7  and  C6_8 
REMARK       I    between atoms: C6_8  and  N3_10 
REMARK    1  A    between atoms: N3_10  and  C7_12 
REMARK    2  A    between atoms: C7_12  and  C8_13 
REMARK    3  A    between atoms: C11_16  and  C12_17 
REMARK       I    between atoms: C12_17  and  N4_19 
ROOT
HETATM    1  N1  UNL     1       2.568   2.147   2.473  1.00  0.00    -0.197 NA
HETATM    2  C1  UNL     1       3.571   1.800   2.006  1.00  0.00     0.065 C 
HETATM    3  C2  UNL     1       4.837   1.385   1.415  1.00  0.00     0.111 C 
HETATM    4  C3  UNL     1       5.057   1.995   0.054  1.00  0.00     0.022 C 
HETATM    5  C4  UNL     1       3.988   1.711  -0.929  1.00  0.00     0.021 C 
HETATM    6  C5  UNL     1       3.114   0.553  -0.664  1.00  0.00     0.127 C 
HETATM    7  N2  UNL     1       3.507  -0.307   0.406  1.00  0.00    -0.333 N 
HETATM    8  C6  UNL     1       2.676  -1.407   0.745  1.00  0.00     0.318 C 
HETATM    9  O1  UNL     1       2.984  -2.204   1.692  1.00  0.00    -0.247 OA
HETATM   10  N3  UNL     1       1.484  -1.613   0.009  1.00  0.00    -0.341 N 
ATOM     11  H3  UNL     1       1.226  -0.983  -0.750  1.00  0.00     0.164 HD
HETATM   12  C18 UNL     1       4.721  -0.128   1.183  1.00  0.00     0.146 C 
ENDROOT
BRANCH  10  13
HETATM   13  C7  UNL     1       0.645  -2.726   0.352  1.00  0.00     0.156 C 
BRANCH  13  14
HETATM   14  C8  UNL     1      -0.585  -2.822  -0.511  1.00  0.00     0.140 C 
HETATM   15  C9  UNL     1      -0.279  -2.793  -1.984  1.00  0.00     0.036 C 
HETATM   16  C10 UNL     1      -1.474  -2.033  -2.554  1.00  0.00     0.044 C 
HETATM   17  C11 UNL     1      -2.332  -1.842  -1.289  1.00  0.00     0.214 C 
HETATM   18  O3  UNL     1      -1.330  -1.647  -0.357  1.00  0.00    -0.370 OA
BRANCH  17  19
HETATM   19  C12 UNL     1      -3.260  -0.741  -1.491  1.00  0.00     0.248 C 
HETATM   20  O2  UNL     1      -4.182  -0.991  -2.363  1.00  0.00    -0.270 OA
HETATM   21  N4  UNL     1      -3.297   0.514  -0.892  1.00  0.00    -0.350 N 
HETATM   22  C13 UNL     1      -2.429   1.087   0.083  1.00  0.00     0.126 C 
HETATM   23  C17 UNL     1      -4.387   1.454  -1.272  1.00  0.00     0.126 C 
HETATM   24  C14 UNL     1      -3.125   1.316   1.413  1.00  0.00     0.020 C 
HETATM   25  C15 UNL     1      -4.351   2.155   1.121  1.00  0.00     0.003 C 
HETATM   26  C16 UNL     1      -5.198   1.614   0.014  1.00  0.00     0.020 C 
ENDBRANCH  17  19
ENDBRANCH  13  14
ENDBRANCH  10  13
TORSDOF 3
