REMARK  3 active torsions:
REMARK  status: ('A' for Active; 'I' for Inactive)
REMARK    1  A    between atoms: C1_2  and  C2_3 
REMARK       I    between atoms: C1_2  and  N4_17 
REMARK    2  A    between atoms: C2_3  and  C3_4 
REMARK    3  A    between atoms: C3_4  and  N1_5 
ROOT
HETATM    1  C2  UNL     1       0.817   0.023   0.209  1.00  0.00     0.133 C 
ENDROOT
BRANCH   1   2
HETATM    2  C1  UNL     1      -0.204  -1.011   0.493  1.00  0.00     0.221 C 
HETATM    3  O1  UNL     1       0.211  -2.082   1.056  1.00  0.00    -0.273 OA
HETATM    4  N4  UNL     1      -1.567  -0.839   0.167  1.00  0.00    -0.352 N 
HETATM    5  C10 UNL     1      -2.521  -1.862   0.459  1.00  0.00     0.126 C 
HETATM    6  C14 UNL     1      -2.007   0.369  -0.461  1.00  0.00     0.126 C 
HETATM    7  C11 UNL     1      -3.737  -1.349   1.195  1.00  0.00     0.030 C 
HETATM    8  C12 UNL     1      -4.244  -0.094   0.548  1.00  0.00    -0.033 C 
HETATM    9  C13 UNL     1      -3.149   0.900   0.416  1.00  0.00     0.030 C 
HETATM   10  C15 UNL     1      -4.847  -0.470  -0.819  1.00  0.00     0.014 C 
HETATM   11  C18 UNL     1      -5.439   0.485   1.201  1.00  0.00    -0.005 C 
HETATM   12  C16 UNL     1      -6.274  -0.058  -0.556  1.00  0.00    -0.013 C 
HETATM   13  C17 UNL     1      -6.582  -0.487   0.874  1.00  0.00     0.010 C 
HETATM   14  C19 UNL     1      -6.060   1.326   0.075  1.00  0.00     0.010 C 
ENDBRANCH   1   2
BRANCH   1  15
HETATM   15  C3  UNL     1       2.152  -0.477   0.696  1.00  0.00     0.281 C 
BRANCH  15  16
HETATM   16  N1  UNL     1       3.238   0.453   0.474  1.00  0.00     0.089 N 
HETATM   17  C4  UNL     1       4.436  -0.180   1.001  1.00  0.00     0.277 C 
HETATM   18  C5  UNL     1       5.271  -0.782  -0.110  1.00  0.00     0.094 C 
HETATM   19  C6  UNL     1       5.808   0.376  -0.931  1.00  0.00     0.165 C 
HETATM   20  C7  UNL     1       4.670   1.262  -1.358  1.00  0.00     0.094 C 
HETATM   21  N2  UNL     1       6.601  -0.062  -2.035  1.00  0.00    -0.351 N 
HETATM   22  O2  UNL     1       6.659   1.123  -0.134  1.00  0.00    -0.246 OA
HETATM   23  C8  UNL     1       3.342   0.673  -0.956  1.00  0.00     0.277 C 
HETATM   24  C9  UNL     1       7.838   0.017  -1.687  1.00  0.00     0.202 C 
ATOM     25  H2  UNL     1       6.250  -0.381  -2.938  1.00  0.00     0.163 HD
HETATM   26  N3  UNL     1       7.837   0.512  -0.343  1.00  0.00    -0.260 N 
ATOM     27  H3  UNL     1       8.594   0.418   0.334  1.00  0.00     0.195 HD
ENDBRANCH  15  16
ENDBRANCH   1  15
TORSDOF 3
