REMARK  3 active torsions:
REMARK  status: ('A' for Active; 'I' for Inactive)
REMARK    1  A    between atoms: C2_2  and  N1_4 
REMARK    2  A    between atoms: C7_11  and  C8_12 
REMARK    3  A    between atoms: C17_23  and  C18_24 
ROOT
HETATM    1  N1  UNL     1      -2.033   1.027   0.714  1.00  0.00    -0.371 N 
ATOM      2  H1  UNL     1      -2.779   0.356   0.895  1.00  0.00     0.161 HD
HETATM    3  C4  UNL     1      -0.895   0.545   0.454  1.00  0.00     0.143 C 
HETATM    4  N2  UNL     1       0.286   1.263   0.172  1.00  0.00    -0.332 N 
HETATM    5  C5  UNL     1       1.036   2.506   0.191  1.00  0.00     0.205 C 
HETATM    6  C6  UNL     1       2.355   2.016   0.736  1.00  0.00     0.153 C 
HETATM    7  O1  UNL     1       3.136   2.566   1.465  1.00  0.00    -0.296 OA
HETATM    8  C7  UNL     1       2.512   0.641   0.164  1.00  0.00     0.109 C 
HETATM    9  C11 UNL     1       1.188   0.285  -0.427  1.00  0.00     0.240 C 
HETATM   10  O2  UNL     1       0.736  -0.952  -0.079  1.00  0.00    -0.322 OA
HETATM   11  C12 UNL     1      -0.543  -0.889   0.388  1.00  0.00     0.240 C 
HETATM   12  O3  UNL     1      -0.698  -1.474   1.637  1.00  0.00    -0.342 OA
HETATM   13  C13 UNL     1      -0.940  -2.809   1.467  1.00  0.00     0.130 C 
HETATM   14  C14 UNL     1      -2.335  -3.270   1.845  1.00  0.00     0.033 C 
HETATM   15  C15 UNL     1      -2.509  -3.794   0.434  1.00  0.00     0.011 C 
HETATM   16  C16 UNL     1      -1.265  -3.071   0.037  1.00  0.00     0.035 C 
HETATM   17  C17 UNL     1      -1.492  -1.664  -0.505  1.00  0.00     0.164 C 
ENDROOT
BRANCH  17  18
HETATM   18  C18 UNL     1      -1.082  -1.643  -1.922  1.00  0.00     0.183 C 
HETATM   19  O4  UNL     1      -1.817  -1.167  -2.830  1.00  0.00    -0.648 OA
HETATM   20  O5  UNL     1       0.145  -2.156  -2.301  1.00  0.00    -0.648 OA
ENDBRANCH  17  18
BRANCH   1  21
HETATM   21  C2  UNL     1      -2.390   2.404   0.783  1.00  0.00     0.074 C 
HETATM   22  C1  UNL     1      -2.568   3.045  -0.576  1.00  0.00     0.031 C 
HETATM   23  C3  UNL     1      -3.761   2.480   1.468  1.00  0.00     0.031 C 
ENDBRANCH   1  21
BRANCH   8  24
HETATM   24  C8  UNL     1       3.619   0.714  -0.858  1.00  0.00    -0.007 C 
HETATM   25  C9  UNL     1       4.884   1.166  -0.157  1.00  0.00     0.010 C 
HETATM   26  C10 UNL     1       3.873  -0.584  -1.552  1.00  0.00     0.010 C 
ENDBRANCH   8  24
TORSDOF 3
